#------------------------------------------------------------------------------
#$Date: 2016-08-05 06:40:42 +0300 (Fri, 05 Aug 2016) $
#$Revision: 184977 $
#$URL: file:///home/coder/svn-repositories/cod/cif/1/54/33/1543357.cif $
#------------------------------------------------------------------------------
#
# This file is available in the Crystallography Open Database (COD),
# http://www.crystallography.net/
#
# All data on this site have been placed in the public domain by the
# contributors.
#
data_1543357
loop_
_publ_author_name
'Yamamoto, Kosuke'
'Bruun, Theodora'
'Kim, Jung Yun'
'Zhang, Lei'
'Lautens, Mark'
_publ_section_title
;
 A New Multicomponent Multicatalyst Reaction (MC)(2)R: Chemoselective
 Cycloaddition and Latent Catalyst Activation for the Synthesis of Fully
 Substituted 1,2,3-Triazoles.
;
_journal_issue                   11
_journal_name_full               'Organic letters'
_journal_page_first              2644
_journal_page_last               2647
_journal_paper_doi               10.1021/acs.orglett.6b00975
_journal_volume                  18
_journal_year                    2016
_chemical_formula_moiety         'C18 H14 I N3 S'
_chemical_formula_sum            'C18 H14 I N3 S'
_chemical_formula_weight         431.28
_space_group_crystal_system      triclinic
_space_group_IT_number           2
_space_group_name_Hall           '-P 1'
_space_group_name_H-M_alt        'P -1'
_symmetry_space_group_name_Hall  '-P 1'
_symmetry_space_group_name_H-M   'P -1'
_atom_sites_solution_hydrogens   geom
_audit_creation_method           SHELXL-2014/7
_cell_angle_alpha                91.647(2)
_cell_angle_beta                 96.901(2)
_cell_angle_gamma                93.582(2)
_cell_formula_units_Z            2
_cell_length_a                   8.0454(5)
_cell_length_b                   9.1035(5)
_cell_length_c                   11.6624(8)
_cell_measurement_reflns_used    9874
_cell_measurement_temperature    147(2)
_cell_measurement_theta_max      27.55
_cell_measurement_theta_min      2.24
_cell_volume                     845.76(9)
_computing_cell_refinement       APEX2
_computing_data_collection       'APEX2 (Bruker, 2014)'
_computing_data_reduction        'SAINT (Bruker, 2014)'
_computing_molecular_graphics    'PLATON (Spek, 2009)'
_computing_publication_material  'SHELXTL (Sheldrick, 2008)'
_computing_structure_refinement  'SHELXL-2014/7 (Sheldrick, 2015)'
_computing_structure_solution    'SHELXT (Sheldrick, 2008)'
_diffrn_ambient_temperature      147(2)
_diffrn_measured_fraction_theta_full 1.000
_diffrn_measured_fraction_theta_max 0.995
_diffrn_measurement_device_type  'Bruker Kappa APEX-DUO CCD'
_diffrn_measurement_method       '\f and \w scans'
_diffrn_radiation_type           MoK\a
_diffrn_radiation_wavelength     0.71073
_diffrn_reflns_av_R_equivalents  0.0281
_diffrn_reflns_av_unetI/netI     0.0192
_diffrn_reflns_Laue_measured_fraction_full 1.000
_diffrn_reflns_Laue_measured_fraction_max 0.995
_diffrn_reflns_limit_h_max       10
_diffrn_reflns_limit_h_min       -10
_diffrn_reflns_limit_k_max       11
_diffrn_reflns_limit_k_min       -11
_diffrn_reflns_limit_l_max       15
_diffrn_reflns_limit_l_min       -15
_diffrn_reflns_number            27541
_diffrn_reflns_point_group_measured_fraction_full 1.000
_diffrn_reflns_point_group_measured_fraction_max 0.995
_diffrn_reflns_theta_full        25.242
_diffrn_reflns_theta_max         27.571
_diffrn_reflns_theta_min         1.760
_diffrn_source
'sealed tube with Bruker Triumph monochromator'
_exptl_absorpt_coefficient_mu    2.019
_exptl_absorpt_correction_T_max  0.7456
_exptl_absorpt_correction_T_min  0.6828
_exptl_absorpt_correction_type   multi-scan
_exptl_absorpt_process_details   'SADABS (Sheldrick, 1996)'
_exptl_crystal_colour            yellow
_exptl_crystal_density_diffrn    1.694
_exptl_crystal_description       needle
_exptl_crystal_F_000             424
_exptl_crystal_size_max          0.100
_exptl_crystal_size_mid          0.040
_exptl_crystal_size_min          0.020
_refine_diff_density_max         0.368
_refine_diff_density_min         -0.274
_refine_diff_density_rms         0.061
_refine_ls_extinction_method     none
_refine_ls_goodness_of_fit_ref   1.025
_refine_ls_hydrogen_treatment    constr
_refine_ls_matrix_type           full
_refine_ls_number_parameters     208
_refine_ls_number_reflns         3912
_refine_ls_number_restraints     0
_refine_ls_restrained_S_all      1.025
_refine_ls_R_factor_all          0.0195
_refine_ls_R_factor_gt           0.0153
_refine_ls_shift/su_max          0.001
_refine_ls_shift/su_mean         0.000
_refine_ls_structure_factor_coef Fsqd
_refine_ls_weighting_details
'w=1/[\s^2^(Fo^2^)+(0.0143P)^2^+0.3721P] where P=(Fo^2^+2Fc^2^)/3'
_refine_ls_weighting_scheme      calc
_refine_ls_wR_factor_gt          0.0324
_refine_ls_wR_factor_ref         0.0335
_reflns_Friedel_coverage         0.000
_reflns_number_gt                3580
_reflns_number_total             3912
_reflns_threshold_expression     'I > 2\s(I)'
_cod_data_source_file            ol6b00975_si_002.cif
_cod_data_source_block           d15128
_cod_depositor_comments          'Adding full bibliography for 1543357.cif.'
_cod_database_code               1543357
_shelx_shelxl_version_number     2014/7
_shelx_space_group_comment
; 
The symmetry employed for this shelxl refinement is uniquely defined 
by the following loop, which should always be used as a source of 
symmetry information in preference to the above space-group names. 
They are only intended as comments. 
;
_shelx_estimated_absorpt_t_min   0.824
_shelx_estimated_absorpt_t_max   0.961
_shelx_res_file
; 
  
    d15128.res created by SHELXL-2014/7 
  
  
TITL mo_d15128_0m_a.res in P-1 
REM Old TITL mo_d15128_0m in P-1 
  
REM SHELXT solution in P-1 
REM R1 0.052,  Rweak 0.008,  Alpha 0.061,  Orientation as input 
REM Formula found by SHELXT:  C18 N3 S I 
  
CELL  0.71073   8.0454   9.1035  11.6624   91.647   96.901   93.582 
ZERR    2.000   0.0005   0.0005   0.0008    0.002    0.002    0.002 
LATT  1 
SFAC C H N S I 
UNIT 36 28 6 2 2 
TEMP -126.140 
SIZE 0.02 0.04 0.10 
ACTA 
L.S. 4 
BOND $H 
HTAB 
CONF 
FMAP 2 
PLAN 20 
WGHT    0.014300    0.372100 
FVAR       0.18848 
I1    5    0.568217    0.634908    0.862950    11.00000    0.01002    0.01498 = 
         0.01925    0.00030    0.00309    0.00055 
S1    4    0.118868    0.944438    0.832750    11.00000    0.01596    0.01262 = 
         0.02827    0.00190    0.00517    0.00324 
N1    3    0.137329    0.474873    0.830785    11.00000    0.01237    0.01117 = 
         0.01426    0.00065    0.00288   -0.00129 
N2    3   -0.022817    0.438151    0.847802    11.00000    0.01247    0.01699 = 
         0.01616    0.00181    0.00210   -0.00208 
N3    3   -0.086288    0.558158    0.885136    11.00000    0.01201    0.01763 = 
         0.01674    0.00168    0.00169   -0.00075 
C1    1    0.325218    0.714658    0.841646    11.00000    0.00963    0.01493 = 
         0.01558   -0.00135    0.00230    0.00095 
C2    1    0.177332    0.620496    0.856490    11.00000    0.01244    0.01185 = 
         0.01308    0.00089    0.00099   -0.00049 
C3    1    0.032741    0.670375    0.891408    11.00000    0.01240    0.01535 = 
         0.01273    0.00170    0.00156    0.00049 
C4    1    0.015544    0.825647    0.929307    11.00000    0.01458    0.01565 = 
         0.02354   -0.00151    0.00653    0.00186 
AFIX  23 
H4A   2    0.068614    0.843942    1.009946    11.00000   -1.20000 
H4B   2   -0.104504    0.845605    0.925629    11.00000   -1.20000 
AFIX   0 
C5    1    0.310009    0.859993    0.825473    11.00000    0.01254    0.01500 = 
         0.01523   -0.00239    0.00139    0.00068 
C6    1    0.443563    0.965052    0.792761    11.00000    0.01390    0.01346 = 
         0.02107    0.00274    0.00211    0.00047 
C7    1    0.510812    0.941492    0.689665    11.00000    0.03057    0.01974 = 
         0.02410   -0.00183    0.00767   -0.00603 
AFIX  43 
H7A   2    0.472201    0.857623    0.641180    11.00000   -1.20000 
AFIX   0 
C8    1    0.634070    1.040135    0.657500    11.00000    0.03738    0.03146 = 
         0.03283    0.00255    0.01891   -0.00666 
AFIX  43 
H8A   2    0.678995    1.024086    0.586832    11.00000   -1.20000 
AFIX   0 
C9    1    0.691758    1.162383    0.728684    11.00000    0.02429    0.02240 = 
         0.04341    0.00713    0.00954   -0.00757 
AFIX  43 
H9A   2    0.776627    1.229441    0.706833    11.00000   -1.20000 
AFIX   0 
C10   1    0.626043    1.186449    0.830882    11.00000    0.01983    0.01454 = 
         0.03446    0.00089   -0.00204   -0.00209 
AFIX  43 
H10A  2    0.666432    1.269565    0.879716    11.00000   -1.20000 
AFIX   0 
C11   1    0.500693    1.089265    0.862654    11.00000    0.01833    0.01379 = 
         0.02326    0.00050    0.00106    0.00249 
AFIX  43 
H11A  2    0.453775    1.107540    0.932242    11.00000   -1.20000 
AFIX   0 
C12   1    0.229919    0.358968    0.781438    11.00000    0.01658    0.01079 = 
         0.01931    0.00017    0.00208    0.00165 
AFIX  23 
H12A  2    0.195273    0.262982    0.812050    11.00000   -1.20000 
H12B  2    0.351433    0.379201    0.806310    11.00000   -1.20000 
AFIX   0 
C13   1    0.200119    0.348970    0.651384    11.00000    0.01924    0.01621 = 
         0.01852   -0.00129    0.00467    0.00459 
C14   1    0.269701    0.454514    0.585031    11.00000    0.05579    0.03232 = 
         0.02487   -0.00053    0.00672   -0.01753 
AFIX  43 
H14A  2    0.337772    0.535423    0.621947    11.00000   -1.20000 
AFIX   0 
C15   1    0.241406    0.443709    0.465663    11.00000    0.07197    0.04682 = 
         0.02440    0.00848    0.01287   -0.01266 
AFIX  43 
H15A  2    0.289412    0.517284    0.421197    11.00000   -1.20000 
AFIX   0 
C16   1    0.144047    0.326822    0.411306    11.00000    0.05081    0.05153 = 
         0.01685   -0.00163    0.00248    0.00582 
AFIX  43 
H16A  2    0.125682    0.318944    0.329297    11.00000   -1.20000 
AFIX   0 
C17   1    0.073082    0.221058    0.475832    11.00000    0.04914    0.04161 = 
         0.02549   -0.01014   -0.00057   -0.00727 
AFIX  43 
H17A  2    0.004610    0.140697    0.438428    11.00000   -1.20000 
AFIX   0 
C18   1    0.101699    0.232020    0.595442    11.00000    0.03431    0.02604 = 
         0.02126   -0.00218    0.00272   -0.00501 
AFIX  43 
H18A  2    0.053177    0.158369    0.639592    11.00000   -1.20000 
  
AFIX   0 
HKLF 4 
  
REM  mo_d15128_0m_a.res in P-1 
REM R1 =  0.0153 for    3580 Fo > 4sig(Fo)  and  0.0195 for all    3912 data 
REM    208 parameters refined using      0 restraints 
  
END 
  
WGHT      0.0143      0.3751 
  
REM Instructions for potential hydrogen bonds 
EQIV $1 x-1, y, z 
HTAB C4 I1_$1 
EQIV $2 x, y-1, z 
HTAB C12 S1_$2 
HTAB C12 I1 
  
REM Highest difference peak  0.368,  deepest hole -0.274,  1-sigma level  0.061 
Q1    1   0.0774  0.3033  0.4573  11.00000  0.05    0.37 
Q2    1   0.0917  0.6597  0.8487  11.00000  0.05    0.37 
Q3    1   0.2046  0.3665  0.7129  11.00000  0.05    0.36 
Q4    1   0.0255  0.7313  0.9111  11.00000  0.05    0.36 
Q5    1   0.2479  0.6634  0.8573  11.00000  0.05    0.35 
Q6    1   0.4658  1.0479  0.8069  11.00000  0.05    0.34 
Q7    1   0.2344  0.8991  0.8338  11.00000  0.05    0.31 
Q8    1   0.1882  0.4229  0.8005  11.00000  0.05    0.29 
Q9    1   0.4959  0.9602  0.7466  11.00000  0.05    0.29 
Q10   1   0.3830  0.9066  0.8182  11.00000  0.05    0.28 
Q11   1   0.6379  1.1174  0.6808  11.00000  0.05    0.28 
Q12   1   0.3115  0.7785  0.8037  11.00000  0.05    0.28 
Q13   1   0.6138  1.1824  0.7586  11.00000  0.05    0.27 
Q14   1   0.5921  0.6046  0.7931  11.00000  0.05    0.26 
Q15   1   0.5526  1.0074  0.6589  11.00000  0.05    0.26 
Q16   1   0.7158  0.8993  0.5978  11.00000  0.05    0.26 
Q17   1   0.1644  0.5573  0.8361  11.00000  0.05    0.26 
Q18   1  -0.0275  0.6447  0.8571  11.00000  0.05    0.26 
Q19   1   0.5550  1.1434  0.8384  11.00000  0.05    0.25 
Q20   1   0.1967  0.4124  0.6271  11.00000  0.05    0.25 
;
_shelx_res_checksum              73860
_shelx_hkl_file
; 
  -1   0   0   56.58    1.29 
  -1   0   0   58.00    1.30 
  -1   0   0   56.56    1.30 
  -1   0   0   56.15    1.37 
  -1   0   0   59.75    1.42 
  -1   0   0   58.41    1.33 
   1   0   0   57.47    1.30 
   1   0   0   58.92    1.30 
   1   0   0   55.89    1.28 
   1   0   0   58.48    1.29 
   1   0   0   58.41    1.56 
   1   0   0   60.51    1.33 
   1   0   0   58.25    1.41 
   1   0   0   57.82    1.39 
  -2   0   0  163.36    3.47 
  -2   0   0  163.74    3.65 
  -2   0   0  146.68    3.45 
  -2   0   0  163.30    3.52 
  -2   0   0  164.09    3.68 
  -2   0   0  161.65    3.47 
  -2   0   0  161.69    3.47 
   2   0   0  163.12    3.51 
   2   0   0  161.33    3.40 
   2   0   0  171.85    3.68 
   2   0   0  165.57    3.70 
   2   0   0  161.61    3.48 
   2   0   0  164.85    3.46 
   2   0   0  162.58    3.52 
   2   0   0  158.61    3.96 
   2   0   0  156.70    3.45 
  -3   0   0   30.66    1.12 
  -3   0   0   30.67    1.11 
  -3   0   0   30.92    1.13 
  -3   0   0   31.14    1.44 
  -3   0   0   32.67    1.22 
   3   0   0   32.32    1.15 
   3   0   0   33.86    1.32 
   3   0   0   34.29    1.28 
   3   0   0   29.28    1.04 
   3   0   0   31.54    1.75 
   3   0   0   31.78    1.19 
   3   0   0   31.86    1.21 
   3   0   0   32.75    1.00 
   3   0   0   29.58    1.15 
  -4   0   0   16.97    0.99 
  -4   0   0   16.41    0.96 
  -4   0   0   16.04    0.94 
  -4   0   0   17.22    0.59 
  -4   0   0   15.09    1.02 
  -4   0   0   16.77    1.07 
  -4   0   0   18.34    1.10 
  -4   0   0   16.65    1.16 
   4   0   0   15.86    0.83 
   4   0   0   17.36    1.40 
   4   0   0   16.04    1.02 
   4   0   0   21.70    1.37 
   4   0   0   15.19    1.62 
   4   0   0   17.90    1.10 
   4   0   0   15.77    1.03 
   4   0   0   17.66    1.02 
  -5   0   0    6.06    0.81 
  -5   0   0    6.77    0.69 
  -5   0   0    6.45    0.42 
  -5   0   0    5.95    1.01 
  -5   0   0    6.57    0.86 
   5   0   0    7.52    1.09 
   5   0   0    6.37    0.84 
   5   0   0    5.87    0.81 
   5   0   0    7.30    0.86 
   5   0   0    7.25    0.82 
   5   0   0    7.00    1.27 
  -6   0   0   51.34    1.85 
  -6   0   0   52.58    1.86 
  -6   0   0   53.24    1.22 
  -6   0   0   53.21    2.00 
   6   0   0   54.99    1.94 
   6   0   0   53.62    2.47 
   6   0   0   53.33    2.91 
   6   0   0   53.52    2.03 
   6   0   0   50.81    1.93 
  -7   0   0   89.99    3.12 
  -7   0   0  101.65    3.07 
  -7   0   0  101.89    2.90 
   7   0   0   97.84    3.58 
   7   0   0  101.31    4.25 
   7   0   0   97.09    2.98 
   7   0   0   99.78    3.10 
  -8   0   0   39.49    2.02 
  -8   0   0   34.27    1.83 
  -8   0   0   36.32    2.34 
   8   0   0   35.51    1.93 
   8   0   0   42.66    3.21 
   8   0   0   37.39    2.05 
   8   0   0   36.38    2.26 
  -9   0   0   60.92    3.00 
  -9   0   0   62.24    2.56 
   9   0   0   60.53    3.30 
   9   0   0   58.81    3.96 
   9   0   0   51.35    2.45 
   9   0   0   61.98    2.69 
 -10   0   0    1.05    1.51 
 -10   0   0    2.24    1.10 
  10   0   0    0.33    1.76 
  10   0   0    1.61    1.23 
  10   0   0    1.30    1.70 
  10   0   0    1.73    1.24 
  10  -1   0   31.61    2.99 
  10  -1   0   35.55    2.32 
  10  -1   0   37.84    2.31 
  10  -1   0   37.41    3.81 
 -10   1   0   34.87    2.63 
 -10   1   0   37.61    2.24 
   9  -1   0   50.34    2.27 
   9  -1   0   49.51    3.08 
   9  -1   0   46.31    3.73 
   9  -1   0   44.88    2.30 
  -9   1   0   45.09    2.66 
  -9   1   0   47.65    2.26 
   8  -1   0   57.73    3.72 
   8  -1   0   58.01    2.28 
   8  -1   0   56.20    2.99 
   8  -1   0   58.14    2.36 
  -8   1   0   56.24    2.67 
  -8   1   0   54.11    2.10 
  -8   1   0   58.36    2.29 
   7  -1   0   50.74    2.02 
   7  -1   0   54.90    3.37 
   7  -1   0   54.03    2.65 
   7  -1   0   58.17    2.16 
  -7   1   0   53.40    2.07 
  -7   1   0   51.49    2.08 
  -7   1   0   54.87    1.30 
  -7   1   0   51.04    2.20 
   6  -1   0    4.97    1.14 
   6  -1   0    5.84    1.43 
   6  -1   0    5.93    0.84 
   6  -1   0    5.85    0.89 
   6  -1   0    5.64    0.80 
   6  -1   0    5.46    0.84 
  -6   1   0    5.74    0.44 
  -6   1   0    5.66    0.87 
  -6   1   0    4.32    0.73 
  -6   1   0    7.08    1.14 
  -6   1   0    6.05    0.93 
   5  -1   0    1.11    0.69 
   5  -1   0   -0.08    0.98 
   5  -1   0    0.27    0.56 
   5  -1   0    1.31    0.86 
   5  -1   0   -0.38    0.53 
   5  -1   0    0.58    0.58 
  -5   1   0    0.98    0.33 
  -5   1   0    1.07    0.65 
  -5   1   0    0.28    0.82 
  -5   1   0    1.23    0.58 
  -5   1   0    0.00    0.58 
   4  -1   0  241.74    5.12 
   4  -1   0  236.34    5.47 
   4  -1   0  233.00    5.13 
   4  -1   0  228.49    5.13 
   4  -1   0  236.64    5.44 
   4  -1   0  231.19    5.03 
   4  -1   0  235.77    5.09 
   4  -1   0  232.39    6.13 
   4  -1   0  236.40    5.13 
  -4   1   0  235.97    5.14 
  -4   1   0  230.20    4.82 
  -4   1   0  234.72    5.14 
  -4   1   0  231.16    5.33 
  -4   1   0  238.66    5.07 
  -4   1   0  230.26    5.09 
  -4   1   0  231.47    5.41 
  -4   1   0  231.16    5.04 
   3  -1   0  161.76    3.51 
   3  -1   0  164.84    3.50 
   3  -1   0  154.13    3.47 
   3  -1   0  160.73    3.79 
   3  -1   0  154.21    3.76 
   3  -1   0  153.43    3.50 
   3  -1   0  157.08    4.31 
  -3   1   0  161.61    3.47 
  -3   1   0  156.28    3.51 
  -3   1   0  161.18    3.71 
  -3   1   0  156.39    3.50 
  -3   1   0  160.79    3.45 
  -3   1   0  156.71    3.32 
   2  -1   0    1.97    0.60 
   2  -1   0    1.74    0.49 
   2  -1   0    2.74    0.64 
   2  -1   0    1.11    0.43 
   2  -1   0    1.34    0.36 
   2  -1   0    1.64    0.42 
   2  -1   0    1.41    0.41 
   2  -1   0    1.23    0.39 
   2  -1   0    1.59    0.83 
   2  -1   0    2.94    0.55 
  -2   1   0    1.04    0.52 
  -2   1   0    1.74    0.38 
  -2   1   0    1.81    0.44 
  -2   1   0    1.17    0.41 
  -2   1   0    1.26    0.47 
  -2   1   0    1.71    0.39 
  -2   1   0    1.24    0.36 
   1  -1   0   28.26    0.68 
   1  -1   0   29.35    0.70 
   1  -1   0   28.07    0.69 
   1  -1   0   29.05    0.84 
   1  -1   0   28.97    0.76 
   1  -1   0   27.60    0.88 
   1  -1   0   29.14    0.69 
   1  -1   0   28.69    0.78 
   1  -1   0   29.38    1.21 
  -1   1   0   28.61    0.78 
  -1   1   0   28.80    0.93 
  -1   1   0   28.02    0.70 
  -1   1   0   29.63    0.67 
  -1   1   0   28.30    0.87 
  -1   1   0   27.69    0.79 
  -1   1   0   28.65    0.66 
  -1   1   0   28.00    0.94 
  -1   1   0   29.80    0.70 
   0  -1   0  131.11    2.82 
   0  -1   0  139.58    2.76 
   0  -1   0  137.73    2.79 
   0  -1   0  142.65    2.78 
   0  -1   0  135.61    2.78 
   0  -1   0  136.91    2.79 
   0  -1   0  137.56    2.89 
   0   1   0  140.18    2.84 
   0   1   0  137.65    2.89 
   0   1   0  135.66    2.76 
   0   1   0  141.53    2.85 
   0   1   0  135.34    2.79 
   0   1   0  139.21    2.78 
   0   1   0  133.03    2.82 
   0   1   0  140.01    2.79 
  -1  -1   0   13.81    0.68 
  -1  -1   0   14.91    0.73 
  -1  -1   0   15.02    0.69 
  -1  -1   0   14.83    0.71 
  -1  -1   0   15.81    0.82 
  -1  -1   0   13.93    0.70 
  -1  -1   0   14.12    0.51 
  -1  -1   0   15.60    0.86 
   1   1   0   14.93    0.69 
   1   1   0   16.87    0.84 
   1   1   0   13.60    0.69 
   1   1   0   15.84    0.73 
   1   1   0   14.36    0.70 
   1   1   0   13.24    0.64 
  -2  -1   0    2.59    0.70 
  -2  -1   0    2.53    0.55 
  -2  -1   0    1.52    0.59 
  -2  -1   0    1.60    0.57 
  -2  -1   0    2.07    0.57 
  -2  -1   0    1.72    0.60 
   2   1   0    1.36    0.55 
   2   1   0    1.83    0.44 
   2   1   0    0.99    0.59 
   2   1   0    1.71    0.61 
   2   1   0    2.26    0.56 
   2   1   0    2.48    0.64 
   2   1   0    2.04    0.47 
  -3  -1   0   68.90    1.98 
  -3  -1   0   68.82    1.79 
  -3  -1   0   71.38    1.95 
  -3  -1   0   70.25    1.85 
  -3  -1   0   71.29    2.19 
  -3  -1   0   68.42    1.90 
   3   1   0   71.24    2.21 
   3   1   0   69.71    1.92 
   3   1   0   64.35    1.90 
   3   1   0   71.78    2.10 
   3   1   0   69.11    2.33 
   3   1   0   70.08    1.67 
   3   1   0   68.96    1.96 
   3   1   0   68.42    1.98 
  -4  -1   0  142.73    3.74 
  -4  -1   0  136.27    3.43 
  -4  -1   0  138.97    3.28 
  -4  -1   0  143.37    3.40 
  -4  -1   0  137.84    3.40 
   4   1   0  143.28    3.78 
   4   1   0  134.68    3.42 
   4   1   0  141.16    3.66 
   4   1   0  149.17    3.44 
   4   1   0  139.74    4.05 
   4   1   0  145.39    3.45 
   4   1   0  145.07    3.49 
  -5  -1   0  325.95    7.09 
  -5  -1   0  322.22    7.45 
  -5  -1   0  311.53    7.16 
  -5  -1   0  324.33    6.94 
   5   1   0  329.08    8.01 
   5   1   0  317.93    7.09 
   5   1   0  322.96    6.78 
   5   1   0  317.16    7.10 
   5   1   0  318.64    7.14 
   5   1   0  329.76    7.46 
  -6  -1   0  118.29    3.13 
  -6  -1   0  119.47    2.52 
  -6  -1   0  119.37    3.40 
  -6  -1   0  123.43    3.29 
  -6  -1   0  119.83    3.75 
  -6  -1   0  121.02    2.53 
   6   1   0  121.75    4.35 
   6   1   0  125.18    3.83 
   6   1   0  120.92    3.34 
   6   1   0  123.13    3.43 
   6   1   0  118.18    3.29 
  -7  -1   0   23.50    1.51 
  -7  -1   0   21.85    2.01 
  -7  -1   0   20.49    1.43 
  -7  -1   0   20.38    1.62 
   7   1   0   25.33    2.44 
   7   1   0   23.12    1.69 
   7   1   0   21.94    2.13 
   7   1   0   22.04    1.60 
  -8  -1   0   44.56    2.06 
  -8  -1   0   44.48    2.21 
   8   1   0   41.77    2.74 
   8   1   0   49.13    2.23 
   8   1   0   42.81    2.25 
   8   1   0   47.51    3.27 
  -9  -1   0    5.12    1.30 
  -9  -1   0    3.42    1.27 
  -9  -1   0    3.40    1.06 
   9   1   0    4.57    1.72 
   9   1   0    2.58    1.16 
   9   1   0    1.69    1.59 
   9   1   0    1.99    1.21 
 -10  -1   0    0.68    1.17 
 -10  -1   0   -2.78    1.49 
  10   1   0    0.02    1.31 
  10   1   0    1.85    1.29 
  10   1   0   -1.51    1.59 
  10   1   0   -0.03    1.17 
  10  -2   0   45.79    2.31 
  10  -2   0   42.44    3.19 
  10  -2   0   45.39    4.18 
  10  -2   0   53.12    2.47 
 -10   2   0   45.68    2.79 
 -10   2   0   47.42    2.45 
   9  -2   0   24.20    2.29 
   9  -2   0   28.40    3.39 
   9  -2   0   27.44    1.76 
   9  -2   0   25.43    1.82 
  -9   2   0   25.32    2.25 
  -9   2   0   24.20    1.90 
   8  -2   0    7.16    1.05 
   8  -2   0    5.96    1.82 
   8  -2   0    7.90    1.19 
   8  -2   0    6.76    1.48 
  -8   2   0    6.33    1.16 
  -8   2   0    3.21    1.28 
   7  -2   0    1.72    1.46 
   7  -2   0    1.73    0.82 
   7  -2   0    1.60    1.15 
   7  -2   0    1.28    0.77 
   7  -2   0    3.28    0.97 
  -7   2   0    1.22    0.80 
  -7   2   0    2.28    0.45 
  -7   2   0    2.42    1.12 
  -7   2   0    1.07    0.89 
   6  -2   0   69.72    2.69 
   6  -2   0   66.18    2.07 
   6  -2   0   66.23    2.08 
   6  -2   0   66.36    2.05 
   6  -2   0   66.92    2.17 
   6  -2   0   68.30    3.47 
  -6   2   0   65.88    2.33 
  -6   2   0   68.23    1.72 
  -6   2   0   65.59    2.12 
  -6   2   0   64.17    2.22 
  -6   2   0   65.05    1.95 
   5  -2   0  131.56    3.29 
   5  -2   0  133.56    3.30 
   5  -2   0  134.26    4.58 
   5  -2   0  139.82    3.31 
   5  -2   0  138.73    3.29 
   5  -2   0  139.26    3.77 
  -5   2   0  136.06    3.64 
  -5   2   0  138.32    3.28 
  -5   2   0  134.76    3.18 
  -5   2   0  139.78    3.43 
  -5   2   0  136.48    3.05 
   4  -2   0  145.45    3.23 
   4  -2   0  143.80    3.29 
   4  -2   0  148.36    3.31 
   4  -2   0  144.65    4.49 
   4  -2   0  137.54    3.30 
   4  -2   0  153.64    3.76 
   4  -2   0  143.30    3.72 
   4  -2   0  142.31    3.32 
  -4   2   0  143.53    3.22 
  -4   2   0  144.59    3.19 
  -4   2   0  144.52    3.47 
  -4   2   0  147.82    3.30 
  -4   2   0  145.74    3.59 
  -4   2   0  142.53    3.60 
  -4   2   0  146.37    3.30 
   3  -2   0  367.36    7.29 
   3  -2   0  346.19    7.29 
   3  -2   0  360.56    7.58 
   3  -2   0  360.71    7.31 
   3  -2   0  364.63    7.64 
   3  -2   0  351.73    8.31 
   3  -2   0  360.17    7.30 
   3  -2   0  357.03    7.30 
   3  -2   0  368.86    7.29 
  -3   2   0  352.78    7.59 
  -3   2   0  364.12    7.22 
  -3   2   0  355.39    7.23 
  -3   2   0  353.99    7.30 
  -3   2   0  357.44    7.29 
  -3   2   0  312.41    7.24 
  -3   2   0  357.81    7.46 
   2  -2   0  147.28    3.10 
   2  -2   0  148.99    3.26 
   2  -2   0  146.90    3.22 
   2  -2   0  145.84    3.11 
   2  -2   0  151.67    3.12 
   2  -2   0  147.83    3.26 
   2  -2   0  149.10    3.23 
   2  -2   0  149.10    3.94 
   2  -2   0  150.45    3.10 
   2  -2   0  151.94    3.41 
   2  -2   0  150.97    3.42 
  -2   2   0  150.38    3.39 
  -2   2   0  151.31    3.03 
  -2   2   0  146.28    3.04 
  -2   2   0  146.27    3.09 
  -2   2   0  146.26    3.38 
  -2   2   0  151.73    3.26 
  -2   2   0  152.77    3.10 
  -2   2   0  149.32    3.32 
   1  -2   0  335.82    7.24 
   1  -2   0  354.67    7.61 
   1  -2   0  353.54    7.34 
   1  -2   0  360.05    7.21 
   1  -2   0  357.44    7.26 
   1  -2   0  358.60    7.23 
   1  -2   0  350.12    7.19 
   1  -2   0  357.27    7.27 
   1  -2   0  358.35    7.20 
   1  -2   0  356.05    7.24 
   1  -2   0  363.78    7.24 
  -1   2   0  357.28    7.26 
  -1   2   0  359.08    7.16 
  -1   2   0  360.18    7.24 
  -1   2   0  362.58    7.18 
  -1   2   0  346.39    7.34 
  -1   2   0  353.71    7.24 
  -1   2   0  347.91    7.22 
   0  -2   0   10.97    0.49 
   0  -2   0   11.03    0.59 
   0  -2   0   10.51    0.54 
   0  -2   0    9.65    0.72 
   0  -2   0   10.97    0.93 
   0  -2   0   11.89    0.71 
   0  -2   0   11.49    0.56 
   0  -2   0   11.01    0.56 
   0   2   0    8.30    0.41 
   0   2   0   11.10    0.56 
   0   2   0   11.64    0.53 
   0   2   0   10.94    0.50 
   0   2   0   11.38    0.79 
   0   2   0   11.96    0.78 
   0   2   0   12.20    0.71 
   0   2   0   10.99    0.55 
   0   2   0   10.31    0.86 
  -1  -2   0  353.68    7.13 
  -1  -2   0  351.39    7.10 
  -1  -2   0  355.44    7.30 
  -1  -2   0  341.40    7.15 
  -1  -2   0  350.27    7.17 
  -1  -2   0  336.97    7.13 
  -1  -2   0  356.47    7.24 
   1   2   0  347.04    7.16 
   1   2   0  340.59    7.15 
   1   2   0  332.14    7.35 
   1   2   0  364.69    7.16 
   1   2   0  343.23    7.10 
   1   2   0  358.76    7.13 
   1   2   0  347.94    7.12 
   1   2   0  348.95    7.25 
  -2  -2   0  120.27    2.88 
  -2  -2   0  120.88    2.84 
  -2  -2   0  121.12    2.65 
  -2  -2   0  122.60    2.99 
  -2  -2   0  123.77    2.86 
  -2  -2   0  122.08    2.99 
  -2  -2   0  118.48    2.85 
   2   2   0  123.99    2.80 
   2   2   0  125.39    3.01 
   2   2   0  120.35    2.88 
   2   2   0  124.52    2.92 
   2   2   0  116.28    2.79 
   2   2   0  121.24    3.03 
   2   2   0  123.76    2.86 
  -3  -2   0   76.99    2.14 
  -3  -2   0   76.02    2.12 
  -3  -2   0   80.73    2.46 
  -3  -2   0   78.12    2.35 
  -3  -2   0   78.40    2.09 
  -3  -2   0   73.62    2.06 
  -3  -2   0   79.98    1.84 
   3   2   0   82.67    2.23 
   3   2   0   81.16    2.35 
   3   2   0   78.70    2.44 
   3   2   0   79.16    1.76 
   3   2   0   79.55    2.42 
   3   2   0   83.48    2.18 
   3   2   0   78.87    2.15 
   3   2   0   74.64    2.13 
  -4  -2   0  170.26    4.04 
  -4  -2   0  177.18    4.05 
  -4  -2   0  172.83    3.87 
  -4  -2   0  172.16    4.36 
  -4  -2   0  162.66    4.10 
  -4  -2   0  168.79    3.59 
   4   2   0  170.32    4.04 
   4   2   0  165.60    3.98 
   4   2   0  172.71    4.30 
   4   2   0  171.60    3.63 
   4   2   0  168.81    4.50 
   4   2   0  162.19    4.10 
  -5  -2   0   29.46    0.88 
  -5  -2   0   28.43    1.86 
  -5  -2   0   28.94    1.32 
  -5  -2   0   30.51    1.28 
  -5  -2   0   26.91    1.37 
   5   2   0   30.43    1.89 
   5   2   0   30.99    1.46 
   5   2   0   29.93    1.89 
   5   2   0   29.41    1.57 
   5   2   0   25.99    1.46 
   5   2   0   29.72    1.03 
  -6  -2   0   57.13    1.39 
  -6  -2   0   61.39    2.20 
  -6  -2   0   56.14    2.27 
  -6  -2   0   58.26    1.95 
  -6  -2   0   58.40    2.65 
   6   2   0   55.25    2.14 
   6   2   0   59.09    2.21 
   6   2   0   58.89    2.30 
   6   2   0   57.00    2.82 
   6   2   0   59.60    2.46 
  -7  -2   0    0.62    1.25 
  -7  -2   0   -0.55    0.74 
  -7  -2   0    1.03    0.89 
  -7  -2   0   -0.50    0.95 
   7   2   0    1.32    0.96 
   7   2   0    0.85    1.04 
   7   2   0    0.60    1.23 
   7   2   0    1.65    1.20 
  -8  -2   0   17.82    1.45 
  -8  -2   0   15.94    1.86 
  -8  -2   0   19.99    1.75 
   8   2   0   21.02    1.76 
   8   2   0   19.32    2.67 
   8   2   0   16.66    1.95 
   8   2   0   19.99    1.76 
  -9  -2   0   24.88    2.06 
  -9  -2   0   24.29    1.68 
   9   2   0   25.26    2.12 
   9   2   0   28.42    2.06 
   9   2   0   24.25    2.25 
   9   2   0   21.79    3.06 
 -10  -2   0   47.17    2.40 
  10   2   0   46.34    3.40 
  10   2   0   40.94    2.66 
  10   2   0   42.14    3.96 
  10   2   0   43.13    2.56 
  10  -3   0    0.17    1.05 
  10  -3   0   -2.23    1.78 
  10  -3   0   -0.86    0.91 
  10  -3   0   -0.11    1.49 
 -10   3   0    0.58    1.20 
 -10   3   0    2.20    1.43 
   9  -3   0    4.39    1.57 
   9  -3   0    4.79    1.15 
   9  -3   0    5.10    1.02 
   9  -3   0    4.74    2.07 
  -9   3   0    6.82    1.30 
  -9   3   0    4.85    1.25 
   8  -3   0   30.54    1.78 
   8  -3   0   34.57    3.32 
   8  -3   0   34.03    2.48 
   8  -3   0   33.13    1.66 
  -8   3   0   35.60    2.26 
  -8   3   0   33.19    1.95 
   7  -3   0   67.42    2.91 
   7  -3   0   67.99    3.60 
   7  -3   0   68.12    2.23 
   7  -3   0   66.79    2.20 
   7  -3   0   70.42    2.30 
  -7   3   0   61.75    2.39 
  -7   3   0   62.58    2.67 
  -7   3   0   65.71    1.84 
  -7   3   0   67.69    2.18 
   6  -3   0   71.46    2.17 
   6  -3   0   79.38    2.20 
   6  -3   0   72.51    2.13 
   6  -3   0   73.24    2.21 
   6  -3   0   75.99    3.71 
   6  -3   0   71.85    2.76 
   6  -3   0   73.96    2.00 
  -6   3   0   75.33    2.51 
  -6   3   0   72.38    2.42 
  -6   3   0   71.52    1.98 
  -6   3   0   72.66    1.98 
  -6   3   0   73.26    2.15 
   5  -3   0  184.69    4.16 
   5  -3   0  184.33    4.70 
   5  -3   0  183.87    5.69 
   5  -3   0  180.06    4.17 
   5  -3   0  186.47    4.14 
   5  -3   0  185.01    4.09 
   5  -3   0  189.96    4.16 
  -5   3   0  187.35    4.14 
  -5   3   0  189.46    4.37 
  -5   3   0  182.63    4.60 
  -5   3   0  188.71    4.11 
  -5   3   0  165.53    3.96 
   4  -3   0   97.11    2.79 
   4  -3   0   98.92    2.34 
   4  -3   0   95.36    2.32 
   4  -3   0   97.24    2.32 
   4  -3   0   95.56    3.59 
   4  -3   0   95.97    2.37 
   4  -3   0   95.54    2.30 
   4  -3   0  100.41    2.41 
  -4   3   0   97.14    2.78 
  -4   3   0   98.38    2.98 
  -4   3   0   97.43    2.41 
  -4   3   0   99.19    2.30 
  -4   3   0   99.46    2.29 
  -4   3   0   96.63    2.61 
   3  -3   0   39.76    1.26 
   3  -3   0   40.83    1.59 
   3  -3   0   40.50    1.54 
   3  -3   0   39.24    1.08 
   3  -3   0   39.58    1.07 
   3  -3   0   38.28    1.24 
   3  -3   0   39.75    2.16 
   3  -3   0   34.72    1.28 
   3  -3   0   37.25    1.05 
   3  -3   0   38.78    1.08 
   3  -3   0   39.03    1.34 
   3  -3   0   40.77    1.27 
  -3   3   0   37.70    1.32 
  -3   3   0   40.97    1.60 
  -3   3   0   39.48    0.85 
  -3   3   0   37.91    1.34 
  -3   3   0   40.23    1.01 
  -3   3   0   40.05    1.05 
   2  -3   0   13.21    0.48 
   2  -3   0   14.24    0.76 
   2  -3   0   12.78    0.45 
   2  -3   0   12.05    1.29 
   2  -3   0   13.51    0.78 
   2  -3   0   12.96    0.93 
   2  -3   0   14.04    0.49 
   2  -3   0   12.15    0.83 
   2  -3   0   11.76    0.79 
   2  -3   0   13.14    0.79 
   2  -3   0   12.12    0.76 
   2  -3   0   12.98    0.45 
  -2   3   0   13.14    0.77 
  -2   3   0   12.16    0.86 
  -2   3   0   13.32    0.82 
  -2   3   0   13.47    0.37 
  -2   3   0   11.55    1.05 
  -2   3   0   12.35    0.36 
   1  -3   0   99.16    2.38 
   1  -3   0   99.18    2.33 
   1  -3   0  101.68    2.33 
   1  -3   0   99.22    2.09 
   1  -3   0  100.16    2.36 
   1  -3   0   97.76    2.47 
   1  -3   0   98.83    2.09 
   1  -3   0   96.71    2.23 
   1  -3   0   98.75    2.07 
   1  -3   0   98.98    2.69 
  -1   3   0  100.42    2.33 
  -1   3   0   96.16    2.05 
  -1   3   0   98.19    2.39 
  -1   3   0  100.82    2.45 
  -1   3   0   99.23    2.40 
  -1   3   0  100.13    2.07 
   0  -3   0  175.12    3.83 
   0  -3   0  184.59    3.75 
   0  -3   0  179.32    3.66 
   0  -3   0  176.76    3.72 
   0  -3   0  177.02    3.88 
   0  -3   0  181.44    3.76 
   0  -3   0  177.59    4.03 
   0  -3   0  179.71    3.89 
   0  -3   0  176.50    3.72 
   0   3   0  179.04    3.86 
   0   3   0  175.90    3.84 
   0   3   0  177.46    3.73 
   0   3   0  174.12    3.90 
   0   3   0  170.18    3.67 
   0   3   0  174.25    3.72 
   0   3   0  175.57    4.01 
  -1  -3   0  253.37    5.34 
  -1  -3   0  257.63    5.35 
  -1  -3   0  261.44    5.38 
  -1  -3   0  252.86    5.63 
  -1  -3   0  263.00    5.39 
  -1  -3   0  249.58    5.34 
  -1  -3   0  254.95    5.48 
   1   3   0  245.52    5.30 
   1   3   0  256.64    5.43 
   1   3   0  248.03    5.32 
   1   3   0  253.46    5.36 
   1   3   0  241.60    5.35 
  -2  -3   0  299.56    6.53 
  -2  -3   0  300.84    6.73 
  -2  -3   0  288.90    6.45 
  -2  -3   0  304.58    6.33 
  -2  -3   0  308.46    6.64 
  -2  -3   0  307.71    6.52 
  -2  -3   0  314.36    6.50 
   2   3   0  290.77    6.50 
   2   3   0  312.05    6.69 
   2   3   0  300.11    6.45 
   2   3   0  304.78    6.47 
   2   3   0  314.88    6.47 
   2   3   0  308.92    6.31 
  -3  -3   0  115.71    3.21 
  -3  -3   0  119.33    2.92 
  -3  -3   0  113.63    2.61 
  -3  -3   0  114.93    2.88 
  -3  -3   0  110.95    2.96 
  -3  -3   0  115.81    2.89 
  -3  -3   0  114.82    3.10 
   3   3   0  110.36    2.86 
   3   3   0  111.48    2.81 
   3   3   0  114.21    2.37 
   3   3   0  112.70    2.94 
   3   3   0  113.45    3.16 
   3   3   0  113.37    2.88 
   3   3   0  110.29    2.95 
  -4  -3   0   23.83    1.68 
  -4  -3   0   24.60    1.24 
  -4  -3   0   21.74    1.31 
  -4  -3   0   23.65    0.89 
  -4  -3   0   22.98    1.29 
   4   3   0   20.68    1.25 
   4   3   0   24.14    1.40 
   4   3   0   22.82    1.45 
   4   3   0   22.65    1.16 
   4   3   0   26.08    1.65 
   4   3   0   23.89    1.30 
   4   3   0   23.73    0.76 
  -5  -3   0   -0.07    0.35 
  -5  -3   0    0.28    0.76 
  -5  -3   0   -0.27    0.80 
  -5  -3   0   -0.09    0.99 
  -5  -3   0    0.11    0.61 
  -5  -3   0    0.11    0.56 
   5   3   0    0.74    0.78 
   5   3   0    0.30    0.81 
   5   3   0    0.44    0.99 
   5   3   0    0.46    0.62 
   5   3   0    0.43    0.30 
   5   3   0   -0.29    0.80 
   5   3   0    0.03    0.70 
  -6  -3   0   26.82    1.49 
  -6  -3   0   28.35    1.82 
  -6  -3   0   29.42    1.72 
  -6  -3   0   29.53    0.97 
  -6  -3   0   29.94    2.20 
   6   3   0   28.29    1.40 
   6   3   0   30.25    1.90 
   6   3   0   29.03    1.09 
   6   3   0   27.20    1.79 
   6   3   0   29.19    2.06 
   6   3   0   28.66    1.68 
   6   3   0   28.51    1.51 
  -7  -3   0   29.30    1.65 
  -7  -3   0   29.57    2.03 
  -7  -3   0   30.50    1.84 
  -7  -3   0   28.46    1.96 
   7   3   0   30.61    2.34 
   7   3   0   25.02    1.91 
   7   3   0   29.24    1.84 
   7   3   0   27.93    1.47 
   7   3   0   29.17    2.40 
  -8  -3   0   47.28    2.29 
  -8  -3   0   45.84    2.92 
  -8  -3   0   47.59    2.02 
   8   3   0   54.25    2.47 
   8   3   0   55.24    3.36 
   8   3   0   50.58    2.56 
   8   3   0   50.93    2.05 
   8   3   0   50.79    3.01 
  -9  -3   0   68.11    3.53 
  -9  -3   0   69.72    2.64 
  -9  -3   0   63.94    3.02 
   9   3   0   65.62    3.97 
   9   3   0   67.24    3.09 
   9   3   0   71.22    2.97 
   9   3   0   67.19    3.61 
   9  -4   0   32.27    3.69 
   9  -4   0   27.70    2.58 
   9  -4   0   31.86    1.84 
   9  -4   0   30.42    1.82 
  -9   4   0   35.45    2.49 
  -9   4   0   27.57    1.80 
   8  -4   0  102.00    3.03 
   8  -4   0  104.61    3.87 
   8  -4   0  107.58    4.93 
   8  -4   0  102.33    3.02 
  -8   4   0  104.65    3.39 
  -8   4   0  105.04    3.68 
   7  -4   0   17.22    1.30 
   7  -4   0   19.89    1.93 
   7  -4   0   20.12    1.24 
   7  -4   0   20.67    1.28 
   7  -4   0   16.07    2.22 
  -7   4   0   18.96    1.11 
  -7   4   0   18.15    1.72 
  -7   4   0   20.80    1.55 
   6  -4   0   77.77    2.13 
   6  -4   0   69.98    2.09 
   6  -4   0   72.54    2.77 
   6  -4   0   73.20    2.09 
   6  -4   0   75.83    3.89 
   6  -4   0   75.80    2.17 
  -6   4   0   72.25    2.04 
  -6   4   0   76.88    2.54 
  -6   4   0   74.22    2.75 
  -6   4   0   74.57    2.13 
   5  -4   0   24.72    1.57 
   5  -4   0   23.24    0.98 
   5  -4   0   21.70    0.93 
   5  -4   0   23.30    1.11 
   5  -4   0   23.43    0.99 
   5  -4   0   22.57    2.34 
   5  -4   0   22.95    1.03 
  -5   4   0   22.75    0.95 
  -5   4   0   23.42    1.18 
  -5   4   0   20.93    1.58 
  -5   4   0   21.21    1.43 
   4  -4   0   46.01    1.27 
   4  -4   0   44.55    2.57 
   4  -4   0   45.35    1.26 
   4  -4   0   45.98    1.80 
   4  -4   0   44.04    1.26 
   4  -4   0   44.58    1.23 
   4  -4   0   47.78    1.67 
   4  -4   0   44.23    1.43 
  -4   4   0   45.21    1.19 
  -4   4   0   44.49    1.87 
  -4   4   0   43.04    1.56 
  -4   4   0   46.66    1.16 
  -4   4   0   41.88    1.68 
   3  -4   0    5.61    0.45 
   3  -4   0    4.56    0.38 
   3  -4   0    4.96    0.68 
   3  -4   0    5.10    0.38 
   3  -4   0    5.11    0.43 
   3  -4   0    4.62    0.69 
   3  -4   0    3.51    0.99 
   3  -4   0    5.36    0.62 
   3  -4   0    6.07    0.67 
  -3   4   0    5.15    0.21 
  -3   4   0    4.24    0.77 
  -3   4   0    4.97    0.66 
  -3   4   0    4.24    0.87 
  -3   4   0    5.33    0.22 
  -3   4   0    5.46    0.69 
   2  -4   0  206.76    4.18 
   2  -4   0  210.82    4.55 
   2  -4   0  204.44    4.19 
   2  -4   0  203.29    4.57 
   2  -4   0  209.26    5.28 
   2  -4   0  204.51    4.73 
   2  -4   0  205.16    4.55 
   2  -4   0  211.77    4.16 
   2  -4   0  208.91    4.55 
   2  -4   0  200.73    4.45 
   2  -4   0  200.67    4.15 
  -2   4   0  204.94    4.57 
  -2   4   0  210.27    4.74 
  -2   4   0  202.53    4.53 
  -2   4   0  206.53    4.60 
   1  -4   0  112.66    2.41 
   1  -4   0  111.02    2.41 
   1  -4   0  110.76    2.66 
   1  -4   0  114.04    2.42 
   1  -4   0  113.39    2.70 
   1  -4   0  111.22    2.74 
   1  -4   0  117.65    2.55 
   1  -4   0  111.27    2.41 
   1  -4   0  111.91    3.08 
   1  -4   0  111.41    2.68 
   1  -4   0  109.43    2.96 
   1  -4   0  110.86    2.85 
  -1   4   0  112.64    2.67 
  -1   4   0  109.80    2.77 
  -1   4   0  112.05    2.36 
  -1   4   0  115.54    2.39 
  -1   4   0  109.66    2.76 
   0  -4   0  211.25    4.52 
   0  -4   0  221.57    4.75 
   0  -4   0  218.88    4.71 
   0  -4   0  216.25    4.66 
   0  -4   0  212.22    4.97 
   0  -4   0  215.47    4.54 
   0  -4   0  207.31    4.54 
   0  -4   0  215.57    4.43 
   0  -4   0  214.52    4.71 
   0  -4   0  211.80    4.51 
   0   4   0  211.74    4.44 
   0   4   0  211.24    4.74 
   0   4   0  210.45    4.51 
   0   4   0  211.08    4.75 
   0   4   0  211.66    4.91 
   0   4   0  216.74    4.69 
   0   4   0  220.87    4.45 
  -1  -4   0  224.20    5.11 
  -1  -4   0  238.84    4.77 
  -1  -4   0  235.80    5.14 
  -1  -4   0  235.02    5.08 
  -1  -4   0  239.98    5.21 
  -1  -4   0  244.24    5.13 
  -1  -4   0  241.17    5.12 
  -1  -4   0  238.94    5.48 
  -1  -4   0  244.50    5.31 
   1   4   0  233.96    5.22 
   1   4   0  234.62    5.04 
   1   4   0  239.99    5.42 
   1   4   0  235.96    5.11 
   1   4   0  237.79    5.13 
   1   4   0  238.45    5.04 
   1   4   0  234.09    5.16 
   1   4   0  224.76    5.14 
  -2  -4   0    0.21    0.57 
  -2  -4   0    0.21    0.50 
  -2  -4   0   -0.13    0.66 
  -2  -4   0    1.49    0.59 
  -2  -4   0    0.44    0.47 
  -2  -4   0    0.39    0.52 
  -2  -4   0    0.62    0.80 
   2   4   0   -0.20    0.51 
   2   4   0   -0.12    0.67 
   2   4   0    0.55    0.51 
   2   4   0   -0.17    0.70 
   2   4   0   -0.34    0.59 
  -3  -4   0   20.85    1.23 
  -3  -4   0   21.44    1.59 
  -3  -4   0   20.57    1.23 
  -3  -4   0   21.64    1.30 
  -3  -4   0   21.00    1.00 
  -3  -4   0   19.23    1.18 
   3   4   0   20.11    1.20 
   3   4   0   22.94    1.14 
   3   4   0   20.43    1.03 
   3   4   0   21.64    1.51 
   3   4   0   22.01    1.17 
  -4  -4   0    7.93    1.02 
  -4  -4   0    9.42    0.97 
  -4  -4   0    9.35    0.99 
  -4  -4   0    9.90    0.77 
  -4  -4   0    8.41    1.19 
   4   4   0    7.93    1.02 
   4   4   0    9.06    0.39 
   4   4   0    7.32    0.86 
   4   4   0    7.13    1.13 
   4   4   0    7.78    0.88 
   4   4   0    9.48    0.87 
  -5  -4   0   89.10    2.90 
  -5  -4   0  101.47    3.43 
  -5  -4   0   93.11    2.93 
  -5  -4   0   98.71    2.44 
  -5  -4   0  100.95    2.86 
   5   4   0   93.73    2.75 
   5   4   0  105.15    2.99 
   5   4   0  100.60    2.19 
   5   4   0   97.64    3.06 
   5   4   0   99.96    3.38 
  -6  -4   0   14.43    1.37 
  -6  -4   0   14.86    1.48 
  -6  -4   0   14.59    1.68 
  -6  -4   0   15.16    1.20 
   6   4   0   18.31    1.54 
   6   4   0   16.57    1.55 
   6   4   0   15.35    1.69 
   6   4   0   16.05    1.90 
   6   4   0   18.71    1.34 
  -7  -4   0  114.12    3.55 
  -7  -4   0  111.00    3.11 
  -7  -4   0  107.84    3.67 
  -7  -4   0  111.19    3.88 
   7   4   0  112.11    3.24 
   7   4   0  108.49    3.67 
   7   4   0  113.69    3.54 
   7   4   0  111.44    4.08 
   7   4   0  112.31    4.13 
  -8  -4   0   37.50    1.80 
  -8  -4   0   32.93    2.78 
  -8  -4   0   36.68    2.38 
   8   4   0   36.73    2.83 
   8   4   0   37.11    2.81 
   8   4   0   36.07    1.76 
   8   4   0   35.45    2.34 
  -9  -4   0    8.19    1.61 
  -9  -4   0    7.12    1.84 
  -9  -4   0    9.92    1.32 
   9   4   0    8.02    1.61 
   9   4   0    5.16    1.82 
   9  -5   0   22.58    1.50 
   9  -5   0   18.50    2.09 
   9  -5   0   21.39    1.57 
   9  -5   0   20.10    2.93 
  -9   5   0   22.53    2.13 
  -9   5   0   24.67    1.95 
   8  -5   0   17.90    1.94 
   8  -5   0   19.18    1.28 
   8  -5   0   16.22    2.53 
   8  -5   0   19.18    1.36 
  -8   5   0   18.10    1.68 
  -8   5   0   20.54    1.93 
   7  -5   0   17.19    1.18 
   7  -5   0   17.04    1.17 
   7  -5   0   14.10    2.26 
   7  -5   0   15.20    1.19 
   7  -5   0   20.26    1.91 
  -7   5   0   14.86    1.19 
  -7   5   0   16.65    1.51 
  -7   5   0   17.95    1.73 
   6  -5   0    0.05    0.54 
   6  -5   0    0.84    0.55 
   6  -5   0    0.89    1.36 
   6  -5   0    0.71    0.54 
   6  -5   0    0.30    0.90 
  -6   5   0   -0.08    0.92 
  -6   5   0    0.94    1.08 
  -6   5   0   -0.59    0.68 
   5  -5   0    1.73    0.46 
   5  -5   0    1.00    1.28 
   5  -5   0    1.44    0.47 
   5  -5   0    1.18    0.41 
   5  -5   0    1.99    0.83 
   5  -5   0    1.76    0.46 
  -5   5   0    1.61    0.78 
  -5   5   0    1.63    0.92 
  -5   5   0    1.56    0.78 
  -5   5   0    1.89    0.30 
  -5   5   0    1.57    0.32 
   4  -5   0  137.75    4.61 
   4  -5   0  135.76    2.96 
   4  -5   0  137.13    2.96 
   4  -5   0  138.89    2.94 
   4  -5   0  134.21    2.88 
   4  -5   0  133.10    3.62 
  -4   5   0  136.49    3.74 
  -4   5   0  137.99    3.53 
  -4   5   0  132.29    3.38 
   3  -5   0  115.53    3.86 
   3  -5   0  117.56    2.52 
   3  -5   0  113.61    2.40 
   3  -5   0  124.76    2.41 
   3  -5   0  118.05    2.51 
   3  -5   0  116.31    3.08 
  -3   5   0  116.44    3.02 
  -3   5   0  118.15    3.00 
  -3   5   0  116.49    3.18 
   2  -5   0  124.21    2.66 
   2  -5   0  127.24    3.80 
   2  -5   0  123.45    2.63 
   2  -5   0  128.28    2.62 
   2  -5   0  124.58    3.07 
   2  -5   0  124.98    2.66 
   2  -5   0  127.65    2.96 
  -2   5   0  124.29    3.17 
  -2   5   0  127.28    3.09 
  -2   5   0  130.23    3.30 
  -2   5   0  125.57    3.15 
   1  -5   0   80.87    1.89 
   1  -5   0   80.85    2.19 
   1  -5   0   80.35    1.89 
   1  -5   0   80.30    2.44 
   1  -5   0   79.55    1.88 
   1  -5   0   81.93    2.57 
   1  -5   0   84.16    2.02 
   1  -5   0   81.91    2.15 
   1  -5   0   82.07    1.89 
  -1   5   0   79.10    2.16 
  -1   5   0   81.11    1.82 
  -1   5   0   80.72    2.29 
  -1   5   0   81.97    2.32 
   0  -5   0   38.98    1.22 
   0  -5   0   39.47    1.24 
   0  -5   0   39.42    1.25 
   0  -5   0   38.75    1.40 
   0  -5   0   36.67    1.47 
   0  -5   0   39.25    1.09 
   0  -5   0   39.29    1.23 
   0  -5   0   39.35    1.63 
   0   5   0   39.18    1.47 
   0   5   0   36.86    1.19 
   0   5   0   38.73    1.09 
   0   5   0   41.43    1.42 
   0   5   0   38.22    1.21 
   0   5   0   39.92    1.55 
  -1  -5   0   -0.12    0.60 
  -1  -5   0   -0.24    0.25 
  -1  -5   0    0.30    0.55 
  -1  -5   0    0.17    0.52 
  -1  -5   0    0.68    0.56 
  -1  -5   0    0.21    0.52 
  -1  -5   0   -0.68    0.69 
   1   5   0   -0.21    0.45 
   1   5   0   -0.45    0.62 
   1   5   0    0.80    0.54 
   1   5   0    0.11    0.54 
   1   5   0    0.63    0.65 
  -2  -5   0   12.53    1.23 
  -2  -5   0   12.79    1.01 
  -2  -5   0   11.49    0.98 
  -2  -5   0   12.91    1.02 
  -2  -5   0   12.26    0.96 
   2   5   0   14.75    1.17 
   2   5   0   14.39    1.00 
   2   5   0   13.46    1.02 
  -3  -5   0  127.89    3.70 
  -3  -5   0  121.48    3.21 
  -3  -5   0  126.40    3.29 
  -3  -5   0  118.39    3.29 
  -3  -5   0  125.26    3.25 
   3   5   0  128.18    3.28 
   3   5   0  120.24    3.27 
   3   5   0  121.86    3.51 
   3   5   0  120.82    3.20 
  -4  -5   0  163.37    4.04 
  -4  -5   0  161.42    4.11 
  -4  -5   0  153.34    4.17 
  -4  -5   0  161.61    4.55 
   4   5   0  164.13    4.46 
   4   5   0  161.10    3.81 
   4   5   0  158.26    4.17 
   4   5   0  154.93    4.03 
   4   5   0  160.80    4.03 
  -5  -5   0  104.81    3.31 
  -5  -5   0  112.04    3.24 
  -5  -5   0  105.02    3.17 
  -5  -5   0  103.89    3.69 
   5   5   0  101.83    3.59 
   5   5   0   99.57    3.12 
   5   5   0  106.48    3.05 
   5   5   0  108.38    3.30 
   5   5   0  108.08    3.15 
  -6  -5   0   79.61    3.40 
  -6  -5   0   78.00    2.95 
  -6  -5   0   78.99    2.82 
   6   5   0   78.98    2.59 
   6   5   0   75.40    2.74 
   6   5   0   82.94    2.80 
   6   5   0   76.49    2.97 
   6   5   0   77.05    3.28 
  -7  -5   0    4.57    1.65 
  -7  -5   0    6.85    1.41 
  -7  -5   0    9.06    1.12 
  -7  -5   0    6.88    1.30 
   7   5   0    6.47    1.62 
   7   5   0    8.19    1.15 
   7   5   0    8.11    1.41 
  -8  -5   0    7.79    1.58 
  -8  -5   0    8.77    1.13 
  -8  -5   0    5.72    1.79 
   8   5   0    9.24    1.23 
   8   5   0    9.18    1.57 
   8   5   0    4.24    1.73 
  -9  -5   0   -1.81    1.62 
  -9  -5   0   -0.46    1.33 
   9   5   0    2.45    1.42 
   9   5   0    0.90    1.73 
   9  -6   0   10.61    1.18 
   9  -6   0    5.96    2.29 
   9  -6   0    8.23    1.80 
   9  -6   0    8.63    1.04 
  -9   6   0   10.39    1.61 
  -9   6   0   10.83    1.77 
   8  -6   0    4.58    0.79 
   8  -6   0    2.65    1.58 
   8  -6   0    1.77    0.75 
   8  -6   0    2.12    1.25 
  -8   6   0    6.19    1.49 
  -8   6   0    1.48    1.20 
   7  -6   0   49.23    1.67 
   7  -6   0   50.09    2.66 
   7  -6   0   51.26    1.64 
   7  -6   0   52.92    1.75 
   7  -6   0   48.62    3.78 
  -7   6   0   49.41    2.14 
  -7   6   0   49.58    2.58 
  -7   6   0   47.43    1.98 
   6  -6   0   13.56    0.92 
   6  -6   0   14.48    0.84 
   6  -6   0   15.98    1.61 
   6  -6   0   11.35    1.95 
   6  -6   0   16.41    0.93 
  -6   6   0   14.59    1.40 
  -6   6   0   14.59    1.22 
  -6   6   0   13.24    1.57 
   5  -6   0  188.29    4.07 
   5  -6   0  185.78    4.08 
   5  -6   0  193.18    6.21 
   5  -6   0  196.73    3.97 
   5  -6   0  185.67    3.92 
   5  -6   0  187.14    4.90 
  -5   6   0  187.30    4.93 
  -5   6   0  190.51    4.65 
  -5   6   0  188.80    4.78 
   4  -6   0   52.59    1.32 
   4  -6   0   53.50    2.90 
   4  -6   0   54.43    1.37 
   4  -6   0   53.64    2.02 
  -4   6   0   53.36    1.97 
  -4   6   0   53.27    2.30 
   3  -6   0   54.90    2.64 
   3  -6   0   55.94    1.99 
   3  -6   0   53.18    1.32 
  -3   6   0   54.85    2.23 
  -3   6   0   56.25    1.99 
  -3   6   0   55.31    1.92 
   2  -6   0  104.32    3.18 
   2  -6   0  105.86    2.33 
   2  -6   0  108.86    2.27 
   2  -6   0  105.30    2.33 
   2  -6   0  102.57    2.28 
   2  -6   0  108.00    3.45 
  -2   6   0  104.32    2.75 
  -2   6   0  104.40    2.87 
  -2   6   0  104.67    2.93 
   1  -6   0    3.66    0.80 
   1  -6   0    4.48    0.45 
   1  -6   0    5.50    0.58 
   1  -6   0    4.34    0.49 
   1  -6   0    3.64    0.76 
   1  -6   0    4.88    0.48 
   1  -6   0    4.37    0.48 
  -1   6   0    3.98    0.84 
  -1   6   0    4.16    0.70 
  -1   6   0    4.28    0.41 
  -1   6   0    4.00    0.42 
  -1   6   0    4.83    0.86 
   0  -6   0   21.72    1.60 
   0  -6   0   20.39    1.00 
   0  -6   0   20.61    0.96 
   0  -6   0   22.26    0.98 
   0  -6   0   21.88    0.81 
   0  -6   0   22.14    1.34 
   0  -6   0   20.95    1.14 
   0  -6   0   21.08    0.98 
   0   6   0   20.64    0.92 
   0   6   0   21.98    0.77 
   0   6   0   21.38    1.17 
   0   6   0   17.91    1.31 
   0   6   0   21.42    1.26 
  -1  -6   0   30.17    1.31 
  -1  -6   0   31.54    1.29 
  -1  -6   0   31.81    1.23 
  -1  -6   0   29.50    0.84 
  -1  -6   0   29.69    1.81 
  -1  -6   0   28.64    1.23 
   1   6   0   29.47    1.13 
   1   6   0   30.42    1.40 
   1   6   0   29.97    1.22 
   1   6   0   31.60    1.53 
   1   6   0   27.63    1.46 
  -2  -6   0  124.12    3.28 
  -2  -6   0  129.47    3.27 
  -2  -6   0  119.15    3.17 
  -2  -6   0  125.90    3.78 
  -2  -6   0  127.10    3.27 
   2   6   0  122.53    3.10 
   2   6   0  123.05    3.37 
   2   6   0  128.75    3.26 
   2   6   0  127.81    3.35 
  -3  -6   0   22.37    1.37 
  -3  -6   0   25.67    1.96 
  -3  -6   0   25.35    1.51 
  -3  -6   0   25.91    1.45 
   3   6   0   23.85    1.30 
   3   6   0   24.49    1.52 
   3   6   0   24.55    1.45 
  -4  -6   0   51.51    2.04 
  -4  -6   0   51.06    2.63 
  -4  -6   0   52.94    2.13 
  -4  -6   0   56.26    2.33 
   4   6   0   51.36    2.15 
   4   6   0   56.29    2.05 
   4   6   0   51.54    2.47 
   4   6   0   53.98    2.14 
  -5  -6   0   19.03    1.62 
  -5  -6   0   17.19    1.57 
  -5  -6   0   18.22    1.86 
   5   6   0   17.99    1.57 
   5   6   0   20.48    1.96 
   5   6   0   20.95    1.56 
  -6  -6   0    0.03    1.36 
  -6  -6   0    0.41    1.01 
  -6  -6   0    0.67    1.08 
   6   6   0   -0.83    0.89 
   6   6   0   -0.61    1.24 
   6   6   0    0.06    1.06 
  -7  -6   0    0.18    0.92 
  -7  -6   0    0.56    1.23 
  -7  -6   0   -0.41    1.07 
  -7  -6   0   -2.05    1.45 
   7   6   0   -2.20    1.30 
   7   6   0   -0.25    0.97 
   7   6   0   -1.69    1.10 
  -8  -6   0   22.37    2.11 
  -8  -6   0   18.27    2.38 
   8   6   0   23.16    2.41 
   8   6   0   21.80    2.08 
   8   6   0   23.04    1.91 
   8  -7   0    7.30    0.84 
   8  -7   0    6.67    2.17 
   8  -7   0    6.28    1.41 
  -8   7   0    9.01    1.63 
  -8   7   0   10.37    1.58 
   7  -7   0   33.19    3.46 
   7  -7   0   32.79    1.30 
   7  -7   0   36.36    2.35 
   7  -7   0   32.31    1.35 
  -7   7   0   36.99    2.13 
  -7   7   0   36.59    1.79 
   6  -7   0   66.75    2.67 
   6  -7   0   64.04    3.91 
   6  -7   0   64.90    1.78 
   6  -7   0   66.15    1.75 
  -6   7   0   64.74    2.86 
  -6   7   0   69.36    2.48 
   5  -7   0   47.93    1.25 
   5  -7   0   45.22    1.29 
   5  -7   0   50.89    3.20 
   5  -7   0   46.23    2.09 
  -5   7   0   45.37    2.39 
  -5   7   0   45.62    2.09 
   4  -7   0   19.01    2.10 
   4  -7   0   16.19    1.47 
   4  -7   0   18.87    0.64 
  -4   7   0   17.81    1.64 
  -4   7   0   19.86    1.51 
  -4   7   0   19.87    1.42 
   3  -7   0    1.69    1.00 
   3  -7   0    2.10    0.36 
   3  -7   0    1.66    0.32 
   3  -7   0    2.22    0.79 
   3  -7   0    2.12    0.96 
  -3   7   0    2.29    0.90 
  -3   7   0    3.10    0.88 
   2  -7   0    8.69    1.21 
   2  -7   0    8.54    0.63 
   2  -7   0    8.12    1.22 
   2  -7   0    9.47    0.65 
   2  -7   0    8.98    0.54 
   2  -7   0    8.78    0.53 
  -2   7   0    7.07    0.89 
  -2   7   0   10.52    1.10 
  -2   7   0    7.63    1.09 
   1  -7   0   29.97    1.90 
   1  -7   0   29.08    1.05 
   1  -7   0   28.53    1.71 
   1  -7   0   28.60    1.06 
   1  -7   0   27.36    1.08 
   1  -7   0   30.95    1.10 
  -1   7   0   27.94    1.38 
  -1   7   0   27.46    1.42 
  -1   7   0   25.68    1.57 
  -1   7   0   28.28    0.93 
   0  -7   0  148.92    3.60 
   0  -7   0  147.93    3.26 
   0  -7   0  147.17    3.46 
   0  -7   0  146.78    3.46 
   0  -7   0  144.52    4.22 
   0  -7   0  144.04    3.47 
   0  -7   0  148.87    3.46 
   0   7   0  143.51    3.39 
   0   7   0  146.41    3.76 
   0   7   0  145.82    3.86 
   0   7   0  145.12    3.69 
  -1  -7   0   87.94    2.46 
  -1  -7   0   91.82    2.52 
  -1  -7   0   88.89    3.01 
  -1  -7   0   86.14    2.47 
  -1  -7   0   93.00    2.57 
   1   7   0   86.27    2.61 
   1   7   0   86.91    2.45 
   1   7   0   92.10    2.81 
  -2  -7   0  106.52    2.91 
  -2  -7   0  103.85    2.93 
  -2  -7   0   99.98    3.02 
  -2  -7   0  108.01    3.63 
  -2  -7   0  111.47    2.99 
   2   7   0  104.57    3.10 
   2   7   0  110.71    3.00 
   2   7   0  105.05    3.17 
   2   7   0  103.52    2.77 
  -3  -7   0  174.51    4.50 
  -3  -7   0  176.39    4.41 
  -3  -7   0  176.87    5.04 
   3   7   0  167.65    4.49 
   3   7   0  171.77    4.42 
   3   7   0  171.01    4.43 
  -4  -7   0    3.84    1.05 
  -4  -7   0    3.52    1.02 
  -4  -7   0    2.73    1.33 
   4   7   0    3.62    1.08 
   4   7   0    2.08    0.96 
  -5  -7   0    1.84    1.02 
  -5  -7   0    3.23    1.16 
  -5  -7   0   -0.71    1.28 
   5   7   0    0.95    1.02 
   5   7   0    1.54    1.09 
   5   7   0    3.40    1.39 
  -6  -7   0   22.30    1.91 
  -6  -7   0   24.97    2.10 
  -6  -7   0   24.10    2.30 
   6   7   0   24.55    2.35 
   6   7   0   26.72    1.83 
   6   7   0   23.61    1.97 
  -7  -7   0   23.31    2.11 
  -7  -7   0   22.67    2.45 
  -7  -7   0   24.37    2.38 
   7   7   0   30.72    2.67 
   7   7   0   21.23    1.80 
   7   7   0   24.75    2.17 
   8  -8   0   52.24    1.70 
   8  -8   0   45.83    3.02 
   8  -8   0   47.84    4.26 
  -8   8   0   49.45    2.96 
   7  -8   0   20.85    0.93 
   7  -8   0   19.81    1.00 
   7  -8   0   17.33    2.57 
   7  -8   0   18.76    1.82 
  -7   8   0   22.31    2.08 
  -7   8   0   20.45    1.63 
   6  -8   0    2.30    1.00 
   6  -8   0    2.31    1.71 
   6  -8   0    2.99    0.41 
   6  -8   0    3.15    0.43 
  -6   8   0    4.20    1.06 
  -6   8   0    3.01    1.35 
   5  -8   0    8.94    1.75 
   5  -8   0    8.63    0.43 
   5  -8   0    8.51    1.12 
   5  -8   0    8.13    0.44 
  -5   8   0    8.31    1.22 
  -5   8   0    7.96    1.47 
   4  -8   0   13.78    1.48 
   4  -8   0   13.92    0.52 
   4  -8   0   15.62    1.37 
   4  -8   0    9.81    1.75 
   4  -8   0   14.07    0.51 
  -4   8   0   12.71    1.30 
  -4   8   0   14.40    1.40 
   3  -8   0   51.14    2.88 
   3  -8   0   51.18    2.50 
   3  -8   0   49.21    1.30 
   3  -8   0   48.86    1.33 
   3  -8   0   52.34    2.01 
  -3   8   0   49.16    2.11 
  -3   8   0   52.76    2.22 
   2  -8   0   20.06    0.92 
   2  -8   0   22.40    0.79 
   2  -8   0   20.63    1.89 
   2  -8   0   19.95    0.77 
   2  -8   0   20.85    0.91 
   2  -8   0   21.07    1.89 
  -2   8   0   20.65    1.67 
  -2   8   0   20.28    1.37 
  -2   8   0   20.75    1.60 
   1  -8   0  244.17    5.19 
   1  -8   0  240.80    5.96 
   1  -8   0  232.94    5.20 
   1  -8   0  239.64    5.22 
   1  -8   0  239.82    6.22 
  -1   8   0  239.63    5.80 
  -1   8   0  235.98    5.53 
  -1   8   0  233.83    5.78 
   0  -8   0   11.44    0.90 
   0  -8   0   10.34    0.88 
   0  -8   0   11.72    1.45 
   0  -8   0   11.35    0.91 
   0  -8   0    9.43    1.01 
   0   8   0   12.24    1.10 
   0   8   0   10.94    1.12 
   0   8   0   13.21    1.33 
   0   8   0   10.08    0.93 
  -1  -8   0    6.07    0.86 
  -1  -8   0    7.24    1.34 
  -1  -8   0    5.43    0.89 
  -1  -8   0    5.74    0.81 
   1   8   0    5.95    1.01 
   1   8   0    6.90    1.15 
   1   8   0    6.50    0.82 
  -2  -8   0   -0.46    1.13 
  -2  -8   0   -0.95    0.77 
  -2  -8   0    0.79    0.88 
   2   8   0    1.10    0.94 
   2   8   0    0.47    0.77 
   2   8   0   -0.91    0.63 
  -3  -8   0    2.28    1.36 
  -3  -8   0    3.37    0.94 
  -3  -8   0    5.64    1.06 
   3   8   0    4.18    0.97 
   3   8   0    3.96    1.08 
   3   8   0    3.04    1.09 
  -4  -8   0   10.13    1.68 
  -4  -8   0   11.24    1.37 
  -4  -8   0    8.58    1.24 
   4   8   0   11.01    1.38 
   4   8   0   10.75    1.28 
   4   8   0    9.08    1.35 
  -5  -8   0   39.55    2.94 
  -5  -8   0   45.36    2.39 
  -5  -8   0   48.39    2.34 
   5   8   0   45.40    2.30 
   5   8   0   47.15    2.33 
  -6  -8   0   61.43    3.59 
  -6  -8   0   64.28    2.84 
  -6  -8   0   67.19    3.01 
   6   8   0   62.80    2.71 
   6   8   0   62.37    2.85 
  -7  -8   0   28.89    2.39 
  -7  -8   0   19.59    2.57 
   7   8   0   30.96    2.38 
   7   8   0   29.41    2.72 
   7   8   0   27.29    2.06 
   7  -9   0    6.59    0.34 
   7  -9   0    5.72    2.07 
  -7   9   0    6.35    1.26 
  -7   9   0    7.31    1.72 
   6  -9   0    3.88    1.25 
   6  -9   0    3.90    1.68 
  -6   9   0    4.88    1.22 
  -6   9   0    3.54    1.50 
   5  -9   0   34.72    2.09 
   5  -9   0   35.76    3.00 
   5  -9   0   37.52    2.42 
  -5   9   0   40.27    2.15 
   4  -9   0   17.65    1.77 
   4  -9   0   17.75    2.31 
   4  -9   0   19.07    0.53 
   4  -9   0   22.34    1.68 
   4  -9   0   18.81    0.52 
  -4   9   0   22.67    1.82 
  -4   9   0   19.89    1.60 
   3  -9   0   63.26    2.91 
   3  -9   0   64.50    1.65 
   3  -9   0   61.86    3.22 
   3  -9   0   66.34    2.43 
   3  -9   0   65.44    1.61 
  -3   9   0   59.68    2.51 
  -3   9   0   64.67    2.61 
   2  -9   0   27.77    0.90 
   2  -9   0   26.74    2.20 
   2  -9   0   27.87    1.11 
   2  -9   0   27.23    1.12 
   2  -9   0   26.13    2.18 
  -2   9   0   28.79    1.72 
  -2   9   0   27.50    1.93 
  -2   9   0   27.73    1.85 
   1  -9   0   41.94    1.54 
   1  -9   0   42.80    1.49 
   1  -9   0   44.03    1.57 
   1  -9   0   42.51    2.52 
  -1   9   0   43.55    1.87 
  -1   9   0   44.84    2.17 
  -1   9   0   42.59    2.22 
   0  -9   0   10.55    0.96 
   0  -9   0   11.70    1.01 
   0  -9   0   12.07    1.07 
   0  -9   0   11.44    1.63 
   0   9   0   11.09    1.14 
   0   9   0   10.94    1.38 
  -1  -9   0    1.55    0.99 
  -1  -9   0    1.04    0.84 
  -1  -9   0    3.22    0.84 
   1   9   0    0.63    0.82 
   1   9   0    1.75    0.91 
  -2  -9   0   11.46    1.70 
  -2  -9   0   14.43    1.24 
  -2  -9   0   14.30    1.34 
   2   9   0   14.34    1.43 
   2   9   0   13.34    1.34 
  -3  -9   0   24.10    2.44 
  -3  -9   0   30.02    1.97 
  -3  -9   0   25.77    1.72 
   3   9   0   26.82    1.83 
   3   9   0   23.08    1.86 
  -4  -9   0   80.42    3.05 
  -4  -9   0   81.85    3.52 
  -4  -9   0   84.01    2.99 
   4   9   0   83.29    3.16 
   4   9   0   79.36    3.00 
  -5  -9   0   19.77    1.84 
  -5  -9   0   24.71    1.97 
  -5  -9   0   20.66    2.12 
   5   9   0   24.24    2.02 
   5   9   0   21.77    1.88 
  -6  -9   0    3.09    1.38 
  -6  -9   0    2.66    1.33 
  -6  -9   0    0.36    1.70 
   6   9   0    2.72    1.47 
   6   9   0    4.52    1.35 
   6 -10   0   32.49    3.57 
   6 -10   0   34.25    2.55 
   5 -10   0   36.54    2.56 
   5 -10   0   29.25    3.21 
  -5  10   0   38.26    2.30 
   4 -10   0   50.03    2.87 
   4 -10   0   43.49    3.18 
  -4  10   0   47.31    2.53 
  -4  10   0   46.44    2.48 
   3 -10   0    6.10    1.39 
   3 -10   0    6.09    0.53 
   3 -10   0    6.12    0.56 
  -3  10   0    5.29    1.25 
  -3  10   0    6.18    1.36 
   2 -10   0    9.14    0.74 
   2 -10   0    8.69    0.76 
   2 -10   0    8.79    1.57 
  -2  10   0    7.98    1.20 
  -2  10   0    8.13    1.35 
   1 -10   0   -0.18    0.56 
   1 -10   0    1.15    1.30 
   1 -10   0   -0.23    0.59 
  -1  10   0    1.33    0.86 
  -1  10   0   -0.23    0.82 
   0 -10   0   69.86    2.26 
   0 -10   0   70.75    3.34 
   0 -10   0   69.61    2.27 
   0  10   0   71.02    2.87 
   0  10   0   74.17    2.55 
  -1 -10   0    9.62    1.70 
  -1 -10   0    8.75    1.10 
  -1 -10   0   10.40    1.12 
   1  10   0    9.44    1.26 
   1  10   0   11.35    1.34 
  -2 -10   0   49.39    2.14 
  -2 -10   0   48.57    3.03 
  -2 -10   0   45.46    2.07 
   2  10   0   46.85    2.49 
   2  10   0   51.08    2.34 
  -3 -10   0   38.48    2.24 
  -3 -10   0   39.12    2.05 
  -3 -10   0   37.29    2.90 
   3  10   0   36.74    2.38 
   3  10   0   38.08    2.27 
  -4 -10   0   21.80    2.42 
  -4 -10   0   21.98    1.84 
  -4 -10   0   19.88    1.86 
   4  10   0   24.22    1.99 
   4  10   0   24.12    2.03 
   4 -11   0    3.37    1.43 
  -4  11   0    4.00    1.36 
   3 -11   0    0.02    0.42 
   3 -11   0    0.15    0.43 
   3 -11   0    1.08    1.39 
  -3  11   0    0.03    1.18 
   2 -11   0   16.55    2.02 
   2 -11   0   16.51    1.04 
  -2  11   0   15.23    1.40 
  -2  11   0   19.88    1.84 
   1 -11   0   33.33    1.57 
   1 -11   0   35.43    2.82 
  -1  11   0   32.96    2.29 
  -1  11   0   38.23    2.05 
   0 -11   0   33.08    2.80 
   0 -11   0   32.67    1.64 
   0 -11   0   32.94    1.61 
   0  11   0   36.05    2.02 
   0  11   0   31.21    2.24 
  -1 -11   0   39.60    1.94 
  -1 -11   0   38.96    3.04 
  -1 -11   0   41.95    1.94 
   1  11   0   39.25    2.46 
   1  11   0   40.44    2.19 
  -2 -11   0    0.00    1.52 
  -2 -11   0    3.82    1.12 
  -2 -11   0    4.69    1.13 
   2  11   0    5.28    1.18 
   2  11   0    3.26    1.34 
  -3 -11   0    5.63    1.23 
  -3 -11   0    6.96    1.31 
  -3 -11   0    3.93    1.71 
   3  11   0    8.24    1.63 
   3  11   0    8.03    1.36 
   3  11  -1   24.40    2.18 
  -3 -11   1   21.06    2.47 
  -3 -11   1   25.56    2.11 
  -3 -11   1   23.63    1.86 
   2  11  -1   -0.79    0.91 
  -2 -11   1    0.78    1.02 
  -2 -11   1   -0.37    0.98 
  -2 -11   1    0.45    1.57 
   1  11  -1   12.24    1.62 
  -1 -11   1   10.13    1.23 
  -1 -11   1    9.52    1.85 
  -1 -11   1   10.69    1.21 
   0  11  -1   19.32    1.71 
   0 -11   1   19.82    2.19 
   0 -11   1   20.90    1.45 
   0 -11   1   20.48    1.44 
  -1  11  -1   47.40    2.54 
   1 -11   1   47.47    1.84 
   1 -11   1   45.21    3.09 
  -2  11  -1   37.82    2.46 
  -2  11  -1   39.66    2.35 
   2 -11   1   37.59    2.89 
   2 -11   1   36.74    1.51 
  -3  11  -1   29.60    2.14 
  -3  11  -1   27.90    2.25 
   3 -11   1   30.30    2.70 
   3 -11   1   28.23    1.17 
  -4  11  -1   15.70    1.81 
  -4  11  -1   18.50    1.84 
   4 -11   1   17.39    2.05 
   4 -11   1   15.96    0.65 
   4 -11   1   16.12    0.65 
   5  10  -1    3.10    1.34 
   5  10  -1    5.08    1.48 
  -5 -10   1    5.71    1.34 
   4  10  -1    4.29    1.40 
   4  10  -1    2.25    1.15 
  -4 -10   1   -1.42    1.49 
  -4 -10   1    0.53    1.06 
  -4 -10   1    1.66    1.15 
   3  10  -1    8.83    1.50 
   3  10  -1   10.49    1.39 
  -3 -10   1    9.66    1.28 
  -3 -10   1    8.82    1.85 
  -3 -10   1    7.99    1.29 
   2  10  -1   15.22    1.42 
   2  10  -1   15.73    1.67 
  -2 -10   1   13.19    1.95 
  -2 -10   1   13.62    1.30 
  -2 -10   1   14.32    1.35 
   1  10  -1   29.08    1.74 
   1  10  -1   31.37    2.16 
  -1 -10   1   27.11    1.55 
  -1 -10   1   27.36    2.62 
  -1 -10   1   28.51    1.67 
   0  10  -1   45.94    2.34 
   0  10  -1   45.94    2.01 
   0  10  -1   40.69    2.33 
   0 -10   1   46.43    1.89 
   0 -10   1   44.92    2.89 
   0 -10   1   45.87    1.84 
  -1  10  -1    5.97    1.21 
  -1  10  -1    5.30    1.31 
  -1  10  -1    4.40    0.96 
   1 -10   1    4.29    0.74 
   1 -10   1    3.54    1.45 
   1 -10   1    4.66    0.78 
  -2  10  -1   47.88    2.34 
  -2  10  -1   42.16    2.39 
  -2  10  -1   47.95    1.92 
   2 -10   1   45.52    1.76 
   2 -10   1   44.83    1.58 
   2 -10   1   44.37    2.84 
  -3  10  -1    0.29    1.03 
  -3  10  -1    0.84    1.18 
   3 -10   1   -0.06    0.53 
   3 -10   1   -0.42    1.21 
   3 -10   1    0.38    0.48 
  -4  10  -1    8.84    1.49 
  -4  10  -1    8.60    1.34 
   4 -10   1    9.05    0.63 
   4 -10   1    6.05    1.76 
   4 -10   1    8.30    0.63 
   4 -10   1    9.67    1.66 
  -5  10  -1   10.82    1.52 
   5 -10   1   11.48    1.75 
   5 -10   1    8.91    0.39 
   5 -10   1    4.54    1.76 
   5 -10   1    9.80    0.37 
   6 -10   1   40.54    3.83 
   6 -10   1   38.43    2.76 
   6   9  -1   -0.66    1.47 
   6   9  -1    3.85    1.34 
  -6  -9   1   -1.04    1.74 
  -6  -9   1    1.45    1.24 
  -6  -9   1    3.36    1.36 
   5   9  -1    3.92    1.29 
   5   9  -1    3.62    1.33 
  -5  -9   1    5.42    1.77 
  -5  -9   1    6.51    1.37 
  -5  -9   1    3.89    1.28 
   4   9  -1   33.88    1.96 
   4   9  -1   38.90    2.09 
  -4  -9   1   33.47    2.04 
  -4  -9   1   35.41    2.84 
  -4  -9   1   38.86    2.19 
   3   9  -1   18.83    1.60 
   3   9  -1   20.37    1.62 
  -3  -9   1   19.91    1.65 
  -3  -9   1   18.01    1.58 
  -3  -9   1   20.91    1.98 
   2   9  -1  158.34    4.21 
   2   9  -1  158.60    4.57 
  -2  -9   1  165.78    4.32 
  -2  -9   1  160.78    5.15 
  -2  -9   1  165.38    4.27 
   1   9  -1   64.67    2.32 
   1   9  -1   64.68    2.40 
   1   9  -1   64.82    2.64 
  -1  -9   1   61.44    2.23 
  -1  -9   1   65.74    2.29 
  -1  -9   1   65.90    2.89 
   0   9  -1    5.37    1.19 
   0   9  -1    5.03    1.01 
   0   9  -1    4.42    0.96 
   0  -9   1    5.00    0.83 
   0  -9   1    5.17    1.41 
   0  -9   1    5.73    0.85 
  -1   9  -1   27.28    1.94 
  -1   9  -1   30.05    1.60 
  -1   9  -1   25.63    1.82 
   1  -9   1   27.54    1.32 
   1  -9   1   30.74    2.34 
   1  -9   1   27.99    1.28 
   1  -9   1   29.37    1.30 
  -2   9  -1    3.68    1.04 
  -2   9  -1    4.30    1.19 
  -2   9  -1    2.12    0.86 
   2  -9   1    4.50    0.64 
   2  -9   1    3.14    0.60 
   2  -9   1    2.54    1.03 
   2  -9   1    2.91    1.15 
   2  -9   1    4.04    0.54 
  -3   9  -1   20.12    1.69 
  -3   9  -1   17.69    1.62 
   3  -9   1   20.50    1.44 
   3  -9   1   19.75    1.91 
   3  -9   1   21.28    1.01 
   3  -9   1   17.51    2.27 
   3  -9   1   20.24    0.96 
  -4   9  -1   20.64    1.69 
  -4   9  -1   23.74    1.88 
   4  -9   1   24.34    2.47 
   4  -9   1   17.58    2.32 
   4  -9   1   20.83    2.11 
   4  -9   1   21.61    0.85 
   4  -9   1   21.19    0.86 
  -5   9  -1   57.29    2.52 
   5  -9   1   54.13    2.86 
   5  -9   1   55.02    1.41 
   5  -9   1   51.90    3.66 
   5  -9   1   56.54    1.42 
  -6   9  -1   16.07    1.95 
  -6   9  -1   12.58    1.48 
   6  -9   1   12.57    2.31 
   6  -9   1   12.00    0.70 
   6  -9   1   13.58    0.68 
  -7   9  -1   16.87    1.64 
  -7   9  -1   15.75    2.10 
   7  -9   1   16.31    2.62 
   7   8  -1    3.42    1.40 
   7   8  -1    1.47    1.51 
   7   8  -1    1.65    1.21 
  -7  -8   1    1.47    1.40 
  -7  -8   1   -0.23    1.34 
   6   8  -1   44.94    2.38 
   6   8  -1   42.63    2.44 
  -6  -8   1   39.36    2.67 
  -6  -8   1   39.49    2.48 
  -6  -8   1   40.26    2.34 
   5   8  -1   29.59    2.01 
   5   8  -1   30.25    2.01 
  -5  -8   1   26.76    1.97 
  -5  -8   1   32.19    2.14 
  -5  -8   1   26.20    2.57 
   4   8  -1   43.08    2.23 
   4   8  -1   46.13    2.16 
   4   8  -1   43.81    2.12 
  -4  -8   1   45.30    2.82 
  -4  -8   1   45.64    2.16 
  -4  -8   1   41.96    2.19 
   3   8  -1   32.57    1.78 
   3   8  -1   30.84    1.94 
   3   8  -1   28.75    1.80 
  -3  -8   1   32.35    1.87 
  -3  -8   1   31.63    2.42 
  -3  -8   1   29.66    1.92 
   2   8  -1   41.01    1.78 
   2   8  -1   38.84    2.03 
   2   8  -1   39.08    1.79 
  -2  -8   1   37.31    1.77 
  -2  -8   1   37.28    1.72 
  -2  -8   1   37.21    2.46 
   1   8  -1    1.95    0.79 
   1   8  -1    1.49    0.94 
   1   8  -1    1.07    0.99 
   1   8  -1    1.90    0.72 
  -1  -8   1    1.16    1.18 
  -1  -8   1    1.10    0.76 
  -1  -8   1    1.32    0.75 
  -1  -8   1    1.01    0.70 
   0   8  -1   11.91    0.93 
   0   8  -1   11.03    1.13 
   0   8  -1   10.94    1.02 
   0   8  -1   12.25    1.29 
   0  -8   1   11.98    0.96 
   0  -8   1    9.62    1.13 
   0  -8   1   11.45    1.50 
   0  -8   1    9.66    0.89 
   0  -8   1   11.05    0.95 
  -1   8  -1   40.83    1.61 
  -1   8  -1   37.26    1.90 
  -1   8  -1   40.65    2.01 
   1  -8   1   42.41    2.38 
   1  -8   1   39.02    2.05 
   1  -8   1   41.95    1.45 
   1  -8   1   40.20    1.44 
   1  -8   1   38.36    1.45 
  -2   8  -1   16.11    1.25 
  -2   8  -1   19.47    1.32 
  -2   8  -1   20.82    1.41 
   2  -8   1   18.04    0.97 
   2  -8   1   18.42    0.87 
   2  -8   1   18.42    0.97 
   2  -8   1   19.43    1.92 
   2  -8   1   19.76    1.89 
  -3   8  -1  152.86    4.18 
  -3   8  -1  155.10    4.07 
   3  -8   1  152.00    3.94 
   3  -8   1  150.12    3.37 
   3  -8   1  154.75    3.17 
   3  -8   1  152.22    4.50 
   3  -8   1  148.32    3.22 
   3  -8   1  149.41    3.42 
   3  -8   1  153.81    5.05 
  -4   8  -1   62.80    2.34 
  -4   8  -1   66.65    2.85 
  -4   8  -1   63.39    2.46 
   4  -8   1   64.36    2.34 
   4  -8   1   59.50    1.61 
   4  -8   1   63.49    1.63 
   4  -8   1   61.74    3.32 
   4  -8   1   63.44    2.87 
  -5   8  -1   19.26    1.56 
  -5   8  -1   23.60    2.01 
   5  -8   1   17.62    2.30 
   5  -8   1   20.27    1.61 
   5  -8   1   19.59    0.86 
  -6   8  -1   34.61    2.51 
  -6   8  -1   37.29    1.97 
   6  -8   1   34.54    1.28 
   6  -8   1   35.12    3.30 
   6  -8   1   33.84    1.20 
   6  -8   1   30.67    2.02 
  -7   8  -1    0.57    1.36 
  -7   8  -1    2.28    1.01 
   7  -8   1    2.97    0.66 
   7  -8   1    2.51    1.99 
   8   7  -1   18.60    2.03 
   8   7  -1   14.88    1.61 
   8   7  -1   12.28    2.06 
  -8  -7   1   17.92    2.04 
   7   7  -1   62.45    2.80 
   7   7  -1   64.55    3.00 
   7   7  -1   61.70    3.31 
  -7  -7   1   59.27    3.18 
  -7  -7   1   69.77    3.63 
  -7  -7   1   62.60    3.03 
   6   7  -1   38.41    2.15 
   6   7  -1   43.36    2.36 
   6   7  -1   39.91    2.61 
  -6  -7   1   38.70    2.38 
  -6  -7   1   42.18    2.91 
  -6  -7   1   41.88    2.26 
   5   7  -1   62.78    2.55 
   5   7  -1   56.45    2.77 
   5   7  -1   57.12    2.45 
  -5  -7   1   54.75    3.00 
  -5  -7   1   59.61    2.50 
  -5  -7   1   59.76    2.59 
   4   7  -1   25.63    1.81 
   4   7  -1   30.47    1.80 
  -4  -7   1   29.90    1.80 
  -4  -7   1   30.33    1.84 
  -4  -7   1   29.52    2.34 
   3   7  -1    1.47    0.85 
   3   7  -1    1.46    0.98 
   3   7  -1    0.96    0.86 
  -3  -7   1    1.73    0.86 
  -3  -7   1    2.84    1.22 
  -3  -7   1    2.72    0.89 
   2   7  -1   29.70    1.39 
   2   7  -1   32.83    1.65 
   2   7  -1   32.12    1.51 
   2   7  -1   29.91    1.62 
   2   7  -1   28.84    1.75 
  -2  -7   1   31.31    2.13 
  -2  -7   1   31.54    1.48 
  -2  -7   1   30.88    1.59 
  -2  -7   1   29.85    1.49 
  -2  -7   1   29.86    1.55 
   1   7  -1  108.04    3.04 
   1   7  -1  103.69    2.97 
   1   7  -1  100.33    2.72 
   1   7  -1  110.37    2.88 
   1   7  -1   94.79    2.56 
  -1  -7   1  103.66    2.27 
  -1  -7   1  102.04    2.78 
  -1  -7   1  105.09    2.82 
  -1  -7   1  107.31    3.51 
  -1  -7   1  103.44    2.81 
  -1  -7   1  104.07    2.78 
   0   7  -1   53.81    2.08 
   0   7  -1   55.09    1.64 
   0   7  -1   55.84    2.08 
   0   7  -1   53.41    1.77 
   0   7  -1   52.64    1.47 
   0  -7   1   54.67    1.71 
   0  -7   1   54.07    2.45 
   0  -7   1   53.75    1.84 
   0  -7   1   51.44    1.96 
   0  -7   1   55.00    1.73 
   0  -7   1   53.73    1.70 
   0  -7   1   53.58    1.47 
   0  -7   1   52.89    1.73 
  -1   7  -1   69.78    2.13 
  -1   7  -1   69.30    2.36 
  -1   7  -1   72.74    2.30 
  -1   7  -1   70.39    1.80 
   1  -7   1   70.19    1.92 
   1  -7   1   71.00    2.77 
   1  -7   1   73.68    2.63 
   1  -7   1   72.74    1.93 
   1  -7   1   71.09    1.93 
   1  -7   1   70.55    1.91 
  -2   7  -1  110.12    3.08 
  -2   7  -1  113.53    3.20 
  -2   7  -1  106.94    2.32 
  -2   7  -1  110.84    2.34 
  -2   7  -1  110.90    2.86 
   2  -7   1  111.20    2.58 
   2  -7   1  108.34    3.41 
   2  -7   1  110.94    2.53 
   2  -7   1  108.53    2.56 
   2  -7   1  108.61    3.72 
   2  -7   1  109.28    2.58 
  -3   7  -1   24.45    1.48 
  -3   7  -1   26.83    1.88 
  -3   7  -1   24.80    1.57 
   3  -7   1   24.61    0.76 
   3  -7   1   24.73    1.39 
   3  -7   1   24.60    1.88 
   3  -7   1   24.61    0.78 
   3  -7   1   24.84    0.99 
   3  -7   1   24.46    0.93 
   3  -7   1   26.21    2.27 
  -4   7  -1    4.93    1.02 
  -4   7  -1    5.65    1.07 
  -4   7  -1    4.35    0.97 
   4  -7   1    4.57    0.51 
   4  -7   1    4.19    0.35 
   4  -7   1    4.94    0.34 
   4  -7   1    4.70    0.50 
   4  -7   1    4.83    1.34 
   4  -7   1    4.22    0.89 
  -5   7  -1    9.29    1.27 
  -5   7  -1    6.98    1.08 
   5  -7   1    8.42    0.49 
   5  -7   1    5.24    0.99 
   5  -7   1    7.48    0.61 
   5  -7   1    8.07    0.67 
   5  -7   1    7.51    1.69 
  -6   7  -1   10.07    1.58 
  -6   7  -1    9.62    1.22 
   6  -7   1    7.42    1.87 
   6  -7   1    8.53    1.18 
   6  -7   1    9.79    0.69 
   6  -7   1    9.45    0.74 
   6  -7   1    7.19    0.75 
  -7   7  -1   17.24    1.46 
  -7   7  -1   18.48    1.75 
   7  -7   1   16.68    2.51 
   7  -7   1   19.83    1.82 
   7  -7   1   17.50    1.18 
  -8   7  -1   30.56    2.48 
   8  -7   1   30.34    1.52 
   8  -7   1   29.98    3.70 
   8  -7   1   29.88    2.51 
   8   6  -1   35.26    2.52 
   8   6  -1   31.47    2.88 
   8   6  -1   39.19    2.28 
  -8  -6   1   36.82    2.25 
  -8  -6   1   37.77    2.06 
  -8  -6   1   37.92    3.10 
   7   6  -1   46.10    2.36 
   7   6  -1   45.59    2.90 
   7   6  -1   48.35    2.59 
  -7  -6   1   47.98    3.13 
  -7  -6   1   49.16    2.08 
  -7  -6   1   50.24    2.63 
  -7  -6   1   52.71    2.49 
   6   6  -1   48.63    2.75 
   6   6  -1   52.03    2.48 
   6   6  -1   48.10    2.22 
  -6  -6   1   55.94    2.57 
  -6  -6   1   51.10    2.94 
  -6  -6   1   50.94    2.38 
   5   6  -1    0.35    0.99 
   5   6  -1    0.29    1.09 
   5   6  -1    1.70    0.98 
  -5  -6   1    1.84    1.27 
  -5  -6   1    1.84    1.05 
  -5  -6   1    0.66    0.95 
   4   6  -1    4.70    0.89 
   4   6  -1    3.28    1.01 
   4   6  -1    4.76    1.05 
   4   6  -1    3.30    1.09 
  -4  -6   1    4.59    0.96 
  -4  -6   1    5.04    1.32 
  -4  -6   1    4.12    1.02 
  -4  -6   1    3.83    0.97 
   3   6  -1   16.65    1.28 
   3   6  -1   18.18    1.33 
   3   6  -1   16.53    1.66 
   3   6  -1   16.80    1.45 
  -3  -6   1   18.00    1.50 
  -3  -6   1   17.82    1.38 
  -3  -6   1   18.09    1.33 
  -3  -6   1   16.29    1.22 
   2   6  -1  239.20    5.29 
   2   6  -1  235.86    5.41 
   2   6  -1  233.10    5.38 
   2   6  -1  235.99    5.55 
   2   6  -1  233.17    5.35 
  -2  -6   1  239.93    5.40 
  -2  -6   1  242.53    5.88 
  -2  -6   1  229.27    5.38 
  -2  -6   1  239.91    5.47 
  -2  -6   1  226.98    5.39 
   1   6  -1   59.80    1.71 
   1   6  -1   59.87    1.84 
   1   6  -1   59.98    1.85 
   1   6  -1   58.38    2.06 
   1   6  -1   58.21    2.00 
  -1  -6   1   58.39    1.85 
  -1  -6   1   57.75    1.98 
  -1  -6   1   58.18    1.79 
  -1  -6   1   56.87    1.80 
  -1  -6   1   61.29    2.43 
  -1  -6   1   58.99    1.37 
  -1  -6   1   60.14    1.87 
   0   6  -1  164.97    3.69 
   0   6  -1  158.01    3.74 
   0   6  -1  158.06    3.97 
   0   6  -1  157.38    3.97 
   0  -6   1  161.67    3.50 
   0  -6   1  158.96    3.72 
   0  -6   1  164.26    3.88 
   0  -6   1  162.99    3.69 
   0  -6   1  164.18    3.89 
   0  -6   1  158.28    3.69 
   0  -6   1  164.55    4.36 
   0  -6   1  164.67    3.69 
  -1   6  -1   46.92    1.51 
  -1   6  -1   45.21    1.29 
  -1   6  -1   43.87    1.72 
  -1   6  -1   47.71    1.35 
  -1   6  -1   45.48    1.80 
   1  -6   1   47.44    1.39 
   1  -6   1   47.53    1.60 
   1  -6   1   47.63    1.42 
   1  -6   1   48.34    1.39 
   1  -6   1   48.19    1.40 
   1  -6   1   46.72    2.11 
   1  -6   1   47.77    1.40 
   1  -6   1   48.48    2.01 
  -2   6  -1   16.22    1.18 
  -2   6  -1   16.73    0.58 
  -2   6  -1   17.08    0.57 
  -2   6  -1   16.21    1.09 
  -2   6  -1   15.79    0.98 
   2  -6   1   15.79    0.72 
   2  -6   1   16.92    0.77 
   2  -6   1   16.45    1.07 
   2  -6   1   16.64    1.57 
   2  -6   1   16.63    0.78 
   2  -6   1   16.47    0.78 
   2  -6   1   16.78    1.51 
  -3   6  -1   24.12    1.44 
  -3   6  -1   22.09    1.39 
  -3   6  -1   22.28    1.68 
   3  -6   1   24.65    0.93 
   3  -6   1   24.72    1.31 
   3  -6   1   21.70    2.09 
   3  -6   1   22.70    0.76 
   3  -6   1   24.21    0.91 
   3  -6   1   24.17    0.78 
  -4   6  -1   20.22    1.72 
  -4   6  -1   18.21    1.35 
  -4   6  -1   19.23    1.33 
   4  -6   1   19.40    0.73 
   4  -6   1   22.07    2.19 
   4  -6   1   19.13    1.37 
   4  -6   1   19.24    0.91 
   4  -6   1   19.97    0.87 
  -5   6  -1   94.30    2.78 
  -5   6  -1   96.10    3.25 
   5  -6   1   93.99    2.98 
   5  -6   1   95.11    2.33 
   5  -6   1   89.20    2.21 
   5  -6   1   93.97    2.28 
   5  -6   1   93.17    2.35 
   5  -6   1   91.93    4.13 
  -6   6  -1   29.48    2.14 
  -6   6  -1   28.80    1.55 
  -6   6  -1   29.57    1.63 
   6  -6   1   32.21    1.99 
   6  -6   1   30.68    3.02 
   6  -6   1   27.21    1.25 
   6  -6   1   28.05    1.25 
   6  -6   1   30.49    1.27 
  -7   6  -1  147.14    4.62 
  -7   6  -1  153.32    3.95 
  -7   6  -1  149.35    4.22 
   7  -6   1  156.16    4.55 
   7  -6   1  151.93    6.19 
   7  -6   1  154.55    3.75 
   7  -6   1  152.94    3.70 
  -8   6  -1   10.43    1.48 
  -8   6  -1    8.68    1.48 
   8  -6   1   10.32    2.07 
   8  -6   1   10.34    1.02 
   8  -6   1   10.48    1.66 
   8  -6   1    8.62    1.01 
  -9   6  -1   15.63    2.02 
  -9   6  -1   13.52    1.72 
   9  -6   1   13.97    1.21 
   9  -6   1    8.66    2.51 
   9  -6   1   12.22    1.21 
   9  -6   1   13.72    1.95 
   9   5  -1   10.79    1.54 
   9   5  -1    8.52    1.98 
   9   5  -1    8.74    1.51 
  -9  -5   1    6.75    1.98 
  -9  -5   1    9.34    1.69 
  -9  -5   1   10.29    1.34 
   8   5  -1   17.46    2.14 
   8   5  -1   18.39    1.92 
   8   5  -1   19.73    1.63 
  -8  -5   1   21.45    1.58 
  -8  -5   1   17.38    1.88 
  -8  -5   1   17.57    2.14 
   7   5  -1   13.45    1.80 
   7   5  -1   14.55    1.38 
   7   5  -1   16.29    1.69 
  -7  -5   1   12.23    1.46 
  -7  -5   1   14.34    1.64 
  -7  -5   1   12.48    1.83 
  -7  -5   1   13.41    1.35 
   6   5  -1   23.41    2.17 
   6   5  -1   23.02    1.82 
   6   5  -1   22.70    1.60 
   6   5  -1   21.75    1.67 
   6   5  -1   28.27    1.93 
  -6  -5   1   25.60    1.94 
  -6  -5   1   25.47    1.63 
  -6  -5   1   22.90    1.76 
   5   5  -1   25.78    2.01 
   5   5  -1   23.56    1.51 
   5   5  -1   26.63    1.75 
   5   5  -1   26.37    1.61 
   5   5  -1   24.71    1.57 
  -5  -5   1   24.34    1.75 
  -5  -5   1   22.77    1.37 
  -5  -5   1   23.88    1.64 
  -5  -5   1   26.16    2.11 
   4   5  -1   62.84    1.79 
   4   5  -1   58.88    2.16 
   4   5  -1   57.69    2.11 
   4   5  -1   66.27    2.17 
   4   5  -1   60.54    2.48 
  -4  -5   1   63.41    2.23 
  -4  -5   1   62.85    2.44 
  -4  -5   1   62.34    2.17 
  -4  -5   1   66.43    2.34 
   3   5  -1   87.61    2.48 
   3   5  -1   86.90    2.58 
   3   5  -1   88.17    2.58 
   3   5  -1   89.93    2.77 
  -3  -5   1   86.07    2.56 
  -3  -5   1   82.95    2.58 
  -3  -5   1   87.55    2.82 
  -3  -5   1   85.13    2.50 
  -3  -5   1   88.40    2.56 
   2   5  -1  163.76    3.78 
   2   5  -1  162.61    3.95 
   2   5  -1  161.04    3.99 
   2   5  -1  161.53    3.88 
   2   5  -1  166.85    3.81 
  -2  -5   1  164.67    3.92 
  -2  -5   1  156.47    3.83 
  -2  -5   1  167.91    3.85 
  -2  -5   1  156.45    3.95 
  -2  -5   1  156.76    4.25 
  -2  -5   1  151.95    3.84 
   1   5  -1  119.93    2.89 
   1   5  -1  121.43    2.91 
   1   5  -1  116.21    3.08 
   1   5  -1  114.71    2.79 
   1   5  -1  117.65    3.01 
  -1  -5   1  119.40    3.38 
  -1  -5   1  114.17    2.90 
  -1  -5   1  118.50    2.49 
  -1  -5   1  118.96    2.90 
  -1  -5   1  119.18    3.01 
  -1  -5   1  121.56    2.88 
  -1  -5   1  124.57    2.96 
   0   5  -1   10.44    0.85 
   0   5  -1   10.83    0.76 
   0   5  -1   12.14    0.75 
   0   5  -1   10.13    0.80 
   0   5  -1   10.08    0.85 
   0   5  -1   11.21    0.64 
   0  -5   1    9.34    0.79 
   0  -5   1   10.96    0.83 
   0  -5   1   11.51    0.78 
   0  -5   1   11.14    0.77 
   0  -5   1    9.41    1.04 
   0  -5   1   11.01    0.95 
   0  -5   1   10.61    0.62 
   0  -5   1   10.73    0.95 
  -1   5  -1   12.60    0.66 
  -1   5  -1   11.52    0.96 
  -1   5  -1   12.48    0.65 
  -1   5  -1   13.00    1.04 
  -1   5  -1   11.01    0.86 
  -1   5  -1   11.84    0.46 
   1  -5   1   11.94    0.68 
   1  -5   1   11.73    0.71 
   1  -5   1   13.08    0.71 
   1  -5   1   12.48    1.25 
   1  -5   1   10.95    1.05 
   1  -5   1   13.18    0.73 
   1  -5   1   11.55    0.82 
   1  -5   1   12.82    0.67 
  -2   5  -1   23.60    1.13 
  -2   5  -1   24.36    1.19 
  -2   5  -1   24.19    0.72 
  -2   5  -1   24.93    1.50 
   2  -5   1   23.92    1.12 
   2  -5   1   24.04    1.10 
   2  -5   1   24.08    0.85 
   2  -5   1   24.63    1.65 
   2  -5   1   24.69    0.86 
   2  -5   1   24.88    1.27 
   2  -5   1   24.39    0.82 
   2  -5   1   25.95    1.07 
  -3   5  -1  161.19    3.92 
  -3   5  -1  161.23    3.36 
  -3   5  -1  159.12    3.81 
  -3   5  -1  159.93    4.11 
   3  -5   1  166.72    3.53 
   3  -5   1  163.47    3.82 
   3  -5   1  164.31    3.47 
   3  -5   1  165.70    4.86 
   3  -5   1  168.98    3.83 
   3  -5   1  164.84    3.92 
   3  -5   1  155.44    3.52 
  -4   5  -1   46.27    1.21 
  -4   5  -1   48.00    1.20 
  -4   5  -1   48.62    2.10 
  -4   5  -1   45.54    1.71 
   4  -5   1   47.17    1.32 
   4  -5   1   50.97    1.78 
   4  -5   1   47.02    1.37 
   4  -5   1   48.11    1.87 
   4  -5   1   47.32    1.36 
   4  -5   1   49.23    1.40 
   4  -5   1   45.26    2.71 
  -5   5  -1   88.96    2.18 
  -5   5  -1   86.92    2.60 
  -5   5  -1   92.30    3.05 
  -5   5  -1   91.23    2.68 
   5  -5   1   89.47    3.79 
   5  -5   1   90.80    2.83 
   5  -5   1   92.81    2.31 
   5  -5   1   84.68    2.22 
   5  -5   1   90.12    2.31 
   5  -5   1   92.02    2.30 
  -6   5  -1   57.74    2.28 
  -6   5  -1   53.91    1.98 
  -6   5  -1   52.62    2.52 
   6  -5   1   58.96    2.41 
   6  -5   1   54.39    1.77 
   6  -5   1   58.04    3.56 
   6  -5   1   53.75    1.79 
   6  -5   1   56.89    1.81 
  -7   5  -1    8.85    0.97 
  -7   5  -1    7.73    1.21 
  -7   5  -1    6.54    1.43 
   7  -5   1    7.23    0.87 
   7  -5   1    8.06    1.38 
   7  -5   1    7.82    1.99 
   7  -5   1    7.45    0.92 
  -8   5  -1    3.63    1.41 
  -8   5  -1    4.84    1.28 
   8  -5   1    4.96    0.91 
   8  -5   1    3.61    0.91 
   8  -5   1    2.20    1.84 
   8  -5   1    2.35    1.28 
  -9   5  -1    9.66    1.76 
  -9   5  -1    9.90    1.50 
   9  -5   1    9.52    1.15 
   9  -5   1    7.07    1.62 
   9  -5   1    6.75    1.96 
   9  -5   1    8.62    1.16 
   9   4  -1    5.98    1.37 
   9   4  -1    7.76    1.90 
   9   4  -1    7.51    1.61 
  -9  -4   1    8.11    1.25 
  -9  -4   1    4.80    1.69 
  -9  -4   1    8.56    1.62 
   8   4  -1    3.23    1.01 
   8   4  -1    4.31    1.04 
   8   4  -1    3.05    1.30 
   8   4  -1    2.40    1.24 
   8   4  -1    2.56    1.35 
  -8  -4   1    2.24    1.55 
  -8  -4   1    3.60    1.01 
  -8  -4   1    2.88    1.30 
   7   4  -1    3.46    0.97 
   7   4  -1    0.79    1.33 
   7   4  -1    3.01    0.88 
   7   4  -1    2.84    0.94 
   7   4  -1    1.13    1.10 
  -7  -4   1    1.83    1.04 
  -7  -4   1    2.06    1.40 
  -7  -4   1    2.32    1.13 
  -7  -4   1    0.77    0.89 
   6   4  -1   90.82    3.38 
   6   4  -1   89.91    2.75 
   6   4  -1   91.11    3.09 
   6   4  -1   89.68    2.82 
   6   4  -1   89.83    3.29 
  -6  -4   1   88.14    3.41 
  -6  -4   1   89.47    2.94 
  -6  -4   1   89.72    3.08 
   5   4  -1  171.29    4.77 
   5   4  -1  169.48    4.53 
   5   4  -1  168.98    4.26 
   5   4  -1  178.43    4.37 
   5   4  -1  174.29    3.63 
   5   4  -1  171.78    4.60 
  -5  -4   1  177.52    4.85 
  -5  -4   1  171.78    4.43 
  -5  -4   1  182.24    4.51 
  -5  -4   1  174.36    4.40 
   4   4  -1   44.38    1.70 
   4   4  -1   42.95    2.00 
   4   4  -1   42.48    1.61 
   4   4  -1   43.33    1.84 
   4   4  -1   45.46    1.73 
  -4  -4   1   46.79    1.40 
  -4  -4   1   46.81    1.75 
  -4  -4   1   46.78    2.15 
  -4  -4   1   44.31    1.74 
  -4  -4   1   43.44    1.66 
   3   4  -1  106.19    2.57 
   3   4  -1  107.83    2.86 
   3   4  -1  111.93    2.79 
   3   4  -1  109.24    2.81 
   3   4  -1  102.94    2.81 
   3   4  -1  109.10    3.06 
  -3  -4   1  108.89    2.61 
  -3  -4   1  109.55    2.95 
  -3  -4   1  105.22    2.80 
  -3  -4   1  107.94    3.09 
  -3  -4   1  112.34    2.87 
  -3  -4   1  108.27    2.85 
   2   4  -1   79.20    2.16 
   2   4  -1   83.92    2.27 
   2   4  -1   80.59    2.30 
   2   4  -1   82.54    2.42 
   2   4  -1   81.70    2.13 
   2   4  -1   77.10    2.15 
  -2  -4   1   81.63    2.59 
  -2  -4   1   79.35    2.08 
  -2  -4   1   81.68    2.19 
  -2  -4   1   80.53    2.29 
  -2  -4   1   77.97    2.18 
  -2  -4   1   80.39    2.22 
  -2  -4   1   85.67    2.30 
   1   4  -1   10.16    0.81 
   1   4  -1    9.07    0.72 
   1   4  -1   10.59    0.81 
   1   4  -1    9.15    0.76 
   1   4  -1    8.22    0.72 
   1   4  -1    9.02    0.78 
   1   4  -1    9.29    0.77 
  -1  -4   1    9.30    0.94 
  -1  -4   1    9.07    0.38 
  -1  -4   1    8.70    0.73 
  -1  -4   1    7.67    0.97 
  -1  -4   1   10.82    0.80 
  -1  -4   1    8.71    0.71 
  -1  -4   1    9.73    0.81 
  -1  -4   1   10.34    0.95 
   0   4  -1    4.86    0.61 
   0   4  -1    4.91    0.60 
   0   4  -1    5.14    0.53 
   0   4  -1    4.85    0.46 
   0   4  -1    4.69    0.72 
   0  -4   1    4.27    0.64 
   0  -4   1    3.72    0.82 
   0  -4   1    5.02    0.59 
   0  -4   1    5.31    0.72 
   0  -4   1    4.72    0.49 
   0  -4   1    4.45    0.59 
   0  -4   1    4.87    0.42 
   0  -4   1    4.76    0.49 
   0  -4   1    4.62    0.54 
   0  -4   1    5.25    0.71 
   0  -4   1    3.34    0.53 
  -1   4  -1  111.79    2.56 
  -1   4  -1  112.79    2.47 
  -1   4  -1  112.75    2.45 
  -1   4  -1  112.52    2.78 
  -1   4  -1  110.15    2.91 
  -1   4  -1  111.24    2.72 
  -1   4  -1  110.91    2.34 
  -1   4  -1  110.27    2.36 
   1  -4   1  112.85    2.73 
   1  -4   1  116.79    2.70 
   1  -4   1  106.84    2.47 
   1  -4   1  112.18    2.55 
   1  -4   1  111.14    2.48 
   1  -4   1  107.38    2.48 
   1  -4   1  109.42    2.67 
   1  -4   1  109.60    2.46 
   1  -4   1  111.86    3.12 
   1  -4   1  110.54    2.60 
   1  -4   1  109.59    2.93 
  -2   4  -1  230.17    5.16 
  -2   4  -1  227.04    5.33 
  -2   4  -1  228.03    4.78 
  -2   4  -1  234.59    4.79 
  -2   4  -1  231.99    5.08 
   2  -4   1  239.73    5.56 
   2  -4   1  233.21    5.02 
   2  -4   1  230.40    4.86 
   2  -4   1  236.51    5.84 
   2  -4   1  231.65    4.85 
   2  -4   1  237.42    5.04 
   2  -4   1  237.87    4.86 
   2  -4   1  231.65    5.08 
   2  -4   1  233.08    5.13 
   2  -4   1  232.29    5.14 
   2  -4   1  240.58    5.07 
  -3   4  -1  127.18    3.15 
  -3   4  -1  127.74    3.42 
  -3   4  -1  131.09    2.81 
  -3   4  -1  129.92    3.06 
  -3   4  -1  126.32    3.14 
   3  -4   1  125.79    4.05 
   3  -4   1  130.28    3.07 
   3  -4   1  130.91    2.84 
   3  -4   1  130.14    2.86 
   3  -4   1  131.75    3.32 
   3  -4   1  130.22    3.22 
   3  -4   1  127.23    2.90 
   3  -4   1  127.70    2.85 
   3  -4   1  129.22    3.00 
  -4   4  -1  151.19    3.17 
  -4   4  -1  149.65    3.57 
  -4   4  -1  151.88    3.95 
  -4   4  -1  148.05    3.71 
  -4   4  -1  150.31    3.29 
  -4   4  -1  150.70    3.34 
   4  -4   1  148.14    3.35 
   4  -4   1  155.16    3.37 
   4  -4   1  149.31    3.78 
   4  -4   1  147.08    3.34 
   4  -4   1  150.58    3.42 
   4  -4   1  143.72    4.77 
   4  -4   1  152.07    3.39 
  -5   4  -1   17.91    0.98 
  -5   4  -1   18.79    1.40 
  -5   4  -1   18.74    1.09 
  -5   4  -1   19.97    1.61 
   5  -4   1   19.04    1.04 
   5  -4   1   19.61    0.94 
   5  -4   1   18.79    0.95 
   5  -4   1   18.81    1.00 
   5  -4   1   19.49    1.07 
   5  -4   1   18.21    2.28 
   5  -4   1   19.93    1.55 
  -6   4  -1    0.44    0.61 
  -6   4  -1    0.36    1.05 
  -6   4  -1    1.16    0.91 
  -6   4  -1    0.63    0.66 
   6  -4   1    1.24    0.77 
   6  -4   1    2.40    0.97 
   6  -4   1    1.09    0.63 
   6  -4   1    0.96    0.51 
   6  -4   1    0.27    0.62 
   6  -4   1   -0.28    0.61 
   6  -4   1    0.48    1.41 
  -7   4  -1    0.15    0.65 
  -7   4  -1    0.98    1.01 
  -7   4  -1   -0.34    1.11 
   7  -4   1   -0.05    1.50 
   7  -4   1   -0.73    1.10 
   7  -4   1    0.23    0.71 
   7  -4   1    0.29    0.64 
  -8   4  -1   63.25    2.95 
  -8   4  -1   64.15    2.57 
   8  -4   1   60.67    2.19 
   8  -4   1   56.82    2.90 
   8  -4   1   58.92    4.17 
   8  -4   1   58.55    2.26 
  -9   4  -1   13.96    1.58 
  -9   4  -1   12.42    1.85 
   9  -4   1   12.82    2.53 
   9  -4   1   13.51    1.34 
   9  -4   1   10.93    1.30 
   9  -4   1   10.03    1.78 
   9   3  -1   37.32    2.46 
   9   3  -1   37.28    2.39 
   9   3  -1   31.47    2.89 
   9   3  -1   33.74    3.17 
   9   3  -1   36.03    2.28 
  -9  -3   1   39.68    2.45 
  -9  -3   1   36.88    1.97 
  -9  -3   1   34.92    2.80 
   8   3  -1   27.40    2.67 
   8   3  -1   26.31    1.95 
   8   3  -1   25.39    2.50 
   8   3  -1   22.78    2.00 
  -8  -3   1   27.97    1.80 
  -8  -3   1   25.02    2.40 
  -8  -3   1   25.33    1.63 
   7   3  -1   87.03    3.53 
   7   3  -1   88.15    3.74 
   7   3  -1   91.99    2.94 
   7   3  -1   92.58    3.18 
  -7  -3   1   97.79    3.24 
  -7  -3   1   91.82    2.76 
  -7  -3   1   92.36    3.03 
  -7  -3   1   87.94    3.47 
   6   3  -1  186.61    4.99 
   6   3  -1  185.65    4.85 
   6   3  -1  198.52    5.55 
   6   3  -1  193.89    5.34 
   6   3  -1  190.41    4.88 
   6   3  -1  197.03    4.24 
  -6  -3   1  194.39    4.06 
  -6  -3   1  203.72    5.37 
  -6  -3   1  203.51    4.93 
  -6  -3   1  196.43    4.65 
  -6  -3   1  187.11    4.99 
   5   3  -1   18.36    1.45 
   5   3  -1   18.49    0.73 
   5   3  -1   17.87    1.30 
   5   3  -1   18.46    1.35 
   5   3  -1   18.45    1.56 
   5   3  -1   14.71    1.37 
  -5  -3   1   18.26    1.29 
  -5  -3   1   17.51    0.74 
  -5  -3   1   18.30    1.33 
  -5  -3   1   17.26    1.69 
  -5  -3   1   19.08    1.44 
   4   3  -1   79.28    2.56 
   4   3  -1   82.00    2.36 
   4   3  -1   80.96    2.33 
   4   3  -1   79.09    2.63 
   4   3  -1   76.28    2.32 
   4   3  -1   78.87    1.77 
  -4  -3   1   77.91    2.36 
  -4  -3   1   81.26    1.90 
  -4  -3   1   76.73    2.61 
  -4  -3   1   77.08    2.24 
  -4  -3   1   74.02    2.41 
   3   3  -1   58.81    1.29 
   3   3  -1   63.54    2.11 
   3   3  -1   59.33    2.04 
   3   3  -1   60.26    1.95 
   3   3  -1   58.82    1.84 
   3   3  -1   58.70    1.84 
   3   3  -1   61.19    1.86 
  -3  -3   1   57.33    1.89 
  -3  -3   1   61.06    2.00 
  -3  -3   1   56.87    1.77 
  -3  -3   1   57.34    1.83 
  -3  -3   1   59.10    1.54 
  -3  -3   1   59.57    1.85 
  -3  -3   1   63.07    2.17 
   2   3  -1   37.25    1.16 
   2   3  -1   33.80    1.28 
   2   3  -1   43.10    1.51 
   2   3  -1   35.07    1.30 
   2   3  -1   36.66    1.27 
   2   3  -1   35.34    1.07 
   2   3  -1   34.69    1.49 
  -2  -3   1   35.12    1.39 
  -2  -3   1   35.89    1.15 
  -2  -3   1   35.25    1.61 
  -2  -3   1   36.33    1.31 
  -2  -3   1   37.41    1.36 
  -2  -3   1   35.47    1.34 
  -2  -3   1   38.19    1.40 
   1   3  -1  181.24    4.00 
   1   3  -1  185.60    4.09 
   1   3  -1  183.99    4.07 
   1   3  -1  171.37    4.19 
   1   3  -1  183.92    3.98 
   1   3  -1  185.73    4.04 
   1   3  -1  189.72    3.72 
   1   3  -1  190.69    4.01 
  -1  -3   1  182.93    4.00 
  -1  -3   1  182.78    4.01 
  -1  -3   1  176.84    4.05 
  -1  -3   1  187.69    4.05 
  -1  -3   1  186.92    4.04 
  -1  -3   1  184.12    3.68 
  -1  -3   1  185.69    3.97 
  -1  -3   1  185.50    4.29 
   0   3  -1  307.45    6.33 
   0   3  -1  304.75    6.35 
   0   3  -1  302.58    6.37 
   0   3  -1  310.15    6.53 
   0   3  -1  303.46    6.37 
   0   3  -1  310.68    6.49 
   0   3  -1  308.40    6.49 
   0  -3   1  315.27    6.37 
   0  -3   1  305.60    6.38 
   0  -3   1  310.74    6.55 
   0  -3   1  319.41    6.37 
   0  -3   1  315.57    6.48 
   0  -3   1  309.40    6.38 
   0  -3   1  313.75    6.40 
   0  -3   1  308.60    6.69 
  -1   3  -1  110.77    2.50 
  -1   3  -1  110.23    2.80 
  -1   3  -1  112.12    3.02 
  -1   3  -1  112.01    2.67 
  -1   3  -1  108.43    2.42 
  -1   3  -1  109.68    2.45 
  -1   3  -1  109.48    2.59 
  -1   3  -1  112.88    2.36 
   1  -3   1  115.69    2.46 
   1  -3   1  112.86    2.51 
   1  -3   1  112.43    3.05 
   1  -3   1  111.43    2.43 
   1  -3   1  114.14    2.46 
   1  -3   1  112.24    2.64 
   1  -3   1  110.09    2.61 
   1  -3   1  110.56    2.45 
   1  -3   1  113.38    2.58 
  -2   3  -1  144.38    2.97 
  -2   3  -1  144.73    2.96 
  -2   3  -1  148.48    3.08 
  -2   3  -1  143.91    3.20 
  -2   3  -1  144.10    3.31 
  -2   3  -1  143.86    3.49 
  -2   3  -1  147.07    3.05 
   2  -3   1  147.49    3.13 
   2  -3   1  145.97    3.97 
   2  -3   1  142.48    3.07 
   2  -3   1  127.42    3.37 
   2  -3   1  148.67    3.18 
   2  -3   1  138.94    3.09 
   2  -3   1  143.84    3.27 
   2  -3   1  146.01    3.28 
   2  -3   1  145.74    3.22 
   2  -3   1  144.54    3.20 
   2  -3   1  143.29    3.08 
  -3   3  -1   61.13    1.58 
  -3   3  -1   60.68    1.74 
  -3   3  -1   59.61    1.46 
  -3   3  -1   57.91    2.03 
  -3   3  -1   60.48    1.43 
  -3   3  -1   63.15    1.87 
   3  -3   1   59.27    1.56 
   3  -3   1   61.76    1.57 
   3  -3   1   63.72    2.50 
   3  -3   1   63.35    1.60 
   3  -3   1   62.87    2.02 
   3  -3   1   62.23    1.78 
   3  -3   1   63.38    1.90 
   3  -3   1   60.96    1.58 
   3  -3   1   61.20    1.75 
   3  -3   1   60.40    1.61 
   3  -3   1   60.18    1.75 
  -4   3  -1    0.32    0.54 
  -4   3  -1    0.05    0.44 
  -4   3  -1    0.18    0.40 
  -4   3  -1   -0.67    0.47 
  -4   3  -1    0.20    0.35 
  -4   3  -1    0.30    0.81 
  -4   3  -1    0.10    0.51 
   4  -3   1    1.33    0.67 
   4  -3   1   -0.02    1.00 
   4  -3   1   -0.18    0.45 
   4  -3   1    0.49    0.41 
   4  -3   1    0.41    0.46 
   4  -3   1   -0.04    0.44 
   4  -3   1   -0.22    0.42 
  -5   3  -1    1.27    0.55 
  -5   3  -1    0.87    0.54 
  -5   3  -1    0.52    0.89 
  -5   3  -1    2.22    0.79 
  -5   3  -1    0.71    0.43 
   5  -3   1    0.59    1.17 
   5  -3   1    1.08    0.55 
   5  -3   1    1.44    0.45 
   5  -3   1    1.40    0.79 
   5  -3   1    0.59    0.48 
   5  -3   1    1.48    0.58 
   5  -3   1    1.40    0.55 
  -6   3  -1   65.97    2.56 
  -6   3  -1   67.87    2.30 
  -6   3  -1   68.14    2.07 
  -6   3  -1   64.02    1.88 
   6  -3   1   64.16    3.54 
   6  -3   1   64.01    1.75 
   6  -3   1   64.32    2.06 
   6  -3   1   64.27    2.07 
   6  -3   1   66.32    2.61 
   6  -3   1   63.51    2.02 
   6  -3   1   65.80    2.01 
  -7   3  -1   75.71    2.46 
  -7   3  -1   81.41    2.69 
  -7   3  -1   78.12    2.17 
  -7   3  -1   80.03    3.00 
   7  -3   1   80.68    2.53 
   7  -3   1   82.29    4.27 
   7  -3   1   79.51    3.12 
   7  -3   1   81.05    2.52 
  -8   3  -1   87.57    3.21 
  -8   3  -1   93.47    3.04 
   8  -3   1   90.14    2.89 
   8  -3   1   91.68    3.58 
   8  -3   1   91.42    4.83 
   8  -3   1   88.18    2.95 
  -9   3  -1   43.13    2.30 
  -9   3  -1   46.05    2.73 
   9  -3   1   45.44    2.25 
   9  -3   1   38.84    2.86 
   9  -3   1   44.11    3.97 
   9  -3   1   45.03    2.28 
 -10   3  -1   12.65    1.95 
 -10   3  -1   15.95    1.69 
  10  -3   1   14.06    1.48 
  10  -3   1   12.62    1.47 
  10  -3   1    8.16    2.53 
  10  -3   1    8.97    1.97 
  10   2  -1   30.77    3.55 
  10   2  -1   34.67    3.15 
  10   2  -1   33.25    2.36 
  10   2  -1   30.19    2.37 
 -10  -2   1   34.79    2.07 
   9   2  -1   27.40    2.87 
   9   2  -1   25.98    2.41 
   9   2  -1   29.04    2.06 
   9   2  -1   29.99    2.21 
  -9  -2   1   32.38    1.89 
  -9  -2   1   30.83    2.54 
  -9  -2   1   27.82    2.12 
   8   2  -1   61.33    2.60 
   8   2  -1   62.37    3.20 
   8   2  -1   67.88    2.78 
   8   2  -1   63.52    3.67 
  -8  -2   1   64.92    3.08 
  -8  -2   1   62.37    2.36 
  -8  -2   1   68.41    2.77 
   7   2  -1   26.83    1.83 
   7   2  -1   27.06    1.76 
   7   2  -1   23.96    1.87 
   7   2  -1   27.90    2.34 
  -7  -2   1   30.78    2.23 
  -7  -2   1   28.77    1.62 
  -7  -2   1   27.62    1.69 
  -7  -2   1   26.86    1.55 
   6   2  -1   18.20    2.03 
   6   2  -1   18.97    1.56 
   6   2  -1   16.26    1.50 
   6   2  -1   18.41    1.39 
   6   2  -1   18.13    1.21 
  -6  -2   1   20.84    1.30 
  -6  -2   1   17.85    1.38 
  -6  -2   1   18.78    1.29 
  -6  -2   1   18.29    1.52 
   5   2  -1    0.91    0.80 
   5   2  -1    0.00    0.79 
   5   2  -1    1.09    0.75 
   5   2  -1    0.52    0.38 
   5   2  -1   -0.37    0.70 
   5   2  -1    0.41    0.68 
  -5  -2   1    0.51    0.61 
  -5  -2   1    0.62    0.23 
  -5  -2   1    0.21    0.69 
  -5  -2   1    1.24    0.90 
  -5  -2   1    0.61    0.65 
   4   2  -1   13.23    1.10 
   4   2  -1   12.82    0.89 
   4   2  -1   13.71    1.08 
   4   2  -1   13.78    1.17 
   4   2  -1   13.65    1.27 
   4   2  -1   15.47    1.42 
   4   2  -1   13.81    0.64 
  -4  -2   1   13.16    1.04 
  -4  -2   1   14.65    1.17 
  -4  -2   1   14.71    1.37 
  -4  -2   1   14.91    1.11 
  -4  -2   1   13.62    0.55 
   3   2  -1   29.76    1.27 
   3   2  -1   28.81    1.43 
   3   2  -1   30.52    0.84 
   3   2  -1   30.32    1.40 
   3   2  -1   29.88    1.31 
   3   2  -1   30.75    1.29 
   3   2  -1   30.80    1.34 
   3   2  -1   31.14    1.36 
  -3  -2   1   29.41    1.28 
  -3  -2   1   30.63    1.51 
  -3  -2   1   30.53    1.35 
  -3  -2   1   28.63    1.24 
  -3  -2   1   30.55    0.87 
  -3  -2   1   30.49    1.27 
  -3  -2   1   28.87    1.29 
   2   2  -1  190.59    4.15 
   2   2  -1  190.54    4.27 
   2   2  -1  185.12    4.16 
   2   2  -1  192.58    3.95 
   2   2  -1  195.73    4.17 
   2   2  -1  184.62    4.11 
   2   2  -1  188.09    3.80 
   2   2  -1  190.06    4.27 
  -2  -2   1  187.73    4.22 
  -2  -2   1  182.29    4.15 
  -2  -2   1  184.48    4.14 
  -2  -2   1  186.35    4.19 
  -2  -2   1  186.62    4.21 
  -2  -2   1  192.99    4.31 
  -2  -2   1  190.63    3.94 
   1   2  -1  474.63    9.86 
   1   2  -1  477.21   10.28 
   1   2  -1  476.51    9.67 
   1   2  -1  480.07    9.74 
   1   2  -1  468.51    9.71 
   1   2  -1  470.14    9.72 
   1   2  -1  485.66    9.76 
  -1  -2   1  488.28    9.77 
  -1  -2   1  484.60    9.67 
  -1  -2   1  482.10    9.88 
  -1  -2   1  474.18    9.72 
  -1  -2   1  485.95    9.74 
  -1  -2   1  471.89    9.73 
  -1  -2   1  496.21    9.77 
   0   2  -1   93.12    2.05 
   0   2  -1   93.51    2.26 
   0   2  -1   95.46    2.14 
   0   2  -1   95.22    2.09 
   0   2  -1   90.22    2.08 
   0   2  -1   91.58    2.17 
   0   2  -1   92.18    2.02 
   0  -2   1   94.13    2.29 
   0  -2   1   93.27    2.17 
   0  -2   1   94.46    2.03 
   0  -2   1   90.88    2.12 
   0  -2   1   90.51    2.09 
   0  -2   1   96.65    2.19 
   0  -2   1   91.17    2.11 
   0  -2   1   92.52    2.02 
   0  -2   1   92.56    2.09 
   0  -2   1   94.94    2.27 
  -1   2  -1  484.24    9.89 
  -1   2  -1  496.42   10.20 
  -1   2  -1  492.07    9.73 
  -1   2  -1  469.84    9.84 
  -1   2  -1  479.77    9.70 
  -1   2  -1  497.18    9.81 
  -1   2  -1  484.38    9.73 
  -1   2  -1  485.61    9.99 
   1  -2   1  477.41    9.69 
   1  -2   1  464.05   10.02 
   1  -2   1  493.34    9.73 
   1  -2   1  467.61    9.87 
   1  -2   1  482.39    9.72 
   1  -2   1  469.90    9.98 
   1  -2   1  475.32    9.69 
   1  -2   1  504.82    9.81 
   1  -2   1  499.58   10.23 
  -2   2  -1   10.90    1.02 
  -2   2  -1   11.03    1.18 
  -2   2  -1   11.26    0.82 
  -2   2  -1   11.87    0.63 
  -2   2  -1   11.13    0.76 
  -2   2  -1   11.44    0.71 
  -2   2  -1   11.17    0.67 
  -2   2  -1   10.46    0.61 
  -2   2  -1   10.23    0.61 
   2  -2   1   10.59    1.12 
   2  -2   1   11.90    0.60 
   2  -2   1   10.61    0.63 
   2  -2   1   10.97    0.65 
   2  -2   1   11.09    0.67 
   2  -2   1   10.54    0.83 
   2  -2   1   10.27    0.71 
   2  -2   1   10.69    0.67 
  -3   2  -1  150.06    4.21 
  -3   2  -1  150.91    3.60 
  -3   2  -1  146.97    3.45 
  -3   2  -1  154.47    3.30 
  -3   2  -1  150.36    3.35 
  -3   2  -1  142.66    3.34 
   3  -2   1  142.54    3.31 
   3  -2   1  147.00    4.31 
   3  -2   1  154.25    3.65 
   3  -2   1  151.44    3.33 
   3  -2   1  153.79    3.35 
   3  -2   1  148.99    3.20 
   3  -2   1  156.02    3.38 
   3  -2   1  151.02    3.43 
   3  -2   1  150.63    3.58 
  -4   2  -1    6.46    0.60 
  -4   2  -1    7.63    0.77 
  -4   2  -1    6.64    0.83 
  -4   2  -1    6.46    0.65 
  -4   2  -1    6.84    0.69 
  -4   2  -1    5.76    0.77 
  -4   2  -1    6.78    0.61 
   4  -2   1    6.08    0.62 
   4  -2   1    7.37    0.73 
   4  -2   1    4.95    1.22 
   4  -2   1    7.28    0.58 
   4  -2   1    6.16    0.63 
   4  -2   1    5.97    0.63 
   4  -2   1    7.41    0.86 
  -5   2  -1  222.01    5.40 
  -5   2  -1  229.67    5.00 
  -5   2  -1  222.02    5.11 
  -5   2  -1  220.47    5.12 
  -5   2  -1  228.31    4.89 
   5  -2   1  223.44    5.15 
   5  -2   1  226.45    5.10 
   5  -2   1  230.17    6.52 
   5  -2   1  224.11    4.78 
   5  -2   1  230.55    5.10 
   5  -2   1  229.07    5.52 
   5  -2   1  233.77    5.12 
  -6   2  -1   46.25    1.83 
  -6   2  -1   43.95    1.40 
  -6   2  -1   40.21    2.11 
  -6   2  -1   47.34    1.72 
  -6   2  -1   43.61    1.60 
   6  -2   1   44.48    1.83 
   6  -2   1   44.80    1.32 
   6  -2   1   43.87    1.68 
   6  -2   1   45.39    3.01 
   6  -2   1   43.07    1.67 
   6  -2   1   43.94    2.21 
   6  -2   1   41.24    1.62 
  -7   2  -1   56.80    2.03 
  -7   2  -1   54.89    1.61 
  -7   2  -1   54.67    2.05 
  -7   2  -1   55.54    2.53 
   7  -2   1   57.98    3.59 
   7  -2   1   55.47    2.13 
   7  -2   1   55.90    2.12 
   7  -2   1   57.38    2.72 
  -8   2  -1   61.09    2.41 
  -8   2  -1   61.35    2.85 
   8  -2   1   62.91    3.04 
   8  -2   1   60.55    2.34 
   8  -2   1   68.56    2.48 
   8  -2   1   61.86    4.02 
  -9   2  -1    3.26    1.44 
  -9   2  -1    2.03    1.07 
   9  -2   1    4.38    1.26 
   9  -2   1    1.67    1.84 
   9  -2   1    1.01    1.41 
   9  -2   1    2.28    1.09 
 -10   2  -1   -1.05    1.39 
 -10   2  -1    0.40    1.13 
  10  -2   1   -0.48    1.58 
  10  -2   1   -1.35    1.85 
  10  -2   1   -1.19    1.00 
  10  -2   1    0.97    1.09 
  10   1  -1   44.09    2.58 
  10   1  -1   40.91    3.23 
  10   1  -1   47.77    2.54 
  10   1  -1   46.60    3.77 
 -10  -1   1   47.84    2.36 
 -10  -1   1   42.32    2.90 
   9   1  -1   56.16    2.51 
   9   1  -1   48.85    2.54 
   9   1  -1   51.20    2.85 
   9   1  -1   51.43    3.65 
  -9  -1   1   50.65    2.49 
  -9  -1   1   55.35    2.30 
   8   1  -1    4.86    1.53 
   8   1  -1    4.33    1.45 
   8   1  -1    4.11    1.09 
   8   1  -1    4.40    1.15 
  -8  -1   1    6.06    1.07 
  -8  -1   1    5.56    1.20 
   7   1  -1   16.87    1.56 
   7   1  -1   21.74    2.32 
   7   1  -1   18.05    1.78 
   7   1  -1   20.77    1.54 
  -7  -1   1   19.86    1.44 
  -7  -1   1   19.37    1.42 
  -7  -1   1   18.18    1.68 
  -7  -1   1   19.94    1.36 
   6   1  -1   58.38    2.23 
   6   1  -1   60.33    2.13 
   6   1  -1   68.35    2.71 
   6   1  -1   60.63    2.15 
   6   1  -1   60.69    2.96 
  -6  -1   1   66.05    2.14 
  -6  -1   1   57.27    2.04 
  -6  -1   1   59.37    2.21 
  -6  -1   1   64.06    2.56 
   5   1  -1  186.18    4.37 
   5   1  -1  177.02    4.35 
   5   1  -1  188.09    4.44 
   5   1  -1  182.07    4.45 
   5   1  -1  184.35    4.04 
   5   1  -1  183.47    4.75 
   5   1  -1  183.47    5.18 
  -5  -1   1  184.67    4.67 
  -5  -1   1  180.07    4.21 
  -5  -1   1  184.12    4.33 
  -5  -1   1  179.58    4.42 
   4   1  -1  180.26    4.17 
   4   1  -1  180.29    4.17 
   4   1  -1  184.13    4.50 
   4   1  -1  177.81    4.79 
   4   1  -1  176.14    4.24 
   4   1  -1  179.71    4.18 
   4   1  -1  181.47    4.34 
  -4  -1   1  177.68    4.15 
  -4  -1   1  182.54    4.06 
  -4  -1   1  180.88    4.41 
  -4  -1   1  186.18    4.26 
  -4  -1   1  176.92    4.13 
   3   1  -1  374.41    8.03 
   3   1  -1  368.95    7.97 
   3   1  -1  389.87    8.16 
   3   1  -1  385.43    7.70 
   3   1  -1  357.43    7.97 
   3   1  -1  394.49    7.94 
   3   1  -1  382.05    7.94 
  -3  -1   1  376.80    7.96 
  -3  -1   1  382.53    8.12 
  -3  -1   1  375.94    7.92 
  -3  -1   1  380.40    7.99 
  -3  -1   1  374.87    7.63 
  -3  -1   1  385.06    8.10 
  -3  -1   1  382.24    7.92 
   2   1  -1  172.84    3.63 
   2   1  -1  176.07    3.58 
   2   1  -1  181.62    3.83 
   2   1  -1  175.77    3.92 
   2   1  -1  181.60    3.91 
   2   1  -1  173.82    3.83 
   2   1  -1  180.98    4.00 
   2   1  -1  181.78    3.90 
  -2  -1   1  174.27    3.58 
  -2  -1   1  175.85    3.85 
  -2  -1   1  179.10    3.94 
  -2  -1   1  174.71    3.81 
  -2  -1   1  175.27    3.64 
  -2  -1   1  177.27    3.93 
  -2  -1   1  177.25    3.91 
  -2  -1   1  173.83    3.82 
   1   1  -1    1.86    0.43 
   1   1  -1    1.19    0.38 
   1   1  -1    1.37    0.46 
   1   1  -1    1.38    0.45 
   1   1  -1    0.91    0.46 
   1   1  -1    1.07    0.45 
   1   1  -1    0.94    0.29 
  -1  -1   1    1.07    0.45 
  -1  -1   1    1.39    0.47 
  -1  -1   1    0.51    0.43 
  -1  -1   1    0.64    0.21 
  -1  -1   1    0.97    0.29 
  -1  -1   1    0.62    0.44 
  -1  -1   1    1.14    0.36 
  -1  -1   1    1.56    0.49 
   0   1  -1   29.19    0.81 
   0   1  -1   29.76    1.02 
   0   1  -1   29.12    0.85 
   0   1  -1   28.98    0.79 
   0   1  -1   30.46    0.80 
   0   1  -1   28.35    0.82 
   0   1  -1   29.27    0.79 
   0  -1   1   27.74    0.79 
   0  -1   1   29.76    0.98 
   0  -1   1   29.89    0.79 
   0  -1   1   30.47    0.81 
   0  -1   1   29.63    0.82 
   0  -1   1   30.40    0.82 
   0  -1   1   29.04    0.82 
  -1   1  -1   19.03    1.20 
  -1   1  -1   18.52    0.71 
  -1   1  -1   18.68    0.91 
  -1   1  -1   17.27    0.67 
  -1   1  -1   17.29    0.71 
  -1   1  -1   17.99    0.55 
  -1   1  -1   18.95    0.78 
  -1   1  -1   17.48    0.66 
  -1   1  -1   18.80    0.77 
   1  -1   1   18.90    1.23 
   1  -1   1   16.75    0.72 
   1  -1   1   18.22    0.55 
   1  -1   1   18.51    0.65 
   1  -1   1   17.97    0.71 
   1  -1   1   18.14    0.72 
   1  -1   1   18.06    0.70 
   1  -1   1   17.17    0.74 
   1  -1   1   18.01    0.65 
  -2   1  -1  145.70    3.11 
  -2   1  -1  138.02    3.02 
  -2   1  -1  137.09    3.04 
  -2   1  -1  139.43    3.09 
  -2   1  -1  143.58    3.03 
  -2   1  -1  141.96    3.26 
  -2   1  -1  138.53    3.07 
  -2   1  -1  138.62    3.19 
   2  -1   1  137.17    3.07 
   2  -1   1  143.28    3.22 
   2  -1   1  139.11    3.09 
   2  -1   1  138.29    3.05 
   2  -1   1  140.56    3.77 
   2  -1   1  145.46    3.06 
   2  -1   1  139.47    2.88 
   2  -1   1  142.60    3.09 
  -3   1  -1  203.06    4.36 
  -3   1  -1  201.57    5.18 
  -3   1  -1  204.68    4.27 
  -3   1  -1  195.13    4.33 
  -3   1  -1  211.33    4.44 
  -3   1  -1  204.23    4.38 
  -3   1  -1  195.46    4.60 
   3  -1   1  206.64    4.40 
   3  -1   1  198.06    4.43 
   3  -1   1  203.20    5.26 
   3  -1   1  204.26    4.42 
   3  -1   1  201.84    4.63 
   3  -1   1  203.16    4.39 
   3  -1   1  203.04    4.72 
  -4   1  -1  202.17    4.27 
  -4   1  -1  196.39    4.44 
  -4   1  -1  196.99    4.70 
  -4   1  -1  204.35    4.54 
  -4   1  -1  200.76    4.77 
  -4   1  -1  204.45    4.50 
   4  -1   1  193.13    4.51 
   4  -1   1  194.65    4.48 
   4  -1   1  204.51    4.78 
   4  -1   1  210.07    4.50 
   4  -1   1  201.12    5.56 
   4  -1   1  204.92    4.49 
   4  -1   1  199.16    4.54 
  -5   1  -1   84.29    2.03 
  -5   1  -1   83.26    2.29 
  -5   1  -1   81.21    2.54 
  -5   1  -1   83.71    2.35 
  -5   1  -1   86.15    2.40 
   5  -1   1   84.14    2.46 
   5  -1   1   86.56    2.37 
   5  -1   1   82.29    2.32 
   5  -1   1   81.75    2.74 
   5  -1   1   85.07    2.39 
   5  -1   1   83.26    3.46 
  -6   1  -1   89.77    2.76 
  -6   1  -1   95.58    2.73 
  -6   1  -1   97.88    2.72 
  -6   1  -1  103.67    3.17 
  -6   1  -1   98.77    2.29 
   6  -1   1   96.14    2.75 
   6  -1   1   94.10    3.26 
   6  -1   1   99.34    2.85 
   6  -1   1   98.10    2.84 
   6  -1   1   95.76    2.74 
   6  -1   1   96.00    4.07 
  -7   1  -1    7.46    1.04 
  -7   1  -1    7.54    0.58 
  -7   1  -1    9.08    1.12 
  -7   1  -1    8.87    1.42 
   7  -1   1    7.62    1.42 
   7  -1   1    6.54    1.64 
   7  -1   1    6.38    1.01 
   7  -1   1    7.65    1.09 
  -8   1  -1    1.30    0.92 
  -8   1  -1    2.12    1.24 
  -8   1  -1    0.51    0.86 
   8  -1   1    0.95    0.94 
   8  -1   1    0.06    1.26 
   8  -1   1    1.44    0.92 
   8  -1   1   -1.54    1.46 
  -9   1  -1   12.75    1.82 
  -9   1  -1    9.83    1.32 
   9  -1   1    6.85    1.73 
   9  -1   1   10.82    1.43 
   9  -1   1   11.59    1.37 
   9  -1   1    9.00    2.18 
 -10   1  -1   44.32    2.86 
 -10   1  -1   43.66    2.30 
  10  -1   1   44.22    2.54 
  10  -1   1   37.81    3.12 
  10  -1   1   41.93    2.45 
  10  -1   1   38.45    4.25 
  10   0  -1   -2.12    1.61 
  10   0  -1    0.31    1.21 
  10   0  -1    0.03    1.10 
  10   0  -1   -0.04    1.63 
 -10   0   1    0.61    1.39 
 -10   0   1   -0.09    1.09 
   9   0  -1    2.24    1.14 
   9   0  -1    1.51    1.05 
   9   0  -1   -0.90    1.44 
   9   0  -1    0.79    1.56 
  -9   0   1    3.43    1.11 
  -9   0   1    0.35    1.29 
   8   0  -1    4.66    1.04 
   8   0  -1    3.71    1.58 
   8   0  -1    5.13    1.10 
   8   0  -1    4.34    1.45 
  -8   0   1    5.42    1.38 
  -8   0   1    4.99    1.06 
  -8   0   1    3.55    1.05 
   7   0  -1   78.09    2.66 
   7   0  -1   77.62    2.59 
   7   0  -1   78.86    3.78 
   7   0  -1   80.58    3.19 
  -7   0   1   73.22    2.39 
  -7   0   1   83.11    2.67 
  -7   0   1   78.98    2.57 
   6   0  -1   28.21    1.94 
   6   0  -1   29.72    2.34 
   6   0  -1   28.33    1.53 
   6   0  -1   30.46    1.46 
   6   0  -1   28.52    1.50 
   6   0  -1   29.77    1.48 
  -6   0   1   29.81    1.49 
  -6   0   1   31.33    1.39 
  -6   0   1   27.04    1.36 
   5   0  -1  171.54    5.05 
   5   0  -1  167.07    4.04 
   5   0  -1  172.72    4.13 
   5   0  -1  168.83    4.08 
   5   0  -1  167.17    4.03 
   5   0  -1  171.57    4.49 
  -5   0   1  170.64    4.06 
  -5   0   1  172.35    4.34 
  -5   0   1  165.81    4.00 
  -5   0   1  176.86    4.02 
   4   0  -1  105.45    2.51 
   4   0  -1  111.43    2.68 
   4   0  -1  111.68    3.07 
   4   0  -1  111.72    2.70 
   4   0  -1  110.47    2.72 
   4   0  -1  104.24    3.45 
   4   0  -1  109.51    2.90 
   4   0  -1  110.44    2.75 
  -4   0   1  105.97    2.69 
  -4   0   1   90.96    2.98 
  -4   0   1  104.77    2.62 
  -4   0   1  112.41    2.65 
  -4   0   1  105.56    2.72 
  -4   0   1  106.12    2.94 
  -4   0   1  104.41    2.68 
   3   0  -1  103.84    2.50 
   3   0  -1   96.63    2.42 
   3   0  -1  100.89    2.31 
   3   0  -1  101.21    2.73 
   3   0  -1  103.03    2.59 
   3   0  -1  100.60    2.44 
   3   0  -1  102.47    2.47 
  -3   0   1  101.67    2.45 
  -3   0   1  100.51    2.34 
  -3   0   1   98.42    2.41 
  -3   0   1  104.03    2.48 
  -3   0   1  104.72    2.63 
  -3   0   1  101.15    2.41 
   2   0  -1   12.09    1.03 
   2   0  -1   11.49    0.65 
   2   0  -1   13.46    0.86 
   2   0  -1   10.78    0.63 
   2   0  -1   10.98    0.73 
   2   0  -1   11.02    0.75 
   2   0  -1   11.30    0.76 
  -2   0   1   12.69    0.80 
  -2   0   1   11.13    0.65 
  -2   0   1   11.90    0.71 
  -2   0   1   10.51    0.59 
  -2   0   1   12.12    0.87 
  -2   0   1   11.62    0.70 
  -2   0   1   10.32    0.77 
   1   0  -1  103.81    2.28 
   1   0  -1  109.60    2.30 
   1   0  -1  107.57    2.25 
   1   0  -1  108.69    2.28 
   1   0  -1  105.83    2.24 
   1   0  -1  102.66    2.27 
   1   0  -1  106.83    2.35 
  -1   0   1  108.10    2.26 
  -1   0   1  107.68    2.27 
  -1   0   1  105.70    2.28 
  -1   0   1  107.89    2.30 
  -1   0   1  107.33    2.34 
  -1   0   1  107.08    2.24 
   0   0  -1  291.70    5.82 
   0   0  -1  274.97    5.72 
   0   0  -1  257.53    5.74 
   0   0  -1  282.27    5.62 
   0   0  -1  276.95    5.63 
   0   0   1  281.33    5.79 
   0   0   1  279.16    5.71 
   0   0   1  292.05    5.76 
   0   0   1  275.22    5.80 
   0   0   1  286.65    6.07 
  -1   0  -1   24.09    0.68 
  -1   0  -1   25.27    0.81 
  -1   0  -1   25.91    0.92 
  -1   0  -1   25.48    1.14 
  -1   0  -1   23.72    0.86 
  -1   0  -1   25.36    0.88 
  -1   0  -1   25.72    0.83 
   1   0   1   24.87    1.18 
   1   0   1   26.56    0.82 
   1   0   1   26.24    0.86 
   1   0   1   26.06    0.91 
   1   0   1   24.82    0.77 
   1   0   1   24.65    0.56 
   1   0   1   24.82    0.71 
   1   0   1   25.95    0.94 
   1   0   1   25.06    0.82 
  -2   0  -1  928.91   19.22 
  -2   0  -1  920.19   19.15 
  -2   0  -1  928.11   19.68 
  -2   0  -1  930.83   18.91 
  -2   0  -1  934.16   18.83 
  -2   0  -1  908.07   19.27 
  -2   0  -1  938.29   18.70 
   2   0   1  959.29   21.01 
   2   0   1  922.31   19.36 
   2   0   1  931.81   19.17 
   2   0   1  967.15   19.32 
   2   0   1  937.13   18.71 
   2   0   1  950.38   19.16 
   2   0   1  945.65   19.20 
  -3   0  -1  163.28    4.26 
  -3   0  -1  154.56    3.88 
  -3   0  -1  155.80    3.57 
  -3   0  -1  163.29    3.67 
  -3   0  -1  157.88    3.50 
  -3   0  -1  161.98    3.60 
   3   0   1  158.63    3.59 
   3   0   1  164.99    3.67 
   3   0   1  160.20    3.87 
   3   0   1  156.69    3.48 
   3   0   1  161.22    3.85 
   3   0   1  159.38    3.61 
   3   0   1  157.44    4.30 
   3   0   1  155.28    3.63 
  -4   0  -1   31.71    1.39 
  -4   0  -1   32.21    1.23 
  -4   0  -1   33.52    1.27 
  -4   0  -1   32.78    1.91 
  -4   0  -1   33.72    1.31 
  -4   0  -1   30.74    1.73 
   4   0   1   33.20    1.69 
   4   0   1   32.21    2.06 
   4   0   1   34.69    1.36 
   4   0   1   32.68    1.32 
   4   0   1   32.67    1.21 
   4   0   1   31.97    1.38 
   4   0   1   34.18    1.34 
  -5   0  -1   19.76    1.25 
  -5   0  -1   18.74    1.10 
  -5   0  -1   21.37    1.17 
   5   0   1   21.61    1.40 
   5   0   1   17.53    1.24 
   5   0   1   19.33    1.94 
   5   0   1   20.89    1.19 
   5   0   1   19.85    1.22 
   5   0   1   21.34    1.24 
  -6   0  -1    7.31    1.02 
  -6   0  -1    6.60    0.89 
  -6   0  -1    6.68    0.90 
  -6   0  -1    7.19    0.53 
   6   0   1    7.47    0.94 
   6   0   1    5.37    0.95 
   6   0   1    6.68    1.41 
   6   0   1    7.79    0.97 
   6   0   1    6.71    1.04 
  -7   0  -1   37.58    1.99 
  -7   0  -1   37.83    1.73 
  -7   0  -1   37.45    1.09 
  -7   0  -1   37.93    1.91 
   7   0   1   36.31    2.89 
   7   0   1   35.99    1.90 
   7   0   1   37.30    2.42 
   7   0   1   37.15    1.82 
  -8   0  -1   44.04    2.53 
  -8   0  -1   46.52    2.00 
  -8   0  -1   42.24    2.16 
   8   0   1   43.89    2.23 
   8   0   1   45.27    2.77 
   8   0   1   48.04    2.18 
   8   0   1   48.70    3.41 
  -9   0  -1   68.33    3.79 
  -9   0  -1   68.80    2.59 
  -9   0  -1   67.60    3.23 
   9   0   1   71.68    2.93 
   9   0   1   68.31    4.29 
   9   0   1   71.31    3.57 
   9   0   1   73.38    2.82 
 -10   0  -1   11.67    1.42 
 -10   0  -1    8.34    1.85 
  10   0   1    7.44    1.93 
  10   0   1   10.32    1.58 
  10   0   1    7.28    2.24 
  10   0   1    8.79    1.55 
  10  -1  -1   -0.24    1.75 
  10  -1  -1    0.83    1.11 
  10  -1  -1    1.49    1.66 
  10  -1  -1    0.90    1.05 
 -10   1   1    1.68    1.14 
 -10   1   1    0.83    1.42 
   9  -1  -1   33.45    2.17 
   9  -1  -1   35.45    3.41 
   9  -1  -1   34.49    1.96 
   9  -1  -1   31.94    2.37 
  -9   1   1   32.71    2.26 
  -9   1   1   32.29    2.01 
   8  -1  -1   94.86    4.59 
   8  -1  -1   98.72    3.80 
   8  -1  -1  100.06    3.06 
   8  -1  -1   99.06    3.14 
  -8   1   1  101.30    3.08 
  -8   1   1   98.16    3.40 
  -8   1   1   90.84    3.05 
   7  -1  -1  102.04    3.01 
   7  -1  -1  101.03    4.38 
   7  -1  -1  101.46    2.95 
   7  -1  -1  104.44    2.98 
   7  -1  -1   94.66    2.97 
   7  -1  -1  102.49    3.44 
  -7   1   1   99.99    2.96 
  -7   1   1   99.88    3.27 
  -7   1   1  100.98    2.99 
   6  -1  -1  107.92    2.89 
   6  -1  -1  107.65    2.88 
   6  -1  -1  105.63    3.41 
   6  -1  -1  102.85    2.83 
   6  -1  -1  103.13    4.11 
   6  -1  -1  105.52    2.90 
  -6   1   1  103.37    2.86 
  -6   1   1  100.61    2.75 
  -6   1   1  100.33    2.80 
  -6   1   1  101.97    3.11 
   5  -1  -1   57.87    1.81 
   5  -1  -1   55.14    2.81 
   5  -1  -1   62.43    1.89 
   5  -1  -1   59.93    1.82 
   5  -1  -1   59.98    1.80 
   5  -1  -1   58.34    2.14 
  -5   1   1   59.06    1.34 
  -5   1   1   60.58    1.90 
  -5   1   1   55.11    1.89 
  -5   1   1   57.83    1.72 
  -5   1   1   58.79    2.05 
   4  -1  -1   -0.10    0.59 
   4  -1  -1   -0.36    0.66 
   4  -1  -1    0.10    0.59 
   4  -1  -1    0.28    0.39 
   4  -1  -1   -0.02    0.49 
   4  -1  -1   -0.57    0.46 
   4  -1  -1    0.07    0.53 
   4  -1  -1   -0.70    0.90 
   4  -1  -1   -0.06    0.48 
  -4   1   1   -0.10    0.62 
  -4   1   1   -0.14    0.51 
  -4   1   1    0.09    0.26 
  -4   1   1    1.22    0.69 
  -4   1   1   -0.02    0.49 
  -4   1   1    0.81    0.45 
  -4   1   1    0.30    0.46 
  -4   1   1    0.28    0.57 
   3  -1  -1   37.11    1.17 
   3  -1  -1   36.35    1.14 
   3  -1  -1   34.39    0.90 
   3  -1  -1   34.89    1.35 
   3  -1  -1   32.01    1.07 
   3  -1  -1   33.21    1.32 
   3  -1  -1   33.98    1.14 
  -3   1   1   33.98    1.25 
  -3   1   1   33.51    1.03 
  -3   1   1   34.38    1.30 
  -3   1   1   35.06    0.90 
  -3   1   1   36.16    1.17 
  -3   1   1   36.40    1.20 
   2  -1  -1  695.81   14.07 
   2  -1  -1  637.74   13.54 
   2  -1  -1  683.02   13.70 
   2  -1  -1  683.00   13.80 
   2  -1  -1  681.41   13.99 
   2  -1  -1  669.43   13.90 
   2  -1  -1  685.41   14.05 
   2  -1  -1  675.71   13.48 
  -2   1   1  677.96   13.56 
  -2   1   1  674.53   13.68 
  -2   1   1  669.05   13.93 
  -2   1   1  662.35   13.52 
  -2   1   1  671.64   13.50 
  -2   1   1  646.91   13.79 
  -2   1   1  675.58   13.59 
  -2   1   1  688.62   13.89 
   1  -1  -1   36.33    0.97 
   1  -1  -1   36.25    0.97 
   1  -1  -1   35.97    0.86 
   1  -1  -1   35.77    0.95 
   1  -1  -1   37.31    0.85 
   1  -1  -1   36.22    0.84 
   1  -1  -1   34.87    0.86 
  -1   1   1   35.64    0.93 
  -1   1   1   35.59    0.97 
  -1   1   1   36.59    1.00 
  -1   1   1   36.11    0.82 
  -1   1   1   35.11    0.85 
  -1   1   1   37.61    0.83 
  -1   1   1   36.43    1.07 
  -1   1   1   37.28    0.87 
   0  -1  -1  262.06    5.52 
   0  -1  -1  264.25    5.61 
   0  -1  -1  267.63    5.50 
   0  -1  -1  271.17    5.45 
   0  -1  -1  268.90    5.49 
   0  -1  -1  271.71    5.49 
   0  -1  -1  265.23    5.41 
   0  -1  -1  268.16    5.45 
   0   1   1  275.68    5.45 
   0   1   1  265.56    5.41 
   0   1   1  273.86    5.39 
   0   1   1  275.59    5.46 
   0   1   1  270.98    5.52 
   0   1   1  256.78    5.47 
   0   1   1  263.24    5.48 
   0   1   1  272.06    5.48 
  -1  -1  -1  278.04    5.84 
  -1  -1  -1  274.38    5.90 
  -1  -1  -1  277.02    5.64 
  -1  -1  -1  282.84    5.74 
  -1  -1  -1  271.20    5.74 
  -1  -1  -1  274.58    5.72 
  -1  -1  -1  269.82    5.72 
   1   1   1  279.23    5.75 
   1   1   1  281.00    5.86 
   1   1   1  281.66    5.80 
   1   1   1  278.39    5.64 
   1   1   1  286.02    5.71 
   1   1   1  283.30    5.72 
   1   1   1  277.47    5.94 
  -2  -1  -1   81.38    2.13 
  -2  -1  -1   83.27    2.44 
  -2  -1  -1   82.08    2.04 
  -2  -1  -1   86.34    2.04 
  -2  -1  -1   89.71    2.18 
  -2  -1  -1   86.19    2.23 
  -2  -1  -1   83.17    1.90 
   2   1   1   86.30    2.32 
   2   1   1   81.05    2.08 
   2   1   1   83.40    2.15 
   2   1   1   83.76    2.43 
   2   1   1   81.81    1.89 
   2   1   1   84.34    2.14 
   2   1   1   82.94    2.10 
  -3  -1  -1  111.91    2.73 
  -3  -1  -1  109.11    2.51 
  -3  -1  -1  106.62    2.75 
  -3  -1  -1  106.46    3.11 
  -3  -1  -1  111.62    2.67 
  -3  -1  -1  112.27    2.99 
  -3  -1  -1  106.47    2.68 
   3   1   1  107.68    2.95 
   3   1   1  108.05    3.17 
   3   1   1  108.02    2.67 
   3   1   1  105.16    2.66 
   3   1   1  104.80    2.67 
   3   1   1  104.66    2.67 
   3   1   1  110.26    2.83 
  -4  -1  -1   51.40    1.55 
  -4  -1  -1   55.59    2.37 
  -4  -1  -1   53.09    1.76 
  -4  -1  -1   52.07    1.85 
  -4  -1  -1   55.75    2.00 
  -4  -1  -1   52.52    1.73 
   4   1   1   57.19    2.16 
   4   1   1   52.35    1.76 
   4   1   1   52.63    1.85 
   4   1   1   52.57    1.77 
   4   1   1   55.41    1.82 
   4   1   1   53.19    2.36 
  -5  -1  -1   21.20    1.27 
  -5  -1  -1   19.05    1.06 
  -5  -1  -1   19.22    1.66 
  -5  -1  -1   19.54    1.34 
   5   1   1   20.70    1.03 
   5   1   1   16.50    1.20 
   5   1   1   20.58    1.87 
   5   1   1   18.67    1.09 
   5   1   1   16.51    1.31 
   5   1   1   21.65    1.68 
  -6  -1  -1   25.98    2.02 
  -6  -1  -1   28.43    1.52 
  -6  -1  -1   26.60    1.43 
  -6  -1  -1   27.64    1.36 
   6   1   1   29.01    1.67 
   6   1   1   26.82    1.38 
   6   1   1   27.82    1.38 
   6   1   1   27.95    2.07 
   6   1   1   29.50    2.50 
  -7  -1  -1   97.41    3.21 
  -7  -1  -1  101.58    3.36 
  -7  -1  -1  101.48    3.48 
  -7  -1  -1   95.90    2.84 
   7   1   1  104.37    4.28 
   7   1   1  108.37    3.19 
   7   1   1  103.01    3.25 
   7   1   1   97.78    3.68 
  -8  -1  -1   95.82    2.97 
  -8  -1  -1   90.31    3.24 
   8   1   1   90.50    3.79 
   8   1   1   93.24    3.26 
   8   1   1   94.36    4.44 
   8   1   1   99.31    3.20 
  -9  -1  -1   25.74    2.34 
  -9  -1  -1   25.76    2.08 
  -9  -1  -1   22.85    1.70 
   9   1   1   24.14    2.35 
   9   1   1   24.29    3.02 
   9   1   1   26.85    2.00 
   9   1   1   30.37    2.18 
 -10  -1  -1   29.39    1.91 
 -10  -1  -1   27.10    2.58 
  10   1   1   29.47    2.35 
  10   1   1   26.97    2.20 
  10   1   1   21.63    2.97 
  10   1   1   24.20    2.60 
  10  -2  -1   53.58    2.48 
  10  -2  -1   50.66    2.51 
  10  -2  -1   46.78    3.36 
  10  -2  -1   49.90    4.27 
 -10   2   1   50.59    2.53 
 -10   2   1   51.37    2.88 
   9  -2  -1   28.34    1.82 
   9  -2  -1   28.50    3.32 
   9  -2  -1   26.97    1.74 
   9  -2  -1   25.94    2.56 
  -9   2   1   27.22    1.92 
  -9   2   1   27.02    2.18 
   8  -2  -1   56.51    3.78 
   8  -2  -1   48.98    2.56 
   8  -2  -1   56.26    2.30 
   8  -2  -1   54.97    2.22 
  -8   2   1   55.01    2.56 
  -8   2   1   54.55    2.30 
   7  -2  -1   67.67    2.25 
   7  -2  -1   67.54    2.29 
   7  -2  -1   72.70    3.86 
   7  -2  -1   68.63    2.75 
   7  -2  -1   71.99    2.25 
  -7   2   1   71.34    2.67 
  -7   2   1   65.49    2.42 
  -7   2   1   66.88    2.28 
   6  -2  -1    8.08    0.87 
   6  -2  -1    6.67    1.18 
   6  -2  -1    7.88    0.82 
   6  -2  -1    6.65    0.82 
   6  -2  -1    8.77    1.63 
   6  -2  -1    6.21    0.83 
  -6   2   1    7.97    0.61 
  -6   2   1    7.74    0.85 
  -6   2   1    5.75    1.06 
  -6   2   1    9.26    1.05 
  -6   2   1    8.18    0.75 
   5  -2  -1    7.85    1.41 
   5  -2  -1    9.97    0.80 
   5  -2  -1    9.59    0.78 
   5  -2  -1    8.86    1.09 
   5  -2  -1   10.79    0.95 
   5  -2  -1    9.53    0.81 
  -5   2   1   10.26    1.06 
  -5   2   1    9.42    0.88 
  -5   2   1   10.74    0.65 
  -5   2   1   10.83    0.99 
  -5   2   1    9.84    0.80 
   4  -2  -1   17.19    0.87 
   4  -2  -1   16.33    0.75 
   4  -2  -1   14.86    1.77 
   4  -2  -1   15.08    0.85 
   4  -2  -1   16.66    1.12 
   4  -2  -1   17.19    0.86 
   4  -2  -1   16.12    0.90 
   4  -2  -1   14.91    1.28 
  -4   2   1   17.59    0.75 
  -4   2   1   16.81    1.17 
  -4   2   1   15.97    0.84 
  -4   2   1   16.72    0.75 
  -4   2   1   16.82    0.82 
  -4   2   1   17.63    1.11 
   3  -2  -1  477.24    9.90 
   3  -2  -1  486.94    9.65 
   3  -2  -1  474.85    9.62 
   3  -2  -1  480.35    9.64 
   3  -2  -1  476.41    9.79 
   3  -2  -1  479.04   10.05 
   3  -2  -1  463.32    9.61 
   3  -2  -1  479.75    9.64 
  -3   2   1  473.74    9.64 
  -3   2   1  474.92   10.00 
  -3   2   1  478.10    9.83 
  -3   2   1  478.63    9.78 
  -3   2   1  466.18    9.88 
  -3   2   1  481.32    9.55 
  -3   2   1  481.34    9.62 
  -3   2   1  468.99    9.55 
   2  -2  -1  312.96    6.42 
   2  -2  -1  306.27    6.36 
   2  -2  -1  313.63    6.21 
   2  -2  -1  300.33    6.48 
   2  -2  -1  306.94    6.21 
   2  -2  -1  308.38    6.46 
   2  -2  -1  308.25    6.22 
   2  -2  -1  312.64    6.39 
   2  -2  -1  315.90    6.43 
   2  -2  -1  305.14    6.41 
   2  -2  -1  299.66    6.60 
  -2   2   1  309.10    6.49 
  -2   2   1  315.69    6.37 
  -2   2   1  305.48    6.44 
  -2   2   1  319.62    6.21 
  -2   2   1  309.44    6.34 
  -2   2   1  307.53    6.40 
   1  -2  -1  144.80    2.89 
   1  -2  -1  143.66    3.04 
   1  -2  -1  142.62    3.16 
   1  -2  -1  143.93    3.09 
   1  -2  -1  142.14    3.12 
   1  -2  -1  145.24    2.85 
   1  -2  -1  145.01    3.15 
   1  -2  -1  143.79    3.07 
   1  -2  -1  139.72    2.87 
  -1   2   1  142.31    3.12 
  -1   2   1  141.88    3.07 
  -1   2   1  142.61    3.16 
  -1   2   1  141.99    3.07 
  -1   2   1  142.18    3.17 
  -1   2   1  142.97    3.17 
   0  -2  -1  130.44    2.79 
   0  -2  -1  128.95    2.76 
   0  -2  -1  132.93    2.75 
   0  -2  -1  134.70    2.79 
   0  -2  -1  133.14    2.99 
   0  -2  -1  131.47    2.90 
   0  -2  -1  133.36    2.76 
   0  -2  -1  131.46    2.87 
   0  -2  -1  130.12    2.76 
   0   2   1  127.58    2.93 
   0   2   1  130.28    2.76 
   0   2   1  127.92    2.75 
   0   2   1  131.08    2.96 
   0   2   1  131.58    2.78 
   0   2   1  129.80    2.74 
   0   2   1  131.42    2.92 
  -1  -2  -1    1.74    0.66 
  -1  -2  -1    0.84    0.48 
  -1  -2  -1   -0.15    0.48 
  -1  -2  -1    0.68    0.48 
  -1  -2  -1    0.40    0.52 
  -1  -2  -1    0.28    0.51 
  -1  -2  -1    0.81    0.63 
   1   2   1    1.04    0.51 
   1   2   1    0.45    0.45 
   1   2   1    0.42    0.58 
   1   2   1    0.43    0.65 
   1   2   1    0.42    0.32 
   1   2   1    0.23    0.51 
   1   2   1    0.56    0.45 
  -2  -2  -1   26.37    1.24 
  -2  -2  -1   25.82    1.11 
  -2  -2  -1   27.06    1.30 
  -2  -2  -1   25.50    1.37 
  -2  -2  -1   26.56    1.14 
  -2  -2  -1   23.71    1.16 
  -2  -2  -1   26.70    1.11 
   2   2   1   25.32    1.11 
   2   2   1   25.75    1.16 
   2   2   1   26.45    1.09 
   2   2   1   27.15    1.39 
   2   2   1   25.01    1.09 
   2   2   1   25.11    1.04 
   2   2   1   25.18    1.30 
  -3  -2  -1   82.31    2.56 
  -3  -2  -1   80.25    2.28 
  -3  -2  -1   87.59    2.29 
  -3  -2  -1   89.94    2.52 
  -3  -2  -1   79.89    2.22 
  -3  -2  -1   85.68    2.52 
  -3  -2  -1   83.75    2.33 
  -3  -2  -1   86.15    2.03 
   3   2   1   83.23    2.36 
   3   2   1   81.79    2.33 
   3   2   1   88.92    2.69 
   3   2   1   86.71    2.63 
   3   2   1   84.23    2.29 
   3   2   1   83.33    2.22 
   3   2   1   89.48    2.12 
  -4  -2  -1  252.94    5.40 
  -4  -2  -1  249.24    6.11 
  -4  -2  -1  250.82    5.75 
  -4  -2  -1  252.60    5.65 
  -4  -2  -1  256.30    6.01 
  -4  -2  -1  258.07    5.68 
   4   2   1  254.68    6.01 
   4   2   1  252.76    5.41 
   4   2   1  244.56    5.61 
   4   2   1  237.04    5.71 
   4   2   1  247.65    5.64 
   4   2   1  259.92    6.23 
  -5  -2  -1   53.48    2.37 
  -5  -2  -1   54.03    2.03 
  -5  -2  -1   50.83    1.63 
  -5  -2  -1   51.22    1.92 
   5   2   1   51.92    1.48 
   5   2   1   52.25    1.92 
   5   2   1   49.85    1.60 
   5   2   1   48.33    2.30 
   5   2   1   50.48    2.44 
   5   2   1   50.68    2.01 
   5   2   1   52.66    1.91 
  -6  -2  -1  212.69    5.02 
  -6  -2  -1  226.02    5.51 
  -6  -2  -1  220.99    5.84 
  -6  -2  -1  227.78    5.38 
   6   2   1  219.61    5.85 
   6   2   1  216.77    5.35 
   6   2   1  213.86    5.34 
   6   2   1  219.78    4.95 
   6   2   1  222.17    6.35 
   6   2   1  223.79    5.50 
  -7  -2  -1    9.34    1.02 
  -7  -2  -1    8.98    1.16 
  -7  -2  -1    9.28    1.30 
  -7  -2  -1    9.11    1.54 
   7   2   1    9.49    1.23 
   7   2   1    6.84    1.50 
   7   2   1    7.57    1.55 
   7   2   1    7.34    1.25 
   7   2   1    7.15    0.86 
  -8  -2  -1   25.25    2.37 
  -8  -2  -1   24.04    1.51 
  -8  -2  -1   22.64    1.67 
   8   2   1   25.57    1.88 
   8   2   1   24.09    2.90 
   8   2   1   25.35    1.72 
   8   2   1   22.91    1.38 
   8   2   1   20.66    2.10 
  -9  -2  -1   -0.65    0.90 
  -9  -2  -1    0.02    1.01 
   9   2   1    0.29    1.56 
   9   2   1    0.90    1.21 
   9   2   1    0.29    1.09 
   9   2   1   -0.70    1.46 
  10  -3  -1   10.69    1.32 
  10  -3  -1    7.20    2.35 
  10  -3  -1    5.61    1.85 
  10  -3  -1   10.45    1.37 
 -10   3   1   11.35    1.76 
 -10   3   1   12.10    1.58 
   9  -3  -1   26.83    3.44 
   9  -3  -1   26.00    1.65 
   9  -3  -1   21.62    2.18 
   9  -3  -1   26.89    1.82 
  -9   3   1   28.81    2.21 
  -9   3   1   28.59    1.74 
   8  -3  -1    0.40    1.25 
   8  -3  -1    1.36    0.84 
   8  -3  -1    1.47    1.60 
   8  -3  -1    1.23    0.87 
  -8   3   1    0.73    1.12 
  -8   3   1    1.50    0.83 
   7  -3  -1    2.62    0.76 
   7  -3  -1    2.39    1.18 
   7  -3  -1    1.98    1.52 
   7  -3  -1    1.80    0.77 
   7  -3  -1    2.49    0.78 
  -7   3   1    4.42    1.04 
  -7   3   1    2.69    1.10 
  -7   3   1    3.07    0.72 
   6  -3  -1   39.51    1.51 
   6  -3  -1   36.43    1.46 
   6  -3  -1   37.68    2.56 
   6  -3  -1   39.05    1.48 
   6  -3  -1   39.25    2.12 
   6  -3  -1   40.17    1.51 
  -6   3   1   39.07    1.29 
  -6   3   1   36.46    1.75 
  -6   3   1   38.48    1.29 
  -6   3   1   37.62    1.71 
  -6   3   1   38.64    1.42 
   5  -3  -1  114.59    4.21 
   5  -3  -1  109.62    2.67 
   5  -3  -1  111.26    2.67 
   5  -3  -1  112.75    2.71 
   5  -3  -1  107.44    2.74 
   5  -3  -1  111.04    3.30 
   5  -3  -1  106.15    2.67 
   5  -3  -1  113.67    2.63 
  -5   3   1  108.16    2.62 
  -5   3   1  108.92    2.49 
  -5   3   1  106.42    3.08 
  -5   3   1  111.26    2.98 
  -5   3   1  110.24    2.64 
   4  -3  -1   38.36    1.72 
   4  -3  -1   37.45    2.32 
   4  -3  -1   34.27    1.12 
   4  -3  -1   36.15    1.22 
   4  -3  -1   36.10    1.14 
   4  -3  -1   37.46    1.14 
   4  -3  -1   36.61    1.31 
   4  -3  -1   36.23    1.13 
  -4   3   1   37.15    0.93 
  -4   3   1   37.40    1.09 
  -4   3   1   37.80    1.25 
  -4   3   1   38.41    1.50 
  -4   3   1   35.84    1.55 
  -4   3   1   36.08    1.09 
   3  -3  -1  374.03    8.12 
   3  -3  -1  373.08    7.57 
   3  -3  -1  375.35    7.88 
   3  -3  -1  378.31    7.58 
   3  -3  -1  375.13    7.83 
   3  -3  -1  379.27    7.92 
   3  -3  -1  373.59    8.01 
   3  -3  -1  373.78    7.83 
   3  -3  -1  373.56    7.57 
   3  -3  -1  376.94    7.80 
   3  -3  -1  377.65    7.58 
  -3   3   1  368.56    7.86 
  -3   3   1  368.88    7.53 
  -3   3   1  373.04    7.80 
  -3   3   1  384.98    7.53 
  -3   3   1  380.91    7.91 
  -3   3   1  379.16    8.01 
   2  -3  -1  171.97    3.92 
   2  -3  -1  169.24    3.81 
   2  -3  -1  171.48    3.76 
   2  -3  -1  173.98    3.82 
   2  -3  -1  173.50    3.79 
   2  -3  -1  171.82    3.79 
   2  -3  -1  170.30    3.42 
   2  -3  -1  168.13    3.42 
  -2   3   1  172.96    3.81 
  -2   3   1  174.56    3.86 
  -2   3   1  177.51    3.87 
  -2   3   1  169.28    3.82 
  -2   3   1  173.39    3.79 
  -2   3   1  170.44    3.89 
   1  -3  -1    3.41    0.26 
   1  -3  -1    2.96    0.57 
   1  -3  -1    3.06    0.62 
   1  -3  -1    3.57    0.60 
   1  -3  -1    4.64    0.51 
   1  -3  -1    4.06    0.62 
   1  -3  -1    3.08    0.24 
   1  -3  -1    3.37    0.29 
   1  -3  -1    3.46    0.60 
   1  -3  -1    3.44    0.30 
   1  -3  -1    4.31    0.46 
  -1   3   1    3.72    0.23 
  -1   3   1    3.55    0.49 
  -1   3   1    2.97    0.62 
  -1   3   1    3.97    0.61 
  -1   3   1    3.33    0.53 
  -1   3   1    3.59    0.22 
  -1   3   1    3.35    0.62 
   0  -3  -1    2.56    0.62 
   0  -3  -1    1.83    0.60 
   0  -3  -1    1.86    0.36 
   0  -3  -1    2.54    0.42 
   0  -3  -1    2.31    0.41 
   0  -3  -1    2.29    0.43 
   0  -3  -1    1.93    0.39 
   0   3   1    1.62    0.34 
   0   3   1    1.72    0.62 
   0   3   1    2.50    0.40 
   0   3   1    2.19    0.55 
   0   3   1    1.68    0.36 
   0   3   1    1.70    0.61 
   0   3   1    2.12    0.41 
  -1  -3  -1   22.92    1.00 
  -1  -3  -1   21.64    1.02 
  -1  -3  -1   22.74    0.94 
  -1  -3  -1   23.48    1.24 
  -1  -3  -1   24.74    1.00 
  -1  -3  -1   24.15    1.14 
  -1  -3  -1   22.01    0.97 
   1   3   1   22.75    1.07 
   1   3   1   23.31    0.68 
   1   3   1   23.28    0.98 
   1   3   1   26.25    1.14 
   1   3   1   23.06    0.89 
   1   3   1   26.03    0.93 
  -2  -3  -1  117.54    2.85 
  -2  -3  -1  110.87    2.86 
  -2  -3  -1  117.94    2.86 
  -2  -3  -1  117.06    3.10 
  -2  -3  -1  119.58    2.93 
  -2  -3  -1  121.82    3.10 
  -2  -3  -1  121.36    2.92 
   2   3   1  118.12    2.97 
   2   3   1  117.89    3.06 
   2   3   1  116.53    2.91 
   2   3   1  119.77    2.84 
   2   3   1  115.38    2.83 
   2   3   1  124.91    2.86 
   2   3   1  117.28    3.07 
  -3  -3  -1  130.72    3.37 
  -3  -3  -1  136.45    3.51 
  -3  -3  -1  147.63    3.46 
  -3  -3  -1  141.26    3.41 
  -3  -3  -1  139.09    3.73 
  -3  -3  -1  133.29    3.32 
   3   3   1  138.38    3.38 
   3   3   1  140.08    3.38 
   3   3   1  139.50    3.41 
   3   3   1  137.95    3.27 
   3   3   1  139.08    3.59 
   3   3   1  141.28    3.73 
  -4  -3  -1  183.04    4.45 
  -4  -3  -1  184.82    4.55 
  -4  -3  -1  187.60    4.83 
  -4  -3  -1  184.08    4.43 
   4   3   1  190.64    4.76 
   4   3   1  187.78    4.45 
   4   3   1  183.89    4.23 
   4   3   1  191.16    4.41 
   4   3   1  181.72    4.53 
  -5  -3  -1   34.26    2.12 
  -5  -3  -1   34.23    1.52 
  -5  -3  -1   32.20    1.61 
  -5  -3  -1   34.47    1.30 
  -5  -3  -1   33.80    1.16 
  -5  -3  -1   32.25    1.74 
   5   3   1   33.07    1.57 
   5   3   1   34.05    1.49 
   5   3   1   34.42    1.37 
   5   3   1   33.70    2.09 
   5   3   1   33.77    1.62 
   5   3   1   31.59    2.06 
  -6  -3  -1   23.62    1.41 
  -6  -3  -1   21.99    1.32 
  -6  -3  -1   24.26    1.80 
  -6  -3  -1   22.53    0.96 
  -6  -3  -1   24.73    1.76 
   6   3   1   21.23    1.30 
   6   3   1   23.33    1.03 
   6   3   1   22.59    1.39 
   6   3   1   22.62    2.21 
   6   3   1   21.00    2.05 
   6   3   1   25.55    1.76 
  -7  -3  -1    0.55    0.74 
  -7  -3  -1    0.29    0.96 
  -7  -3  -1    0.84    1.08 
  -7  -3  -1   -0.10    1.31 
   7   3   1   -0.25    1.26 
   7   3   1    0.13    0.95 
   7   3   1    1.05    0.68 
   7   3   1   -0.48    1.22 
   7   3   1    0.14    1.04 
  -8  -3  -1   13.20    1.91 
  -8  -3  -1   15.58    1.30 
  -8  -3  -1   13.57    1.64 
   8   3   1   13.42    1.89 
   8   3   1   12.94    1.62 
   8   3   1   13.36    1.51 
   8   3   1   13.38    2.02 
   8   3   1   13.07    1.14 
  -9  -3  -1   23.26    2.36 
  -9  -3  -1   25.09    1.77 
  -9  -3  -1   24.23    2.19 
   9   3   1   19.54    2.11 
   9   3   1   27.94    2.27 
   9   3   1   20.65    2.72 
  10  -4  -1    3.84    1.85 
  10  -4  -1    5.82    1.16 
  10  -4  -1    5.16    1.26 
 -10   4   1    7.80    1.65 
 -10   4   1    6.37    1.24 
   9  -4  -1    7.76    1.10 
   9  -4  -1    6.72    1.82 
   9  -4  -1    8.30    1.66 
   9  -4  -1    8.00    1.10 
  -9   4   1   10.56    1.71 
  -9   4   1    8.08    1.20 
   8  -4  -1   14.62    1.75 
   8  -4  -1   13.49    1.16 
   8  -4  -1   15.33    2.43 
   8  -4  -1   15.94    1.32 
  -8   4   1   17.83    1.70 
  -8   4   1   16.60    1.54 
   7  -4  -1   73.60    2.25 
   7  -4  -1   74.00    2.22 
   7  -4  -1   70.96    2.18 
   7  -4  -1   70.47    4.06 
   7  -4  -1   74.42    3.03 
  -7   4   1   71.61    2.59 
  -7   4   1   72.42    2.81 
  -7   4   1   73.27    2.07 
   6  -4  -1  201.61    4.56 
   6  -4  -1  201.40    4.56 
   6  -4  -1  208.75    4.58 
   6  -4  -1  203.87    5.35 
   6  -4  -1  192.76    6.48 
   6  -4  -1  204.10    4.57 
  -6   4   1  202.29    4.58 
  -6   4   1  202.52    4.48 
  -6   4   1  208.58    5.19 
  -6   4   1  200.15    4.90 
   5  -4  -1   27.47    1.03 
   5  -4  -1   29.85    1.74 
   5  -4  -1   26.15    1.03 
   5  -4  -1   26.05    1.26 
   5  -4  -1   26.72    2.41 
   5  -4  -1   26.78    1.04 
   5  -4  -1   27.42    1.04 
  -5   4   1   26.84    1.15 
  -5   4   1   26.84    1.50 
  -5   4   1   26.39    0.94 
  -5   4   1   27.39    1.60 
   4  -4  -1   94.46    2.13 
   4  -4  -1   93.38    2.12 
   4  -4  -1   93.82    2.11 
   4  -4  -1   94.68    2.82 
   4  -4  -1   93.32    2.43 
   4  -4  -1   93.04    2.13 
   4  -4  -1  100.48    2.65 
   4  -4  -1   90.66    3.56 
  -4   4   1   95.59    2.01 
  -4   4   1   91.13    2.72 
  -4   4   1   90.84    2.51 
  -4   4   1   93.34    2.45 
   3  -4  -1   85.73    2.29 
   3  -4  -1   88.23    1.86 
   3  -4  -1   83.15    1.80 
   3  -4  -1   83.62    3.14 
   3  -4  -1   92.36    1.82 
   3  -4  -1   86.83    2.55 
   3  -4  -1   90.42    1.87 
   3  -4  -1   90.88    2.30 
  -3   4   1   90.52    2.34 
  -3   4   1   91.00    2.34 
  -3   4   1   87.69    2.52 
  -3   4   1   85.70    2.30 
   2  -4  -1   68.20    1.91 
   2  -4  -1   67.03    1.82 
   2  -4  -1   67.07    1.89 
   2  -4  -1   63.57    1.85 
   2  -4  -1   64.78    1.75 
   2  -4  -1   65.51    1.99 
  -2   4   1   64.21    2.03 
  -2   4   1   65.66    1.94 
  -2   4   1   66.85    1.82 
  -2   4   1   65.43    1.91 
  -2   4   1   67.58    1.93 
  -2   4   1   67.03    1.88 
   1  -4  -1   26.75    1.07 
   1  -4  -1   27.18    1.05 
   1  -4  -1   27.50    1.03 
   1  -4  -1   26.40    0.76 
   1  -4  -1   24.63    1.27 
   1  -4  -1   26.90    0.76 
   1  -4  -1   26.59    0.76 
   1  -4  -1   26.78    1.17 
   1  -4  -1   26.63    0.76 
   1  -4  -1   27.81    0.94 
   1  -4  -1   26.67    1.21 
  -1   4   1   27.36    0.70 
  -1   4   1   26.19    0.97 
  -1   4   1   26.26    1.10 
  -1   4   1   27.02    1.20 
  -1   4   1   27.32    0.70 
  -1   4   1   27.38    1.23 
   0  -4  -1  471.80    9.89 
   0  -4  -1  456.35    9.68 
   0  -4  -1  472.05    9.48 
   0  -4  -1  456.39    9.47 
   0  -4  -1  466.74    9.42 
   0  -4  -1  468.84    9.50 
   0  -4  -1  475.56    9.52 
   0  -4  -1  473.65    9.68 
   0   4   1  461.00    9.40 
   0   4   1  477.50    9.87 
   0   4   1  472.98    9.48 
   0   4   1  470.39    9.41 
   0   4   1  461.47    9.72 
   0   4   1  470.96    9.42 
   0   4   1  447.72    9.67 
  -1  -4  -1  117.77    3.04 
  -1  -4  -1  111.27    2.69 
  -1  -4  -1  112.28    2.83 
  -1  -4  -1  117.78    3.13 
  -1  -4  -1  107.36    2.69 
  -1  -4  -1  116.96    2.79 
  -1  -4  -1  116.67    2.74 
  -1  -4  -1  118.17    2.78 
  -1  -4  -1  123.91    2.71 
   1   4   1  113.17    2.65 
   1   4   1  113.46    2.73 
   1   4   1  112.92    2.43 
   1   4   1  111.69    2.80 
   1   4   1  112.82    2.97 
   1   4   1  111.98    2.67 
   1   4   1  109.58    2.73 
   1   4   1  115.08    2.89 
  -2  -4  -1  131.81    3.16 
  -2  -4  -1  130.59    3.53 
  -2  -4  -1  135.73    3.21 
  -2  -4  -1  132.39    3.17 
  -2  -4  -1  128.67    3.43 
  -2  -4  -1  124.05    3.21 
  -2  -4  -1  126.46    3.08 
  -2  -4  -1  131.67    2.96 
   2   4   1  127.18    3.24 
   2   4   1  132.86    3.16 
   2   4   1  131.40    3.12 
   2   4   1  127.63    2.69 
   2   4   1  134.73    3.22 
   2   4   1  128.17    3.46 
  -3  -4  -1  188.14    4.55 
  -3  -4  -1  198.74    4.54 
  -3  -4  -1  189.82    4.87 
  -3  -4  -1  186.40    4.58 
  -3  -4  -1  197.44    4.49 
  -3  -4  -1  189.27    4.32 
   3   4   1  191.11    4.84 
   3   4   1  199.24    4.58 
   3   4   1  201.03    4.51 
   3   4   1  194.69    4.46 
   3   4   1  186.12    4.52 
  -4  -4  -1   10.52    1.04 
  -4  -4  -1   11.83    0.96 
  -4  -4  -1   11.59    1.15 
  -4  -4  -1   12.34    0.88 
  -4  -4  -1   10.57    1.31 
   4   4   1   11.93    1.31 
   4   4   1   12.39    1.05 
   4   4   1   13.97    1.28 
   4   4   1   12.95    1.35 
   4   4   1   13.27    1.02 
  -5  -4  -1    1.39    0.86 
  -5  -4  -1    1.08    0.94 
  -5  -4  -1    0.82    0.53 
  -5  -4  -1    0.59    0.65 
  -5  -4  -1   -0.03    1.13 
  -5  -4  -1   -0.11    0.59 
   5   4   1    0.47    0.80 
   5   4   1   -0.32    0.87 
   5   4   1    0.43    0.34 
   5   4   1    0.02    0.68 
   5   4   1    1.41    1.17 
   5   4   1    0.13    0.68 
  -6  -4  -1    1.49    0.83 
  -6  -4  -1    1.52    0.77 
  -6  -4  -1    1.16    1.29 
  -6  -4  -1    1.71    0.68 
   6   4   1    2.10    1.33 
   6   4   1    1.91    0.87 
   6   4   1    1.33    0.92 
   6   4   1    1.50    1.07 
   6   4   1    1.10    1.03 
  -7  -4  -1   72.38    3.38 
  -7  -4  -1   73.04    2.79 
  -7  -4  -1   72.42    2.36 
  -7  -4  -1   77.16    2.99 
   7   4   1   70.47    3.38 
   7   4   1   70.91    3.33 
   7   4   1   69.63    2.74 
   7   4   1   75.05    2.94 
   7   4   1   73.71    2.37 
  -8  -4  -1   25.54    2.16 
  -8  -4  -1   27.09    1.52 
  -8  -4  -1   22.11    2.25 
   8   4   1   20.39    2.57 
   8   4   1   22.43    2.08 
   8   4   1   21.27    2.25 
   8   4   1   24.70    1.59 
  -9  -4  -1   54.23    2.92 
  -9  -4  -1   48.01    3.27 
  -9  -4  -1   46.27    2.98 
   9   4   1   48.55    2.78 
   9   4   1   42.78    3.32 
   9  -5  -1   13.36    1.19 
   9  -5  -1   12.62    1.16 
   9  -5  -1    9.67    1.79 
   9  -5  -1   13.46    2.53 
  -9   5   1   14.25    1.78 
  -9   5   1   13.13    1.45 
   8  -5  -1   55.60    2.00 
   8  -5  -1   52.38    3.02 
   8  -5  -1   55.35    4.09 
   8  -5  -1   53.29    1.89 
  -8   5   1   59.11    2.75 
  -8   5   1   52.13    2.49 
   7  -5  -1   97.92    2.68 
   7  -5  -1  100.03    4.82 
   7  -5  -1   99.81    2.69 
   7  -5  -1  102.41    3.62 
   7  -5  -1  103.80    2.68 
  -7   5   1  104.29    2.78 
  -7   5   1  100.48    3.25 
  -7   5   1  101.22    3.45 
   6  -5  -1    5.76    0.62 
   6  -5  -1    7.13    1.20 
   6  -5  -1    8.13    0.69 
   6  -5  -1    5.22    1.65 
   6  -5  -1    6.64    0.68 
  -6   5   1    6.16    0.96 
  -6   5   1    8.19    0.91 
  -6   5   1    6.80    1.20 
   5  -5  -1   32.69    2.66 
   5  -5  -1   31.82    1.84 
   5  -5  -1   31.50    0.97 
   5  -5  -1   31.68    1.06 
   5  -5  -1   32.27    1.06 
   5  -5  -1   34.16    1.01 
  -5   5   1   32.74    1.42 
  -5   5   1   32.90    1.84 
  -5   5   1   32.50    1.50 
   4  -5  -1   18.61    0.64 
   4  -5  -1   18.61    0.64 
   4  -5  -1   20.51    0.49 
   4  -5  -1   17.06    1.97 
   4  -5  -1   18.32    1.37 
  -4   5   1   19.48    1.13 
  -4   5   1   19.02    1.45 
  -4   5   1   16.02    1.11 
   3  -5  -1    1.90    0.91 
   3  -5  -1    2.45    0.19 
   3  -5  -1    2.66    0.21 
   3  -5  -1    2.86    0.74 
  -3   5   1    3.64    0.78 
  -3   5   1    2.30    0.71 
  -3   5   1    1.98    0.72 
  -3   5   1    2.07    0.84 
   2  -5  -1   88.87    2.60 
   2  -5  -1   90.49    2.38 
   2  -5  -1   85.06    1.84 
   2  -5  -1   87.93    1.84 
   2  -5  -1   88.96    2.96 
  -2   5   1   89.01    2.39 
  -2   5   1   86.58    2.44 
  -2   5   1   86.54    2.38 
  -2   5   1   87.98    2.30 
   1  -5  -1   95.83    2.54 
   1  -5  -1   96.68    2.13 
   1  -5  -1   94.10    2.14 
   1  -5  -1   97.42    2.31 
   1  -5  -1   97.17    2.76 
   1  -5  -1   96.81    2.15 
   1  -5  -1   97.19    2.39 
   1  -5  -1   95.72    2.14 
  -1   5   1   94.61    2.29 
  -1   5   1   94.99    2.06 
  -1   5   1   96.04    2.59 
  -1   5   1   84.30    2.05 
  -1   5   1   98.91    2.55 
  -1   5   1   99.33    2.55 
   0  -5  -1   79.93    1.97 
   0  -5  -1   72.82    1.92 
   0  -5  -1   78.29    1.84 
   0  -5  -1   77.65    1.98 
   0  -5  -1   80.01    1.94 
   0  -5  -1   76.78    2.45 
   0  -5  -1   74.26    1.94 
   0   5   1   76.16    2.17 
   0   5   1   75.43    1.91 
   0   5   1   75.48    1.80 
   0   5   1   79.54    1.91 
   0   5   1   77.54    1.85 
   0   5   1   75.44    2.19 
  -1  -5  -1   88.45    2.42 
  -1  -5  -1   91.24    2.36 
  -1  -5  -1   92.20    2.22 
  -1  -5  -1   91.66    2.83 
  -1  -5  -1   92.40    2.35 
  -1  -5  -1   93.22    2.37 
  -1  -5  -1   91.84    2.70 
   1   5   1   92.14    2.54 
   1   5   1   91.87    2.27 
   1   5   1   89.89    2.56 
   1   5   1   95.25    2.37 
   1   5   1   92.51    2.03 
  -2  -5  -1   52.30    1.76 
  -2  -5  -1   47.72    2.11 
  -2  -5  -1   45.14    1.65 
  -2  -5  -1   49.56    1.67 
  -2  -5  -1   49.55    1.71 
   2   5   1   47.50    1.09 
   2   5   1   51.69    1.82 
   2   5   1   46.09    1.55 
   2   5   1   50.05    1.71 
   2   5   1   48.98    1.77 
  -3  -5  -1    1.72    1.00 
  -3  -5  -1    1.10    0.68 
  -3  -5  -1    2.37    0.73 
  -3  -5  -1    1.29    0.72 
  -3  -5  -1    1.42    0.79 
   3   5   1    2.04    0.15 
   3   5   1    1.95    0.77 
   3   5   1    1.69    0.77 
   3   5   1    2.07    0.68 
   3   5   1    2.42    0.90 
  -4  -5  -1   11.94    1.13 
  -4  -5  -1   12.56    1.45 
  -4  -5  -1   13.12    1.07 
  -4  -5  -1   13.63    1.26 
   4   5   1   12.66    0.41 
   4   5   1   13.37    1.17 
   4   5   1   12.36    1.42 
   4   5   1   11.76    1.20 
   4   5   1   11.92    1.10 
   4   5   1    9.82    1.35 
   4   5   1   13.18    0.41 
  -5  -5  -1  146.44    4.22 
  -5  -5  -1  156.32    4.17 
  -5  -5  -1  150.53    4.64 
   5   5   1  147.91    4.57 
   5   5   1  156.31    4.09 
   5   5   1  156.21    4.25 
   5   5   1  154.60    3.94 
   5   5   1  152.93    4.27 
  -6  -5  -1   61.12    2.45 
  -6  -5  -1   61.41    3.09 
  -6  -5  -1   57.47    1.96 
  -6  -5  -1   64.49    2.56 
   6   5   1   61.43    2.79 
   6   5   1   62.37    2.63 
   6   5   1   62.08    2.32 
   6   5   1   61.45    2.77 
   6   5   1   60.92    2.44 
  -7  -5  -1   55.28    2.86 
  -7  -5  -1   54.50    2.55 
  -7  -5  -1   57.53    2.08 
  -7  -5  -1   60.54    2.76 
   7   5   1   55.71    2.17 
   7   5   1   56.10    3.16 
   7   5   1   55.88    2.46 
  -8  -5  -1   47.58    3.26 
  -8  -5  -1   48.04    2.73 
  -8  -5  -1   48.20    2.17 
   8   5   1   48.14    2.14 
   8   5   1   47.25    2.67 
   8   5   1   45.75    3.20 
   9  -6  -1   38.99    3.61 
   9  -6  -1   39.68    2.87 
   9  -6  -1   42.65    1.84 
  -9   6   1   42.21    2.48 
  -9   6   1   46.15    2.71 
   8  -6  -1   13.03    1.02 
   8  -6  -1   12.10    1.65 
   8  -6  -1   11.05    2.30 
   8  -6  -1   11.51    1.03 
  -8   6   1   10.98    1.52 
  -8   6   1   13.80    1.72 
   7  -6  -1   25.91    2.08 
   7  -6  -1   26.37    1.08 
   7  -6  -1   23.71    3.08 
   7  -6  -1   24.86    1.21 
   7  -6  -1   25.23    1.20 
  -7   6   1   22.79    1.60 
  -7   6   1   25.63    2.00 
   6  -6  -1    2.94    1.04 
   6  -6  -1    2.37    1.54 
   6  -6  -1    3.18    0.51 
   6  -6  -1    3.44    0.42 
   6  -6  -1    3.04    0.51 
  -6   6   1    1.09    1.01 
  -6   6   1    2.72    0.88 
  -6   6   1    3.03    1.10 
   5  -6  -1   25.94    0.86 
   5  -6  -1   26.51    0.87 
   5  -6  -1   27.61    1.88 
   5  -6  -1   24.15    2.52 
  -5   6   1   27.26    1.47 
  -5   6   1   27.60    1.85 
  -5   6   1   27.06    1.66 
   4  -6  -1   25.99    2.23 
   4  -6  -1   27.89    1.60 
   4  -6  -1   28.27    0.72 
   4  -6  -1   27.86    0.69 
  -4   6   1   28.54    1.76 
  -4   6   1   25.44    1.56 
  -4   6   1   26.63    1.47 
   3  -6  -1  186.21    3.66 
   3  -6  -1  185.94    4.59 
   3  -6  -1  182.07    4.69 
   3  -6  -1  178.29    5.30 
  -3   6   1  182.63    4.41 
  -3   6   1  186.24    4.46 
  -3   6   1  181.39    4.47 
  -3   6   1  186.70    4.66 
   2  -6  -1  278.14    6.54 
   2  -6  -1  278.62    5.68 
   2  -6  -1  290.55    5.56 
   2  -6  -1  284.30    6.95 
   2  -6  -1  268.71    5.56 
   2  -6  -1  280.49    5.68 
  -2   6   1  279.66    6.31 
  -2   6   1  279.45    6.22 
  -2   6   1  274.26    6.27 
   1  -6  -1   57.57    2.16 
   1  -6  -1   54.14    2.13 
   1  -6  -1   56.32    1.46 
   1  -6  -1   55.75    1.46 
   1  -6  -1   56.07    1.46 
   1  -6  -1   54.89    1.58 
   1  -6  -1   55.34    1.43 
  -1   6   1   54.68    1.34 
  -1   6   1   55.05    1.85 
  -1   6   1   54.86    1.86 
  -1   6   1   53.55    1.94 
  -1   6   1   54.33    1.33 
   0  -6  -1   47.39    1.67 
   0  -6  -1   50.01    1.73 
   0  -6  -1   51.11    1.52 
   0  -6  -1   48.23    1.49 
   0  -6  -1   49.80    1.48 
   0  -6  -1   50.12    2.10 
   0  -6  -1   47.69    1.47 
   0  -6  -1   49.21    1.37 
   0   6   1   47.88    1.44 
   0   6   1   48.81    1.76 
   0   6   1   47.48    1.28 
   0   6   1   49.35    1.37 
   0   6   1   50.72    1.88 
  -1  -6  -1   -0.34    0.30 
  -1  -6  -1   -0.04    0.51 
  -1  -6  -1    0.19    0.63 
  -1  -6  -1    0.29    0.51 
  -1  -6  -1    1.57    0.91 
  -1  -6  -1    0.30    0.58 
  -1  -6  -1    0.12    0.25 
   1   6   1   -0.51    0.55 
   1   6   1   -0.36    0.72 
   1   6   1   -0.15    0.57 
   1   6   1    0.21    0.44 
  -2  -6  -1   30.61    1.50 
  -2  -6  -1   34.06    1.41 
  -2  -6  -1   33.56    1.97 
  -2  -6  -1   33.30    1.50 
  -2  -6  -1   33.50    1.53 
   2   6   1   30.89    1.59 
   2   6   1   31.53    1.43 
   2   6   1   32.90    1.62 
   2   6   1   29.98    1.34 
  -3  -6  -1    0.28    0.77 
  -3  -6  -1   -0.81    0.68 
  -3  -6  -1    0.02    0.70 
  -3  -6  -1    0.91    1.04 
   3   6   1   -0.13    0.76 
   3   6   1    0.46    0.64 
   3   6   1    0.32    0.64 
  -4  -6  -1   76.75    2.72 
  -4  -6  -1   83.00    3.21 
  -4  -6  -1   81.09    2.54 
   4   6   1   74.69    2.49 
   4   6   1   82.96    3.13 
   4   6   1   77.77    2.68 
   4   6   1   77.48    2.58 
  -5  -6  -1   29.50    2.42 
  -5  -6  -1   29.30    1.83 
  -5  -6  -1   30.15    1.95 
   5   6   1   31.41    1.72 
   5   6   1   30.77    1.89 
   5   6   1   31.54    2.27 
  -6  -6  -1   48.00    2.33 
  -6  -6  -1   43.93    2.40 
  -6  -6  -1   47.95    3.00 
  -6  -6  -1   46.04    1.84 
   6   6   1   45.91    2.38 
   6   6   1   45.54    2.78 
   6   6   1   46.55    2.07 
  -7  -6  -1   32.77    2.85 
  -7  -6  -1   35.35    2.21 
  -7  -6  -1   35.01    2.34 
  -7  -6  -1   32.33    1.65 
   7   6   1   31.39    2.26 
   7   6   1   34.08    2.77 
   7   6   1   31.31    1.95 
  -8  -6  -1   -1.81    1.64 
  -8  -6  -1   -2.57    1.20 
   8   6   1    1.77    1.06 
   8   6   1    0.49    1.64 
   8   6   1    0.29    1.23 
   8  -7  -1    5.26    0.73 
   8  -7  -1    6.72    1.47 
   8  -7  -1    6.79    2.09 
  -8   7   1    5.29    1.45 
  -8   7   1    5.26    1.33 
   7  -7  -1   35.11    1.27 
   7  -7  -1   37.08    2.35 
   7  -7  -1   35.96    3.50 
   7  -7  -1   35.95    1.27 
  -7   7   1   34.65    2.33 
  -7   7   1   35.83    2.19 
   6  -7  -1   46.84    1.29 
   6  -7  -1   42.21    3.32 
   6  -7  -1   47.89    1.31 
   6  -7  -1   47.02    2.51 
  -6   7   1   47.14    2.08 
  -6   7   1   46.73    2.44 
  -6   7   1   48.32    2.28 
   5  -7  -1   50.22    2.26 
   5  -7  -1   50.91    1.20 
   5  -7  -1   53.48    3.27 
   5  -7  -1   51.81    1.18 
  -5   7   1   50.67    2.05 
  -5   7   1   54.59    2.46 
   4  -7  -1   66.85    2.46 
   4  -7  -1   67.53    2.62 
   4  -7  -1   66.63    3.28 
  -4   7   1   68.86    2.67 
  -4   7   1   67.96    2.37 
   3  -7  -1   12.23    1.70 
   3  -7  -1    8.68    1.15 
   3  -7  -1   10.59    0.40 
   3  -7  -1   12.45    1.22 
   3  -7  -1   10.75    0.38 
  -3   7   1   11.21    1.14 
  -3   7   1   12.37    1.21 
  -3   7   1   10.68    1.09 
   2  -7  -1   47.32    1.06 
   2  -7  -1   44.64    1.21 
   2  -7  -1   43.47    1.04 
   2  -7  -1   47.68    2.40 
   2  -7  -1   45.61    2.12 
   2  -7  -1   44.76    1.21 
  -2   7   1   41.20    1.74 
  -2   7   1   47.66    1.96 
  -2   7   1   48.21    1.83 
   1  -7  -1    0.52    0.89 
   1  -7  -1    0.40    0.46 
   1  -7  -1    0.20    0.74 
   1  -7  -1   -0.06    0.43 
   1  -7  -1    0.90    0.41 
   1  -7  -1    0.51    0.44 
  -1   7   1    0.39    0.32 
  -1   7   1    0.07    0.74 
  -1   7   1    1.38    0.88 
   0  -7  -1   19.67    1.01 
   0  -7  -1   17.10    1.41 
   0  -7  -1   19.73    1.22 
   0  -7  -1   18.89    0.90 
   0  -7  -1   18.60    1.02 
   0  -7  -1   18.01    1.01 
   0  -7  -1   18.57    1.09 
   0   7   1   17.51    1.31 
   0   7   1   15.75    1.33 
   0   7   1   18.01    0.95 
  -1  -7  -1   26.45    1.31 
  -1  -7  -1   29.08    1.98 
  -1  -7  -1   28.55    1.28 
  -1  -7  -1   27.99    1.36 
  -1  -7  -1   28.33    1.32 
   1   7   1   27.35    1.29 
   1   7   1   28.11    1.66 
   1   7   1   23.40    1.53 
  -2  -7  -1  213.31    4.98 
  -2  -7  -1  213.09    5.03 
  -2  -7  -1  217.67    4.96 
  -2  -7  -1  195.85    4.90 
  -2  -7  -1  210.55    5.50 
   2   7   1  203.03    4.93 
   2   7   1  210.19    4.81 
   2   7   1  206.84    5.11 
   2   7   1  204.13    5.08 
  -3  -7  -1  115.66    3.43 
  -3  -7  -1  121.34    3.85 
  -3  -7  -1  122.90    3.39 
   3   7   1  121.95    3.40 
   3   7   1  120.80    3.49 
   3   7   1  118.30    3.49 
  -4  -7  -1   48.89    2.75 
  -4  -7  -1   48.79    2.14 
  -4  -7  -1   46.91    2.20 
   4   7   1   47.60    2.15 
   4   7   1   48.10    2.15 
  -5  -7  -1   43.96    2.52 
  -5  -7  -1   47.59    2.37 
  -5  -7  -1   50.68    2.31 
   5   7   1   46.46    2.15 
   5   7   1   43.67    2.25 
  -6  -7  -1   -1.35    1.09 
  -6  -7  -1   -0.47    1.08 
  -6  -7  -1   -0.58    1.13 
   6   7   1   -2.09    1.22 
   6   7   1    1.67    1.11 
   6   7   1   -0.29    1.07 
  -7  -7  -1   -1.76    1.62 
  -7  -7  -1   -0.36    1.23 
   7   7   1    1.24    1.43 
   7   7   1    1.07    1.02 
   7   7   1    1.05    1.26 
   8  -8  -1   34.61    1.29 
   8  -8  -1   41.63    4.04 
   8  -8  -1   36.21    2.76 
  -8   8   1   37.48    2.63 
   7  -8  -1   17.21    1.79 
   7  -8  -1   17.76    2.55 
   7  -8  -1   20.22    0.81 
   7  -8  -1   19.41    0.76 
  -7   8   1   18.38    1.94 
   6  -8  -1   61.38    2.70 
   6  -8  -1   61.22    3.85 
  -6   8   1   62.54    2.87 
   5  -8  -1   54.12    2.49 
   5  -8  -1   53.27    3.33 
   5  -8  -1   55.16    2.55 
  -5   8   1   54.54    2.30 
  -5   8   1   56.79    2.66 
   4  -8  -1    4.85    1.15 
   4  -8  -1    6.28    1.44 
   4  -8  -1    6.84    1.11 
  -4   8   1    8.09    1.18 
   3  -8  -1    7.77    0.44 
   3  -8  -1    7.91    0.98 
   3  -8  -1    6.09    1.38 
   3  -8  -1    8.33    0.42 
   3  -8  -1    7.62    1.24 
  -3   8   1    8.54    1.11 
  -3   8   1    9.55    1.25 
  -3   8   1    9.27    1.23 
   2  -8  -1    8.06    1.28 
   2  -8  -1    7.80    0.66 
   2  -8  -1    7.89    0.68 
   2  -8  -1    7.84    0.43 
   2  -8  -1    8.99    0.44 
   2  -8  -1    7.69    1.27 
  -2   8   1    7.02    1.04 
  -2   8   1    9.83    1.08 
   1  -8  -1   83.63    2.89 
   1  -8  -1   86.74    3.12 
   1  -8  -1   81.37    2.09 
   1  -8  -1   79.02    2.13 
   1  -8  -1   78.98    2.12 
  -1   8   1   80.27    2.74 
  -1   8   1   79.03    2.57 
   0  -8  -1   13.10    1.03 
   0  -8  -1   13.21    1.14 
   0  -8  -1   14.39    1.07 
   0  -8  -1   12.48    1.49 
   0  -8  -1   14.19    1.09 
   0   8   1   15.03    1.38 
   0   8   1   14.83    1.26 
  -1  -8  -1  100.55    3.57 
  -1  -8  -1  101.87    2.75 
  -1  -8  -1  102.45    2.81 
  -1  -8  -1   97.56    2.83 
   1   8   1   96.28    3.03 
   1   8   1   99.87    2.72 
   1   8   1  101.56    3.12 
  -2  -8  -1   15.28    1.32 
  -2  -8  -1   15.31    1.53 
  -2  -8  -1   14.77    1.26 
   2   8   1   15.09    1.41 
   2   8   1   14.78    1.38 
   2   8   1   15.57    1.20 
  -3  -8  -1   18.41    1.56 
  -3  -8  -1   15.62    1.80 
  -3  -8  -1   19.70    1.50 
   3   8   1   16.41    1.53 
   3   8   1   19.20    1.60 
   3   8   1   19.14    1.43 
  -4  -8  -1    3.75    1.11 
  -4  -8  -1    3.72    1.06 
  -4  -8  -1    2.62    1.15 
   4   8   1    5.87    1.14 
   4   8   1    2.63    1.24 
   4   8   1    5.09    1.16 
  -5  -8  -1    4.21    1.17 
  -5  -8  -1    2.85    1.22 
  -5  -8  -1    2.39    1.53 
   5   8   1    2.98    1.16 
   5   8   1    2.23    1.28 
   5   8   1    4.03    1.19 
  -6  -8  -1    9.48    1.50 
  -6  -8  -1    7.49    1.59 
  -6  -8  -1    9.47    1.55 
   6   8   1   11.37    1.45 
   6   8   1    9.70    1.52 
   7   8   1   37.19    2.52 
   7   8   1   38.33    2.24 
   7  -9  -1   42.08    3.77 
   7  -9  -1   40.44    2.50 
  -7   9   1   46.06    2.79 
   6  -9  -1    0.00    1.09 
   6  -9  -1    2.66    1.57 
   6  -9  -1    0.09    1.02 
   5  -9  -1    0.31    1.41 
   5  -9  -1    1.76    1.10 
   5  -9  -1    1.31    1.00 
   4  -9  -1    1.01    0.92 
   4  -9  -1    0.27    1.17 
   4  -9  -1    0.77    1.07 
  -4   9   1   -0.22    1.05 
   3  -9  -1   68.59    2.94 
   3  -9  -1   64.73    1.54 
   3  -9  -1   67.03    2.59 
   3  -9  -1   65.38    1.53 
   3  -9  -1   66.76    3.27 
  -3   9   1   62.27    2.61 
  -3   9   1   70.31    2.58 
   2  -9  -1   23.28    0.99 
   2  -9  -1   23.68    0.99 
   2  -9  -1   23.25    2.11 
   2  -9  -1   22.99    2.03 
   2  -9  -1   24.91    0.69 
  -2   9   1   25.06    1.62 
  -2   9   1   21.25    1.80 
   1  -9  -1   84.82    3.35 
   1  -9  -1   83.00    2.22 
   1  -9  -1   83.74    2.28 
   1  -9  -1   83.08    2.27 
  -1   9   1   85.26    2.97 
  -1   9   1   87.14    2.76 
   0  -9  -1   78.08    2.30 
   0  -9  -1   74.14    2.25 
   0  -9  -1   71.63    2.24 
   0  -9  -1   75.39    3.20 
   0   9   1   72.64    2.77 
   0   9   1   72.00    2.55 
  -1  -9  -1   17.06    1.33 
  -1  -9  -1   14.69    1.72 
  -1  -9  -1   13.89    1.17 
   1   9   1   13.74    1.50 
   1   9   1   14.00    1.35 
  -2  -9  -1   15.04    1.31 
  -2  -9  -1   13.57    1.78 
  -2  -9  -1   15.38    1.39 
   2   9   1   14.55    1.44 
   2   9   1   17.24    1.61 
  -3  -9  -1   10.70    1.34 
  -3  -9  -1    9.20    1.20 
  -3  -9  -1    7.59    1.64 
   3   9   1   10.64    1.41 
   3   9   1    9.31    1.40 
  -4  -9  -1   20.80    1.76 
  -4  -9  -1   16.91    2.07 
  -4  -9  -1   19.96    1.81 
   4   9   1   21.27    1.80 
   4   9   1   18.24    1.77 
  -5  -9  -1   12.01    1.54 
  -5  -9  -1   10.41    2.04 
  -5  -9  -1   13.49    1.65 
   5   9   1   14.19    1.66 
   5   9   1   13.35    1.73 
  -6  -9  -1   38.63    2.45 
   6   9   1   35.20    2.59 
   6   9   1   41.38    2.39 
   6 -10  -1    2.12    1.80 
   6 -10  -1    4.40    1.32 
   5 -10  -1   12.85    2.12 
   5 -10  -1   16.56    1.79 
   4 -10  -1   36.26    2.00 
   4 -10  -1   28.95    2.35 
   4 -10  -1   28.89    2.65 
  -4  10   1   35.36    2.20 
   3 -10  -1   37.36    1.03 
   3 -10  -1   37.07    2.48 
   3 -10  -1   39.22    2.01 
   3 -10  -1   37.58    1.04 
  -3  10   1   37.37    2.27 
  -3  10   1   38.94    2.03 
   2 -10  -1   42.45    1.40 
   2 -10  -1   42.40    1.41 
   2 -10  -1   41.02    2.65 
  -2  10   1   39.76    2.28 
  -2  10   1   44.03    2.07 
   1 -10  -1    9.59    0.88 
   1 -10  -1   12.38    1.04 
   1 -10  -1   11.05    1.69 
  -1  10   1   10.39    1.27 
  -1  10   1   11.41    1.48 
   0 -10  -1    0.50    1.28 
   0 -10  -1    0.73    0.70 
   0 -10  -1    0.55    0.71 
   0  10   1    1.02    0.97 
   0  10   1    0.53    1.13 
  -1 -10  -1    2.48    0.87 
  -1 -10  -1    1.27    0.85 
  -1 -10  -1    0.04    1.34 
   1  10   1    1.49    1.19 
   1  10   1    0.28    0.97 
  -2 -10  -1   26.10    1.81 
  -2 -10  -1   25.83    1.80 
  -2 -10  -1   26.75    2.55 
   2  10   1   30.73    1.95 
   2  10   1   27.82    2.14 
  -3 -10  -1   24.40    1.95 
  -3 -10  -1   26.14    2.02 
  -3 -10  -1   25.77    2.28 
   3  10   1   25.30    2.15 
   3  10   1   25.15    2.11 
  -4 -10  -1   13.54    2.07 
  -4 -10  -1   20.84    1.87 
  -4 -10  -1   16.90    1.64 
   4  10   1   18.27    1.84 
   4  10   1   15.28    1.74 
   4 -11  -1   25.42    2.45 
   3 -11  -1   25.70    2.49 
   3 -11  -1   28.65    0.83 
   3 -11  -1   26.35    0.84 
  -3  11   1   28.25    2.26 
   2 -11  -1    1.53    1.37 
   2 -11  -1    2.72    0.62 
  -2  11   1    4.43    1.34 
  -2  11   1    3.69    1.12 
   1 -11  -1    0.65    0.68 
   1 -11  -1    0.88    1.39 
  -1  11   1    0.76    1.00 
  -1  11   1    0.05    1.21 
   0 -11  -1   19.26    2.11 
   0 -11  -1   19.37    1.48 
   0 -11  -1   17.74    1.31 
   0  11   1   16.86    1.56 
   0  11   1   20.56    1.73 
  -1 -11  -1   20.82    2.26 
  -1 -11  -1   25.78    1.70 
  -1 -11  -1   25.09    1.75 
   1  11   1   25.57    2.05 
   1  11   1   24.56    1.85 
  -2 -11  -1   34.17    2.08 
  -2 -11  -1   37.11    2.63 
  -2 -11  -1   40.32    2.09 
   2  11   1   39.05    2.22 
   2  11   1   37.74    2.47 
   3  11  -2   41.15    3.03 
  -3 -11   2   48.24    2.36 
  -3 -11   2   48.91    3.46 
  -3 -11   2   45.98    2.38 
   2  11  -2   11.07    1.66 
  -2 -11   2    8.28    1.23 
  -2 -11   2    7.26    1.90 
  -2 -11   2    8.94    1.31 
   1  11  -2    7.42    1.48 
  -1 -11   2    7.67    1.16 
  -1 -11   2    5.29    1.76 
  -1 -11   2    7.36    1.14 
   0  11  -2    2.17    1.22 
   0  11  -2    0.54    1.22 
   0 -11   2    0.07    0.82 
   0 -11   2   -0.57    1.47 
   0 -11   2    1.15    0.84 
  -1  11  -2   30.36    2.26 
  -1  11  -2   32.72    2.21 
   1 -11   2   28.95    2.77 
   1 -11   2   27.74    1.57 
   1 -11   2   31.08    1.50 
  -2  11  -2   11.17    1.50 
  -2  11  -2   11.58    1.43 
   2 -11   2    9.72    0.95 
   2 -11   2    9.65    1.82 
  -3  11  -2   41.33    2.58 
  -3  11  -2   46.07    2.44 
   3 -11   2   43.41    1.56 
   3 -11   2   42.22    3.03 
  -4  11  -2   25.06    2.07 
  -4  11  -2   29.10    2.30 
   4 -11   2   28.47    2.38 
   4 -11   2   28.21    1.15 
   5  10  -2   60.20    3.41 
   5  10  -2   74.26    3.21 
  -5 -10   2   73.27    3.20 
   4  10  -2   21.28    1.75 
   4  10  -2   18.87    1.92 
  -4 -10   2   19.68    2.28 
  -4 -10   2   20.42    1.73 
  -4 -10   2   22.78    1.97 
   3  10  -2   10.63    1.59 
   3  10  -2    9.37    1.27 
  -3 -10   2    8.38    1.76 
  -3 -10   2   10.11    1.35 
  -3 -10   2    9.13    1.28 
   2  10  -2    0.65    1.20 
   2  10  -2    1.15    0.90 
  -2 -10   2    1.27    0.92 
  -2 -10   2    0.69    0.90 
  -2 -10   2   -0.81    1.02 
   1  10  -2    3.59    1.01 
   1  10  -2    6.12    0.97 
   1  10  -2    4.32    1.32 
  -1 -10   2    4.76    1.00 
  -1 -10   2    4.66    1.01 
  -1 -10   2    4.88    1.56 
   0  10  -2    8.36    1.00 
   0  10  -2    8.01    1.34 
   0  10  -2    7.42    1.17 
   0 -10   2    7.20    1.65 
   0 -10   2    7.28    1.00 
   0 -10   2    4.50    0.90 
  -1  10  -2   27.90    1.92 
  -1  10  -2   29.24    1.53 
  -1  10  -2   28.01    2.10 
   1 -10   2   23.51    2.19 
   1 -10   2   27.57    1.47 
   1 -10   2   26.01    1.36 
  -2  10  -2   35.11    2.11 
  -2  10  -2   34.63    2.25 
   2 -10   2   37.24    1.51 
   2 -10   2   38.24    1.38 
   2 -10   2   36.63    2.69 
  -3  10  -2   17.72    1.57 
  -3  10  -2   14.18    1.51 
   3 -10   2   14.68    1.86 
   3 -10   2   16.48    1.04 
  -4  10  -2   19.41    1.78 
  -4  10  -2   18.60    1.72 
   4 -10   2   19.25    2.02 
   4 -10   2   16.71    0.97 
   4 -10   2   17.80    1.12 
   4 -10   2   14.79    2.55 
  -5  10  -2    3.87    1.29 
   5 -10   2    2.92    1.45 
   5 -10   2    2.54    0.50 
   5 -10   2   -1.45    1.60 
   6   9  -2   25.81    2.10 
  -6  -9   2   25.84    2.25 
  -6  -9   2   29.87    2.22 
  -6  -9   2   23.14    2.52 
   5   9  -2   -2.00    1.18 
   5   9  -2    1.78    0.99 
  -5  -9   2   -0.26    1.10 
  -5  -9   2   -2.81    1.35 
  -5  -9   2    0.27    1.13 
   4   9  -2   -0.18    0.97 
   4   9  -2    1.14    1.22 
  -4  -9   2    1.00    1.43 
  -4  -9   2   -0.24    0.95 
  -4  -9   2    0.81    1.04 
   3   9  -2    5.80    1.32 
   3   9  -2    3.86    1.07 
  -3  -9   2    5.13    1.06 
  -3  -9   2    4.28    1.09 
  -3  -9   2    2.09    1.45 
   2   9  -2   62.47    2.50 
   2   9  -2   62.31    2.25 
   2   9  -2   60.76    2.61 
  -2  -9   2   61.58    2.35 
  -2  -9   2   58.53    2.26 
  -2  -9   2   58.67    3.06 
   1   9  -2   26.93    1.86 
   1   9  -2   26.82    1.49 
   1   9  -2   30.49    1.98 
  -1  -9   2   28.54    1.53 
  -1  -9   2   27.02    2.39 
  -1  -9   2   28.60    1.63 
   0   9  -2  145.74    3.77 
   0   9  -2  147.96    4.24 
   0   9  -2  153.80    4.28 
   0  -9   2  152.97    4.86 
   0  -9   2  154.02    3.84 
   0  -9   2  152.17    3.83 
  -1   9  -2  122.83    3.70 
  -1   9  -2  117.34    3.58 
  -1   9  -2  117.80    3.14 
   1  -9   2  121.18    3.08 
   1  -9   2  119.32    3.09 
   1  -9   2  117.51    3.10 
   1  -9   2  120.01    4.22 
  -2   9  -2    0.16    0.92 
  -2   9  -2    1.25    1.06 
   2  -9   2    3.52    1.34 
   2  -9   2    1.00    0.57 
   2  -9   2    0.26    1.07 
   2  -9   2    2.41    0.63 
   2  -9   2    1.69    0.63 
  -3   9  -2   16.20    1.56 
  -3   9  -2   14.52    1.39 
   3  -9   2   12.62    0.95 
   3  -9   2   14.28    0.77 
   3  -9   2   14.62    1.04 
   3  -9   2   13.22    1.68 
   3  -9   2   10.31    1.66 
  -4   9  -2    9.45    1.23 
  -4   9  -2    8.65    1.39 
   4  -9   2    7.53    0.67 
   4  -9   2    6.06    1.48 
   4  -9   2    5.10    1.56 
   4  -9   2    7.90    0.72 
  -5   9  -2   11.07    1.79 
  -5   9  -2   13.21    1.50 
   5  -9   2   12.13    0.89 
   5  -9   2   13.54    0.91 
   5  -9   2   11.19    2.00 
  -6   9  -2   19.53    1.71 
  -6   9  -2   18.32    2.10 
   6  -9   2   16.67    2.46 
   7   8  -2   13.83    2.03 
   7   8  -2   14.60    1.78 
   7   8  -2   14.40    1.71 
  -7  -8   2   18.44    1.99 
  -7  -8   2    8.53    2.04 
   6   8  -2    2.47    1.23 
   6   8  -2    3.51    1.06 
   6   8  -2    0.80    1.28 
  -6  -8   2    2.01    1.27 
  -6  -8   2    3.93    1.22 
  -6  -8   2    0.52    1.59 
   5   8  -2    0.43    1.12 
   5   8  -2   -0.89    0.98 
  -5  -8   2   -0.48    1.39 
  -5  -8   2   -0.04    1.09 
  -5  -8   2    0.13    1.03 
   4   8  -2   59.95    2.48 
   4   8  -2   61.61    2.46 
   4   8  -2   58.26    2.57 
  -4  -8   2   62.57    2.49 
  -4  -8   2   59.83    3.10 
  -4  -8   2   57.64    2.51 
   3   8  -2   65.73    2.35 
   3   8  -2   68.84    2.47 
   3   8  -2   67.80    2.65 
  -3  -8   2   67.99    2.48 
  -3  -8   2   68.38    2.92 
  -3  -8   2   70.18    2.57 
   2   8  -2   24.76    1.44 
   2   8  -2   25.70    1.49 
   2   8  -2   20.55    1.73 
   2   8  -2   24.95    1.63 
  -2  -8   2   24.37    1.87 
  -2  -8   2   23.26    1.54 
  -2  -8   2   20.97    1.45 
   1   8  -2   28.20    1.77 
   1   8  -2   30.38    1.83 
   1   8  -2   28.86    1.47 
   1   8  -2   30.33    1.46 
  -1  -8   2   30.60    1.58 
  -1  -8   2   29.17    2.23 
  -1  -8   2   30.27    1.53 
  -1  -8   2   27.84    1.59 
   0   8  -2    5.83    0.84 
   0   8  -2    6.04    1.12 
   0   8  -2    5.32    0.72 
   0   8  -2    4.53    1.10 
   0  -8   2    4.32    1.28 
   0  -8   2    5.67    0.82 
   0  -8   2    6.65    0.84 
   0  -8   2    4.74    0.79 
   0  -8   2    3.05    0.89 
  -1   8  -2    4.84    1.09 
  -1   8  -2    6.05    1.08 
  -1   8  -2    5.42    0.79 
   1  -8   2    4.80    1.07 
   1  -8   2    5.45    0.75 
   1  -8   2    5.36    0.74 
   1  -8   2    5.54    0.73 
   1  -8   2    4.15    1.04 
  -2   8  -2   -0.43    0.95 
  -2   8  -2    2.38    0.93 
   2  -8   2    0.72    0.56 
   2  -8   2    0.67    1.15 
   2  -8   2    1.01    0.54 
   2  -8   2    2.41    0.64 
   2  -8   2    0.85    0.57 
   2  -8   2    0.02    1.00 
  -3   8  -2   53.29    2.09 
  -3   8  -2   49.52    2.04 
   3  -8   2   50.70    1.44 
   3  -8   2   44.59    2.57 
   3  -8   2   50.24    1.57 
   3  -8   2   50.07    1.85 
   3  -8   2   49.19    2.99 
   3  -8   2   52.31    1.64 
  -4   8  -2   16.27    1.40 
  -4   8  -2   16.26    1.77 
  -4   8  -2   16.62    1.45 
   4  -8   2   15.41    0.95 
   4  -8   2   15.49    0.73 
   4  -8   2   17.00    1.38 
   4  -8   2   15.75    0.96 
   4  -8   2   14.27    1.92 
  -5   8  -2   92.06    3.08 
  -5   8  -2   90.94    3.52 
   5  -8   2   86.77    2.92 
   5  -8   2   98.80    2.52 
   5  -8   2   93.14    2.38 
   5  -8   2   91.39    4.37 
   5  -8   2   92.55    2.41 
  -6   8  -2   71.78    3.24 
  -6   8  -2   67.96    2.61 
   6  -8   2   63.35    2.01 
   6  -8   2   69.70    4.21 
  -7   8  -2    5.26    1.32 
  -7   8  -2    7.45    1.23 
   7  -8   2    4.98    0.81 
   7  -8   2    3.37    1.92 
   8   7  -2    5.99    1.46 
   8   7  -2    3.50    1.50 
   8   7  -2    2.64    1.67 
  -8  -7   2    4.27    1.24 
  -8  -7   2    4.37    1.49 
  -8  -7   2    1.65    1.90 
   7   7  -2    9.66    1.75 
   7   7  -2   10.52    1.61 
   7   7  -2   11.09    1.52 
  -7  -7   2    6.04    1.84 
  -7  -7   2   11.80    1.70 
   6   7  -2   15.12    1.52 
   6   7  -2   11.55    1.79 
   6   7  -2   14.11    1.63 
  -6  -7   2   15.39    1.58 
  -6  -7   2   12.72    1.90 
  -6  -7   2   16.02    1.71 
   5   7  -2   61.18    2.76 
   5   7  -2   60.51    2.49 
   5   7  -2   58.91    2.57 
  -5  -7   2   59.29    2.58 
  -5  -7   2   59.22    3.00 
  -5  -7   2   59.11    2.48 
   4   7  -2   89.16    3.05 
   4   7  -2   79.16    2.82 
   4   7  -2   81.50    2.89 
  -4  -7   2   81.24    2.90 
  -4  -7   2   85.26    2.84 
  -4  -7   2   83.60    3.17 
   3   7  -2   52.64    2.15 
   3   7  -2   59.04    2.09 
   3   7  -2   56.80    2.05 
   3   7  -2   58.16    2.35 
  -3  -7   2   57.54    2.26 
  -3  -7   2   58.02    2.76 
  -3  -7   2   58.65    2.20 
   2   7  -2  120.50    3.08 
   2   7  -2  114.28    3.22 
   2   7  -2  116.26    3.19 
   2   7  -2  114.08    3.09 
   2   7  -2  112.63    3.38 
  -2  -7   2  119.97    3.16 
  -2  -7   2  117.36    3.25 
  -2  -7   2  115.16    3.20 
  -2  -7   2  114.93    3.79 
  -2  -7   2  109.96    3.14 
   1   7  -2    5.61    0.79 
   1   7  -2    4.49    0.80 
   1   7  -2    4.93    0.84 
   1   7  -2    4.40    0.95 
   1   7  -2    4.63    0.66 
  -1  -7   2    4.17    0.83 
  -1  -7   2    2.68    0.74 
  -1  -7   2    3.57    0.76 
  -1  -7   2    5.14    0.82 
  -1  -7   2    3.24    1.16 
  -1  -7   2    5.27    0.83 
  -1  -7   2    4.17    0.39 
   0   7  -2    2.52    0.68 
   0   7  -2    3.37    0.93 
   0   7  -2    2.13    0.49 
   0   7  -2    1.59    0.87 
   0   7  -2    1.93    0.61 
   0  -7   2    2.58    0.64 
   0  -7   2    1.77    0.46 
   0  -7   2    0.55    0.69 
   0  -7   2    1.62    1.05 
   0  -7   2    2.03    0.65 
   0  -7   2    0.33    0.62 
   0  -7   2    1.89    0.68 
   0  -7   2    3.30    0.67 
  -1   7  -2   54.80    1.69 
  -1   7  -2   50.78    2.00 
  -1   7  -2   51.13    1.93 
  -1   7  -2   52.33    1.55 
   1  -7   2   50.44    1.63 
   1  -7   2   54.41    2.36 
   1  -7   2   55.15    1.68 
   1  -7   2   53.32    1.64 
   1  -7   2   51.78    1.64 
   1  -7   2   54.54    2.49 
   1  -7   2   51.83    1.71 
  -2   7  -2  133.03    3.67 
  -2   7  -2  132.41    2.99 
  -2   7  -2  133.34    3.54 
   2  -7   2  135.48    4.10 
   2  -7   2  135.91    3.29 
   2  -7   2  132.16    3.15 
   2  -7   2  136.17    4.33 
   2  -7   2  133.54    3.17 
   2  -7   2  135.32    3.19 
   2  -7   2  137.54    3.13 
  -3   7  -2   32.50    1.77 
  -3   7  -2   30.63    0.85 
  -3   7  -2   31.46    2.05 
  -3   7  -2   30.72    1.53 
   3  -7   2   33.09    1.41 
   3  -7   2   29.33    1.10 
   3  -7   2   30.68    1.21 
   3  -7   2   29.21    1.09 
   3  -7   2   30.26    2.42 
  -4   7  -2   61.85    2.34 
  -4   7  -2   65.96    2.74 
  -4   7  -2   63.45    2.21 
   4  -7   2   62.69    1.82 
   4  -7   2   61.41    1.66 
   4  -7   2   61.63    2.13 
   4  -7   2   60.63    3.27 
   4  -7   2   61.55    1.78 
  -5   7  -2   21.91    1.63 
  -5   7  -2   23.43    1.74 
   5  -7   2   21.66    1.11 
   5  -7   2   21.27    2.60 
   5  -7   2   23.41    1.19 
   5  -7   2   21.56    1.55 
  -6   7  -2   15.40    1.79 
  -6   7  -2   16.33    1.40 
   6  -7   2   15.16    1.14 
   6  -7   2   16.11    1.00 
   6  -7   2   12.31    2.19 
   6  -7   2   13.24    1.35 
   6  -7   2   14.12    1.08 
  -7   7  -2    2.83    1.42 
  -7   7  -2    0.63    0.99 
   7  -7   2    0.36    1.05 
   7  -7   2   -0.70    0.61 
   7  -7   2   -0.01    1.60 
   7  -7   2   -0.65    0.67 
  -8   7  -2   20.50    2.15 
   8  -7   2   16.14    1.24 
   8  -7   2   16.90    2.80 
   8   6  -2   10.84    1.56 
   8   6  -2    8.89    1.85 
   8   6  -2    9.37    1.64 
  -8  -6   2    9.23    1.68 
  -8  -6   2    9.00    1.31 
  -8  -6   2    7.04    1.94 
   7   6  -2   66.65    2.96 
   7   6  -2   68.92    2.69 
   7   6  -2   64.47    3.23 
  -7  -6   2   68.35    3.13 
  -7  -6   2   64.80    3.39 
  -7  -6   2   68.45    2.79 
   6   6  -2   38.08    2.20 
   6   6  -2   37.47    2.47 
   6   6  -2   39.37    2.07 
  -6  -6   2   37.85    2.23 
  -6  -6   2   37.32    2.12 
  -6  -6   2   33.14    2.55 
   5   6  -2   83.83    2.90 
   5   6  -2   78.72    2.75 
   5   6  -2   78.27    3.05 
  -5  -6   2   78.89    2.89 
  -5  -6   2   74.30    2.74 
  -5  -6   2   76.08    3.00 
   4   6  -2   82.03    2.79 
   4   6  -2   87.69    2.67 
   4   6  -2   86.06    2.96 
   4   6  -2   83.30    2.78 
  -4  -6   2   85.54    2.77 
  -4  -6   2   82.62    2.83 
  -4  -6   2   87.26    3.23 
  -4  -6   2   82.47    2.82 
   3   6  -2   24.61    1.72 
   3   6  -2   26.21    1.38 
   3   6  -2   27.42    1.35 
   3   6  -2   26.66    1.65 
   3   6  -2   23.70    1.48 
  -3  -6   2   24.88    1.49 
  -3  -6   2   27.89    1.71 
  -3  -6   2   28.88    1.49 
  -3  -6   2   27.80    1.59 
   2   6  -2    8.10    0.81 
   2   6  -2    9.96    0.96 
   2   6  -2    7.48    0.86 
   2   6  -2    6.89    1.02 
   2   6  -2    9.81    0.95 
  -2  -6   2    6.96    0.86 
  -2  -6   2    7.25    0.94 
  -2  -6   2    7.48    0.89 
  -2  -6   2    8.53    0.92 
  -2  -6   2    6.64    1.17 
  -2  -6   2    9.53    0.90 
   1   6  -2    6.46    0.68 
   1   6  -2    6.02    0.82 
   1   6  -2    6.52    0.89 
   1   6  -2    6.43    0.75 
   1   6  -2    5.81    0.68 
  -1  -6   2    5.88    0.73 
  -1  -6   2    6.80    0.75 
  -1  -6   2    5.98    0.80 
  -1  -6   2    6.68    1.10 
  -1  -6   2    5.51    0.71 
  -1  -6   2    6.50    0.45 
  -1  -6   2    6.69    0.80 
   0   6  -2  145.00    3.65 
   0   6  -2  144.49    3.45 
   0   6  -2  146.29    3.71 
   0   6  -2  148.68    3.32 
   0   6  -2  146.55    3.39 
   0  -6   2  146.30    3.23 
   0  -6   2  148.34    3.50 
   0  -6   2  151.29    3.78 
   0  -6   2  146.42    3.46 
   0  -6   2  151.33    3.50 
   0  -6   2  142.10    3.45 
   0  -6   2  145.11    4.09 
   0  -6   2  149.16    3.45 
  -1   6  -2   46.10    1.24 
  -1   6  -2   45.85    1.38 
  -1   6  -2   46.48    1.70 
  -1   6  -2   47.36    1.48 
  -1   6  -2   45.90    1.74 
   1  -6   2   47.31    1.45 
   1  -6   2   47.85    1.48 
   1  -6   2   46.35    1.98 
   1  -6   2   46.89    1.51 
   1  -6   2   50.12    2.13 
   1  -6   2   47.21    1.47 
   1  -6   2   49.85    1.46 
   1  -6   2   47.44    1.50 
  -2   6  -2  229.61    5.39 
  -2   6  -2  238.10    5.02 
  -2   6  -2  241.03    5.79 
  -2   6  -2  232.72    5.53 
   2  -6   2  230.64    5.14 
   2  -6   2  241.80    5.23 
   2  -6   2  246.38    6.31 
   2  -6   2  239.27    5.11 
   2  -6   2  240.98    5.13 
   2  -6   2  239.43    5.25 
   2  -6   2  238.38    5.13 
  -3   6  -2   53.01    1.87 
  -3   6  -2   53.59    1.87 
  -3   6  -2   51.66    1.34 
  -3   6  -2   53.68    2.31 
   3  -6   2   52.26    1.77 
   3  -6   2   50.20    1.57 
   3  -6   2   51.23    1.50 
   3  -6   2   54.83    1.58 
   3  -6   2   53.58    1.49 
   3  -6   2   52.60    2.69 
  -4   6  -2    8.06    1.32 
  -4   6  -2    7.08    0.91 
  -4   6  -2    7.92    1.01 
  -4   6  -2    7.17    0.57 
   4  -6   2    7.35    0.68 
   4  -6   2    7.72    0.71 
   4  -6   2    7.67    0.88 
   4  -6   2    6.91    0.67 
   4  -6   2    6.57    0.59 
   4  -6   2    7.51    1.50 
  -5   6  -2    0.21    0.83 
  -5   6  -2    1.98    1.18 
   5  -6   2    1.58    0.59 
   5  -6   2    0.94    0.77 
   5  -6   2    1.91    1.39 
   5  -6   2    1.01    0.56 
   5  -6   2    2.48    0.64 
  -6   6  -2   14.29    1.22 
  -6   6  -2   11.23    1.59 
   6  -6   2   10.24    2.02 
   6  -6   2   10.23    1.19 
   6  -6   2   13.65    1.12 
   6  -6   2   12.28    1.08 
   6  -6   2   11.94    1.10 
  -7   6  -2   63.80    2.28 
  -7   6  -2   64.17    2.97 
   7  -6   2   62.38    4.15 
   7  -6   2   65.53    2.82 
   7  -6   2   64.11    2.17 
   7  -6   2   64.46    2.17 
  -8   6  -2    9.17    1.72 
   8  -6   2    7.34    1.02 
   8  -6   2    8.04    1.99 
   8  -6   2    6.10    1.37 
   8  -6   2    7.07    0.99 
  -9   6  -2   56.41    2.87 
   9  -6   2   55.67    2.28 
   9  -6   2   53.13    3.06 
   9  -6   2   52.17    5.26 
   9   5  -2   20.39    2.08 
   9   5  -2   13.05    2.16 
   9   5  -2   15.02    1.60 
  -9  -5   2   20.32    2.11 
  -9  -5   2   14.94    2.16 
  -9  -5   2   19.70    1.65 
   8   5  -2   87.63    3.85 
   8   5  -2   89.78    3.28 
   8   5  -2   86.26    3.02 
  -8  -5   2   84.69    3.25 
  -8  -5   2   86.24    2.94 
  -8  -5   2   87.46    3.87 
   7   5  -2   35.52    1.97 
   7   5  -2   35.64    2.52 
   7   5  -2   35.50    2.25 
  -7  -5   2   35.40    2.60 
  -7  -5   2   37.11    2.29 
  -7  -5   2   37.65    2.12 
   6   5  -2    1.51    0.86 
   6   5  -2    3.26    1.01 
   6   5  -2    2.08    0.90 
   6   5  -2    3.18    1.00 
   6   5  -2    1.98    1.23 
  -6  -5   2    0.72    1.07 
  -6  -5   2    2.76    1.04 
  -6  -5   2    2.14    1.32 
   5   5  -2   77.92    2.49 
   5   5  -2   77.31    2.62 
   5   5  -2   83.96    2.68 
   5   5  -2   84.90    2.83 
   5   5  -2   79.53    3.09 
  -5  -5   2   78.11    2.79 
  -5  -5   2   75.41    3.05 
  -5  -5   2   80.63    2.14 
  -5  -5   2   74.63    2.51 
  -5  -5   2   72.65    2.64 
   4   5  -2   26.88    1.49 
   4   5  -2   26.93    1.14 
   4   5  -2   27.57    1.61 
   4   5  -2   28.27    1.60 
   4   5  -2   23.89    1.70 
  -4  -5   2   25.37    1.36 
  -4  -5   2   25.34    1.49 
  -4  -5   2   26.88    1.68 
  -4  -5   2   26.74    1.63 
   3   5  -2   33.23    1.44 
   3   5  -2   29.19    1.58 
   3   5  -2   34.50    1.77 
   3   5  -2   30.47    1.55 
   3   5  -2   30.32    1.35 
  -3  -5   2   32.43    1.47 
  -3  -5   2   33.37    1.54 
  -3  -5   2   33.05    1.59 
  -3  -5   2   30.16    1.85 
   2   5  -2  147.61    3.51 
   2   5  -2  144.02    3.51 
   2   5  -2  145.88    3.64 
   2   5  -2  140.54    3.67 
   2   5  -2  145.88    3.62 
  -2  -5   2  144.17    3.98 
  -2  -5   2  139.77    3.59 
  -2  -5   2  146.48    3.65 
  -2  -5   2  153.83    3.62 
  -2  -5   2  150.75    3.61 
  -2  -5   2  150.31    3.58 
   1   5  -2  176.11    3.93 
   1   5  -2  177.26    4.13 
   1   5  -2  171.28    4.05 
   1   5  -2  171.87    4.18 
   1   5  -2  179.57    3.97 
  -1  -5   2  171.77    4.06 
  -1  -5   2  174.43    3.64 
  -1  -5   2  179.32    4.11 
  -1  -5   2  176.10    4.03 
  -1  -5   2  178.35    4.08 
  -1  -5   2  178.78    4.00 
  -1  -5   2  174.67    4.44 
   0   5  -2  105.10    2.75 
   0   5  -2  100.08    2.72 
   0   5  -2  104.00    2.44 
   0   5  -2  106.48    2.44 
   0   5  -2  100.85    2.50 
   0   5  -2  102.87    2.75 
   0  -5   2  106.08    2.52 
   0  -5   2  104.08    2.34 
   0  -5   2  103.99    2.83 
   0  -5   2  102.50    2.55 
   0  -5   2  101.77    2.46 
   0  -5   2   96.87    2.52 
   0  -5   2  105.30    2.98 
   0  -5   2   97.98    2.53 
  -1   5  -2  129.08    2.84 
  -1   5  -2  131.77    2.95 
  -1   5  -2  132.05    2.96 
  -1   5  -2  126.33    3.27 
  -1   5  -2  126.17    3.18 
  -1   5  -2  129.45    3.00 
   1  -5   2  131.14    2.99 
   1  -5   2  129.92    2.98 
   1  -5   2  126.78    3.58 
   1  -5   2  131.75    3.01 
   1  -5   2  130.83    3.00 
   1  -5   2  131.74    3.69 
   1  -5   2  129.31    3.02 
   1  -5   2  133.67    2.99 
  -2   5  -2   10.79    0.92 
  -2   5  -2   11.70    0.50 
  -2   5  -2   12.30    0.69 
  -2   5  -2   12.51    0.70 
  -2   5  -2   11.46    1.06 
  -2   5  -2   10.94    0.91 
   2  -5   2   11.08    0.81 
   2  -5   2   10.91    0.87 
   2  -5   2   12.05    0.80 
   2  -5   2   11.81    1.43 
   2  -5   2   12.41    0.74 
   2  -5   2   12.28    0.83 
   2  -5   2   12.91    0.80 
   2  -5   2   11.37    0.76 
  -3   5  -2    7.00    0.57 
  -3   5  -2    6.29    1.08 
  -3   5  -2    7.06    0.90 
  -3   5  -2    6.91    0.63 
  -3   5  -2    8.45    0.82 
   3  -5   2    7.14    0.64 
   3  -5   2    6.37    1.21 
   3  -5   2    8.53    0.75 
   3  -5   2    9.15    0.93 
   3  -5   2    8.17    0.66 
   3  -5   2    8.29    0.72 
   3  -5   2    7.52    0.68 
   3  -5   2    7.36    0.63 
  -4   5  -2    5.42    0.57 
  -4   5  -2    4.64    0.68 
  -4   5  -2    4.31    0.83 
  -4   5  -2    5.49    1.14 
   4  -5   2    5.45    0.67 
   4  -5   2    4.95    1.35 
   4  -5   2    5.34    0.58 
   4  -5   2    4.25    0.69 
   4  -5   2    6.17    0.65 
   4  -5   2    5.20    0.66 
   4  -5   2    5.33    0.63 
  -5   5  -2   88.80    2.58 
  -5   5  -2   88.21    2.91 
  -5   5  -2   84.17    2.26 
   5  -5   2   90.18    2.34 
   5  -5   2   86.50    4.03 
   5  -5   2   88.53    2.41 
   5  -5   2   92.13    2.80 
   5  -5   2   84.96    2.27 
   5  -5   2   82.21    2.34 
   5  -5   2   86.87    2.29 
  -6   5  -2   43.25    2.14 
  -6   5  -2   43.49    1.77 
  -6   5  -2   48.23    2.12 
   6  -5   2   47.90    2.26 
   6  -5   2   47.05    1.72 
   6  -5   2   43.75    1.70 
   6  -5   2   46.00    3.36 
   6  -5   2   45.21    1.67 
  -7   5  -2   68.99    3.02 
  -7   5  -2   73.16    2.38 
  -7   5  -2   67.51    2.68 
   7  -5   2   72.43    4.35 
   7  -5   2   75.92    3.04 
   7  -5   2   72.04    2.35 
   7  -5   2   70.37    2.36 
  -8   5  -2   48.42    2.17 
  -8   5  -2   48.45    2.78 
   8  -5   2   43.69    3.97 
   8  -5   2   47.40    2.02 
   8  -5   2   44.48    2.77 
   8  -5   2   47.83    2.06 
  -9   5  -2   -0.03    1.16 
  -9   5  -2    3.23    1.54 
   9  -5   2    2.60    1.01 
   9  -5   2    1.70    2.04 
   9  -5   2    0.32    1.40 
   9  -5   2    1.60    0.96 
   9   4  -2   34.56    2.96 
   9   4  -2   38.85    2.54 
   9   4  -2   39.72    2.25 
  -9  -4   2   38.16    2.23 
  -9  -4   2   37.71    2.94 
  -9  -4   2   41.91    2.62 
   8   4  -2    9.98    1.64 
   8   4  -2    9.59    1.73 
   8   4  -2   13.84    1.67 
   8   4  -2   12.13    1.33 
  -8  -4   2   12.98    1.65 
  -8  -4   2    9.82    1.76 
  -8  -4   2   12.85    1.35 
   7   4  -2   14.35    1.55 
   7   4  -2   10.07    1.45 
   7   4  -2   10.97    1.65 
   7   4  -2   12.11    1.38 
  -7  -4   2   11.28    1.35 
  -7  -4   2   11.07    1.28 
  -7  -4   2   13.18    1.36 
  -7  -4   2   11.72    1.71 
   6   4  -2    9.27    1.44 
   6   4  -2    8.77    1.24 
   6   4  -2   11.75    1.26 
   6   4  -2   11.44    1.21 
  -6  -4   2   10.30    1.50 
  -6  -4   2   11.54    1.22 
  -6  -4   2   10.04    1.22 
   5   4  -2    6.22    1.00 
   5   4  -2    6.36    0.92 
   5   4  -2    4.76    1.11 
   5   4  -2    5.08    0.92 
  -5  -4   2    5.47    1.09 
  -5  -4   2    6.10    1.18 
  -5  -4   2    6.91    1.03 
  -5  -4   2    4.75    0.98 
   4   4  -2   89.47    2.84 
   4   4  -2   85.71    2.60 
   4   4  -2   90.86    2.61 
   4   4  -2   91.35    2.53 
  -4  -4   2   82.15    2.16 
  -4  -4   2   82.92    2.69 
  -4  -4   2   87.22    2.92 
  -4  -4   2   92.62    2.63 
  -4  -4   2   92.21    2.66 
   3   4  -2  182.84    4.30 
   3   4  -2  187.73    4.16 
   3   4  -2  188.92    4.45 
   3   4  -2  188.27    4.49 
   3   4  -2  183.25    4.08 
   3   4  -2  191.51    4.35 
  -3  -4   2  171.15    4.40 
  -3  -4   2  179.90    4.36 
  -3  -4   2  185.89    4.65 
  -3  -4   2  175.81    4.37 
  -3  -4   2  183.54    4.35 
  -3  -4   2  185.26    4.41 
  -3  -4   2  187.01    4.07 
   2   4  -2   81.96    2.17 
   2   4  -2   75.42    2.10 
   2   4  -2   80.29    2.15 
   2   4  -2   78.89    2.25 
   2   4  -2   78.36    2.27 
   2   4  -2   79.71    1.92 
  -2  -4   2   81.91    2.24 
  -2  -4   2   77.02    2.17 
  -2  -4   2   77.18    1.57 
  -2  -4   2   75.57    2.25 
  -2  -4   2   75.10    2.19 
  -2  -4   2   77.64    2.19 
  -2  -4   2   76.74    2.03 
  -2  -4   2   78.46    2.51 
   1   4  -2   38.12    1.20 
   1   4  -2   33.27    1.33 
   1   4  -2   32.67    1.52 
   1   4  -2   34.98    1.32 
   1   4  -2   36.25    1.24 
   1   4  -2   37.39    1.30 
   1   4  -2   39.78    1.37 
   1   4  -2   36.86    1.26 
   1   4  -2   37.41    1.19 
  -1  -4   2   38.09    1.31 
  -1  -4   2   40.59    1.30 
  -1  -4   2   36.25    1.30 
  -1  -4   2   36.53    1.33 
  -1  -4   2   39.19    1.25 
  -1  -4   2   38.28    1.40 
  -1  -4   2   37.33    1.54 
  -1  -4   2   37.81    1.37 
   0   4  -2  104.99    2.47 
   0   4  -2  105.73    2.56 
   0   4  -2   94.57    2.44 
   0   4  -2  107.80    2.80 
   0   4  -2  111.67    2.71 
   0   4  -2  107.73    2.62 
   0   4  -2  110.18    2.41 
   0  -4   2  110.39    2.99 
   0  -4   2  108.62    2.65 
   0  -4   2  107.68    2.53 
   0  -4   2  107.44    2.41 
   0  -4   2  108.67    2.88 
   0  -4   2  107.46    2.54 
   0  -4   2  101.05    2.53 
   0  -4   2  104.82    2.74 
   0  -4   2  105.35    2.56 
  -1   4  -2    1.50    0.42 
  -1   4  -2    1.74    0.62 
  -1   4  -2    1.48    0.57 
  -1   4  -2    1.25    0.37 
  -1   4  -2    2.08    0.47 
  -1   4  -2    2.05    0.80 
  -1   4  -2    0.91    0.41 
  -1   4  -2    1.70    0.54 
  -1   4  -2    1.52    0.38 
   1  -4   2    1.82    0.45 
   1  -4   2    1.32    0.48 
   1  -4   2    0.71    0.47 
   1  -4   2   -0.19    0.41 
   1  -4   2    1.68    0.45 
   1  -4   2    0.62    0.73 
   1  -4   2    1.34    0.51 
  -2   4  -2   52.08    1.40 
  -2   4  -2   49.71    1.89 
  -2   4  -2   50.56    1.26 
  -2   4  -2   50.71    1.72 
  -2   4  -2   53.10    1.57 
  -2   4  -2   50.56    2.17 
  -2   4  -2   54.79    1.42 
   2  -4   2   50.43    2.36 
   2  -4   2   48.52    1.43 
   2  -4   2   50.62    1.47 
   2  -4   2   52.63    1.49 
   2  -4   2   50.63    1.48 
   2  -4   2   52.00    1.46 
   2  -4   2   52.12    1.48 
   2  -4   2   51.62    1.49 
  -3   4  -2  230.18    4.98 
  -3   4  -2  227.25    4.94 
  -3   4  -2  233.78    4.91 
  -3   4  -2  223.73    5.37 
  -3   4  -2  232.39    5.18 
   3  -4   2  231.56    4.94 
   3  -4   2  234.74    4.97 
   3  -4   2  226.72    5.01 
   3  -4   2  231.03    5.01 
   3  -4   2  234.48    4.96 
   3  -4   2  228.78    4.95 
   3  -4   2  234.00    6.22 
   3  -4   2  228.96    5.12 
  -4   4  -2  225.15    5.45 
  -4   4  -2  228.27    5.24 
  -4   4  -2  231.02    5.26 
  -4   4  -2  228.53    4.81 
  -4   4  -2  219.84    5.12 
  -4   4  -2  221.61    4.97 
   4  -4   2  227.96    4.88 
   4  -4   2  228.95    4.98 
   4  -4   2  232.00    5.02 
   4  -4   2  231.74    5.28 
   4  -4   2  226.11    4.96 
   4  -4   2  227.51    4.96 
   4  -4   2  223.86    6.36 
  -5   4  -2   80.93    2.25 
  -5   4  -2   84.97    2.89 
  -5   4  -2   81.10    2.09 
  -5   4  -2   82.00    2.56 
  -5   4  -2   79.01    2.34 
   5  -4   2   82.02    2.31 
   5  -4   2   82.42    2.05 
   5  -4   2   84.57    2.28 
   5  -4   2   81.73    2.26 
   5  -4   2   81.42    3.59 
   5  -4   2   79.99    2.24 
   5  -4   2   85.19    2.65 
  -6   4  -2  100.69    2.78 
  -6   4  -2  102.01    2.95 
  -6   4  -2  101.33    2.77 
  -6   4  -2   99.32    3.25 
   6  -4   2  103.83    2.80 
   6  -4   2  104.99    2.86 
   6  -4   2  102.03    3.26 
   6  -4   2   98.34    2.77 
   6  -4   2  103.16    4.60 
  -7   4  -2   10.72    1.54 
  -7   4  -2   11.25    0.99 
  -7   4  -2   13.51    1.39 
   7  -4   2   12.11    1.13 
   7  -4   2   11.94    1.09 
   7  -4   2   10.33    2.08 
   7  -4   2   13.75    1.57 
  -8   4  -2    2.96    1.16 
  -8   4  -2    0.43    1.28 
   8  -4   2    0.29    0.88 
   8  -4   2   -0.16    0.88 
   8  -4   2   -0.31    1.75 
   8  -4   2   -1.23    1.17 
  -9   4  -2    1.02    1.45 
  -9   4  -2   -0.64    1.14 
   9  -4   2    0.39    0.84 
   9  -4   2   -0.07    0.97 
   9  -4   2   -2.49    1.27 
   9  -4   2   -0.04    1.90 
   9   3  -2   15.58    1.69 
   9   3  -2   10.00    1.92 
   9   3  -2   11.14    1.91 
   9   3  -2   12.22    1.68 
  -9  -3   2   14.05    1.91 
  -9  -3   2   12.97    1.71 
  -9  -3   2   13.38    1.50 
   8   3  -2    3.84    1.15 
   8   3  -2    5.45    1.50 
   8   3  -2    1.60    1.45 
   8   3  -2    3.74    1.03 
  -8  -3   2    4.18    1.07 
  -8  -3   2    5.57    1.30 
  -8  -3   2    3.27    1.46 
   7   3  -2   57.76    2.39 
   7   3  -2   57.29    3.02 
   7   3  -2   59.19    2.53 
   7   3  -2   57.60    2.88 
  -7  -3   2   55.46    2.76 
  -7  -3   2   57.03    2.33 
  -7  -3   2   57.61    2.32 
  -7  -3   2   55.53    2.17 
   6   3  -2   65.86    2.42 
   6   3  -2   67.84    1.77 
   6   3  -2   64.89    2.53 
   6   3  -2   64.98    2.28 
   6   3  -2   68.00    2.86 
   6   3  -2   69.80    2.98 
  -6  -3   2   68.31    2.42 
  -6  -3   2   68.73    2.82 
  -6  -3   2   67.74    2.27 
  -6  -3   2   67.49    2.54 
   5   3  -2   98.64    2.76 
   5   3  -2   96.18    3.15 
   5   3  -2  100.22    2.85 
   5   3  -2   96.35    2.93 
   5   3  -2   97.62    3.22 
   5   3  -2   94.91    2.21 
  -5  -3   2   96.41    2.17 
  -5  -3   2   98.51    2.95 
  -5  -3   2   95.30    2.82 
  -5  -3   2   92.58    3.11 
  -5  -3   2   93.04    2.81 
   4   3  -2  353.23    7.91 
   4   3  -2  351.56    7.66 
   4   3  -2  344.89    7.93 
   4   3  -2  356.55    7.79 
   4   3  -2  345.47    7.12 
   4   3  -2  360.70    7.66 
  -4  -3   2  358.99    7.70 
  -4  -3   2  354.82    7.67 
  -4  -3   2  350.21    7.91 
  -4  -3   2  340.78    7.20 
  -4  -3   2  351.94    7.78 
   3   3  -2   43.18    1.59 
   3   3  -2   43.83    1.56 
   3   3  -2   42.01    1.27 
   3   3  -2   44.12    1.69 
   3   3  -2   43.41    1.71 
   3   3  -2   44.52    1.74 
  -3  -3   2   42.46    1.62 
  -3  -3   2   47.14    1.53 
  -3  -3   2   43.98    1.04 
  -3  -3   2   42.55    1.23 
  -3  -3   2   44.91    1.52 
  -3  -3   2   45.09    1.82 
  -3  -3   2   44.13    1.56 
  -3  -3   2   44.55    1.60 
   2   3  -2  133.70    3.32 
   2   3  -2  137.44    3.17 
   2   3  -2  133.34    3.14 
   2   3  -2  134.09    2.99 
   2   3  -2  136.55    3.23 
   2   3  -2  131.45    3.14 
   2   3  -2  116.12    3.11 
   2   3  -2  130.27    3.22 
  -2  -3   2  131.99    2.70 
  -2  -3   2  131.83    3.37 
  -2  -3   2  133.44    3.16 
  -2  -3   2  129.95    2.97 
  -2  -3   2  132.32    3.14 
  -2  -3   2  129.21    3.19 
  -2  -3   2  136.83    3.20 
  -2  -3   2  139.42    3.19 
   1   3  -2   19.68    0.92 
   1   3  -2   19.27    0.94 
   1   3  -2   19.65    1.02 
   1   3  -2   19.25    0.91 
   1   3  -2   19.89    1.00 
   1   3  -2   18.75    1.12 
   1   3  -2   18.75    0.91 
  -1  -3   2   18.30    0.95 
  -1  -3   2   17.30    0.99 
  -1  -3   2   18.48    0.95 
  -1  -3   2   19.87    0.87 
  -1  -3   2   18.65    1.23 
  -1  -3   2   19.13    0.84 
  -1  -3   2   17.69    0.97 
   0   3  -2   26.27    0.79 
   0   3  -2   26.82    1.13 
   0   3  -2   25.42    0.91 
   0   3  -2   26.54    1.00 
   0   3  -2   28.49    1.26 
   0   3  -2   24.69    0.92 
   0   3  -2   25.34    1.08 
   0  -3   2   27.21    1.06 
   0  -3   2   24.82    1.34 
   0  -3   2   25.79    0.98 
   0  -3   2   26.83    1.02 
   0  -3   2   24.61    1.30 
   0  -3   2   27.60    1.08 
   0  -3   2   25.90    0.75 
  -1   3  -2   23.40    0.91 
  -1   3  -2   21.47    0.94 
  -1   3  -2   23.28    1.34 
  -1   3  -2   21.60    0.80 
  -1   3  -2   22.03    0.92 
  -1   3  -2   21.71    0.91 
  -1   3  -2   21.08    1.20 
   1  -3   2   22.22    0.94 
   1  -3   2   22.35    0.71 
   1  -3   2   20.71    0.97 
   1  -3   2   22.49    0.96 
   1  -3   2   21.90    0.90 
   1  -3   2   23.27    0.75 
   1  -3   2   22.27    0.88 
   1  -3   2   21.85    1.39 
  -2   3  -2  118.19    2.60 
  -2   3  -2  115.44    2.63 
  -2   3  -2  119.72    2.56 
  -2   3  -2  114.45    2.68 
  -2   3  -2  116.47    3.46 
  -2   3  -2  115.84    2.68 
  -2   3  -2  111.98    2.81 
  -2   3  -2  112.47    2.99 
   2  -3   2  118.61    2.95 
   2  -3   2  115.58    2.62 
   2  -3   2  118.05    2.75 
   2  -3   2  109.06    2.67 
   2  -3   2  117.21    2.70 
   2  -3   2  115.30    2.73 
   2  -3   2  119.00    2.68 
   2  -3   2  115.66    2.80 
   2  -3   2  118.27    2.68 
   2  -3   2  121.11    3.57 
   2  -3   2  114.62    2.63 
  -3   3  -2   67.74    1.77 
  -3   3  -2   67.15    1.92 
  -3   3  -2   67.00    1.92 
  -3   3  -2   68.45    2.01 
  -3   3  -2   68.29    1.85 
  -3   3  -2   67.91    2.23 
  -3   3  -2   66.79    1.75 
  -3   3  -2   69.56    1.70 
   3  -3   2   69.05    1.78 
   3  -3   2   69.24    1.98 
   3  -3   2   71.95    2.91 
   3  -3   2   66.71    1.81 
   3  -3   2   70.12    1.83 
   3  -3   2   67.53    1.68 
   3  -3   2   67.50    1.86 
  -4   3  -2   23.70    1.21 
  -4   3  -2   23.39    1.10 
  -4   3  -2   21.78    1.46 
  -4   3  -2   23.15    0.98 
  -4   3  -2   22.18    1.10 
  -4   3  -2   21.33    1.17 
   4  -3   2   23.00    1.01 
   4  -3   2   23.74    1.06 
   4  -3   2   24.69    1.87 
   4  -3   2   22.85    0.81 
   4  -3   2   22.37    1.01 
   4  -3   2   21.79    1.07 
   4  -3   2   24.60    1.40 
  -5   3  -2   58.96    1.84 
  -5   3  -2   55.70    1.67 
  -5   3  -2   54.02    1.95 
  -5   3  -2   50.43    2.03 
  -5   3  -2   54.70    1.72 
   5  -3   2   55.38    1.82 
   5  -3   2   56.90    2.14 
   5  -3   2   54.90    1.42 
   5  -3   2   55.92    2.88 
   5  -3   2   55.62    1.80 
   5  -3   2   57.30    1.87 
   5  -3   2   54.96    1.76 
  -6   3  -2   -0.04    0.61 
  -6   3  -2    0.57    0.64 
  -6   3  -2    1.71    0.86 
  -6   3  -2    1.19    0.87 
  -6   3  -2   -0.17    0.54 
   6  -3   2   -0.05    0.70 
   6  -3   2    0.56    0.62 
   6  -3   2    1.68    1.42 
   6  -3   2    1.58    0.78 
   6  -3   2   -0.25    0.64 
   6  -3   2    1.25    0.39 
   6  -3   2    0.61    0.93 
  -7   3  -2    7.69    1.03 
  -7   3  -2    7.97    0.83 
  -7   3  -2    7.26    1.42 
  -7   3  -2    7.93    1.15 
   7  -3   2    6.33    1.40 
   7  -3   2    5.44    1.79 
   7  -3   2    7.40    1.02 
   7  -3   2    7.13    0.96 
  -8   3  -2   27.61    1.89 
  -8   3  -2   35.01    2.37 
   8  -3   2   28.56    3.41 
   8  -3   2   31.38    2.38 
   8  -3   2   33.01    1.77 
   8  -3   2   34.10    1.81 
  -9   3  -2   50.19    2.91 
  -9   3  -2   48.36    2.37 
   9  -3   2   49.51    3.01 
   9  -3   2   52.87    2.30 
   9  -3   2   45.64    4.09 
   9  -3   2   51.17    2.32 
  10   2  -2   -3.12    1.65 
  10   2  -2    2.38    1.35 
  10   2  -2   -0.41    1.59 
  10   2  -2   -0.72    1.16 
 -10  -2   2    1.96    1.15 
   9   2  -2    7.50    1.88 
   9   2  -2    8.33    1.81 
   9   2  -2    7.85    1.37 
   9   2  -2    8.45    1.47 
  -9  -2   2   11.05    1.55 
  -9  -2   2    8.85    1.29 
  -9  -2   2    9.56    1.64 
   8   2  -2   85.26    3.01 
   8   2  -2   88.85    4.15 
   8   2  -2   88.48    3.09 
   8   2  -2   87.62    3.43 
  -8  -2   2   93.04    3.22 
  -8  -2   2   84.82    3.45 
  -8  -2   2   86.42    2.85 
   7   2  -2   17.25    2.27 
   7   2  -2   15.17    1.72 
   7   2  -2   18.57    1.65 
   7   2  -2   18.57    1.55 
  -7  -2   2   16.02    1.49 
  -7  -2   2   16.58    1.69 
  -7  -2   2   19.00    1.47 
  -7  -2   2   16.39    1.33 
   6   2  -2  158.05    4.12 
   6   2  -2  162.08    4.48 
   6   2  -2  156.57    4.88 
   6   2  -2  155.75    4.14 
   6   2  -2  154.91    4.10 
  -6  -2   2  168.28    4.49 
  -6  -2   2  157.41    3.98 
  -6  -2   2  159.60    4.09 
  -6  -2   2  156.45    4.13 
   5   2  -2   24.66    1.37 
   5   2  -2   23.30    1.38 
   5   2  -2   24.08    1.74 
   5   2  -2   24.39    0.93 
   5   2  -2   24.46    1.84 
   5   2  -2   21.53    1.44 
  -5  -2   2   27.04    1.40 
  -5  -2   2   24.47    1.64 
  -5  -2   2   25.05    1.48 
   4   2  -2   53.97    1.38 
   4   2  -2   55.53    1.92 
   4   2  -2   53.79    1.86 
   4   2  -2   54.38    1.91 
   4   2  -2   52.52    1.71 
   4   2  -2   52.70    1.70 
   4   2  -2   55.71    2.10 
  -4  -2   2   55.67    2.03 
  -4  -2   2   52.56    1.71 
  -4  -2   2   50.69    1.76 
  -4  -2   2   51.71    1.68 
   3   2  -2    1.84    0.65 
   3   2  -2    1.43    0.34 
   3   2  -2    2.71    0.68 
   3   2  -2    1.59    0.34 
   3   2  -2    2.32    0.67 
   3   2  -2    0.49    0.71 
   3   2  -2    2.72    0.70 
   3   2  -2    1.96    0.71 
  -3  -2   2    1.07    0.64 
  -3  -2   2    1.13    0.61 
  -3  -2   2    1.38    0.34 
  -3  -2   2    0.98    0.62 
  -3  -2   2    2.29    0.59 
  -3  -2   2    1.56    0.33 
  -3  -2   2    2.17    0.69 
  -3  -2   2    1.98    0.66 
   2   2  -2  235.83    4.94 
   2   2  -2  227.13    4.99 
   2   2  -2  225.49    5.01 
   2   2  -2  225.45    4.74 
   2   2  -2  236.89    4.98 
   2   2  -2  226.67    5.02 
   2   2  -2  228.27    4.93 
  -2  -2   2  237.69    5.01 
  -2  -2   2  228.97    4.96 
  -2  -2   2  227.79    5.06 
  -2  -2   2  224.55    4.98 
  -2  -2   2  224.64    4.63 
  -2  -2   2  231.71    4.74 
  -2  -2   2  217.44    4.93 
  -2  -2   2  227.36    4.97 
   1   2  -2   44.74    1.42 
   1   2  -2   44.75    1.28 
   1   2  -2   46.34    1.29 
   1   2  -2   43.53    1.43 
   1   2  -2   48.21    1.28 
   1   2  -2   47.81    1.37 
   1   2  -2   49.21    1.63 
  -1  -2   2   46.59    1.32 
  -1  -2   2   46.54    1.41 
  -1  -2   2   46.88    1.26 
  -1  -2   2   47.38    1.43 
  -1  -2   2   46.54    1.51 
  -1  -2   2   43.73    1.37 
  -1  -2   2   44.79    1.38 
   0   2  -2  412.96    8.52 
   0   2  -2  396.89    8.16 
   0   2  -2  387.60    8.24 
   0   2  -2  409.36    8.22 
   0   2  -2  394.92    8.21 
   0   2  -2  406.58    8.20 
   0   2  -2  393.15    8.15 
   0   2  -2  397.60    8.18 
   0  -2   2  407.82    8.22 
   0  -2   2  404.55    8.22 
   0  -2   2  399.24    8.23 
   0  -2   2  391.14    8.17 
   0  -2   2  406.30    8.55 
   0  -2   2  415.47    8.23 
  -1   2  -2  559.49   11.64 
  -1   2  -2  557.18   11.22 
  -1   2  -2  545.32   11.13 
  -1   2  -2  564.94   11.08 
  -1   2  -2  562.58   11.17 
  -1   2  -2  551.93   11.07 
  -1   2  -2  546.57   11.20 
  -1   2  -2  535.78   11.12 
  -1   2  -2  552.96   11.23 
   1  -2   2  551.86   11.22 
   1  -2   2  541.04   11.11 
   1  -2   2  562.77   11.69 
   1  -2   2  519.63   11.13 
   1  -2   2  558.75   11.40 
   1  -2   2  531.51   11.13 
   1  -2   2  552.68   11.11 
  -2   2  -2  351.96    7.62 
  -2   2  -2  376.81    7.64 
  -2   2  -2  365.96    7.66 
  -2   2  -2  361.49    7.58 
  -2   2  -2  370.40    7.44 
  -2   2  -2  355.51    7.78 
   2  -2   2  380.44    8.47 
   2  -2   2  370.05    7.63 
   2  -2   2  375.13    7.60 
   2  -2   2  378.17    7.44 
   2  -2   2  374.97    7.64 
   2  -2   2  370.39    7.63 
   2  -2   2  367.53    7.62 
  -3   2  -2  244.99    5.64 
  -3   2  -2  258.70    5.35 
  -3   2  -2  257.49    5.42 
  -3   2  -2  246.74    5.43 
  -3   2  -2  251.77    5.41 
  -3   2  -2  262.21    5.40 
  -3   2  -2  246.76    6.33 
  -3   2  -2  256.70    5.45 
   3  -2   2  252.92    5.41 
   3  -2   2  256.07    5.13 
   3  -2   2  243.00    5.39 
   3  -2   2  251.03    5.44 
   3  -2   2  252.66    6.47 
   3  -2   2  261.76    5.60 
   3  -2   2  253.69    5.45 
   3  -2   2  246.27    5.45 
  -4   2  -2   21.86    1.09 
  -4   2  -2   22.96    1.26 
  -4   2  -2   23.09    1.18 
  -4   2  -2   23.42    1.45 
  -4   2  -2   21.73    1.07 
  -4   2  -2   22.87    1.08 
   4  -2   2   23.65    1.16 
   4  -2   2   22.04    1.08 
   4  -2   2   22.38    0.69 
   4  -2   2   21.35    1.11 
   4  -2   2   22.50    1.15 
   4  -2   2   24.97    1.37 
   4  -2   2   22.08    2.07 
  -5   2  -2   45.58    1.75 
  -5   2  -2   48.06    2.08 
  -5   2  -2   47.26    1.56 
  -5   2  -2   47.01    1.51 
  -5   2  -2   47.00    1.70 
   5  -2   2   49.00    1.18 
   5  -2   2   47.53    1.66 
   5  -2   2   49.16    2.90 
   5  -2   2   48.85    2.13 
   5  -2   2   46.34    1.64 
   5  -2   2   45.76    1.72 
   5  -2   2   46.96    1.71 
  -6   2  -2   12.63    1.13 
  -6   2  -2   10.14    0.89 
  -6   2  -2   12.53    0.92 
  -6   2  -2   10.64    1.36 
  -6   2  -2   11.34    1.06 
   6  -2   2   10.08    1.01 
   6  -2   2   10.03    1.61 
   6  -2   2   10.22    1.29 
   6  -2   2   10.55    1.06 
   6  -2   2   12.15    0.60 
   6  -2   2   10.48    1.02 
   6  -2   2   10.17    1.00 
  -7   2  -2   93.07    3.33 
  -7   2  -2   92.97    2.86 
  -7   2  -2   97.00    2.96 
  -7   2  -2   91.72    2.43 
   7  -2   2   94.45    4.24 
   7  -2   2   91.62    2.85 
   7  -2   2   94.41    2.93 
   7  -2   2   92.26    3.41 
  -8   2  -2   43.90    2.07 
  -8   2  -2   46.35    2.60 
   8  -2   2   44.02    2.12 
   8  -2   2   41.34    2.64 
   8  -2   2   45.37    2.07 
   8  -2   2   42.97    3.63 
  -9   2  -2   21.99    2.16 
  -9   2  -2   17.61    1.60 
   9  -2   2   19.04    1.67 
   9  -2   2   16.13    2.68 
   9  -2   2   20.25    1.74 
   9  -2   2   16.34    2.13 
 -10   2  -2   18.70    2.20 
 -10   2  -2   20.80    1.79 
  10  -2   2   26.20    2.00 
  10  -2   2   22.22    2.00 
  10  -2   2   20.49    3.04 
  10  -2   2   19.06    2.31 
  10   1  -2   34.76    2.26 
  10   1  -2   33.41    3.42 
  10   1  -2   38.78    2.40 
  10   1  -2   29.91    2.98 
 -10  -1   2   32.91    2.60 
 -10  -1   2   31.83    2.11 
   9   1  -2   87.06    4.59 
   9   1  -2   83.72    3.81 
   9   1  -2   88.40    3.27 
   9   1  -2   86.63    3.11 
  -9  -1   2   78.66    3.39 
  -9  -1   2   85.34    3.16 
  -9  -1   2   81.95    2.95 
   8   1  -2   73.11    2.82 
   8   1  -2   74.02    3.97 
   8   1  -2   78.66    2.76 
   8   1  -2   76.21    3.38 
  -8  -1   2   71.45    2.59 
  -8  -1   2   71.91    2.78 
   7   1  -2   81.21    3.80 
   7   1  -2   75.57    2.72 
   7   1  -2   79.01    3.21 
   7   1  -2   77.88    2.64 
  -7  -1   2   80.07    2.66 
  -7  -1   2   75.79    2.97 
  -7  -1   2   75.24    2.68 
  -7  -1   2   76.17    2.53 
   6   1  -2    0.78    0.75 
   6   1  -2   -0.50    1.00 
   6   1  -2    0.71    0.81 
   6   1  -2    0.59    1.00 
   6   1  -2    0.18    0.73 
  -6  -1   2    0.19    0.78 
  -6  -1   2    0.84    0.93 
  -6  -1   2    0.25    0.70 
  -6  -1   2    0.11    0.77 
   5   1  -2    3.59    0.83 
   5   1  -2    4.53    0.53 
   5   1  -2    2.97    0.78 
   5   1  -2    3.59    0.99 
   5   1  -2    3.33    0.78 
   5   1  -2    2.52    0.97 
   5   1  -2    3.71    0.63 
  -5  -1   2    2.06    0.70 
  -5  -1   2    4.56    0.93 
  -5  -1   2    4.29    0.66 
  -5  -1   2    3.46    0.70 
   4   1  -2    0.13    0.51 
   4   1  -2    0.12    0.35 
   4   1  -2    0.08    0.62 
   4   1  -2   -0.35    0.44 
   4   1  -2    0.26    0.60 
   4   1  -2   -0.34    0.62 
   4   1  -2   -0.43    0.61 
  -4  -1   2   -0.59    0.55 
  -4  -1   2    0.01    0.59 
  -4  -1   2    0.46    0.71 
  -4  -1   2   -0.77    0.65 
  -4  -1   2   -0.37    0.47 
   3   1  -2  198.02    4.44 
   3   1  -2  197.73    4.45 
   3   1  -2  194.84    3.98 
   3   1  -2  191.00    4.46 
   3   1  -2  198.25    4.17 
   3   1  -2  207.04    4.41 
   3   1  -2  199.38    4.41 
   3   1  -2  201.35    4.62 
  -3  -1   2  199.18    4.48 
  -3  -1   2  193.21    4.43 
  -3  -1   2  198.03    4.36 
  -3  -1   2  202.90    4.59 
  -3  -1   2  198.96    4.18 
  -3  -1   2  199.81    4.49 
  -3  -1   2  197.41    4.40 
   2   1  -2  239.40    4.95 
   2   1  -2  230.06    4.95 
   2   1  -2  221.54    4.98 
   2   1  -2  237.37    4.75 
   2   1  -2  221.94    4.96 
   2   1  -2  229.31    5.03 
   2   1  -2  226.02    4.92 
   2   1  -2  226.93    4.69 
  -2  -1   2  229.19    4.74 
  -2  -1   2  229.97    4.91 
  -2  -1   2  232.48    5.02 
  -2  -1   2  234.52    4.94 
  -2  -1   2  243.47    4.99 
  -2  -1   2  229.81    4.95 
  -2  -1   2  232.37    4.96 
   1   1  -2  276.27    5.61 
   1   1  -2  273.15    5.57 
   1   1  -2  276.48    5.59 
   1   1  -2  268.16    5.87 
   1   1  -2  265.23    5.53 
   1   1  -2  263.33    5.57 
   1   1  -2  268.88    5.54 
  -1  -1   2  258.66    5.57 
  -1  -1   2  274.12    5.60 
  -1  -1   2  263.74    5.56 
  -1  -1   2  267.02    5.53 
  -1  -1   2  255.77    5.56 
  -1  -1   2  266.66    5.55 
   0   1  -2  238.79    5.01 
   0   1  -2  236.48    4.95 
   0   1  -2  232.61    4.98 
   0   1  -2  240.64    4.98 
   0   1  -2  248.98    5.40 
   0  -1   2  250.11    5.45 
   0  -1   2  235.59    4.94 
   0  -1   2  229.85    5.01 
   0  -1   2  232.54    5.02 
   0  -1   2  250.14    5.01 
   0  -1   2  252.40    5.05 
  -1   1  -2   82.12    2.08 
  -1   1  -2   83.69    2.55 
  -1   1  -2   82.08    2.01 
  -1   1  -2   84.80    2.02 
  -1   1  -2   84.59    1.94 
  -1   1  -2   84.62    1.98 
  -1   1  -2   85.52    2.07 
   1  -1   2   82.67    2.05 
   1  -1   2   81.74    2.01 
   1  -1   2   85.09    2.02 
   1  -1   2   81.75    2.00 
   1  -1   2   85.55    2.48 
   1  -1   2   88.05    2.06 
   1  -1   2   86.33    1.95 
  -2   1  -2    0.26    0.51 
  -2   1  -2    0.46    0.54 
  -2   1  -2   -0.09    0.46 
  -2   1  -2    0.41    0.65 
  -2   1  -2    0.16    0.48 
  -2   1  -2    0.35    0.46 
  -2   1  -2   -0.18    0.33 
  -2   1  -2   -0.06    0.11 
   2  -1   2    0.88    0.51 
   2  -1   2   -0.25    0.41 
   2  -1   2   -0.58    0.48 
   2  -1   2    0.74    0.52 
   2  -1   2   -0.44    0.44 
   2  -1   2    0.21    0.88 
   2  -1   2   -0.38    0.52 
  -3   1  -2  161.87    3.59 
  -3   1  -2  163.65    3.56 
  -3   1  -2  158.29    3.63 
  -3   1  -2  156.72    3.59 
  -3   1  -2  153.93    4.30 
  -3   1  -2  153.68    3.74 
  -3   1  -2  152.17    3.52 
   3  -1   2  157.94    3.62 
   3  -1   2  161.67    3.59 
   3  -1   2  160.72    3.78 
   3  -1   2  151.42    3.62 
   3  -1   2  157.41    3.59 
   3  -1   2  158.64    3.15 
   3  -1   2  158.18    4.41 
  -4   1  -2   11.20    0.88 
  -4   1  -2   13.82    0.94 
  -4   1  -2   11.20    0.99 
  -4   1  -2   13.16    1.04 
  -4   1  -2   12.29    1.11 
   4  -1   2   11.81    0.96 
   4  -1   2   12.22    1.05 
   4  -1   2   11.36    0.93 
   4  -1   2   12.10    0.86 
   4  -1   2   14.49    1.05 
   4  -1   2   11.97    0.96 
   4  -1   2   13.14    1.80 
  -5   1  -2  153.70    3.65 
  -5   1  -2  146.97    3.71 
  -5   1  -2  147.34    3.58 
  -5   1  -2  148.15    3.99 
  -5   1  -2  151.55    3.41 
   5  -1   2  153.01    4.06 
   5  -1   2  144.88    3.63 
   5  -1   2  142.57    3.72 
   5  -1   2  150.23    3.71 
   5  -1   2  148.44    3.66 
   5  -1   2  148.95    4.90 
  -6   1  -2  158.38    4.29 
  -6   1  -2  160.63    3.98 
  -6   1  -2  158.79    4.07 
  -6   1  -2  156.40    3.92 
  -6   1  -2  158.90    3.62 
   6  -1   2  152.60    4.08 
   6  -1   2  158.97    4.49 
   6  -1   2  156.06    4.01 
   6  -1   2  166.04    4.03 
   6  -1   2  167.63    5.38 
   6  -1   2  153.36    4.06 
  -7   1  -2   59.75    2.27 
  -7   1  -2   56.09    1.67 
  -7   1  -2   57.85    2.10 
  -7   1  -2   50.56    2.33 
   7  -1   2   55.79    2.27 
   7  -1   2   56.68    2.21 
   7  -1   2   60.52    2.77 
   7  -1   2   57.07    3.55 
  -8   1  -2   72.58    2.49 
  -8   1  -2   68.49    3.04 
  -8   1  -2   68.05    2.61 
   8  -1   2   69.25    4.14 
   8  -1   2   68.06    2.68 
   8  -1   2   68.84    2.60 
   8  -1   2   68.76    3.24 
  -9   1  -2    5.31    1.12 
  -9   1  -2    4.71    1.57 
   9  -1   2    2.33    1.51 
   9  -1   2    4.41    1.23 
   9  -1   2    5.10    1.20 
   9  -1   2    2.55    1.90 
 -10   1  -2    5.41    1.25 
 -10   1  -2    5.69    1.71 
  10  -1   2    1.05    1.71 
  10  -1   2    3.99    1.27 
  10  -1   2    3.23    2.28 
  10  -1   2    4.73    1.34 
  10   0  -2   13.55    1.65 
  10   0  -2   13.42    1.61 
  10   0  -2   10.87    2.03 
  10   0  -2   10.01    2.25 
 -10   0   2   10.87    1.48 
 -10   0   2   12.87    1.82 
   9   0  -2   74.11    3.63 
   9   0  -2   80.05    2.91 
   9   0  -2   78.64    4.37 
   9   0  -2   72.12    2.93 
  -9   0   2   73.20    3.12 
  -9   0   2   79.04    2.85 
   8   0  -2    6.71    1.11 
   8   0  -2    7.01    1.73 
   8   0  -2    7.08    1.16 
   8   0  -2    5.76    1.53 
  -8   0   2    7.26    0.99 
  -8   0   2    3.74    1.28 
  -8   0   2    6.83    1.15 
   7   0  -2    2.87    0.95 
   7   0  -2    0.62    1.29 
   7   0  -2    2.19    1.21 
   7   0  -2    0.71    0.84 
  -7   0   2    1.74    0.96 
  -7   0   2    2.37    1.11 
  -7   0   2    2.94    0.96 
  -7   0   2    2.20    0.92 
   6   0  -2    6.17    1.22 
   6   0  -2    7.65    0.97 
   6   0  -2    8.57    0.94 
   6   0  -2    7.80    0.98 
   6   0  -2    7.35    0.91 
   6   0  -2    7.28    1.41 
  -6   0   2    8.14    0.97 
  -6   0   2    7.86    0.91 
  -6   0   2    8.46    0.98 
   5   0  -2  205.41    4.74 
   5   0  -2  205.89    4.78 
   5   0  -2  208.06    4.81 
   5   0  -2  215.37    5.19 
   5   0  -2  206.63    4.73 
   5   0  -2  199.92    5.15 
  -5   0   2  204.73    4.70 
  -5   0   2  205.39    4.96 
  -5   0   2  203.94    4.69 
  -5   0   2  202.06    4.78 
   4   0  -2  105.16    2.79 
   4   0  -2  114.82    2.63 
   4   0  -2  107.92    2.82 
   4   0  -2  114.93    2.79 
   4   0  -2  111.61    3.05 
   4   0  -2  114.26    2.79 
   4   0  -2  114.81    2.89 
  -4   0   2  112.30    2.82 
  -4   0   2  110.21    2.72 
  -4   0   2  108.66    2.79 
  -4   0   2  110.18    2.65 
  -4   0   2  109.70    2.93 
  -4   0   2  117.89    2.76 
   3   0  -2  241.78    5.23 
   3   0  -2  248.58    5.23 
   3   0  -2  243.78    4.81 
   3   0  -2  231.50    5.16 
   3   0  -2  236.64    5.06 
   3   0  -2  242.83    5.22 
   3   0  -2  241.89    5.45 
   3   0  -2  248.11    5.19 
  -3   0   2  234.77    5.15 
  -3   0   2  239.85    5.08 
  -3   0   2  243.48    5.18 
  -3   0   2  240.67    5.22 
  -3   0   2  235.36    5.39 
  -3   0   2  244.33    5.26 
  -3   0   2  250.11    5.17 
   2   0  -2  207.65    4.50 
   2   0  -2  216.80    4.54 
   2   0  -2  210.93    4.54 
   2   0  -2  213.59    4.43 
   2   0  -2  212.46    4.69 
   2   0  -2  202.71    4.49 
   2   0  -2  212.55    4.45 
  -2   0   2  213.21    4.43 
  -2   0   2  212.63    4.49 
  -2   0   2  203.07    4.50 
  -2   0   2  220.95    4.55 
  -2   0   2  218.31    4.49 
  -2   0   2  216.83    4.48 
  -2   0   2  212.40    4.63 
   1   0  -2   62.81    1.55 
   1   0  -2   62.82    1.53 
   1   0  -2   62.43    1.57 
   1   0  -2   60.82    1.63 
   1   0  -2   61.24    1.47 
   1   0  -2   61.93    1.34 
   1   0  -2   63.77    1.56 
  -1   0   2   63.92    1.53 
  -1   0   2   60.88    1.56 
  -1   0   2   60.66    1.52 
  -1   0   2   62.04    1.35 
  -1   0   2   60.85    1.49 
   0   0  -2  124.68    2.76 
   0   0  -2  131.20    2.82 
   0   0  -2  121.96    2.79 
   0   0  -2  127.86    2.66 
   0   0  -2  124.40    2.77 
   0   0   2  123.47    2.65 
   0   0   2  131.47    3.26 
   0   0   2  129.48    2.74 
   0   0   2  117.93    2.79 
   0   0   2  118.78    2.75 
   0   0   2  126.06    2.79 
  -1   0  -2   89.72    2.16 
  -1   0  -2   87.30    2.11 
  -1   0  -2   90.01    2.18 
  -1   0  -2   87.98    1.88 
  -1   0  -2   88.18    2.14 
  -1   0  -2   89.06    2.17 
  -1   0  -2   90.55    2.62 
   1   0   2   90.59    2.69 
   1   0   2   89.57    2.11 
   1   0   2   88.52    1.94 
   1   0   2   88.66    2.19 
   1   0   2   95.23    2.13 
   1   0   2   89.00    2.08 
   1   0   2   88.95    2.08 
   1   0   2   90.44    2.27 
  -2   0  -2  228.23    4.90 
  -2   0  -2  222.50    4.84 
  -2   0  -2  222.69    4.94 
  -2   0  -2  223.58    4.85 
  -2   0  -2  220.59    5.39 
  -2   0  -2  222.80    4.68 
  -2   0  -2  227.89    4.83 
   2   0   2  224.27    4.87 
   2   0   2  232.80    4.85 
   2   0   2  219.98    4.54 
   2   0   2  235.28    4.90 
   2   0   2  222.74    4.66 
   2   0   2  231.29    4.85 
   2   0   2  223.22    5.39 
   2   0   2  227.61    4.93 
  -3   0  -2   96.80    2.30 
  -3   0  -2   97.60    2.44 
  -3   0  -2   96.21    2.44 
  -3   0  -2   93.61    2.99 
  -3   0  -2   99.14    2.62 
  -3   0  -2   97.59    2.42 
   3   0   2   96.69    3.21 
   3   0   2   95.35    2.25 
   3   0   2   96.33    2.59 
   3   0   2   96.16    2.45 
   3   0   2   93.13    2.47 
   3   0   2   90.30    2.49 
   3   0   2  101.15    2.47 
   3   0   2   94.86    2.02 
  -4   0  -2  205.01    4.55 
  -4   0  -2  209.57    4.69 
  -4   0  -2  204.35    4.68 
  -4   0  -2  207.65    4.80 
   4   0   2  201.33    4.71 
   4   0   2  211.48    5.71 
   4   0   2  197.30    4.71 
   4   0   2  208.19    4.78 
   4   0   2  210.02    4.57 
   4   0   2  210.66    5.05 
   4   0   2  218.09    4.80 
  -5   0  -2  160.31    3.84 
  -5   0  -2  160.62    4.10 
  -5   0  -2  161.78    4.00 
   5   0   2  174.13    4.07 
   5   0   2  173.15    4.17 
   5   0   2  160.25    4.40 
   5   0   2  162.62    4.03 
   5   0   2  163.82    5.14 
   5   0   2  170.85    4.11 
  -6   0  -2    4.82    0.81 
  -6   0  -2    5.53    0.91 
  -6   0  -2    4.60    0.97 
   6   0   2    5.16    0.98 
   6   0   2    4.79    0.86 
   6   0   2    5.67    1.45 
   6   0   2    6.07    1.24 
   6   0   2    4.62    0.91 
  -7   0  -2    4.46    0.92 
  -7   0  -2    2.00    1.32 
  -7   0  -2    4.67    0.60 
  -7   0  -2    5.29    1.08 
   7   0   2    4.97    1.11 
   7   0   2    5.17    1.02 
   7   0   2    5.45    1.64 
   7   0   2    3.45    0.55 
   7   0   2    4.61    1.38 
  -8   0  -2    1.09    0.88 
  -8   0  -2   -0.02    1.28 
  -8   0  -2    2.42    1.07 
   8   0   2    1.38    1.59 
   8   0   2    1.53    0.99 
   8   0   2    0.53    1.30 
   8   0   2    1.59    1.07 
  -9   0  -2   12.43    1.65 
  -9   0  -2   14.76    1.40 
   9   0   2   14.16    1.95 
   9   0   2   13.36    2.34 
   9   0   2   14.98    1.58 
   9   0   2   16.20    1.65 
 -10   0  -2    8.11    1.29 
 -10   0  -2    9.67    1.67 
  10   0   2    7.56    2.30 
  10   0   2   10.48    1.63 
  10   0   2    7.08    2.04 
  10   0   2   11.54    1.57 
  10  -1  -2   26.56    3.47 
  10  -1  -2   23.10    2.46 
  10  -1  -2   26.90    2.03 
  10  -1  -2   24.62    1.92 
 -10   1   2   27.56    2.07 
 -10   1   2   27.67    2.29 
   9  -1  -2    6.97    1.22 
   9  -1  -2    5.13    1.13 
   9  -1  -2    4.58    1.62 
   9  -1  -2    4.10    1.81 
  -9   1   2    3.03    1.33 
  -9   1   2    4.73    1.19 
   8  -1  -2   31.18    1.79 
   8  -1  -2   30.70    1.72 
   8  -1  -2   29.45    2.42 
   8  -1  -2   30.85    3.01 
  -8   1   2   28.64    1.80 
  -8   1   2   27.69    1.80 
  -8   1   2   29.71    1.99 
   7  -1  -2   49.30    2.00 
   7  -1  -2   51.56    2.05 
   7  -1  -2   51.81    1.99 
   7  -1  -2   55.64    2.47 
   7  -1  -2   53.21    3.29 
   7  -1  -2   52.45    2.04 
  -7   1   2   53.62    2.10 
  -7   1   2   50.91    2.33 
  -7   1   2   49.11    2.07 
   6  -1  -2  111.72    3.08 
   6  -1  -2  113.75    4.35 
   6  -1  -2  114.90    3.04 
   6  -1  -2  111.92    3.11 
   6  -1  -2  114.97    3.64 
   6  -1  -2  117.42    3.15 
  -6   1   2  116.92    2.99 
  -6   1   2  121.03    3.11 
  -6   1   2  118.02    3.17 
  -6   1   2  115.41    3.26 
   5  -1  -2  119.35    3.23 
   5  -1  -2  112.03    2.98 
   5  -1  -2  115.79    2.94 
   5  -1  -2  119.04    3.37 
   5  -1  -2  117.68    2.93 
   5  -1  -2  116.82    3.01 
  -5   1   2  117.67    3.12 
  -5   1   2  119.53    2.93 
  -5   1   2  114.03    3.04 
  -5   1   2  121.81    2.98 
  -5   1   2  120.26    2.89 
   4  -1  -2  162.32    3.67 
   4  -1  -2  162.88    3.84 
   4  -1  -2  160.44    3.71 
   4  -1  -2  158.27    4.07 
   4  -1  -2  154.08    3.57 
   4  -1  -2  160.00    3.30 
   4  -1  -2  158.17    3.62 
   4  -1  -2  160.79    3.67 
  -4   1   2  163.75    3.77 
  -4   1   2  162.61    3.66 
  -4   1   2  156.60    3.73 
  -4   1   2  161.46    3.65 
  -4   1   2  158.78    3.57 
  -4   1   2  159.26    3.65 
   3  -1  -2  130.14    2.98 
   3  -1  -2  128.93    2.93 
   3  -1  -2  132.91    3.06 
   3  -1  -2  130.88    2.75 
   3  -1  -2  133.69    3.34 
   3  -1  -2  132.95    2.97 
   3  -1  -2  127.25    2.93 
  -3   1   2  131.47    2.91 
  -3   1   2  135.59    3.00 
  -3   1   2  130.49    3.05 
  -3   1   2  120.67    2.87 
  -3   1   2  129.37    3.01 
  -3   1   2  134.24    2.97 
   2  -1  -2   16.39    1.10 
   2  -1  -2   16.96    0.77 
   2  -1  -2   14.71    0.79 
   2  -1  -2   16.84    0.77 
   2  -1  -2   16.40    0.79 
   2  -1  -2   16.83    0.82 
   2  -1  -2   16.26    0.75 
   2  -1  -2   15.35    0.69 
   2  -1  -2   15.13    0.74 
   2  -1  -2   16.46    0.78 
  -2   1   2   15.78    0.73 
  -2   1   2   15.40    0.76 
  -2   1   2   15.50    0.74 
  -2   1   2   16.03    0.75 
  -2   1   2   16.28    0.72 
  -2   1   2   15.88    0.68 
   1  -1  -2   20.14    0.74 
   1  -1  -2   17.83    0.58 
   1  -1  -2   18.76    0.64 
   1  -1  -2   20.04    0.82 
   1  -1  -2   18.99    0.89 
   1  -1  -2   20.90    0.79 
   1  -1  -2   19.29    0.74 
  -1   1   2   20.06    0.93 
  -1   1   2   19.70    0.72 
  -1   1   2   19.98    0.79 
  -1   1   2   19.12    0.73 
  -1   1   2   18.13    0.68 
  -1   1   2   19.16    0.66 
   0  -1  -2  584.06   11.53 
   0  -1  -2  594.45   11.96 
   0  -1  -2  584.93   11.89 
   0  -1  -2  561.46   11.69 
   0  -1  -2  567.14   11.56 
   0  -1  -2  585.68   12.23 
   0  -1  -2  582.82   11.72 
   0  -1  -2  582.51   11.95 
   0   1   2  584.16   11.70 
   0   1   2  578.61   11.60 
   0   1   2  547.14   11.55 
   0   1   2  561.34   12.87 
   0   1   2  568.74   11.69 
   0   1   2  572.84   12.01 
   0   1   2  563.93   11.78 
   0   1   2  576.76   11.94 
  -1  -1  -2  189.78    4.27 
  -1  -1  -2  193.38    4.53 
  -1  -1  -2  191.33    4.10 
  -1  -1  -2  192.23    3.87 
  -1  -1  -2  197.82    4.23 
  -1  -1  -2  192.08    3.99 
  -1  -1  -2  191.62    4.17 
  -1  -1  -2  180.76    4.13 
  -1  -1  -2  191.58    4.12 
   1   1   2  196.29    4.21 
   1   1   2  190.75    4.11 
   1   1   2  194.54    4.12 
   1   1   2  194.76    4.16 
   1   1   2  187.68    4.28 
   1   1   2  188.12    4.11 
   1   1   2  191.28    4.00 
   1   1   2  203.92    4.68 
  -2  -1  -2  182.85    3.99 
  -2  -1  -2  184.70    4.01 
  -2  -1  -2  174.25    4.40 
  -2  -1  -2  175.81    3.75 
  -2  -1  -2  185.63    4.06 
  -2  -1  -2  181.66    4.20 
  -2  -1  -2  188.68    4.05 
  -2  -1  -2  176.43    3.72 
   2   1   2  185.89    3.97 
   2   1   2  174.80    4.46 
   2   1   2  178.56    4.19 
   2   1   2  172.17    4.01 
   2   1   2  179.04    3.75 
   2   1   2  177.86    4.01 
   2   1   2  176.39    3.98 
  -3  -1  -2  172.98    3.93 
  -3  -1  -2  166.98    3.98 
  -3  -1  -2  171.31    4.53 
  -3  -1  -2  174.10    4.19 
  -3  -1  -2  181.44    4.09 
  -3  -1  -2  172.48    3.71 
  -3  -1  -2  174.25    4.03 
  -3  -1  -2  174.88    4.30 
   3   1   2  167.60    4.02 
   3   1   2  166.69    3.98 
   3   1   2  182.04    4.28 
   3   1   2  172.72    4.06 
   3   1   2  176.22    4.19 
   3   1   2  169.43    3.97 
   3   1   2  174.70    3.67 
   3   1   2  174.52    4.63 
  -4  -1  -2   48.31    1.72 
  -4  -1  -2   46.69    2.22 
  -4  -1  -2   51.18    2.13 
  -4  -1  -2   45.75    1.77 
  -4  -1  -2   47.47    1.46 
  -4  -1  -2   47.57    1.67 
   4   1   2   49.07    1.31 
   4   1   2   49.98    2.38 
   4   1   2   46.31    1.73 
   4   1   2   51.13    1.71 
   4   1   2   49.81    1.81 
   4   1   2   48.14    1.89 
   4   1   2   49.58    1.73 
  -5  -1  -2   85.31    2.50 
  -5  -1  -2   82.30    2.21 
  -5  -1  -2   82.13    2.94 
  -5  -1  -2   80.85    2.59 
   5   1   2   83.04    3.35 
   5   1   2   84.37    2.91 
   5   1   2   80.16    2.48 
   5   1   2   81.29    2.03 
   5   1   2   89.37    2.52 
   5   1   2   83.90    2.61 
  -6  -1  -2    3.28    0.88 
  -6  -1  -2    2.39    0.78 
  -6  -1  -2    1.19    1.11 
  -6  -1  -2    2.01    0.94 
   6   1   2    1.40    0.73 
   6   1   2    1.72    0.52 
   6   1   2    2.04    1.25 
   6   1   2    1.50    0.86 
   6   1   2    3.36    1.17 
   6   1   2    2.42    0.89 
  -7  -1  -2   45.88    2.22 
  -7  -1  -2   47.94    1.84 
   7   1   2   46.62    2.70 
   7   1   2   51.76    2.18 
   7   1   2   49.25    2.09 
   7   1   2   47.58    3.16 
   7   1   2   48.20    1.50 
  -8  -1  -2   45.08    2.33 
  -8  -1  -2   44.24    1.88 
   8   1   2   41.92    2.81 
   8   1   2   41.81    3.29 
   8   1   2   40.33    2.17 
   8   1   2   44.06    2.34 
  -9  -1  -2   67.41    3.42 
  -9  -1  -2   69.03    2.49 
  -9  -1  -2   68.07    2.94 
   9   1   2   63.75    2.81 
   9   1   2   61.17    3.49 
   9   1   2   65.05    4.18 
   9   1   2   67.69    3.00 
  10   1   2   31.44    3.10 
  10  -2  -2    1.66    1.64 
  10  -2  -2    1.71    1.90 
  10  -2  -2    2.07    1.15 
  10  -2  -2    3.03    1.12 
 -10   2   2    5.90    1.32 
 -10   2   2    6.07    1.46 
   9  -2  -2    3.40    1.08 
   9  -2  -2    1.66    0.94 
   9  -2  -2    0.52    1.43 
   9  -2  -2    1.04    1.66 
  -9   2   2    1.14    1.09 
  -9   2   2    2.80    1.24 
   8  -2  -2  105.93    4.00 
   8  -2  -2  117.31    3.30 
   8  -2  -2  110.40    3.32 
   8  -2  -2  107.75    4.99 
  -8   2   2  104.67    3.36 
  -8   2   2  108.31    3.54 
   7  -2  -2   60.14    2.06 
   7  -2  -2   61.54    3.62 
   7  -2  -2   62.16    2.20 
   7  -2  -2   58.90    2.57 
   7  -2  -2   59.43    2.11 
  -7   2   2   60.59    2.10 
  -7   2   2   58.84    2.38 
  -7   2   2   59.50    2.14 
   6  -2  -2   55.80    2.48 
   6  -2  -2   55.72    1.87 
   6  -2  -2   54.97    1.85 
   6  -2  -2   54.95    3.16 
   6  -2  -2   51.39    1.86 
   6  -2  -2   55.31    1.85 
  -6   2   2   55.51    2.03 
  -6   2   2   56.04    1.86 
  -6   2   2   53.86    2.18 
  -6   2   2   54.56    1.66 
   5  -2  -2  129.87    3.16 
   5  -2  -2  125.88    3.13 
   5  -2  -2  132.96    3.14 
   5  -2  -2  136.17    3.16 
   5  -2  -2  134.71    3.65 
   5  -2  -2  130.44    2.86 
   5  -2  -2  130.00    3.44 
  -5   2   2  131.69    3.43 
  -5   2   2  127.52    3.31 
  -5   2   2  122.63    2.99 
  -5   2   2  134.56    3.15 
  -5   2   2  130.43    3.25 
   4  -2  -2   34.81    1.23 
   4  -2  -2   35.52    1.50 
   4  -2  -2   35.45    1.74 
   4  -2  -2   35.72    1.05 
   4  -2  -2   37.22    1.22 
   4  -2  -2   34.48    1.19 
   4  -2  -2   36.51    1.20 
  -4   2   2   34.92    1.17 
  -4   2   2   36.60    1.31 
  -4   2   2   36.43    1.39 
  -4   2   2   35.82    1.42 
  -4   2   2   36.53    1.10 
  -4   2   2   36.94    1.17 
   3  -2  -2   35.29    1.07 
   3  -2  -2   33.07    1.23 
   3  -2  -2   36.14    1.27 
   3  -2  -2   29.85    1.10 
   3  -2  -2   35.39    1.09 
   3  -2  -2   34.64    1.05 
   3  -2  -2   36.03    1.04 
   3  -2  -2   36.03    1.58 
   3  -2  -2   33.48    1.05 
  -3   2   2   35.42    0.95 
  -3   2   2   34.60    1.27 
  -3   2   2   32.81    1.24 
  -3   2   2   29.32    0.97 
  -3   2   2   33.62    1.01 
  -3   2   2   34.13    0.93 
  -3   2   2   34.80    1.29 
   2  -2  -2    4.28    0.53 
   2  -2  -2    5.25    0.55 
   2  -2  -2    5.76    0.48 
   2  -2  -2    5.78    0.64 
   2  -2  -2    6.45    0.50 
   2  -2  -2    5.98    0.48 
   2  -2  -2    5.58    0.56 
   2  -2  -2    5.25    0.51 
  -2   2   2    5.79    0.33 
  -2   2   2    6.19    0.48 
  -2   2   2    6.44    0.45 
  -2   2   2    5.87    0.61 
  -2   2   2    5.92    0.57 
  -2   2   2    5.78    0.52 
  -2   2   2    5.46    0.33 
  -2   2   2    7.36    0.64 
   1  -2  -2  431.15    8.83 
   1  -2  -2  437.17    8.78 
   1  -2  -2  425.63    8.66 
   1  -2  -2  430.15    8.90 
   1  -2  -2  429.86    8.69 
   1  -2  -2  437.90    8.74 
   1  -2  -2  416.14    8.75 
   1  -2  -2  425.46    8.75 
  -1   2   2  441.25    8.79 
  -1   2   2  427.06    8.58 
  -1   2   2  433.04    8.74 
  -1   2   2  430.84    8.83 
  -1   2   2  439.75    8.76 
  -1   2   2  431.74    8.82 
  -1   2   2  424.78    8.69 
   0  -2  -2  147.82    3.09 
   0  -2  -2  143.86    2.93 
   0  -2  -2  144.52    3.11 
   0  -2  -2  141.82    3.06 
   0  -2  -2  143.31    3.21 
   0  -2  -2  141.73    3.17 
   0  -2  -2  138.46    3.51 
   0  -2  -2  139.08    3.08 
   0   2   2  135.28    3.22 
   0   2   2  142.61    3.17 
   0   2   2  140.30    3.04 
   0   2   2  145.79    3.10 
   0   2   2  141.50    3.07 
   0   2   2  139.59    3.03 
   0   2   2  141.67    3.18 
  -1  -2  -2  550.66   11.62 
  -1  -2  -2  587.77   11.76 
  -1  -2  -2  563.51   11.64 
  -1  -2  -2  566.78   11.94 
  -1  -2  -2  567.80   11.60 
  -1  -2  -2  578.09   11.57 
  -1  -2  -2  571.30   11.61 
   1   2   2  563.68   11.59 
   1   2   2  580.97   11.65 
   1   2   2  586.19   11.58 
   1   2   2  570.81   11.98 
   1   2   2  573.98   11.73 
   1   2   2  581.16   11.59 
  -2  -2  -2   50.05    1.39 
  -2  -2  -2   52.96    1.57 
  -2  -2  -2   51.31    1.62 
  -2  -2  -2   50.20    1.90 
  -2  -2  -2   48.82    1.59 
  -2  -2  -2   50.43    1.21 
  -2  -2  -2   53.57    1.86 
  -2  -2  -2   48.73    1.48 
   2   2   2   52.74    1.41 
   2   2   2   51.24    2.00 
   2   2   2   48.75    1.53 
   2   2   2   51.00    1.87 
   2   2   2   50.40    1.48 
   2   2   2   52.27    1.58 
   2   2   2   51.51    1.61 
  -3  -2  -2    2.64    0.73 
  -3  -2  -2    1.58    0.72 
  -3  -2  -2    2.79    0.69 
  -3  -2  -2    2.24    0.73 
  -3  -2  -2    2.05    0.91 
  -3  -2  -2    2.59    0.61 
  -3  -2  -2    2.45    0.43 
   3   2   2    1.63    0.65 
   3   2   2    3.15    0.92 
   3   2   2    2.30    0.89 
   3   2   2    2.21    0.74 
   3   2   2    2.24    0.66 
   3   2   2    2.53    0.69 
   3   2   2    2.48    0.84 
   3   2   2    3.26    0.55 
  -4  -2  -2    0.04    0.45 
  -4  -2  -2    0.75    0.71 
  -4  -2  -2    0.77    0.91 
  -4  -2  -2    0.56    0.59 
  -4  -2  -2    0.32    0.65 
  -4  -2  -2    0.71    0.72 
   4   2   2    1.14    0.94 
   4   2   2   -0.39    0.47 
   4   2   2    0.21    0.65 
   4   2   2    0.92    0.67 
   4   2   2    0.35    0.92 
   4   2   2    1.00    0.75 
  -5  -2  -2   33.67    2.10 
  -5  -2  -2   33.94    1.26 
  -5  -2  -2   33.45    1.72 
  -5  -2  -2   34.08    1.64 
   5   2   2   33.43    1.54 
   5   2   2   33.80    1.23 
   5   2   2   35.84    1.65 
   5   2   2   32.68    2.18 
   5   2   2   35.77    1.84 
   5   2   2   34.88    1.47 
  -6  -2  -2   78.80    3.19 
  -6  -2  -2   78.13    2.28 
  -6  -2  -2   74.35    2.59 
  -6  -2  -2   81.08    2.79 
   6   2   2   72.82    3.09 
   6   2   2   80.76    3.61 
   6   2   2   77.78    2.61 
   6   2   2   81.50    2.14 
   6   2   2   79.09    2.63 
   6   2   2   76.26    2.60 
  -7  -2  -2   13.15    1.47 
  -7  -2  -2    9.35    1.60 
  -7  -2  -2   11.37    1.03 
   7   2   2   11.59    1.26 
   7   2   2   11.94    1.02 
   7   2   2   10.52    1.13 
   7   2   2   10.33    1.66 
   7   2   2   12.60    1.95 
  -8  -2  -2   98.38    3.93 
  -8  -2  -2   98.19    2.96 
  -8  -2  -2   92.07    3.43 
   8   2   2   97.12    3.49 
   8   2   2  107.71    3.41 
   8   2   2   99.51    4.50 
   8   2   2   90.54    3.65 
  -9  -2  -2   14.80    1.32 
  -9  -2  -2   14.29    1.74 
   9   2   2   16.30    1.70 
   9   2   2   12.09    2.02 
   9   2   2   12.96    2.34 
   9   2   2   15.46    1.78 
  10  -3  -2   43.04    2.11 
  10  -3  -2   34.95    3.11 
  10  -3  -2   40.55    2.20 
  10  -3  -2   43.39    4.24 
 -10   3   2   41.20    2.45 
 -10   3   2   42.38    2.60 
   9  -3  -2   93.53    4.02 
   9  -3  -2   96.06    4.88 
   9  -3  -2   94.91    3.10 
   9  -3  -2  106.01    3.20 
  -9   3   2   99.82    3.37 
  -9   3   2  100.78    3.56 
   8  -3  -2   51.50    2.07 
   8  -3  -2   52.14    2.60 
   8  -3  -2   50.28    2.09 
   8  -3  -2   54.55    3.83 
  -8   3   2   56.60    2.48 
  -8   3   2   54.35    2.33 
   7  -3  -2   24.55    2.81 
   7  -3  -2   23.03    1.38 
   7  -3  -2   20.59    1.24 
   7  -3  -2   23.92    2.12 
   7  -3  -2   23.30    1.35 
  -7   3   2   21.48    1.39 
  -7   3   2   22.00    1.70 
  -7   3   2   21.52    1.41 
   6  -3  -2   17.93    1.09 
   6  -3  -2   18.35    2.33 
   6  -3  -2   16.17    1.08 
   6  -3  -2   17.80    1.11 
   6  -3  -2   17.72    1.78 
   6  -3  -2   17.72    0.90 
   6  -3  -2   19.18    1.10 
  -6   3   2   18.16    1.46 
  -6   3   2   17.13    1.00 
  -6   3   2   15.06    1.27 
  -6   3   2   15.34    0.91 
   5  -3  -2    9.21    1.17 
   5  -3  -2   10.32    0.81 
   5  -3  -2    8.64    0.69 
   5  -3  -2    9.15    0.77 
   5  -3  -2    8.01    0.67 
   5  -3  -2    8.93    0.66 
  -5   3   2    8.82    0.74 
  -5   3   2   10.68    0.91 
  -5   3   2    9.99    0.84 
  -5   3   2    8.78    0.57 
  -5   3   2    9.44    1.01 
   4  -3  -2   32.58    1.03 
   4  -3  -2   30.81    1.04 
   4  -3  -2   31.08    1.23 
   4  -3  -2   30.32    1.11 
   4  -3  -2   28.10    1.46 
   4  -3  -2   32.09    1.67 
   4  -3  -2   31.33    1.04 
   4  -3  -2   32.07    1.04 
  -4   3   2   31.30    0.97 
  -4   3   2   32.31    1.40 
  -4   3   2   29.93    1.33 
  -4   3   2   32.22    0.80 
  -4   3   2   32.69    1.40 
  -4   3   2   31.76    0.98 
   3  -3  -2  128.24    3.17 
   3  -3  -2  133.18    3.19 
   3  -3  -2  134.98    2.80 
   3  -3  -2  134.43    2.80 
   3  -3  -2  133.80    2.80 
   3  -3  -2  130.72    3.11 
   3  -3  -2  132.01    3.36 
   3  -3  -2  127.22    2.99 
   3  -3  -2  129.05    2.79 
   3  -3  -2  124.26    3.06 
   3  -3  -2  131.23    3.09 
  -3   3   2  128.54    3.17 
  -3   3   2  129.89    3.08 
  -3   3   2  130.51    3.07 
  -3   3   2  134.05    2.75 
  -3   3   2  128.31    2.73 
   2  -3  -2  172.82    3.88 
   2  -3  -2  173.63    3.52 
   2  -3  -2  172.39    3.78 
   2  -3  -2  172.81    3.88 
   2  -3  -2  169.65    3.78 
   2  -3  -2  174.75    3.80 
   2  -3  -2  170.91    3.90 
   2  -3  -2  165.29    3.52 
   2  -3  -2  171.63    3.51 
  -2   3   2  176.06    3.44 
  -2   3   2  173.80    3.81 
  -2   3   2  172.41    3.87 
  -2   3   2  168.49    3.43 
  -2   3   2  171.20    3.77 
  -2   3   2  168.75    3.92 
   1  -3  -2   60.72    1.66 
   1  -3  -2   61.43    1.67 
   1  -3  -2   60.07    1.53 
   1  -3  -2   59.95    1.53 
   1  -3  -2   60.29    1.38 
   1  -3  -2   59.61    1.68 
   1  -3  -2   59.27    1.39 
   1  -3  -2   60.82    1.42 
   1  -3  -2   59.72    1.39 
   1  -3  -2   59.78    1.68 
  -1   3   2   59.25    1.56 
  -1   3   2   60.76    1.37 
  -1   3   2   58.14    1.66 
  -1   3   2   58.29    1.39 
  -1   3   2   58.58    1.76 
  -1   3   2   60.75    1.56 
  -1   3   2   54.30    1.22 
  -1   3   2   58.13    1.23 
   0  -3  -2  261.84    5.93 
   0  -3  -2  272.72    5.75 
   0  -3  -2  271.52    5.50 
   0  -3  -2  267.25    5.41 
   0  -3  -2  263.60    5.52 
   0  -3  -2  265.33    5.70 
   0  -3  -2  264.37    5.52 
   0  -3  -2  267.08    5.50 
   0   3   2  258.90    5.45 
   0   3   2  265.85    5.67 
   0   3   2  267.39    5.72 
   0   3   2  254.35    5.50 
   0   3   2  268.94    5.50 
   0   3   2  267.97    5.47 
   0   3   2  255.26    5.70 
  -1  -3  -2   11.97    0.83 
  -1  -3  -2   11.31    1.16 
  -1  -3  -2   11.28    0.82 
  -1  -3  -2   12.73    1.20 
  -1  -3  -2   12.76    1.11 
  -1  -3  -2   11.11    0.86 
  -1  -3  -2   11.25    0.79 
   1   3   2   12.43    0.62 
   1   3   2   11.17    0.75 
   1   3   2   10.20    0.88 
   1   3   2   11.64    0.75 
   1   3   2   12.51    0.84 
   1   3   2   11.37    0.90 
   1   3   2   11.24    0.81 
  -2  -3  -2   22.82    1.44 
  -2  -3  -2   19.22    1.15 
  -2  -3  -2   21.98    1.07 
  -2  -3  -2   18.91    1.07 
  -2  -3  -2   20.08    1.12 
  -2  -3  -2   20.45    1.28 
  -2  -3  -2   21.00    1.40 
  -2  -3  -2   19.91    1.10 
   2   3   2   24.57    1.59 
   2   3   2   19.49    1.03 
   2   3   2   18.92    1.22 
   2   3   2   19.12    1.27 
   2   3   2   17.66    1.00 
   2   3   2   21.63    0.94 
   2   3   2   20.45    1.14 
  -3  -3  -2    0.26    0.53 
  -3  -3  -2    0.71    0.67 
  -3  -3  -2   -0.69    0.60 
  -3  -3  -2    0.25    0.62 
  -3  -3  -2   -0.02    0.66 
  -3  -3  -2    0.83    0.67 
   3   3   2    0.87    0.59 
   3   3   2    0.02    0.65 
   3   3   2   -0.37    0.84 
   3   3   2   -0.54    0.59 
   3   3   2   -0.16    0.73 
   3   3   2    0.07    0.60 
  -4  -3  -2  185.89    4.48 
  -4  -3  -2  190.16    4.92 
  -4  -3  -2  188.58    4.11 
  -4  -3  -2  190.91    4.89 
  -4  -3  -2  176.05    4.58 
  -4  -3  -2  183.93    4.44 
   4   3   2  192.30    4.95 
   4   3   2  186.35    4.50 
   4   3   2  182.76    4.48 
   4   3   2  190.37    4.56 
   4   3   2  192.81    5.05 
   4   3   2  190.44    4.24 
  -5  -3  -2  108.08    2.72 
  -5  -3  -2  109.24    3.62 
  -5  -3  -2  110.26    3.14 
  -5  -3  -2  108.75    3.26 
  -5  -3  -2  113.28    3.19 
   5   3   2  109.98    2.82 
   5   3   2  109.50    3.62 
   5   3   2  112.69    3.83 
   5   3   2  112.47    3.27 
   5   3   2  105.17    3.12 
  -6  -3  -2  181.31    4.26 
  -6  -3  -2  184.03    4.90 
  -6  -3  -2  180.89    5.28 
  -6  -3  -2  196.99    4.83 
   6   3   2  177.49    4.71 
   6   3   2  187.32    5.31 
   6   3   2  188.84    5.66 
   6   3   2  185.50    4.31 
   6   3   2  168.78    4.79 
  -7  -3  -2   49.92    2.43 
  -7  -3  -2   46.94    2.25 
  -7  -3  -2   43.77    2.78 
  -7  -3  -2   47.76    1.75 
   7   3   2   44.08    1.99 
   7   3   2   46.09    2.93 
   7   3   2   43.95    2.34 
   7   3   2   44.20    2.81 
   7   3   2   48.65    1.73 
  -8  -3  -2    5.08    1.64 
  -8  -3  -2    4.15    1.34 
  -8  -3  -2    6.69    0.95 
   8   3   2    4.65    1.77 
   8   3   2    0.68    1.49 
   8   3   2    5.43    1.39 
   8   3   2    5.46    1.25 
  -9  -3  -2    1.84    0.92 
  -9  -3  -2    2.34    1.62 
  -9  -3  -2   -0.05    1.23 
   9   3   2    1.72    1.31 
   9   3   2    0.60    1.72 
   9   3   2   -0.99    1.58 
  10  -4  -2   10.06    1.99 
  10  -4  -2   15.59    3.22 
  10  -4  -2   11.25    1.48 
  10  -4  -2   10.80    1.30 
 -10   4   2   12.33    1.84 
 -10   4   2   14.40    1.81 
   9  -4  -2    4.07    0.97 
   9  -4  -2    4.51    1.91 
   9  -4  -2    5.86    1.02 
   9  -4  -2    4.96    1.63 
  -9   4   2    4.36    1.25 
  -9   4   2    6.02    1.37 
   8  -4  -2    6.64    1.43 
   8  -4  -2    6.35    1.98 
   8  -4  -2    7.48    0.99 
   8  -4  -2    7.21    0.92 
  -8   4   2    5.50    1.30 
  -8   4   2    7.24    1.30 
   7  -4  -2   19.74    2.02 
   7  -4  -2   21.66    1.27 
   7  -4  -2   19.86    1.21 
   7  -4  -2   21.40    2.82 
   7  -4  -2   20.25    1.21 
  -7   4   2   21.13    1.87 
  -7   4   2   21.08    1.66 
   6  -4  -2   14.93    1.10 
   6  -4  -2   13.37    1.98 
   6  -4  -2   16.12    0.98 
   6  -4  -2   17.28    1.02 
   6  -4  -2   17.72    1.00 
   6  -4  -2   17.74    1.76 
   6  -4  -2   17.55    0.99 
  -6   4   2   17.08    1.54 
  -6   4   2   16.42    0.86 
  -6   4   2   16.26    1.35 
   5  -4  -2  145.79    3.44 
   5  -4  -2  149.45    3.29 
   5  -4  -2  148.62    3.28 
   5  -4  -2  146.67    5.01 
   5  -4  -2  146.52    3.28 
   5  -4  -2  147.98    4.10 
   5  -4  -2  142.69    3.25 
  -5   4   2  143.65    3.80 
  -5   4   2  141.26    3.16 
  -5   4   2  144.01    3.66 
   4  -4  -2  267.15    6.29 
   4  -4  -2  266.90    5.50 
   4  -4  -2  261.62    5.50 
   4  -4  -2  262.58    5.47 
   4  -4  -2  264.88    5.78 
   4  -4  -2  270.55    5.48 
  -4   4   2  276.71    5.36 
  -4   4   2  262.82    5.34 
  -4   4   2  270.73    6.05 
  -4   4   2  263.23    5.91 
  -4   4   2  265.56    5.95 
   3  -4  -2  116.51    2.82 
   3  -4  -2  115.77    2.42 
   3  -4  -2  120.49    2.36 
   3  -4  -2  116.05    2.42 
   3  -4  -2  116.54    3.20 
   3  -4  -2  108.41    2.37 
   3  -4  -2  115.79    2.99 
  -3   4   2  116.01    2.90 
  -3   4   2  113.92    2.99 
  -3   4   2  118.28    2.83 
   2  -4  -2   83.17    1.67 
   2  -4  -2   79.15    2.06 
   2  -4  -2   77.16    1.66 
   2  -4  -2   78.01    2.24 
   2  -4  -2   81.59    2.26 
   2  -4  -2   80.16    1.72 
   2  -4  -2   82.53    2.09 
   2  -4  -2   84.15    2.32 
   2  -4  -2   83.55    1.73 
   2  -4  -2   78.78    2.22 
   2  -4  -2   81.61    2.15 
  -2   4   2   82.71    2.12 
  -2   4   2   82.58    2.28 
  -2   4   2   80.08    2.28 
  -2   4   2   81.77    2.14 
   1  -4  -2   54.50    1.50 
   1  -4  -2   52.78    1.68 
   1  -4  -2   52.88    1.30 
   1  -4  -2   51.46    1.72 
   1  -4  -2   53.47    1.31 
   1  -4  -2   53.29    1.33 
   1  -4  -2   53.09    1.66 
   1  -4  -2   54.89    1.46 
   1  -4  -2   54.05    1.64 
   1  -4  -2   53.69    1.31 
   1  -4  -2   53.06    1.70 
  -1   4   2   52.04    1.27 
  -1   4   2   54.90    1.65 
  -1   4   2   52.83    1.48 
  -1   4   2   52.78    1.25 
  -1   4   2   52.98    1.75 
   0  -4  -2   11.48    0.72 
   0  -4  -2   10.59    0.72 
   0  -4  -2   11.17    0.93 
   0  -4  -2   12.67    0.79 
   0  -4  -2   10.46    0.68 
   0  -4  -2   10.75    0.92 
   0  -4  -2   10.70    0.66 
   0  -4  -2   12.07    1.08 
   0  -4  -2   10.80    0.84 
   0  -4  -2    9.77    0.71 
   0   4   2    9.79    0.59 
   0   4   2    9.89    0.62 
   0   4   2   10.04    0.83 
   0   4   2   10.38    0.69 
   0   4   2   11.07    0.58 
   0   4   2   11.40    0.97 
   0   4   2   10.04    0.93 
   0   4   2   10.83    0.65 
  -1  -4  -2   36.39    1.25 
  -1  -4  -2   36.39    1.31 
  -1  -4  -2   38.11    1.65 
  -1  -4  -2   38.93    1.62 
  -1  -4  -2   36.46    1.39 
  -1  -4  -2   34.56    1.23 
  -1  -4  -2   36.85    1.34 
  -1  -4  -2   36.41    1.68 
  -1  -4  -2   34.53    1.26 
   1   4   2   34.97    1.52 
   1   4   2   36.92    1.28 
   1   4   2   36.36    1.24 
   1   4   2   35.98    1.30 
   1   4   2   33.66    1.40 
   1   4   2   35.53    1.03 
   1   4   2   36.19    1.28 
   1   4   2   36.03    1.52 
  -2  -4  -2  209.35    4.81 
  -2  -4  -2  202.36    4.71 
  -2  -4  -2  211.03    4.83 
  -2  -4  -2  211.25    4.76 
  -2  -4  -2  218.61    4.89 
  -2  -4  -2  215.20    4.77 
  -2  -4  -2  204.96    5.08 
   2   4   2  212.75    4.79 
   2   4   2  211.25    4.89 
   2   4   2  211.03    4.70 
   2   4   2  205.89    4.35 
   2   4   2  202.65    4.72 
  -3  -4  -2   90.01    2.50 
  -3  -4  -2   86.00    2.58 
  -3  -4  -2   88.59    2.78 
  -3  -4  -2   87.52    2.48 
  -3  -4  -2   86.89    2.58 
  -3  -4  -2   88.80    2.53 
   3   4   2   86.62    2.56 
   3   4   2   90.01    2.47 
   3   4   2   94.08    2.86 
   3   4   2   81.24    2.84 
   3   4   2   89.09    2.41 
  -4  -4  -2   42.37    1.79 
  -4  -4  -2   37.58    1.81 
  -4  -4  -2   41.97    1.73 
  -4  -4  -2   43.05    1.89 
  -4  -4  -2   39.53    2.19 
   4   4   2   38.13    2.15 
   4   4   2   40.12    1.70 
   4   4   2   40.32    1.53 
   4   4   2   39.92    2.13 
   4   4   2   36.24    1.76 
  -5  -4  -2   44.93    2.00 
  -5  -4  -2   48.83    1.93 
  -5  -4  -2   47.59    2.30 
  -5  -4  -2   48.64    1.58 
  -5  -4  -2   48.59    2.18 
   5   4   2   50.55    2.52 
   5   4   2   48.50    1.74 
   5   4   2   54.09    2.18 
   5   4   2   43.51    1.96 
   5   4   2   49.50    2.55 
  -6  -4  -2   11.57    1.34 
  -6  -4  -2   11.14    1.39 
  -6  -4  -2   11.76    0.96 
  -6  -4  -2    9.39    1.64 
   6   4   2   10.57    1.42 
   6   4   2   12.93    1.29 
   6   4   2   12.24    1.06 
   6   4   2   12.50    1.28 
   6   4   2   10.77    1.57 
  -7  -4  -2    2.88    0.83 
  -7  -4  -2    3.40    1.17 
  -7  -4  -2    1.46    1.17 
  -7  -4  -2    1.65    0.97 
   7   4   2    1.94    0.80 
   7   4   2    0.15    1.41 
   7   4   2    2.69    1.39 
   7   4   2    2.37    1.16 
   7   4   2    3.25    1.10 
  -8  -4  -2    0.76    1.27 
  -8  -4  -2    1.24    0.76 
  -8  -4  -2    0.49    1.46 
   8   4   2   -1.16    1.46 
   8   4   2   -0.24    1.23 
   8   4   2    0.63    1.55 
  -9  -4  -2   39.11    3.12 
  -9  -4  -2   39.66    2.68 
   9   4   2   38.83    2.35 
   9   4   2   36.24    3.23 
   9  -5  -2    1.66    0.80 
   9  -5  -2    2.66    1.91 
   9  -5  -2   -0.97    1.48 
   9  -5  -2    2.28    0.82 
  -9   5   2    2.49    1.31 
  -9   5   2    2.72    1.25 
   8  -5  -2   48.46    1.85 
   8  -5  -2   49.94    3.95 
   8  -5  -2   45.73    1.76 
   8  -5  -2   50.62    2.85 
  -8   5   2   48.32    2.39 
  -8   5   2   51.50    2.51 
   7  -5  -2   32.59    1.36 
   7  -5  -2   31.91    1.32 
   7  -5  -2   28.14    2.70 
   7  -5  -2   31.34    2.27 
   7  -5  -2   29.83    1.35 
  -7   5   2   36.12    2.18 
  -7   5   2   32.11    1.94 
   6  -5  -2   38.89    1.35 
   6  -5  -2   40.31    1.35 
   6  -5  -2   38.01    3.09 
   6  -5  -2   39.78    1.28 
   6  -5  -2   40.46    2.27 
  -6   5   2   38.82    2.01 
  -6   5   2   38.71    1.92 
   5  -5  -2  144.72    3.13 
   5  -5  -2  150.20    3.14 
   5  -5  -2  145.55    3.22 
   5  -5  -2  148.30    3.22 
   5  -5  -2  148.30    4.18 
   5  -5  -2  144.47    5.13 
  -5   5   2  145.79    3.93 
  -5   5   2  142.10    3.81 
   4  -5  -2    2.22    0.82 
   4  -5  -2    2.22    0.29 
   4  -5  -2    2.26    0.28 
  -4   5   2    1.36    0.59 
  -4   5   2    1.01    0.82 
  -4   5   2    1.99    0.81 
   3  -5  -2   70.07    1.39 
   3  -5  -2   64.28    1.39 
  -3   5   2   68.84    1.94 
  -3   5   2   66.42    2.04 
  -3   5   2   67.24    2.20 
  -3   5   2   65.54    2.12 
   2  -5  -2   37.37    0.74 
   2  -5  -2   33.12    0.85 
   2  -5  -2   33.64    0.84 
   2  -5  -2   32.59    1.57 
  -2   5   2   33.41    1.47 
  -2   5   2   33.12    1.27 
  -2   5   2   32.91    1.50 
   1  -5  -2   -0.24    0.59 
   1  -5  -2    1.02    0.36 
   1  -5  -2    0.45    0.34 
   1  -5  -2    1.02    0.53 
   1  -5  -2    0.39    0.32 
   1  -5  -2    1.02    0.45 
   1  -5  -2    0.35    0.35 
  -1   5   2    0.51    0.71 
  -1   5   2    0.24    0.53 
  -1   5   2    0.32    0.45 
  -1   5   2   -0.09    0.22 
  -1   5   2    0.40    0.29 
   0  -5  -2   90.60    2.19 
   0  -5  -2   88.91    2.14 
   0  -5  -2   90.34    2.21 
   0  -5  -2   91.67    2.68 
   0  -5  -2   89.28    2.20 
   0  -5  -2   88.31    2.21 
   0  -5  -2   88.28    2.24 
   0   5   2   89.37    2.45 
   0   5   2   92.87    2.15 
   0   5   2   89.44    2.07 
   0   5   2   88.40    2.18 
   0   5   2   90.84    2.54 
   0   5   2   90.37    2.19 
  -1  -5  -2  213.13    4.71 
  -1  -5  -2  214.32    4.94 
  -1  -5  -2  202.03    4.68 
  -1  -5  -2  212.56    5.15 
  -1  -5  -2  211.84    4.73 
  -1  -5  -2  216.44    4.78 
   1   5   2  210.28    4.42 
   1   5   2  211.58    4.62 
   1   5   2  212.15    4.88 
   1   5   2  211.37    4.89 
   1   5   2  204.61    4.70 
  -2  -5  -2  102.00    2.64 
  -2  -5  -2   94.10    2.68 
  -2  -5  -2   94.93    2.67 
  -2  -5  -2   99.68    2.56 
  -2  -5  -2   99.06    2.67 
  -2  -5  -2   99.04    3.07 
   2   5   2   99.30    2.81 
   2   5   2   99.04    2.55 
   2   5   2   95.50    2.69 
   2   5   2  100.00    2.71 
   2   5   2   95.01    2.16 
  -3  -5  -2  106.14    3.09 
  -3  -5  -2  113.68    3.06 
  -3  -5  -2  108.69    2.90 
  -3  -5  -2  115.80    3.03 
  -3  -5  -2  112.92    3.49 
   3   5   2  107.35    2.93 
   3   5   2  109.52    2.98 
   3   5   2  107.80    2.39 
   3   5   2  112.48    3.01 
   3   5   2  111.46    3.01 
  -4  -5  -2   61.41    2.34 
  -4  -5  -2   57.04    2.22 
  -4  -5  -2   65.50    2.24 
  -4  -5  -2   61.42    2.53 
   4   5   2   64.60    2.71 
   4   5   2   59.67    2.15 
   4   5   2   62.86    2.11 
   4   5   2   62.34    2.52 
   4   5   2   63.34    2.17 
  -5  -5  -2    0.83    0.91 
  -5  -5  -2    0.25    0.99 
  -5  -5  -2   -0.29    0.62 
  -5  -5  -2    0.71    1.26 
   5   5   2   -0.59    1.14 
   5   5   2   -1.14    1.04 
   5   5   2    0.48    0.76 
   5   5   2   -0.18    0.94 
   5   5   2    0.51    0.80 
  -6  -5  -2   -0.45    0.97 
  -6  -5  -2    0.37    0.69 
  -6  -5  -2    0.25    1.07 
  -6  -5  -2   -0.11    1.10 
   6   5   2    0.51    1.34 
   6   5   2   -0.06    1.01 
   6   5   2   -1.62    1.13 
   6   5   2    1.70    0.81 
  -7  -5  -2   52.28    2.63 
  -7  -5  -2   50.14    3.10 
  -7  -5  -2   47.65    1.81 
  -7  -5  -2   48.42    2.45 
   7   5   2   49.14    3.07 
   7   5   2   44.33    2.49 
   7   5   2   49.28    2.06 
  -8  -5  -2   40.52    3.13 
  -8  -5  -2   46.02    2.71 
   8   5   2   37.60    3.09 
   8   5   2   41.39    2.62 
   9  -6  -2   42.09    4.15 
   9  -6  -2   37.89    2.86 
   9  -6  -2   39.40    1.75 
  -9   6   2   38.73    2.46 
  -9   6   2   42.99    2.61 
   8  -6  -2   24.64    1.32 
   8  -6  -2   24.70    1.56 
   8  -6  -2   20.75    2.82 
   8  -6  -2   23.18    2.14 
  -8   6   2   24.52    2.07 
  -8   6   2   25.68    1.74 
   7  -6  -2  108.22    5.09 
   7  -6  -2  112.41    2.73 
   7  -6  -2  103.51    2.68 
   7  -6  -2  106.68    2.54 
   7  -6  -2  109.48    3.85 
  -7   6   2  111.06    3.60 
  -7   6   2  109.57    3.47 
   6  -6  -2   21.44    0.92 
   6  -6  -2   22.68    0.66 
   6  -6  -2   21.14    0.92 
   6  -6  -2   21.88    2.66 
   6  -6  -2   22.79    1.93 
  -6   6   2   22.77    1.79 
  -6   6   2   20.79    1.67 
   5  -6  -2   36.80    2.05 
   5  -6  -2   37.09    2.84 
   5  -6  -2   37.52    1.00 
   5  -6  -2   36.22    1.00 
  -5   6   2   36.85    1.99 
  -5   6   2   36.97    1.84 
   4  -6  -2    0.07    1.05 
   4  -6  -2   -0.43    0.80 
  -4   6   2    0.62    0.82 
  -4   6   2    1.13    0.94 
   3  -6  -2  109.00    3.22 
  -3   6   2  107.62    2.87 
  -3   6   2  110.15    3.09 
  -3   6   2  111.65    3.08 
   2  -6  -2   42.26    0.94 
   2  -6  -2   45.92    0.98 
   2  -6  -2   44.98    1.10 
   2  -6  -2   42.97    1.11 
   2  -6  -2   43.58    1.84 
  -2   6   2   45.11    1.77 
  -2   6   2   42.75    1.80 
  -2   6   2   43.35    1.51 
   1  -6  -2   77.43    1.88 
   1  -6  -2   75.77    1.89 
   1  -6  -2   76.88    2.53 
   1  -6  -2   77.44    1.88 
   1  -6  -2   75.78    2.00 
   1  -6  -2   76.03    1.85 
  -1   6   2   76.16    2.36 
  -1   6   2   76.44    2.01 
  -1   6   2   79.62    1.78 
  -1   6   2   75.20    1.77 
  -1   6   2   76.44    2.41 
   0  -6  -2  201.94    4.55 
   0  -6  -2  210.01    4.54 
   0  -6  -2  210.92    5.15 
   0  -6  -2  205.08    4.55 
   0  -6  -2  207.74    4.58 
   0  -6  -2  209.06    4.46 
   0  -6  -2  208.20    5.01 
   0  -6  -2  207.27    4.54 
   0   6   2  203.05    4.88 
   0   6   2  202.18    4.91 
   0   6   2  207.01    4.37 
   0   6   2  211.05    4.46 
   0   6   2  202.07    4.52 
  -1  -6  -2   49.37    1.60 
  -1  -6  -2   49.22    2.17 
  -1  -6  -2   46.37    1.70 
  -1  -6  -2   50.13    1.69 
  -1  -6  -2   47.56    1.81 
  -1  -6  -2   49.37    1.67 
   1   6   2   49.15    1.78 
   1   6   2   48.35    1.32 
   1   6   2   49.75    1.92 
   1   6   2   51.47    1.68 
   1   6   2   50.52    1.51 
  -2  -6  -2   25.74    1.37 
  -2  -6  -2   25.13    1.85 
  -2  -6  -2   23.29    1.38 
  -2  -6  -2   21.71    1.24 
  -2  -6  -2   24.28    1.30 
  -2  -6  -2   24.02    0.97 
   2   6   2   20.46    1.51 
   2   6   2   22.49    1.15 
   2   6   2   24.67    1.47 
   2   6   2   24.02    1.29 
   2   6   2   22.98    0.77 
  -3  -6  -2    0.50    1.09 
  -3  -6  -2   -0.19    0.77 
  -3  -6  -2    0.95    0.78 
  -3  -6  -2   -0.80    0.68 
   3   6   2    0.90    0.67 
   3   6   2    0.65    0.64 
   3   6   2   -0.06    0.23 
   3   6   2   -0.12    0.73 
   3   6   2    0.54    0.77 
  -4  -6  -2   54.67    2.21 
  -4  -6  -2   53.72    2.28 
  -4  -6  -2   55.19    2.75 
   4   6   2   54.25    2.37 
   4   6   2   55.51    1.23 
   4   6   2   54.96    2.12 
   4   6   2   55.32    2.24 
  -5  -6  -2   16.81    1.57 
  -5  -6  -2   16.58    1.90 
  -5  -6  -2   18.79    1.55 
   5   6   2   18.43    1.84 
   5   6   2   18.70    1.42 
   5   6   2   19.06    1.48 
  -6  -6  -2   73.22    2.23 
  -6  -6  -2   73.65    2.87 
  -6  -6  -2   66.88    3.42 
  -6  -6  -2   72.32    2.97 
   6   6   2   71.03    2.91 
   6   6   2   71.31    3.38 
   6   6   2   67.85    2.49 
  -7  -6  -2   36.62    2.18 
  -7  -6  -2   34.84    2.98 
   7   6   2   39.60    2.02 
   7   6   2   35.98    2.85 
   7   6   2   39.12    2.42 
  -8  -6  -2   32.59    3.07 
  -8  -6  -2   32.46    2.57 
   8   6   2   32.50    2.19 
   8   6   2   37.13    3.06 
   8  -7  -2   16.86    1.05 
   8  -7  -2   14.57    2.55 
   8  -7  -2   16.26    1.96 
  -8   7   2   14.42    1.68 
  -8   7   2   15.65    1.78 
   7  -7  -2    0.02    0.43 
   7  -7  -2    0.73    1.63 
   7  -7  -2   -0.67    1.07 
   7  -7  -2   -0.46    0.42 
  -7   7   2   -1.18    1.08 
  -7   7   2   -1.10    1.05 
   6  -7  -2    1.04    1.47 
   6  -7  -2    2.60    0.36 
   6  -7  -2    2.19    0.34 
   6  -7  -2    1.67    1.16 
  -6   7   2    0.68    1.05 
  -6   7   2    2.15    1.09 
   5  -7  -2    7.12    1.18 
   5  -7  -2    7.10    1.61 
  -5   7   2    6.60    1.16 
  -5   7   2    7.58    1.27 
   4  -7  -2   40.80    2.05 
   4  -7  -2   41.78    2.85 
   4  -7  -2   43.03    2.16 
   3  -7  -2   85.50    3.41 
   3  -7  -2   81.58    2.82 
  -3   7   2   82.35    2.66 
  -3   7   2   81.84    2.71 
   2  -7  -2  107.18    2.43 
   2  -7  -2  111.16    2.45 
   2  -7  -2  114.94    2.30 
   2  -7  -2  106.31    2.27 
   2  -7  -2  112.31    3.74 
   2  -7  -2  110.11    3.34 
  -2   7   2  105.58    3.11 
  -2   7   2  109.59    2.87 
  -2   7   2  110.70    3.22 
   1  -7  -2   35.37    1.17 
   1  -7  -2   35.64    1.20 
   1  -7  -2   32.47    1.12 
   1  -7  -2   35.75    1.22 
   1  -7  -2   36.45    1.95 
  -1   7   2   35.21    1.02 
  -1   7   2   34.73    1.80 
  -1   7   2   36.23    1.37 
  -1   7   2   35.16    1.72 
   0  -7  -2   21.50    1.71 
   0  -7  -2   17.54    1.07 
   0  -7  -2   20.34    1.43 
   0  -7  -2   18.83    1.03 
   0  -7  -2   18.08    1.06 
   0  -7  -2   16.49    1.08 
   0   7   2   18.06    1.25 
   0   7   2   17.95    0.97 
   0   7   2   18.18    0.93 
   0   7   2   17.39    1.33 
  -1  -7  -2    8.19    1.28 
  -1  -7  -2    7.67    1.02 
  -1  -7  -2    8.45    0.83 
  -1  -7  -2    8.44    0.87 
  -1  -7  -2    9.78    0.97 
  -1  -7  -2    8.40    0.84 
   1   7   2    8.85    0.85 
   1   7   2   10.13    0.82 
   1   7   2    9.41    1.18 
   1   7   2    8.94    0.70 
   1   7   2    7.83    0.97 
  -2  -7  -2   53.30    2.05 
  -2  -7  -2   49.02    2.50 
  -2  -7  -2   51.72    1.93 
  -2  -7  -2   48.68    1.96 
  -2  -7  -2   45.88    1.85 
   2   7   2   49.38    2.12 
   2   7   2   48.43    1.76 
   2   7   2   52.63    2.01 
   2   7   2   52.37    1.27 
   2   7   2   50.97    1.96 
  -3  -7  -2   -0.20    1.20 
  -3  -7  -2    0.53    0.80 
  -3  -7  -2   -0.11    0.83 
   3   7   2    1.70    0.85 
   3   7   2    1.86    0.96 
   3   7   2    0.37    1.03 
  -4  -7  -2   70.02    2.58 
  -4  -7  -2   66.48    2.61 
  -4  -7  -2   70.35    3.18 
   4   7   2   68.69    2.54 
   4   7   2   71.76    2.75 
   4   7   2   70.18    2.60 
  -5  -7  -2   75.96    2.78 
  -5  -7  -2   71.16    2.79 
  -5  -7  -2   75.38    3.48 
   5   7   2   76.37    2.89 
   5   7   2   75.34    2.69 
  -6  -7  -2   18.47    2.21 
  -6  -7  -2   22.03    1.74 
  -6  -7  -2   19.47    1.80 
   6   7   2   22.74    2.01 
   6   7   2   22.17    1.70 
  -7  -7  -2   24.27    2.15 
  -7  -7  -2   21.97    2.48 
   7   7   2   25.93    2.24 
   7   7   2   26.85    1.80 
   7   7   2   24.90    2.42 
   8  -8  -2    0.42    0.44 
   8  -8  -2   -1.24    1.24 
   8  -8  -2    0.94    1.87 
  -8   8   2    1.52    1.35 
  -8   8   2   -1.41    1.26 
   7  -8  -2    2.16    1.32 
   7  -8  -2    2.83    1.89 
   7  -8  -2    2.48    0.25 
  -7   8   2    1.65    1.30 
   6  -8  -2   82.86    3.27 
   6  -8  -2   84.42    4.42 
  -6   8   2   85.88    3.25 
   5  -8  -2   41.06    2.24 
   5  -8  -2   47.04    2.43 
   5  -8  -2   44.22    3.25 
   4  -8  -2   68.86    2.70 
   4  -8  -2   72.47    2.82 
   4  -8  -2   73.77    3.53 
   3  -8  -2   59.46    1.29 
   3  -8  -2   61.60    3.01 
   3  -8  -2   60.12    2.53 
   3  -8  -2   61.41    1.30 
  -3   8   2   58.68    2.42 
  -3   8   2   61.16    2.43 
   2  -8  -2    3.88    0.47 
   2  -8  -2    2.68    1.03 
   2  -8  -2    4.31    0.49 
   2  -8  -2    3.83    0.27 
   2  -8  -2    4.09    1.08 
   2  -8  -2    4.04    0.35 
  -2   8   2    4.93    1.01 
  -2   8   2    5.24    1.13 
   1  -8  -2    8.32    0.74 
   1  -8  -2   10.79    1.34 
   1  -8  -2    9.75    0.81 
   1  -8  -2   10.74    1.47 
   1  -8  -2    8.47    0.72 
  -1   8   2   10.32    1.10 
  -1   8   2    9.02    1.16 
   0  -8  -2    0.93    1.06 
   0  -8  -2    1.62    0.67 
   0  -8  -2    2.39    0.65 
   0  -8  -2    1.85    0.66 
   0  -8  -2    2.13    0.63 
   0   8   2    1.49    0.98 
   0   8   2    1.67    0.94 
  -1  -8  -2   50.00    1.91 
  -1  -8  -2   52.92    1.91 
  -1  -8  -2   48.42    2.54 
  -1  -8  -2   52.87    1.82 
   1   8   2   50.88    2.28 
   1   8   2   47.17    2.20 
  -2  -8  -2   58.23    2.87 
  -2  -8  -2   63.81    2.33 
  -2  -8  -2   58.79    2.16 
   2   8   2   59.97    2.42 
   2   8   2   65.10    2.16 
   2   8   2   58.33    2.27 
  -3  -8  -2   83.10    3.29 
  -3  -8  -2   83.83    2.80 
  -3  -8  -2   87.55    2.88 
   3   8   2   83.75    2.95 
   3   8   2   85.91    2.78 
   3   8   2   86.75    3.01 
  -4  -8  -2   38.77    2.06 
  -4  -8  -2   40.22    2.13 
  -4  -8  -2   40.38    2.44 
   4   8   2   39.48    2.03 
   4   8   2   40.04    2.11 
   4   8   2   42.93    2.31 
  -5  -8  -2    5.95    1.45 
  -5  -8  -2    7.38    1.34 
  -5  -8  -2    9.76    1.45 
   5   8   2   10.48    1.41 
   5   8   2    8.92    1.34 
   5   8   2    6.70    1.47 
  -6  -8  -2    5.56    1.88 
  -6  -8  -2    6.74    1.40 
  -6  -8  -2    5.19    1.43 
   6   8   2    4.89    1.38 
   6   8   2    3.47    1.47 
   6   8   2    6.09    1.27 
   7  -9  -2   24.93    2.05 
   7  -9  -2   17.57    2.58 
   7  -9  -2   19.82    2.00 
   6  -9  -2   12.37    1.58 
   6  -9  -2    9.38    1.98 
   6  -9  -2    7.86    1.42 
   5  -9  -2   60.02    3.59 
   5  -9  -2   63.54    2.84 
   5  -9  -2   63.07    2.82 
   4  -9  -2    5.82    1.50 
   4  -9  -2    7.75    1.37 
   4  -9  -2    8.01    1.18 
   3  -9  -2    0.43    1.14 
   3  -9  -2    0.58    1.00 
   3  -9  -2    0.52    0.23 
   3  -9  -2    0.17    0.21 
  -3   9   2    0.05    1.06 
  -3   9   2   -0.06    0.96 
   2  -9  -2    2.46    1.08 
   2  -9  -2    2.01    0.48 
   2  -9  -2    1.85    0.47 
   2  -9  -2    3.00    1.16 
  -2   9   2    0.91    1.07 
  -2   9   2    2.12    0.99 
   1  -9  -2   79.78    2.11 
   1  -9  -2   79.31    2.18 
   1  -9  -2   78.46    2.19 
   1  -9  -2   80.81    3.20 
  -1   9   2   75.88    2.90 
  -1   9   2   81.63    2.76 
   0  -9  -2   38.59    2.41 
   0  -9  -2   38.20    1.58 
   0  -9  -2   39.55    1.60 
   0   9   2   38.06    2.14 
   0   9   2   40.89    2.02 
  -1  -9  -2   42.14    1.83 
  -1  -9  -2   41.00    1.72 
  -1  -9  -2   41.57    2.59 
   1   9   2   42.89    2.12 
   1   9   2   38.03    2.17 
  -2  -9  -2   71.55    3.23 
  -2  -9  -2   63.98    2.38 
  -2  -9  -2   65.15    2.44 
   2   9   2   64.17    2.70 
   2   9   2   64.90    2.76 
  -3  -9  -2    5.16    1.10 
  -3  -9  -2    1.79    1.48 
  -3  -9  -2    3.06    1.01 
   3   9   2    4.22    1.21 
   3   9   2    4.37    1.01 
  -4  -9  -2   13.19    1.50 
  -4  -9  -2   12.09    1.91 
  -4  -9  -2   12.52    1.45 
   4   9   2   13.68    1.52 
   4   9   2   13.00    1.64 
  -5  -9  -2    5.04    1.42 
  -5  -9  -2    0.70    1.71 
  -5  -9  -2    5.12    1.37 
   5   9   2    4.37    1.49 
   5   9   2    8.90    1.42 
   6 -10  -2   12.50    2.31 
   6 -10  -2   14.10    1.71 
   5 -10  -2   -0.80    1.46 
   5 -10  -2    1.15    0.99 
   5 -10  -2   -0.53    1.14 
   4 -10  -2    1.97    1.50 
   4 -10  -2    4.00    1.16 
   4 -10  -2    1.44    1.26 
   3 -10  -2   12.79    0.48 
   3 -10  -2   11.72    0.47 
   3 -10  -2   12.84    1.59 
  -3  10   2   13.27    1.52 
  -3  10   2   12.69    1.60 
   2 -10  -2   38.48    1.31 
   2 -10  -2   37.34    2.46 
   2 -10  -2   38.16    1.30 
  -2  10   2   36.27    2.28 
  -2  10   2   38.51    2.08 
   1 -10  -2   18.31    1.20 
   1 -10  -2   16.84    1.81 
   1 -10  -2   18.10    1.04 
  -1  10   2   19.73    1.78 
  -1  10   2   17.43    1.55 
   0 -10  -2   54.56    1.97 
   0 -10  -2   55.42    2.97 
   0 -10  -2   54.18    1.92 
   0  10   2   48.12    2.52 
   0  10   2   57.07    2.43 
  -1 -10  -2   11.45    1.77 
  -1 -10  -2   14.22    1.25 
  -1 -10  -2   13.43    1.22 
   1  10   2   15.53    1.60 
   1  10   2   14.25    1.62 
  -2 -10  -2    0.63    1.38 
  -2 -10  -2   -0.07    0.82 
  -2 -10  -2    0.41    0.93 
   2  10   2    0.13    1.12 
   2  10   2    0.05    0.87 
  -3 -10  -2   -0.30    1.03 
  -3 -10  -2   -0.05    1.09 
  -3 -10  -2   -2.19    1.05 
   3  10   2   -0.42    1.15 
   3  10   2    1.03    1.20 
  -4 -10  -2    6.26    1.87 
  -4 -10  -2    9.21    1.43 
  -4 -10  -2    4.76    1.22 
   4  10   2    8.38    1.55 
   4  10   2    9.65    1.54 
   4 -11  -2   45.55    2.80 
   3 -11  -2   38.53    2.65 
  -3  11   2   31.93    2.36 
  -3  11   2   35.23    2.33 
   2 -11  -2   21.58    1.08 
   2 -11  -2   20.84    2.15 
  -2  11   2   25.90    1.92 
  -2  11   2   25.63    2.17 
   1 -11  -2   38.74    1.58 
   1 -11  -2   37.25    2.79 
  -1  11   2   38.28    2.18 
  -1  11   2   34.11    2.41 
   0 -11  -2   -0.71    1.36 
   0 -11  -2   -0.61    0.73 
   0 -11  -2    0.91    0.79 
   0  11   2   -0.08    1.19 
   0  11   2    1.07    1.07 
  -1 -11  -2   -0.76    1.44 
  -1 -11  -2   -0.02    0.88 
  -1 -11  -2    0.42    0.89 
   1  11   2    1.74    1.25 
   1  11   2   -0.33    1.08 
  -2 -11  -2   19.06    1.71 
  -2 -11  -2   19.56    2.21 
  -2 -11  -2   19.03    1.61 
   2  11   2   20.33    1.83 
   2  11   2   13.64    1.78 
   2  11  -3   11.23    1.70 
  -2 -11   3   10.17    1.41 
  -2 -11   3   11.91    2.01 
  -2 -11   3   11.02    1.40 
   1  11  -3   55.75    2.75 
   1  11  -3   50.76    2.65 
  -1 -11   3   51.15    2.19 
  -1 -11   3   50.19    2.26 
  -1 -11   3   51.51    3.35 
   0  11  -3   28.96    2.24 
   0  11  -3   29.71    2.22 
   0 -11   3   21.20    2.37 
   0 -11   3   27.07    1.70 
   0 -11   3   23.61    1.65 
  -1  11  -3    9.98    1.49 
  -1  11  -3   10.18    1.64 
   1 -11   3   10.52    1.13 
   1 -11   3   10.69    1.90 
   1 -11   3   10.39    1.07 
  -2  11  -3    8.35    1.43 
  -2  11  -3   11.42    1.63 
   2 -11   3    9.30    1.87 
   2 -11   3    7.62    0.96 
  -3  11  -3   17.59    1.80 
  -3  11  -3   17.33    1.68 
   3 -11   3   13.52    1.19 
   3 -11   3   16.47    2.11 
   4  10  -3   26.94    2.28 
  -4 -10   3   27.59    2.43 
  -4 -10   3   31.68    2.15 
  -4 -10   3   22.97    1.97 
   3  10  -3   48.54    2.63 
  -3 -10   3   47.09    2.44 
  -3 -10   3   45.24    2.32 
  -3 -10   3   48.75    3.18 
   2  10  -3   28.94    2.21 
   2  10  -3   28.88    2.05 
  -2 -10   3   30.40    1.94 
  -2 -10   3   30.08    1.85 
  -2 -10   3   29.43    2.74 
   1  10  -3   -0.20    1.09 
   1  10  -3    0.65    1.17 
  -1 -10   3    1.45    0.92 
  -1 -10   3   -0.09    1.42 
  -1 -10   3    0.78    0.92 
   0  10  -3    0.31    1.08 
   0  10  -3    1.15    1.16 
   0 -10   3    0.41    0.84 
   0 -10   3    1.04    1.47 
   0 -10   3    0.61    0.82 
  -1  10  -3   18.88    1.61 
  -1  10  -3   19.85    1.68 
   1 -10   3   19.32    2.12 
   1 -10   3   21.11    1.38 
   1 -10   3   19.50    1.42 
  -2  10  -3   18.47    1.61 
  -2  10  -3   14.98    1.52 
   2 -10   3   13.23    1.86 
   2 -10   3   14.70    1.22 
   2 -10   3   15.83    1.14 
  -3  10  -3   25.33    1.85 
  -3  10  -3   27.13    2.15 
   3 -10   3   23.57    1.31 
   3 -10   3   25.54    2.56 
  -4  10  -3   55.40    2.69 
  -4  10  -3   54.04    2.40 
   4 -10   3   54.00    1.79 
   4 -10   3   57.06    3.25 
  -5  10  -3   18.03    1.80 
   5 -10   3   19.23    1.12 
   5 -10   3   19.30    2.14 
   5 -10   3   18.83    2.59 
   6   9  -3   24.66    2.10 
   6   9  -3   18.47    1.85 
  -6  -9   3   26.71    2.27 
  -6  -9   3   21.48    2.50 
  -6  -9   3   22.94    2.02 
   5   9  -3   18.27    1.69 
   5   9  -3   18.40    1.86 
  -5  -9   3   17.59    1.77 
  -5  -9   3   20.52    1.79 
  -5  -9   3   14.68    2.09 
   4   9  -3   49.09    2.15 
   4   9  -3   57.38    2.69 
  -4  -9   3   51.98    2.49 
  -4  -9   3   50.94    3.14 
  -4  -9   3   50.57    2.40 
   3   9  -3    3.04    1.05 
   3   9  -3    1.72    0.90 
   3   9  -3    3.78    1.28 
  -3  -9   3    1.78    1.04 
  -3  -9   3    2.76    1.20 
  -3  -9   3    3.23    1.03 
   2   9  -3    6.55    1.15 
   2   9  -3    4.80    1.16 
   2   9  -3    6.94    0.95 
  -2  -9   3    4.60    1.05 
  -2  -9   3    5.09    1.02 
  -2  -9   3    5.96    1.59 
   1   9  -3    1.15    1.03 
   1   9  -3    0.95    1.03 
   1   9  -3    1.36    0.71 
  -1  -9   3    0.31    0.89 
  -1  -9   3    0.89    1.28 
  -1  -9   3    1.42    0.92 
   0   9  -3   40.25    2.12 
   0   9  -3   36.47    2.08 
   0   9  -3   41.05    1.58 
   0  -9   3   37.78    1.74 
   0  -9   3   39.93    1.77 
   0  -9   3   41.05    2.69 
  -1   9  -3   52.56    1.79 
  -1   9  -3   49.10    2.39 
  -1   9  -3   51.98    2.26 
   1  -9   3   53.31    1.90 
   1  -9   3   54.64    2.66 
   1  -9   3   54.22    1.87 
  -2   9  -3   26.15    1.88 
  -2   9  -3   28.15    1.96 
   2  -9   3   22.56    2.22 
   2  -9   3   27.03    2.06 
   2  -9   3   25.31    1.27 
   2  -9   3   23.88    1.33 
  -3   9  -3   80.56    3.01 
  -3   9  -3   80.96    2.78 
   3  -9   3   81.52    2.21 
   3  -9   3   80.21    3.54 
   3  -9   3   83.94    2.32 
   3  -9   3   82.97    3.87 
   3  -9   3   82.90    2.43 
  -4   9  -3    0.50    1.12 
  -4   9  -3    0.13    1.01 
   4  -9   3    1.24    1.29 
   4  -9   3    0.56    0.51 
   4  -9   3    0.29    0.61 
   4  -9   3   -0.54    1.28 
  -5   9  -3    2.50    1.52 
  -5   9  -3    1.13    1.10 
  -5   9  -3    2.82    1.07 
   5  -9   3    2.35    1.71 
   5  -9   3    3.03    0.71 
  -6   9  -3    2.30    1.58 
  -6   9  -3    2.39    1.18 
   6  -9   3   -0.32    1.67 
   7   8  -3   16.77    2.10 
   7   8  -3   20.33    1.89 
   7   8  -3   23.68    2.14 
  -7  -8   3   20.59    2.06 
  -7  -8   3   16.27    2.31 
   6   8  -3   49.30    2.55 
   6   8  -3   43.39    2.52 
   6   8  -3   43.78    2.85 
  -6  -8   3   45.68    3.17 
  -6  -8   3   50.56    2.66 
  -6  -8   3   45.83    2.50 
   5   8  -3   18.30    1.73 
   5   8  -3   15.33    1.71 
   5   8  -3   14.34    1.58 
  -5  -8   3   17.73    1.73 
  -5  -8   3   18.05    1.64 
  -5  -8   3   15.52    1.77 
   4   8  -3    1.09    1.16 
   4   8  -3   -1.15    0.95 
   4   8  -3    0.57    0.94 
  -4  -8   3    0.95    0.96 
  -4  -8   3   -0.23    1.28 
  -4  -8   3    1.00    1.04 
   3   8  -3    2.23    0.92 
   3   8  -3    1.32    0.88 
   3   8  -3    1.71    1.02 
   3   8  -3    0.12    1.11 
  -3  -8   3    0.98    0.91 
  -3  -8   3    1.39    1.31 
  -3  -8   3    0.55    0.94 
   2   8  -3   49.41    2.09 
   2   8  -3   50.11    2.28 
   2   8  -3   50.24    1.82 
   2   8  -3   48.44    2.20 
  -2  -8   3   49.05    2.72 
  -2  -8   3   50.28    2.09 
  -2  -8   3   50.13    2.12 
   1   8  -3   68.12    2.61 
   1   8  -3   70.02    2.33 
   1   8  -3   76.01    2.60 
   1   8  -3   73.58    2.12 
  -1  -8   3   73.86    2.35 
  -1  -8   3   72.32    2.39 
  -1  -8   3   69.90    3.11 
   0   8  -3   36.68    1.92 
   0   8  -3   37.54    1.92 
   0   8  -3   37.44    1.51 
   0   8  -3   37.61    1.43 
   0  -8   3   37.91    2.40 
   0  -8   3   32.06    2.01 
   0  -8   3   35.10    1.62 
   0  -8   3   36.26    1.60 
   0  -8   3   37.25    1.66 
  -1   8  -3  123.77    3.08 
  -1   8  -3  127.78    3.58 
  -1   8  -3  125.76    3.68 
   1  -8   3  127.07    4.18 
   1  -8   3  125.05    4.04 
   1  -8   3  128.56    3.23 
   1  -8   3  127.18    3.25 
   1  -8   3  124.50    3.21 
  -2   8  -3    5.44    1.17 
  -2   8  -3    6.94    1.09 
   2  -8   3    5.22    0.75 
   2  -8   3    6.08    0.75 
   2  -8   3    5.10    0.63 
   2  -8   3    5.18    1.12 
   2  -8   3    5.98    0.78 
   2  -8   3    3.70    1.22 
  -3   8  -3   13.21    1.27 
  -3   8  -3   17.12    1.39 
   3  -8   3   12.72    1.06 
   3  -8   3   13.94    1.00 
   3  -8   3   13.17    1.10 
   3  -8   3   14.13    1.64 
   3  -8   3   14.61    2.05 
  -4   8  -3    1.67    1.29 
  -4   8  -3    0.33    0.79 
  -4   8  -3   -0.02    0.98 
   4  -8   3    0.35    0.61 
   4  -8   3    0.25    0.53 
   4  -8   3   -0.85    1.20 
  -5   8  -3   43.23    2.21 
  -5   8  -3   41.15    2.35 
   5  -8   3   49.97    2.27 
   5  -8   3   47.28    1.72 
   5  -8   3   47.04    3.42 
   5  -8   3   49.39    1.54 
  -6   8  -3   10.49    1.34 
  -6   8  -3   12.07    1.61 
   6  -8   3    8.85    2.07 
   6  -8   3    9.69    0.97 
  -7   8  -3   41.62    2.84 
  -7   8  -3   41.94    2.18 
   7  -8   3   34.99    1.73 
   7  -8   3   37.26    3.83 
   8   7  -3    7.31    1.64 
   7   7  -3   16.68    2.00 
   7   7  -3   21.45    1.78 
   7   7  -3   17.53    1.74 
  -7  -7   3   20.89    1.98 
  -7  -7   3   17.44    2.17 
   6   7  -3   -0.47    1.20 
   6   7  -3    0.13    1.13 
   6   7  -3    0.58    1.14 
  -6  -7   3   -1.19    1.32 
  -6  -7   3    0.83    1.20 
  -6  -7   3    0.42    1.07 
   5   7  -3   18.01    1.76 
   5   7  -3   21.27    1.80 
   5   7  -3   18.09    1.67 
  -5  -7   3   17.47    1.90 
  -5  -7   3   20.81    1.49 
  -5  -7   3   22.20    1.86 
   4   7  -3   11.22    1.34 
   4   7  -3   11.58    1.38 
   4   7  -3   12.79    1.35 
  -4  -7   3   11.69    1.29 
  -4  -7   3   14.35    1.44 
  -4  -7   3   11.26    1.62 
   3   7  -3  102.93    3.14 
   3   7  -3  104.97    3.26 
   3   7  -3  103.05    2.96 
   3   7  -3  101.49    2.89 
  -3  -7   3  106.45    3.21 
  -3  -7   3  100.77    3.49 
  -3  -7   3  105.09    3.12 
   2   7  -3  131.96    3.56 
   2   7  -3  133.57    3.32 
   2   7  -3  133.03    3.43 
   2   7  -3  133.25    3.57 
   2   7  -3  130.65    3.64 
  -2  -7   3  135.94    4.18 
  -2  -7   3  127.68    3.40 
  -2  -7   3  137.65    3.58 
  -2  -7   3  131.69    3.62 
  -2  -7   3  130.00    3.56 
  -2  -7   3  135.42    3.54 
   1   7  -3   31.27    1.31 
   1   7  -3   32.16    1.45 
   1   7  -3   33.20    1.37 
   1   7  -3   27.56    1.72 
   1   7  -3   31.90    1.69 
  -1  -7   3   33.34    2.16 
  -1  -7   3   30.14    1.53 
  -1  -7   3   32.00    0.97 
  -1  -7   3   32.90    1.54 
  -1  -7   3   30.14    1.51 
  -1  -7   3   28.49    1.33 
  -1  -7   3   30.75    1.48 
   0   7  -3   63.71    1.80 
   0   7  -3   60.13    2.25 
   0   7  -3   66.76    2.00 
   0   7  -3   65.03    2.18 
   0  -7   3   61.33    2.50 
   0  -7   3   62.06    2.00 
   0  -7   3   63.39    1.81 
   0  -7   3   62.76    1.96 
   0  -7   3   63.31    2.04 
   0  -7   3   64.96    1.72 
   0  -7   3   62.68    2.04 
   0  -7   3   66.66    2.57 
  -1   7  -3    1.30    0.54 
  -1   7  -3    2.40    0.88 
  -1   7  -3    2.00    0.95 
  -1   7  -3    2.12    0.56 
   1  -7   3    1.79    0.63 
   1  -7   3    1.49    0.41 
   1  -7   3    1.78    0.65 
   1  -7   3    1.62    1.08 
   1  -7   3    1.41    0.63 
   1  -7   3    1.70    0.94 
   1  -7   3    1.65    0.63 
   1  -7   3    0.71    0.47 
  -2   7  -3    2.14    0.95 
  -2   7  -3    0.52    0.49 
  -2   7  -3    2.42    0.82 
   2  -7   3    0.94    0.62 
   2  -7   3    0.89    0.61 
   2  -7   3    1.06    0.46 
   2  -7   3    0.01    0.57 
   2  -7   3    0.01    0.99 
   2  -7   3    1.32    0.59 
   2  -7   3    0.45    1.04 
   2  -7   3    0.36    0.59 
  -3   7  -3   18.28    1.55 
  -3   7  -3   15.29    1.23 
  -3   7  -3   15.82    1.61 
   3  -7   3   18.08    2.27 
   3  -7   3   16.02    1.01 
   3  -7   3   16.84    1.12 
   3  -7   3   15.74    1.05 
  -4   7  -3   92.57    3.17 
  -4   7  -3   91.18    2.70 
  -4   7  -3   87.50    2.93 
   4  -7   3   94.75    2.42 
   4  -7   3   91.77    2.52 
   4  -7   3   95.37    4.25 
   4  -7   3   90.94    2.62 
   4  -7   3   90.40    2.48 
  -5   7  -3   46.75    2.12 
  -5   7  -3   46.85    2.54 
   5  -7   3   47.07    1.74 
   5  -7   3   44.84    1.64 
   5  -7   3   42.55    1.94 
   5  -7   3   46.52    3.34 
  -6   7  -3   60.80    2.43 
  -6   7  -3   60.69    2.96 
   6  -7   3   61.90    2.13 
   6  -7   3   61.69    2.03 
   6  -7   3   60.50    3.99 
   6  -7   3   63.02    2.53 
  -7   7  -3   20.27    2.09 
  -7   7  -3   22.94    1.81 
   7  -7   3   19.88    1.38 
   7  -7   3   16.33    2.60 
   7  -7   3   16.77    1.37 
  -8   7  -3    0.57    1.50 
   8  -7   3   -0.15    1.96 
   8  -7   3    0.39    0.80 
   8  -7   3   -0.64    0.83 
   8   6  -3    0.47    1.25 
   8   6  -3    0.18    1.21 
   8   6  -3    0.41    1.56 
  -8  -6   3   -2.28    1.57 
  -8  -6   3   -1.54    1.07 
  -8  -6   3    3.55    1.40 
   7   6  -3    9.98    1.53 
   7   6  -3   12.20    1.50 
   7   6  -3    9.77    1.68 
  -7  -6   3   10.89    1.58 
  -7  -6   3    8.43    1.74 
   6   6  -3   13.26    1.39 
   6   6  -3   10.98    1.56 
   6   6  -3   11.88    1.42 
  -6  -6   3   10.04    1.67 
  -6  -6   3   12.34    1.53 
  -6  -6   3   12.09    1.45 
   5   6  -3   74.89    2.80 
   5   6  -3   73.49    3.03 
   5   6  -3   74.80    2.58 
  -5  -6   3   73.02    3.13 
  -5  -6   3   78.42    2.62 
  -5  -6   3   72.14    2.80 
   4   6  -3   56.30    2.29 
   4   6  -3   52.98    2.05 
   4   6  -3   50.72    2.37 
   4   6  -3   51.97    1.85 
   4   6  -3   48.99    2.19 
  -4  -6   3   55.16    2.39 
  -4  -6   3   51.49    2.07 
  -4  -6   3   51.82    2.15 
   3   6  -3   40.42    1.90 
   3   6  -3   39.55    1.69 
   3   6  -3   40.53    1.94 
   3   6  -3   39.71    1.83 
   3   6  -3   37.66    1.66 
  -3  -6   3   39.82    1.75 
  -3  -6   3   41.80    2.04 
  -3  -6   3   39.06    1.77 
  -3  -6   3   40.43    1.89 
   2   6  -3  131.50    3.52 
   2   6  -3  133.78    3.28 
   2   6  -3  129.00    3.13 
   2   6  -3  122.33    3.37 
   2   6  -3  127.21    3.32 
  -2  -6   3  128.54    3.85 
  -2  -6   3  125.34    2.62 
  -2  -6   3  125.86    3.36 
  -2  -6   3  129.53    3.24 
  -2  -6   3  126.64    3.43 
  -2  -6   3  132.71    3.41 
  -2  -6   3  125.37    3.32 
   1   6  -3    7.09    0.75 
   1   6  -3    6.06    0.90 
   1   6  -3    7.18    0.83 
   1   6  -3    6.59    0.75 
   1   6  -3    7.94    0.98 
   1   6  -3    6.79    0.67 
  -1  -6   3    6.46    0.81 
  -1  -6   3    6.87    0.54 
  -1  -6   3    7.07    0.67 
  -1  -6   3    8.07    0.95 
  -1  -6   3    7.07    0.93 
  -1  -6   3    7.12    0.82 
  -1  -6   3    7.29    1.01 
  -1  -6   3    6.62    0.78 
   0   6  -3   14.69    0.81 
   0   6  -3   14.00    0.87 
   0   6  -3   12.99    1.12 
   0   6  -3   12.64    1.01 
   0   6  -3   15.33    1.27 
   0   6  -3   16.30    1.16 
   0  -6   3   14.14    0.81 
   0  -6   3   14.13    1.46 
   0  -6   3   14.60    1.01 
   0  -6   3   15.45    0.95 
   0  -6   3   14.30    0.98 
   0  -6   3   17.01    1.62 
   0  -6   3   15.70    0.99 
  -1   6  -3    4.11    0.78 
  -1   6  -3    4.10    0.61 
  -1   6  -3    3.86    0.83 
  -1   6  -3    4.01    0.52 
  -1   6  -3    3.86    0.88 
  -1   6  -3    2.49    0.42 
   1  -6   3    2.96    0.54 
   1  -6   3    2.64    0.93 
   1  -6   3    3.81    0.64 
   1  -6   3    3.89    0.41 
   1  -6   3    5.18    0.67 
   1  -6   3    4.28    0.68 
   1  -6   3    2.84    0.43 
   1  -6   3    2.99    1.01 
   1  -6   3    4.35    0.66 
  -2   6  -3  145.73    3.31 
  -2   6  -3  151.64    3.44 
  -2   6  -3  153.95    4.04 
  -2   6  -3  146.60    3.69 
  -2   6  -3  149.48    3.87 
   2  -6   3  147.89    3.55 
   2  -6   3  152.33    3.46 
   2  -6   3  156.21    3.38 
   2  -6   3  149.25    3.53 
   2  -6   3  147.11    3.51 
   2  -6   3  150.41    4.64 
  -3   6  -3   59.49    2.18 
  -3   6  -3   60.13    2.48 
  -3   6  -3   59.92    1.68 
  -3   6  -3   60.04    1.90 
   3  -6   3   59.67    1.78 
   3  -6   3   61.06    1.83 
   3  -6   3   59.33    1.82 
   3  -6   3   59.85    1.79 
   3  -6   3   59.52    2.97 
   3  -6   3   58.47    1.79 
  -4   6  -3   79.09    2.95 
  -4   6  -3   76.54    2.06 
  -4   6  -3   79.16    2.29 
  -4   6  -3   79.91    2.58 
   4  -6   3   76.88    2.19 
   4  -6   3   75.85    2.22 
   4  -6   3   79.36    2.36 
   4  -6   3   81.64    3.74 
   4  -6   3   79.74    2.24 
   4  -6   3   78.43    2.14 
  -5   6  -3   45.03    1.93 
  -5   6  -3   43.31    2.15 
   5  -6   3   43.94    1.89 
   5  -6   3   43.80    1.70 
   5  -6   3   43.43    1.60 
   5  -6   3   41.30    1.67 
   5  -6   3   45.28    3.24 
  -6   6  -3    7.46    1.27 
  -6   6  -3    6.39    1.04 
   6  -6   3    6.03    0.90 
   6  -6   3    5.04    1.77 
   6  -6   3    5.20    1.04 
   6  -6   3    7.01    0.95 
  -7   6  -3    2.69    1.40 
  -7   6  -3    1.84    0.98 
   7  -6   3   -2.01    1.65 
   7  -6   3    0.72    0.80 
   7  -6   3    1.10    0.84 
   7  -6   3    0.05    1.05 
  -8   6  -3    3.39    1.05 
  -8   6  -3    4.72    1.32 
   8  -6   3    3.89    1.02 
   8  -6   3    3.00    1.34 
   8  -6   3    1.94    1.90 
   8  -6   3    3.66    0.95 
   9   5  -3    2.39    1.25 
   9   5  -3    2.96    1.78 
   9   5  -3    6.03    1.57 
  -9  -5   3    1.43    1.72 
  -9  -5   3    5.75    1.53 
  -9  -5   3    4.21    1.27 
   8   5  -3   24.98    2.14 
   8   5  -3   17.12    2.08 
   8   5  -3   24.61    1.90 
  -8  -5   3   22.85    1.75 
  -8  -5   3   24.08    2.08 
  -8  -5   3   20.64    2.21 
   7   5  -3   42.49    2.41 
   7   5  -3   46.61    2.71 
  -7  -5   3   42.26    2.41 
  -7  -5   3   44.30    2.73 
   6   5  -3  138.44    4.32 
   6   5  -3  139.03    3.98 
   6   5  -3  138.19    4.05 
   6   5  -3  144.42    4.17 
  -6  -5   3  134.44    4.12 
  -6  -5   3  135.58    4.40 
  -6  -5   3  139.79    3.92 
   5   5  -3   91.91    3.19 
   5   5  -3   94.74    2.94 
   5   5  -3   95.12    3.11 
   5   5  -3   95.44    2.88 
  -5  -5   3   97.42    3.02 
  -5  -5   3   93.36    2.86 
  -5  -5   3   88.12    3.27 
  -5  -5   3   91.63    2.96 
   4   5  -3   20.46    1.53 
   4   5  -3   21.05    1.33 
   4   5  -3   21.08    1.16 
   4   5  -3   17.96    1.36 
   4   5  -3   20.24    1.12 
   4   5  -3   23.32    1.75 
  -4  -5   3   18.46    1.74 
  -4  -5   3   21.32    1.42 
  -4  -5   3   22.67    1.30 
  -4  -5   3   21.01    1.57 
   3   5  -3   25.35    1.19 
   3   5  -3   26.61    1.25 
   3   5  -3   27.46    1.57 
   3   5  -3   26.15    1.37 
   3   5  -3   27.18    1.34 
  -3  -5   3   28.02    1.81 
  -3  -5   3   27.18    1.40 
  -3  -5   3   25.13    1.51 
  -3  -5   3   28.05    1.47 
  -3  -5   3   25.18    1.24 
   2   5  -3   22.94    1.21 
   2   5  -3   21.42    1.16 
   2   5  -3   22.40    1.23 
   2   5  -3   22.44    0.99 
   2   5  -3   21.75    1.27 
   2   5  -3   22.58    1.19 
  -2  -5   3   23.03    1.22 
  -2  -5   3   24.85    1.28 
  -2  -5   3   21.18    1.58 
  -2  -5   3   20.23    1.24 
  -2  -5   3   21.41    1.12 
  -2  -5   3   21.31    1.31 
   1   5  -3   51.64    1.64 
   1   5  -3   55.16    1.75 
   1   5  -3   53.32    1.76 
   1   5  -3   54.55    1.81 
   1   5  -3   53.62    1.51 
   1   5  -3   54.19    1.89 
  -1  -5   3   54.98    1.72 
  -1  -5   3   55.89    1.76 
  -1  -5   3   54.81    1.88 
  -1  -5   3   53.80    1.76 
  -1  -5   3   52.89    2.18 
  -1  -5   3   53.87    1.86 
  -1  -5   3   55.62    1.54 
   0   5  -3  208.67    4.97 
   0   5  -3  200.54    4.75 
   0   5  -3  209.88    4.34 
   0   5  -3  201.47    4.50 
   0   5  -3  201.72    4.61 
   0   5  -3  204.00    4.73 
   0  -5   3  202.31    4.64 
   0  -5   3  205.07    5.10 
   0  -5   3  206.01    4.61 
   0  -5   3  209.81    4.65 
   0  -5   3  206.49    4.60 
   0  -5   3  207.43    4.32 
   0  -5   3  213.01    5.14 
  -1   5  -3  124.21    2.92 
  -1   5  -3  119.38    3.03 
  -1   5  -3  119.37    3.16 
  -1   5  -3  121.19    3.25 
  -1   5  -3  122.78    3.58 
  -1   5  -3  117.83    2.80 
   1  -5   3  124.35    2.94 
   1  -5   3  121.94    2.62 
   1  -5   3  121.36    3.67 
   1  -5   3  117.87    2.97 
   1  -5   3  126.63    2.98 
   1  -5   3  122.35    2.63 
   1  -5   3  126.63    3.00 
   1  -5   3  125.08    2.75 
  -2   5  -3   92.32    2.47 
  -2   5  -3   93.53    2.71 
  -2   5  -3   98.79    2.40 
  -2   5  -3   97.70    2.94 
   2  -5   3   98.57    3.49 
   2  -5   3   99.46    2.34 
   2  -5   3   93.24    2.47 
   2  -5   3   97.38    2.48 
   2  -5   3   97.34    2.27 
   2  -5   3   97.46    2.47 
  -3   5  -3   87.14    2.06 
  -3   5  -3   87.88    2.31 
  -3   5  -3   88.97    2.86 
  -3   5  -3   86.87    2.26 
  -3   5  -3   86.65    2.58 
   3  -5   3   87.46    2.34 
   3  -5   3   87.41    2.29 
   3  -5   3   86.71    2.34 
   3  -5   3   90.90    3.54 
   3  -5   3   87.08    2.33 
   3  -5   3   86.96    2.25 
   3  -5   3   87.98    2.29 
  -4   5  -3   27.02    1.21 
  -4   5  -3   27.81    1.17 
  -4   5  -3   25.24    1.56 
  -4   5  -3   25.31    1.48 
   4  -5   3   27.26    1.17 
   4  -5   3   29.32    2.50 
   4  -5   3   27.20    1.23 
   4  -5   3   24.37    1.33 
   4  -5   3   28.15    1.27 
   4  -5   3   27.35    1.35 
  -5   5  -3   11.54    1.46 
  -5   5  -3   13.19    1.14 
  -5   5  -3   12.10    1.06 
   5  -5   3   11.14    0.85 
   5  -5   3   11.38    0.93 
   5  -5   3   10.43    0.91 
   5  -5   3   10.45    1.88 
   5  -5   3   11.16    1.01 
   5  -5   3   10.78    1.09 
  -6   5  -3    2.07    0.91 
  -6   5  -3    2.02    1.25 
   6  -5   3    1.79    0.98 
   6  -5   3    2.06    0.80 
   6  -5   3    1.06    0.74 
   6  -5   3    0.79    0.80 
   6  -5   3    0.77    1.57 
  -7   5  -3   61.62    2.22 
  -7   5  -3   56.42    2.88 
   7  -5   3   55.51    3.65 
   7  -5   3   55.92    2.16 
   7  -5   3   56.98    2.15 
   7  -5   3   58.88    2.60 
  -8   5  -3   47.83    2.66 
  -8   5  -3   38.29    2.33 
   8  -5   3   37.65    1.96 
   8  -5   3   40.95    3.97 
   8  -5   3   38.21    2.44 
   8  -5   3   41.82    1.98 
  -9   5  -3   18.61    1.94 
   9  -5   3   20.20    1.77 
   9  -5   3   16.05    2.04 
   9  -5   3   19.96    1.73 
   9  -5   3   15.58    2.92 
   9   4  -3   18.61    2.23 
   9   4  -3   23.08    2.07 
  -9  -4   3   18.17    2.15 
  -9  -4   3   22.45    1.87 
  -9  -4   3   25.44    1.88 
   8   4  -3   29.33    1.78 
   8   4  -3   27.63    2.18 
   8   4  -3   28.92    2.49 
   8   4  -3   30.03    2.53 
  -8  -4   3   28.76    1.87 
  -8  -4   3   26.40    2.43 
  -8  -4   3   27.44    1.87 
   7   4  -3   96.06    3.74 
   7   4  -3   99.93    3.27 
   7   4  -3   97.63    3.68 
   7   4  -3   97.71    3.40 
  -7  -4   3   98.85    3.39 
  -7  -4   3   93.35    3.02 
  -7  -4   3   95.11    3.63 
  -7  -4   3   95.71    3.49 
   6   4  -3    2.26    0.97 
   6   4  -3    2.85    1.12 
   6   4  -3    3.20    1.22 
   6   4  -3    3.97    1.04 
  -6  -4   3    4.08    1.25 
  -6  -4   3    2.73    0.98 
  -6  -4   3    1.43    1.07 
   5   4  -3   19.35    1.57 
   5   4  -3   20.28    1.47 
   5   4  -3   18.53    1.71 
   5   4  -3   21.70    1.60 
  -5  -4   3   20.56    1.37 
  -5  -4   3   18.59    1.43 
  -5  -4   3   18.63    1.46 
  -5  -4   3   21.14    1.81 
   4   4  -3    7.36    0.95 
   4   4  -3    7.85    0.66 
   4   4  -3    7.40    1.03 
   4   4  -3    8.01    1.05 
  -4  -4   3    7.03    0.97 
  -4  -4   3    6.97    1.08 
  -4  -4   3    8.01    0.93 
  -4  -4   3    7.54    0.95 
  -4  -4   3    8.80    0.66 
   3   4  -3   54.32    1.90 
   3   4  -3   55.58    1.92 
   3   4  -3   55.44    1.97 
   3   4  -3   51.69    1.74 
   3   4  -3   55.14    1.63 
  -3  -4   3   52.51    1.96 
  -3  -4   3   54.90    2.12 
  -3  -4   3   54.91    1.23 
  -3  -4   3   52.47    1.55 
  -3  -4   3   53.47    1.79 
  -3  -4   3   56.73    1.84 
  -3  -4   3   54.55    1.77 
   2   4  -3    3.05    0.66 
   2   4  -3    3.99    0.67 
   2   4  -3    3.96    0.77 
   2   4  -3    4.26    0.63 
   2   4  -3    4.90    0.69 
   2   4  -3    3.55    0.71 
  -2  -4   3    3.29    0.86 
  -2  -4   3    5.47    0.76 
  -2  -4   3    4.89    0.81 
  -2  -4   3    4.58    0.61 
  -2  -4   3    5.11    0.63 
  -2  -4   3    5.00    0.62 
  -2  -4   3    4.93    0.76 
   1   4  -3  319.25    6.69 
   1   4  -3  333.90    7.15 
   1   4  -3  326.83    6.97 
   1   4  -3  325.35    6.78 
   1   4  -3  331.46    6.94 
   1   4  -3  322.81    7.02 
  -1  -4   3  331.37    7.30 
  -1  -4   3  328.97    7.04 
  -1  -4   3  322.58    6.93 
  -1  -4   3  319.53    7.03 
  -1  -4   3  340.69    6.99 
  -1  -4   3  326.38    7.20 
  -1  -4   3  327.74    6.76 
  -1  -4   3  314.80    6.97 
  -1  -4   3  326.48    7.01 
   0   4  -3   95.00    2.07 
   0   4  -3   93.55    2.51 
   0   4  -3   93.27    2.45 
   0   4  -3   88.76    2.38 
   0   4  -3   96.43    2.33 
   0   4  -3   96.13    2.76 
   0   4  -3   94.55    2.39 
   0   4  -3   99.92    2.50 
   0  -4   3   90.66    2.43 
   0  -4   3   96.98    2.43 
   0  -4   3   96.77    2.03 
   0  -4   3   96.54    2.80 
   0  -4   3   96.29    2.42 
   0  -4   3  101.92    2.96 
   0  -4   3   95.10    2.38 
   0  -4   3   94.77    2.54 
   0  -4   3   90.40    2.46 
  -1   4  -3   32.62    1.22 
  -1   4  -3   33.23    1.54 
  -1   4  -3   30.99    1.10 
  -1   4  -3   30.86    1.23 
  -1   4  -3   32.37    1.22 
  -1   4  -3   31.12    1.39 
   1  -4   3   33.18    1.28 
   1  -4   3   33.73    1.80 
   1  -4   3   32.93    0.79 
   1  -4   3   32.72    1.40 
   1  -4   3   32.22    1.15 
   1  -4   3   32.10    1.21 
   1  -4   3   33.56    0.96 
   1  -4   3   31.52    1.20 
  -2   4  -3   88.90    2.09 
  -2   4  -3   84.72    2.57 
  -2   4  -3   82.96    2.38 
  -2   4  -3   85.86    2.21 
  -2   4  -3   84.92    2.16 
  -2   4  -3   78.96    2.17 
  -2   4  -3   83.15    2.98 
   2  -4   3   86.55    2.24 
   2  -4   3   89.66    3.15 
   2  -4   3   84.92    2.24 
   2  -4   3   85.90    2.03 
   2  -4   3   83.77    2.23 
   2  -4   3   89.10    2.22 
   2  -4   3   84.20    2.03 
  -3   4  -3    8.69    0.96 
  -3   4  -3   10.26    0.94 
  -3   4  -3    9.88    0.67 
  -3   4  -3   10.13    0.74 
  -3   4  -3   10.06    0.77 
  -3   4  -3    9.10    0.77 
   3  -4   3   11.39    0.88 
   3  -4   3    8.41    0.86 
   3  -4   3   10.08    0.89 
   3  -4   3   10.21    0.80 
   3  -4   3    9.20    0.77 
   3  -4   3    8.73    0.84 
   3  -4   3    8.81    1.39 
  -4   4  -3   12.44    0.98 
  -4   4  -3   12.08    0.98 
  -4   4  -3   12.32    0.99 
  -4   4  -3   12.76    1.30 
   4  -4   3   10.94    0.84 
   4  -4   3   10.09    0.85 
   4  -4   3   10.81    0.94 
   4  -4   3   12.20    1.66 
   4  -4   3   10.49    1.07 
   4  -4   3   11.10    0.95 
  -5   4  -3   65.34    1.90 
  -5   4  -3   64.95    2.60 
  -5   4  -3   65.19    2.08 
  -5   4  -3   65.50    2.18 
   5  -4   3   63.45    2.11 
   5  -4   3   70.65    2.09 
   5  -4   3   66.94    2.36 
   5  -4   3   67.31    2.02 
   5  -4   3   67.50    3.62 
   5  -4   3   63.36    2.05 
  -6   4  -3  141.41    4.28 
  -6   4  -3  142.99    3.79 
  -6   4  -3  142.98    3.68 
  -6   4  -3  142.02    3.68 
   6  -4   3  144.49    3.66 
   6  -4   3  140.45    5.55 
   6  -4   3  142.71    3.68 
   6  -4   3  149.64    4.16 
   6  -4   3  141.13    3.70 
  -7   4  -3   31.35    1.58 
  -7   4  -3   30.07    2.25 
  -7   4  -3   28.31    1.85 
   7  -4   3   29.16    2.24 
   7  -4   3   32.97    1.79 
   7  -4   3   32.29    3.30 
   7  -4   3   32.24    1.74 
  -8   4  -3   53.82    2.64 
  -8   4  -3   55.57    2.44 
   8  -4   3   55.11    4.26 
   8  -4   3   54.51    2.22 
   8  -4   3   56.37    3.00 
   8  -4   3   55.17    2.37 
  -9   4  -3    6.91    1.36 
  -9   4  -3    5.88    1.70 
   9  -4   3    4.20    2.23 
   9  -4   3    3.32    1.66 
   9  -4   3    5.07    1.08 
   9  -4   3    5.47    1.26 
   9   3  -3   56.78    2.60 
   9   3  -3   55.63    3.58 
   9   3  -3   56.73    3.35 
   9   3  -3   53.36    2.63 
  -9  -3   3   54.10    3.09 
  -9  -3   3   57.55    2.48 
  -9  -3   3   51.51    2.51 
   8   3  -3   23.93    2.32 
   8   3  -3   16.67    1.99 
   8   3  -3   21.42    1.67 
   8   3  -3   22.88    1.59 
  -8  -3   3   23.05    1.72 
  -8  -3   3   22.06    1.65 
  -8  -3   3   18.86    1.92 
   7   3  -3   19.74    1.51 
   7   3  -3   18.56    1.81 
   7   3  -3   20.32    2.22 
   7   3  -3   19.56    1.65 
  -7  -3   3   20.54    1.77 
  -7  -3   3   22.28    2.04 
  -7  -3   3   16.90    1.32 
  -7  -3   3   21.80    1.62 
   6   3  -3    1.74    1.07 
   6   3  -3    2.64    0.79 
   6   3  -3    3.44    0.80 
   6   3  -3    1.47    0.99 
   6   3  -3    2.88    0.53 
   6   3  -3    2.23    1.13 
  -6  -3   3    1.26    1.08 
  -6  -3   3    3.95    0.96 
  -6  -3   3    3.07    0.85 
   5   3  -3   38.63    1.68 
   5   3  -3   38.50    1.57 
   5   3  -3   38.04    1.72 
   5   3  -3   38.23    2.01 
  -5  -3   3   35.50    1.91 
  -5  -3   3   36.35    1.81 
  -5  -3   3   36.55    1.70 
   4   3  -3  150.23    3.92 
   4   3  -3  147.34    3.69 
   4   3  -3  146.87    3.77 
   4   3  -3  148.47    3.26 
   4   3  -3  153.67    3.70 
  -4  -3   3  148.73    3.92 
  -4  -3   3  150.33    3.21 
  -4  -3   3  146.43    3.84 
  -4  -3   3  152.02    3.77 
  -4  -3   3  148.72    3.67 
   3   3  -3   99.87    2.63 
   3   3  -3   95.97    2.62 
   3   3  -3   95.19    2.59 
   3   3  -3   93.51    2.29 
   3   3  -3   96.17    2.73 
   3   3  -3   95.94    2.69 
  -3  -3   3   97.33    2.13 
  -3  -3   3   98.76    2.62 
  -3  -3   3   97.14    2.62 
  -3  -3   3  101.47    2.59 
  -3  -3   3   95.66    2.77 
  -3  -3   3   94.06    2.65 
  -3  -3   3   96.47    2.28 
  -3  -3   3   97.78    2.73 
   2   3  -3  466.07   10.01 
   2   3  -3  467.10   10.12 
   2   3  -3  468.57    9.90 
   2   3  -3  478.53    9.75 
   2   3  -3  481.15    9.98 
   2   3  -3  476.10    9.96 
   2   3  -3  481.48    9.87 
   2   3  -3  464.84    9.88 
  -2  -3   3  477.31    9.93 
  -2  -3   3  467.86    9.91 
  -2  -3   3  475.84    9.54 
  -2  -3   3  476.33    9.84 
  -2  -3   3  488.00    9.98 
  -2  -3   3  481.21   10.08 
  -2  -3   3  483.63    9.98 
   1   3  -3  220.69    4.83 
   1   3  -3  223.42    5.08 
   1   3  -3  224.68    4.76 
   1   3  -3  220.74    4.58 
   1   3  -3  213.17    4.71 
  -1  -3   3  221.52    4.82 
  -1  -3   3  208.14    4.72 
  -1  -3   3  211.10    4.74 
  -1  -3   3  214.65    4.55 
  -1  -3   3  219.70    4.83 
  -1  -3   3  209.49    5.04 
  -1  -3   3  218.77    4.96 
   0   3  -3   24.66    1.10 
   0   3  -3   26.88    1.07 
   0   3  -3   24.32    1.48 
   0   3  -3   24.47    0.59 
   0   3  -3   24.07    1.07 
   0   3  -3   23.34    1.02 
   0   3  -3   24.23    1.01 
   0  -3   3   23.49    1.10 
   0  -3   3   28.19    1.68 
   0  -3   3   23.20    1.01 
   0  -3   3   24.66    1.07 
   0  -3   3   24.76    1.08 
  -1   3  -3    0.00    0.48 
  -1   3  -3   -0.29    0.43 
  -1   3  -3   -0.05    0.51 
  -1   3  -3   -0.20    0.48 
  -1   3  -3    0.01    0.70 
  -1   3  -3   -0.48    0.48 
  -1   3  -3   -0.31    0.58 
  -1   3  -3   -0.22    0.49 
   1  -3   3    0.80    0.81 
   1  -3   3    0.14    0.61 
   1  -3   3   -0.64    0.26 
   1  -3   3   -0.01    0.51 
   1  -3   3   -0.46    0.47 
   1  -3   3   -0.28    0.15 
   1  -3   3   -0.58    0.52 
   1  -3   3   -0.55    0.59 
  -2   3  -3   91.26    2.32 
  -2   3  -3   92.33    2.21 
  -2   3  -3   93.70    2.38 
  -2   3  -3   90.24    3.09 
  -2   3  -3   96.75    2.27 
  -2   3  -3   91.72    2.14 
  -2   3  -3   90.91    2.42 
  -2   3  -3   93.18    2.61 
  -2   3  -3   93.10    2.17 
   2  -3   3   92.22    2.34 
   2  -3   3   90.41    2.37 
   2  -3   3   94.21    3.25 
   2  -3   3   88.20    2.51 
   2  -3   3   91.84    2.32 
   2  -3   3   88.80    2.31 
   2  -3   3   92.06    2.18 
   2  -3   3   89.63    2.30 
  -3   3  -3   43.75    1.39 
  -3   3  -3   41.19    1.16 
  -3   3  -3   42.64    1.53 
  -3   3  -3   43.00    1.53 
  -3   3  -3   42.13    1.41 
  -3   3  -3   39.90    1.77 
   3  -3   3   43.82    2.46 
   3  -3   3   43.04    1.42 
   3  -3   3   43.16    1.50 
   3  -3   3   44.30    1.44 
   3  -3   3   41.10    1.46 
   3  -3   3   41.99    1.46 
  -4   3  -3   80.22    2.32 
  -4   3  -3   78.01    2.61 
  -4   3  -3   81.51    2.30 
  -4   3  -3   80.35    2.18 
  -4   3  -3   79.44    2.26 
  -4   3  -3   81.23    2.26 
   4  -3   3   81.40    2.28 
   4  -3   3   85.15    2.46 
   4  -3   3   79.20    2.21 
   4  -3   3   83.39    2.28 
   4  -3   3   81.36    3.50 
   4  -3   3   75.57    2.20 
  -5   3  -3   90.83    2.65 
  -5   3  -3   89.95    2.47 
  -5   3  -3   90.03    2.54 
  -5   3  -3   91.90    2.99 
  -5   3  -3   87.76    2.55 
   5  -3   3   94.58    2.61 
   5  -3   3   87.35    3.99 
   5  -3   3   95.06    2.91 
   5  -3   3   92.67    2.60 
   5  -3   3   92.07    2.65 
   5  -3   3   87.13    2.51 
  -6   3  -3   46.54    1.72 
  -6   3  -3   41.07    2.24 
  -6   3  -3   43.23    1.86 
  -6   3  -3   48.11    1.92 
   6  -3   3   43.11    1.76 
   6  -3   3   46.20    3.35 
   6  -3   3   44.79    2.18 
   6  -3   3   45.43    2.19 
   6  -3   3   43.31    1.92 
   6  -3   3   46.69    1.88 
  -7   3  -3   31.32    1.76 
  -7   3  -3   33.02    2.26 
  -7   3  -3   31.35    1.81 
  -7   3  -3   32.08    1.47 
   7  -3   3   31.95    1.73 
   7  -3   3   31.55    2.83 
   7  -3   3   31.06    2.32 
   7  -3   3   32.79    1.69 
  -8   3  -3    1.91    1.06 
  -8   3  -3    2.28    1.35 
   8  -3   3    1.01    1.25 
   8  -3   3    1.65    0.92 
   8  -3   3    2.06    1.79 
   8  -3   3    0.87    1.03 
  -9   3  -3    2.37    1.53 
  -9   3  -3    2.32    1.17 
   9  -3   3   -0.42    1.43 
   9  -3   3    0.76    1.08 
   9  -3   3    0.94    1.57 
   9  -3   3    0.49    1.01 
  10   2  -3   21.82    1.95 
  10   2  -3   16.88    2.41 
  10   2  -3   13.45    2.21 
  10   2  -3   17.17    1.88 
 -10  -2   3   18.72    1.76 
   9   2  -3    0.45    1.09 
   9   2  -3   -1.68    1.41 
   9   2  -3    0.63    0.91 
   9   2  -3   -0.53    1.30 
  -9  -2   3   -0.57    1.28 
  -9  -2   3    0.98    1.08 
  -9  -2   3    1.05    1.18 
   8   2  -3   -0.80    1.26 
   8   2  -3    0.80    1.03 
   8   2  -3   -0.15    0.98 
   8   2  -3    0.29    1.34 
  -8  -2   3   -0.27    1.17 
  -8  -2   3    0.64    0.75 
  -8  -2   3   -0.18    1.03 
   7   2  -3   10.66    1.58 
   7   2  -3    9.31    1.32 
   7   2  -3   12.12    1.28 
   7   2  -3   10.15    1.32 
  -7  -2   3    8.50    1.47 
  -7  -2   3   11.12    1.35 
  -7  -2   3   10.38    1.29 
  -7  -2   3   10.06    1.21 
   6   2  -3  195.66    5.18 
   6   2  -3  182.32    5.49 
   6   2  -3  181.31    4.74 
   6   2  -3  194.19    4.75 
   6   2  -3  188.62    4.74 
  -6  -2   3  190.62    4.98 
  -6  -2   3  184.79    4.74 
  -6  -2   3  195.23    4.72 
  -6  -2   3  189.36    4.64 
   5   2  -3   64.61    2.18 
   5   2  -3   66.88    2.20 
   5   2  -3   66.65    2.12 
   5   2  -3   64.88    2.51 
   5   2  -3   66.61    1.75 
  -5  -2   3   69.19    2.21 
  -5  -2   3   68.00    1.79 
  -5  -2   3   67.62    2.39 
  -5  -2   3   70.48    2.22 
   4   2  -3  210.06    5.11 
   4   2  -3  211.13    4.91 
   4   2  -3  227.13    4.93 
   4   2  -3  210.85    4.36 
   4   2  -3  212.80    4.96 
   4   2  -3  211.04    4.99 
   4   2  -3  206.62    4.48 
  -4  -2   3  215.28    5.01 
  -4  -2   3  216.31    4.87 
  -4  -2   3  205.08    4.82 
  -4  -2   3  206.87    4.93 
  -4  -2   3  210.82    4.50 
   3   2  -3    0.79    0.37 
   3   2  -3    0.44    0.64 
   3   2  -3    1.38    0.70 
   3   2  -3    0.13    0.56 
   3   2  -3   -0.11    0.67 
   3   2  -3    0.66    0.64 
   3   2  -3    0.71    0.70 
  -3  -2   3    1.00    0.65 
  -3  -2   3    0.75    0.70 
  -3  -2   3    0.45    0.63 
  -3  -2   3    0.24    0.53 
  -3  -2   3    0.49    0.38 
  -3  -2   3    0.90    0.58 
  -3  -2   3    0.73    0.66 
   2   2  -3   24.15    1.13 
   2   2  -3   25.58    0.94 
   2   2  -3   24.01    1.08 
   2   2  -3   24.09    1.22 
   2   2  -3   25.81    1.10 
   2   2  -3   24.96    1.15 
   2   2  -3   25.65    1.05 
  -2  -2   3   24.13    1.09 
  -2  -2   3   24.27    1.17 
  -2  -2   3   22.93    1.15 
  -2  -2   3   26.82    1.26 
  -2  -2   3   21.48    1.04 
  -2  -2   3   26.68    1.16 
  -2  -2   3   24.30    0.82 
   1   2  -3   50.34    1.91 
   1   2  -3   49.40    1.33 
   1   2  -3   49.92    1.51 
   1   2  -3   51.57    1.47 
   1   2  -3   50.38    1.48 
   1   2  -3   50.82    1.45 
  -1  -2   3   48.55    1.84 
  -1  -2   3   53.58    1.56 
  -1  -2   3   47.66    1.30 
  -1  -2   3   48.15    1.46 
  -1  -2   3   50.38    1.49 
  -1  -2   3   49.78    1.51 
  -1  -2   3   48.54    1.55 
   0   2  -3  228.53    5.39 
   0   2  -3  235.44    4.96 
   0   2  -3  226.08    4.89 
   0   2  -3  223.58    4.60 
   0   2  -3  215.74    4.87 
   0   2  -3  229.92    4.91 
   0   2  -3  223.94    4.88 
   0  -2   3  226.48    4.92 
   0  -2   3  242.10    5.56 
   0  -2   3  229.36    4.95 
   0  -2   3  227.38    4.86 
   0  -2   3  235.95    4.91 
  -1   2  -3   30.04    1.13 
  -1   2  -3   31.24    1.66 
  -1   2  -3   29.59    1.19 
  -1   2  -3   32.57    1.13 
  -1   2  -3   32.89    1.22 
  -1   2  -3   31.50    0.87 
  -1   2  -3   32.34    1.12 
   1  -2   3   30.34    1.17 
   1  -2   3   34.31    1.85 
   1  -2   3   33.12    0.88 
   1  -2   3   32.26    1.21 
   1  -2   3   31.41    1.25 
   1  -2   3   31.89    1.22 
   1  -2   3   31.55    1.17 
  -2   2  -3  260.62    5.29 
  -2   2  -3  263.37    6.41 
  -2   2  -3  259.98    5.52 
  -2   2  -3  257.01    5.74 
  -2   2  -3  252.71    5.56 
  -2   2  -3  259.68    5.64 
  -2   2  -3  270.71    5.52 
  -2   2  -3  266.36    5.60 
  -2   2  -3  268.05    5.60 
   2  -2   3  259.11    5.61 
   2  -2   3  255.42    5.59 
   2  -2   3  219.43    5.47 
   2  -2   3  265.95    5.52 
   2  -2   3  264.73    5.64 
   2  -2   3  256.96    5.57 
   2  -2   3  272.21    5.72 
   2  -2   3  273.57    6.54 
  -3   2  -3  423.39    9.06 
  -3   2  -3  435.89    8.96 
  -3   2  -3  434.00    9.01 
  -3   2  -3  422.75    9.18 
  -3   2  -3  423.92    9.02 
  -3   2  -3  439.39    8.98 
   3  -2   3  423.66    8.96 
   3  -2   3  413.67    9.01 
   3  -2   3  424.96    8.93 
   3  -2   3  438.22    9.01 
   3  -2   3  439.66   10.14 
   3  -2   3  442.93    9.07 
   3  -2   3  420.14    8.98 
  -4   2  -3   80.37    2.23 
  -4   2  -3   78.39    2.22 
  -4   2  -3   80.27    2.37 
  -4   2  -3   79.97    2.33 
  -4   2  -3   79.02    2.55 
  -4   2  -3   81.34    2.19 
   4  -2   3   77.75    2.22 
   4  -2   3   81.79    2.50 
   4  -2   3   79.59    2.22 
   4  -2   3   79.51    2.29 
   4  -2   3   82.69    2.27 
   4  -2   3   75.34    3.17 
  -5   2  -3   34.01    1.54 
  -5   2  -3   40.53    1.49 
  -5   2  -3   37.64    1.55 
  -5   2  -3   36.74    1.45 
  -5   2  -3   35.25    1.90 
   5  -2   3   35.40    1.50 
   5  -2   3   37.58    1.56 
   5  -2   3   35.55    1.82 
   5  -2   3   36.66    1.54 
   5  -2   3   38.09    1.60 
   5  -2   3   35.75    2.70 
  -6   2  -3   11.14    1.14 
  -6   2  -3    9.35    1.39 
  -6   2  -3   11.62    0.94 
  -6   2  -3    9.29    1.02 
  -6   2  -3   11.55    1.07 
   6  -2   3    9.08    1.80 
   6  -2   3   11.71    1.09 
   6  -2   3   11.89    1.06 
   6  -2   3   10.09    1.08 
   6  -2   3    9.18    1.25 
   6  -2   3    9.05    1.09 
  -7   2  -3   44.47    2.01 
  -7   2  -3   47.77    1.71 
  -7   2  -3   48.31    2.01 
  -7   2  -3   47.51    2.26 
   7  -2   3   47.45    3.57 
   7  -2   3   45.72    2.07 
   7  -2   3   44.85    1.99 
   7  -2   3   48.87    2.53 
  -8   2  -3    6.76    1.15 
  -8   2  -3    8.44    1.62 
   8  -2   3    4.61    1.17 
   8  -2   3    6.52    2.06 
   8  -2   3    6.45    1.18 
   8  -2   3    3.35    1.42 
  -9   2  -3   47.71    2.29 
  -9   2  -3   45.82    2.87 
   9  -2   3   47.06    2.37 
   9  -2   3   43.78    2.94 
   9  -2   3   40.56    2.24 
   9  -2   3   45.31    4.11 
  10   1  -3    8.18    1.53 
  10   1  -3    8.89    2.04 
  10   1  -3    8.71    1.44 
  10   1  -3    7.18    1.64 
 -10  -1   3    9.01    1.46 
 -10  -1   3    8.67    1.67 
   9   1  -3    5.97    1.68 
   9   1  -3    7.95    1.87 
   9   1  -3    7.31    1.38 
   9   1  -3    8.19    1.29 
  -9  -1   3    6.08    1.31 
  -9  -1   3    7.07    1.28 
  -9  -1   3    5.97    1.52 
   8   1  -3   51.86    2.38 
   8   1  -3   52.86    3.34 
   8   1  -3   51.07    2.28 
   8   1  -3   46.46    2.85 
  -8  -1   3   51.93    2.24 
  -8  -1   3   56.29    2.38 
   7   1  -3   77.19    2.59 
   7   1  -3   69.72    3.47 
   7   1  -3   72.51    3.11 
   7   1  -3   72.70    2.65 
  -7  -1   3   73.02    2.95 
  -7  -1   3   74.12    2.63 
  -7  -1   3   76.44    2.54 
   6   1  -3   62.01    2.19 
   6   1  -3   66.10    2.71 
   6   1  -3   64.42    2.23 
   6   1  -3   65.91    2.33 
  -6  -1   3   64.78    2.15 
  -6  -1   3   59.58    2.17 
  -6  -1   3   63.26    2.28 
  -6  -1   3   63.80    2.44 
   5   1  -3  221.94    5.22 
   5   1  -3  222.06    5.44 
   5   1  -3  219.29    4.80 
   5   1  -3  228.71    5.16 
   5   1  -3  215.07    5.11 
   5   1  -3  226.08    5.52 
  -5  -1   3  214.03    5.14 
  -5  -1   3  223.84    4.85 
  -5  -1   3  222.51    5.27 
  -5  -1   3  217.60    5.09 
  -5  -1   3  218.99    5.09 
   4   1  -3   10.37    1.05 
   4   1  -3    8.16    0.81 
   4   1  -3   10.22    0.66 
   4   1  -3    8.37    0.84 
   4   1  -3    8.72    0.28 
   4   1  -3    8.94    0.92 
   4   1  -3    9.47    0.89 
   4   1  -3    8.91    0.89 
  -4  -1   3    9.00    0.84 
  -4  -1   3    9.53    0.82 
  -4  -1   3    8.77    0.92 
  -4  -1   3    9.41    0.68 
  -4  -1   3    8.57    0.91 
   3   1  -3    9.39    0.78 
   3   1  -3    9.36    0.76 
   3   1  -3    8.74    0.87 
   3   1  -3    8.84    0.79 
   3   1  -3    9.21    0.81 
   3   1  -3    9.54    0.50 
   3   1  -3    8.65    0.87 
   3   1  -3    9.37    0.60 
  -3  -1   3   10.60    0.97 
  -3  -1   3    9.85    0.87 
  -3  -1   3    9.73    0.89 
  -3  -1   3    9.79    0.65 
  -3  -1   3    7.99    0.80 
  -3  -1   3    7.56    0.78 
  -3  -1   3    8.83    0.72 
   2   1  -3   20.00    1.02 
   2   1  -3   21.71    1.11 
   2   1  -3   21.37    1.07 
   2   1  -3   20.53    0.90 
   2   1  -3   19.57    1.06 
   2   1  -3   22.01    1.06 
  -2  -1   3   20.58    0.85 
  -2  -1   3   21.36    1.06 
  -2  -1   3   20.23    1.04 
  -2  -1   3   20.64    1.02 
  -2  -1   3   22.42    1.11 
  -2  -1   3   21.00    1.08 
  -2  -1   3   21.53    0.95 
   1   1  -3  142.04    3.66 
   1   1  -3  136.63    3.08 
   1   1  -3  132.12    3.15 
   1   1  -3  140.50    3.21 
   1   1  -3  138.19    2.91 
  -1  -1   3  140.06    3.15 
  -1  -1   3  138.41    3.19 
  -1  -1   3  140.45    3.16 
  -1  -1   3  145.99    3.23 
  -1  -1   3  139.19    2.93 
  -1  -1   3  137.31    3.05 
   0   1  -3  597.68   11.79 
   0   1  -3  559.96   11.61 
   0   1  -3  588.00   11.75 
   0   1  -3  607.28   12.34 
   0   1  -3  578.61   11.74 
   0   1  -3  565.46   11.78 
   0  -1   3  551.72   11.77 
   0  -1   3  573.39   11.75 
   0  -1   3  584.87   11.79 
   0  -1   3  573.68   11.74 
   0  -1   3  603.11   12.38 
   0  -1   3  572.32   11.79 
   0  -1   3  560.39   11.75 
  -1   1  -3   27.85    1.23 
  -1   1  -3   29.01    0.99 
  -1   1  -3   27.95    1.54 
  -1   1  -3   27.97    1.15 
  -1   1  -3   28.51    1.11 
  -1   1  -3   26.94    1.11 
   1  -1   3   28.10    1.10 
   1  -1   3   29.11    1.61 
   1  -1   3   30.73    1.16 
   1  -1   3   28.78    1.22 
   1  -1   3   28.71    1.19 
   1  -1   3   28.31    1.14 
   1  -1   3   28.38    1.00 
  -2   1  -3  201.81    4.49 
  -2   1  -3  197.10    4.39 
  -2   1  -3  198.52    4.00 
  -2   1  -3  199.55    4.53 
  -2   1  -3  202.87    4.45 
  -2   1  -3  205.14    4.44 
   2  -1   3  202.89    4.49 
   2  -1   3  204.39    4.44 
   2  -1   3  199.23    5.16 
   2  -1   3  198.12    4.42 
   2  -1   3  202.22    4.29 
   2  -1   3  205.58    4.48 
   2  -1   3  198.82    4.44 
  -3   1  -3    3.58    0.62 
  -3   1  -3    4.71    0.69 
  -3   1  -3    4.56    0.63 
  -3   1  -3    4.99    0.75 
  -3   1  -3    4.25    0.60 
  -3   1  -3    5.70    0.66 
  -3   1  -3    4.16    0.86 
  -3   1  -3    3.68    1.00 
   3  -1   3    4.34    0.68 
   3  -1   3    3.90    0.71 
   3  -1   3    4.70    1.21 
   3  -1   3    3.92    0.70 
   3  -1   3    4.40    0.70 
   3  -1   3    4.72    0.87 
   3  -1   3    2.61    0.53 
  -4   1  -3   37.88    1.54 
  -4   1  -3   37.33    1.43 
  -4   1  -3   41.32    1.77 
  -4   1  -3   37.31    1.35 
   4  -1   3   35.02    1.47 
   4  -1   3   36.45    1.47 
   4  -1   3   38.16    1.83 
   4  -1   3   39.00    2.48 
   4  -1   3   36.22    1.29 
   4  -1   3   35.09    1.44 
   4  -1   3   38.04    1.42 
  -5   1  -3   22.93    1.24 
  -5   1  -3   23.14    1.39 
  -5   1  -3   25.48    1.68 
  -5   1  -3   22.83    1.21 
   5  -1   3   22.57    1.40 
   5  -1   3   23.95    1.34 
   5  -1   3   21.69    1.66 
   5  -1   3   24.17    1.33 
   5  -1   3   22.09    1.33 
   5  -1   3   23.29    2.36 
  -6   1  -3   21.14    1.19 
  -6   1  -3   22.42    1.87 
  -6   1  -3   24.80    1.36 
  -6   1  -3   22.10    1.51 
  -6   1  -3   26.13    1.42 
   6  -1   3   23.96    1.56 
   6  -1   3   20.71    1.47 
   6  -1   3   22.93    1.42 
   6  -1   3   24.03    2.65 
   6  -1   3   21.15    1.88 
  -7   1  -3   67.11    2.50 
  -7   1  -3   69.05    2.90 
  -7   1  -3   66.14    2.28 
  -7   1  -3   67.45    1.99 
   7  -1   3   65.06    2.46 
   7  -1   3   68.51    3.92 
   7  -1   3   63.66    2.96 
   7  -1   3   70.08    2.58 
  -8   1  -3   82.77    3.39 
  -8   1  -3   79.33    2.94 
  -8   1  -3   84.46    2.73 
   8  -1   3   78.74    3.46 
   8  -1   3   81.53    4.56 
   8  -1   3   83.76    2.93 
   8  -1   3   81.37    3.00 
  -9   1  -3   25.25    1.77 
  -9   1  -3   22.10    1.99 
   9  -1   3   25.05    2.09 
   9  -1   3   25.11    2.00 
   9  -1   3   19.86    2.82 
   9  -1   3   22.97    2.28 
  10   0  -3   24.63    2.01 
  10   0  -3   27.95    2.16 
  10   0  -3   24.44    2.53 
  10   0  -3   24.39    3.28 
 -10   0   3   24.16    1.97 
 -10   0   3   26.84    2.41 
   9   0  -3   86.98    3.16 
   9   0  -3   88.03    4.60 
   9   0  -3   86.41    3.16 
   9   0  -3   89.51    3.65 
  -9   0   3   85.20    3.37 
  -9   0   3   88.96    3.10 
   8   0  -3   33.06    1.91 
   8   0  -3   28.22    2.80 
   8   0  -3   28.43    2.48 
   8   0  -3   34.50    1.85 
  -8   0   3   27.50    1.78 
  -8   0   3   29.92    1.82 
  -8   0   3   30.02    2.13 
   7   0  -3  114.05    4.60 
   7   0  -3  121.42    4.03 
   7   0  -3  115.06    3.33 
   7   0  -3  116.10    3.42 
  -7   0   3  125.92    3.45 
  -7   0   3  121.29    3.61 
  -7   0   3  113.75    3.34 
   6   0  -3   18.90    1.36 
   6   0  -3   17.90    1.24 
   6   0  -3   16.62    1.28 
   6   0  -3   22.19    1.86 
   6   0  -3   19.40    1.28 
  -6   0   3   20.49    1.35 
  -6   0   3   16.48    1.36 
  -6   0   3   19.99    1.19 
  -6   0   3   18.90    1.11 
   5   0  -3    8.51    0.85 
   5   0  -3   10.77    0.95 
   5   0  -3    8.63    0.87 
   5   0  -3    7.68    0.83 
   5   0  -3    8.90    1.00 
   5   0  -3    9.19    0.94 
  -5   0   3    7.73    0.91 
  -5   0   3    9.89    0.79 
  -5   0   3    9.39    0.91 
  -5   0   3    8.59    0.81 
  -5   0   3    8.17    0.94 
   4   0  -3   12.19    0.97 
   4   0  -3   13.31    1.33 
   4   0  -3   12.88    0.80 
   4   0  -3   13.26    0.35 
   4   0  -3   13.26    0.98 
   4   0  -3   13.07    1.04 
   4   0  -3   11.58    0.89 
   4   0  -3   11.01    0.92 
  -4   0   3   12.47    0.99 
  -4   0   3   13.20    0.88 
  -4   0   3   12.41    0.90 
  -4   0   3   13.25    1.10 
  -4   0   3   12.89    0.86 
  -4   0   3   13.70    1.01 
   3   0  -3  171.34    4.11 
   3   0  -3  161.24    3.82 
   3   0  -3  169.12    3.83 
   3   0  -3  172.85    3.76 
   3   0  -3  168.54    3.87 
   3   0  -3  171.19    3.90 
  -3   0   3  174.17    3.88 
  -3   0   3  173.54    3.81 
  -3   0   3  169.56    3.73 
  -3   0   3  166.34    4.00 
  -3   0   3  170.96    3.80 
  -3   0   3  172.23    3.83 
  -3   0   3  172.58    3.80 
   2   0  -3  200.36    4.54 
   2   0  -3  210.52    4.42 
   2   0  -3  204.17    4.50 
   2   0  -3  209.56    4.68 
   2   0  -3  200.97    4.53 
   2   0  -3  208.48    4.45 
   2   0  -3  208.46    4.32 
   2   0  -3  214.43    4.50 
  -2   0   3  201.04    4.47 
  -2   0   3  215.74    4.55 
  -2   0   3  208.04    4.42 
  -2   0   3  217.02    4.34 
  -2   0   3  217.94    4.50 
   1   0  -3  110.45    2.55 
   1   0  -3  113.54    2.59 
   1   0  -3  108.15    2.43 
   1   0  -3  112.70    2.55 
   1   0  -3  107.58    3.02 
   1   0  -3  109.59    2.62 
  -1   0   3  107.26    2.54 
  -1   0   3  115.17    2.46 
  -1   0   3  110.02    2.55 
  -1   0   3  110.96    2.29 
  -1   0   3  106.39    2.55 
   0   0  -3  973.44   19.61 
   0   0  -3  946.80   19.50 
   0   0  -3  889.31   19.03 
   0   0  -3  979.11   19.24 
   0   0  -3  918.68   19.54 
   0   0  -3  945.32   19.40 
   0   0   3  946.11   19.05 
   0   0   3  927.82   19.50 
   0   0   3 1000.00   21.19 
   0   0   3  939.86   19.56 
   0   0   3  954.30   19.01 
   0   0   3  974.25   19.75 
  -1   0  -3    5.32    0.65 
  -1   0  -3    4.22    0.93 
  -1   0  -3    3.60    0.64 
  -1   0  -3    4.86    0.56 
  -1   0  -3    4.66    0.71 
  -1   0  -3    4.83    0.65 
   1   0   3    4.92    0.70 
   1   0   3    3.99    0.63 
   1   0   3    4.66    0.68 
   1   0   3    4.59    0.65 
   1   0   3    3.46    0.52 
  -2   0  -3   19.48    0.91 
  -2   0  -3   18.45    1.10 
  -2   0  -3   19.13    1.00 
  -2   0  -3   18.73    0.77 
  -2   0  -3   17.63    0.52 
  -2   0  -3   19.33    1.05 
  -2   0  -3   16.86    1.55 
  -2   0  -3   16.17    1.02 
   2   0   3   17.14    0.89 
   2   0   3   18.68    0.74 
   2   0   3   16.97    1.03 
   2   0   3   20.01    1.26 
   2   0   3   19.48    1.75 
   2   0   3   18.58    1.09 
   2   0   3   17.96    0.88 
  -3   0  -3   18.95    1.07 
  -3   0  -3   16.59    1.67 
  -3   0  -3   19.91    1.25 
  -3   0  -3   17.66    1.09 
  -3   0  -3   16.60    1.04 
  -3   0  -3   17.27    0.88 
  -3   0  -3   19.35    1.03 
   3   0   3   20.36    1.12 
   3   0   3   18.07    1.13 
   3   0   3   18.88    1.13 
   3   0   3   20.97    1.03 
   3   0   3   17.65    1.37 
   3   0   3   18.87    0.78 
   3   0   3   21.28    1.92 
   3   0   3   20.44    1.37 
  -4   0  -3  170.65    4.01 
  -4   0  -3  166.22    3.78 
  -4   0  -3  166.47    4.19 
  -4   0  -3  174.00    4.13 
   4   0   3  165.85    5.03 
   4   0   3  162.20    4.09 
   4   0   3  158.96    4.00 
   4   0   3  172.59    4.04 
   4   0   3  170.78    3.79 
   4   0   3  172.58    4.09 
   4   0   3  165.76    3.40 
   4   0   3  170.44    4.30 
  -5   0  -3   56.27    2.06 
  -5   0  -3   55.04    1.94 
  -5   0  -3   54.71    1.71 
   5   0   3   56.37    2.00 
   5   0   3   54.38    1.24 
   5   0   3   52.07    2.04 
   5   0   3   55.87    1.85 
   5   0   3   55.13    2.33 
   5   0   3   53.81    2.96 
  -6   0  -3  100.21    2.73 
  -6   0  -3  101.39    3.11 
  -6   0  -3  102.50    2.97 
   6   0   3   99.27    2.18 
   6   0   3   96.23    2.99 
   6   0   3  103.02    4.27 
   6   0   3  101.50    3.48 
   6   0   3  103.53    3.01 
   6   0   3  102.66    2.94 
  -7   0  -3   69.61    2.77 
  -7   0  -3   67.04    2.62 
  -7   0  -3   69.65    2.35 
   7   0   3   70.20    3.07 
   7   0   3   72.90    2.71 
   7   0   3   68.28    2.56 
   7   0   3   71.91    3.91 
  -8   0  -3   25.31    1.56 
  -8   0  -3   25.06    1.90 
  -8   0  -3   21.88    2.08 
   8   0   3   27.54    2.45 
   8   0   3   21.70    2.93 
   8   0   3   25.99    1.85 
   8   0   3   27.44    1.96 
  -9   0  -3   13.28    1.97 
  -9   0  -3   13.48    1.38 
   9   0   3    7.21    2.28 
   9   0   3   12.22    1.54 
   9   0   3   11.24    1.56 
   9   0   3   11.41    1.92 
  10  -1  -3   38.32    3.16 
  10  -1  -3   38.21    3.80 
  10  -1  -3   46.85    2.42 
  10  -1  -3   46.33    2.36 
 -10   1   3   47.89    2.75 
 -10   1   3   48.36    2.50 
   9  -1  -3   15.70    1.51 
   9  -1  -3   18.37    1.53 
   9  -1  -3   15.00    2.04 
   9  -1  -3   15.07    2.37 
  -9   1   3   15.94    1.57 
  -9   1   3   16.98    1.71 
   8  -1  -3   12.84    1.32 
   8  -1  -3   12.97    2.11 
   8  -1  -3   12.80    1.38 
   8  -1  -3   11.26    1.70 
  -8   1   3   16.05    1.50 
  -8   1   3   13.54    1.37 
  -8   1   3   11.36    1.20 
   7  -1  -3   -0.56    0.71 
   7  -1  -3    1.08    0.81 
   7  -1  -3    0.84    1.31 
   7  -1  -3    0.15    1.14 
  -7   1   3    0.59    0.74 
  -7   1   3   -0.30    0.69 
  -7   1   3    1.99    1.03 
   6  -1  -3   15.58    1.49 
   6  -1  -3   18.58    1.17 
   6  -1  -3   18.28    1.24 
   6  -1  -3   16.64    1.18 
   6  -1  -3   16.97    1.20 
  -6   1   3   19.88    1.35 
  -6   1   3   16.90    1.34 
  -6   1   3   16.35    1.19 
  -6   1   3   19.19    1.22 
  -6   1   3   17.62    1.13 
   5  -1  -3   94.01    3.03 
   5  -1  -3   93.91    2.60 
   5  -1  -3   88.49    2.48 
   5  -1  -3   92.38    2.58 
   5  -1  -3   95.56    2.49 
   5  -1  -3   93.17    1.96 
   5  -1  -3   89.66    2.55 
  -5   1   3   94.34    2.52 
  -5   1   3   95.75    2.57 
  -5   1   3   90.94    2.60 
  -5   1   3   98.10    2.45 
  -5   1   3   93.22    2.49 
   4  -1  -3  181.43    4.17 
   4  -1  -3  182.60    3.80 
   4  -1  -3  177.85    4.16 
   4  -1  -3  184.07    4.14 
   4  -1  -3  182.26    4.12 
   4  -1  -3  183.67    4.60 
   4  -1  -3  184.86    4.18 
  -4   1   3  182.24    4.12 
  -4   1   3  185.63    4.23 
  -4   1   3  179.90    4.13 
  -4   1   3  187.32    4.18 
  -4   1   3  186.83    4.08 
   3  -1  -3  169.81    3.86 
   3  -1  -3  180.22    3.88 
   3  -1  -3  177.84    3.95 
   3  -1  -3  178.23    3.84 
   3  -1  -3  179.87    3.89 
   3  -1  -3  179.23    3.91 
   3  -1  -3  172.94    4.26 
   3  -1  -3  181.18    3.95 
  -3   1   3  172.74    3.84 
  -3   1   3  176.75    3.90 
  -3   1   3  175.42    3.96 
  -3   1   3  172.13    3.91 
  -3   1   3  174.42    3.90 
  -3   1   3  176.98    3.84 
  -3   1   3  173.50    3.83 
   2  -1  -3  118.70    2.70 
   2  -1  -3  100.41    2.63 
   2  -1  -3  116.91    2.64 
   2  -1  -3  117.64    2.45 
   2  -1  -3  119.49    2.91 
   2  -1  -3  117.15    2.63 
  -2   1   3  116.00    2.49 
  -2   1   3  120.23    2.60 
  -2   1   3  115.01    2.67 
  -2   1   3  115.30    2.63 
  -2   1   3  116.13    2.63 
  -2   1   3  112.66    2.64 
  -2   1   3  119.08    2.60 
   1  -1  -3   71.47    1.87 
   1  -1  -3   73.34    1.86 
   1  -1  -3   77.88    1.91 
   1  -1  -3   73.26    1.61 
   1  -1  -3   75.98    1.55 
   1  -1  -3   74.66    1.88 
   1  -1  -3   76.63    1.88 
  -1   1   3   76.31    1.80 
  -1   1   3   71.74    1.81 
  -1   1   3   79.22    1.89 
  -1   1   3   74.39    1.90 
  -1   1   3   73.86    1.86 
   0  -1  -3    0.67    0.53 
   0  -1  -3   -0.04    0.57 
   0  -1  -3    0.86    0.90 
   0  -1  -3    0.32    0.54 
   0  -1  -3   -0.30    0.57 
   0  -1  -3   -0.18    0.49 
   0   1   3    0.06    0.38 
   0   1   3   -0.41    0.43 
   0   1   3   -0.35    0.50 
   0   1   3   -0.15    0.47 
   0   1   3   -0.57    0.54 
   0   1   3   -0.89    0.86 
   0   1   3   -0.14    0.35 
  -1  -1  -3    1.73    0.61 
  -1  -1  -3    2.31    0.43 
  -1  -1  -3    1.40    0.62 
  -1  -1  -3    1.24    0.89 
  -1  -1  -3    2.23    0.58 
  -1  -1  -3    2.09    0.63 
  -1  -1  -3    1.59    0.46 
  -1  -1  -3    1.45    0.47 
   1   1   3    0.93    0.60 
   1   1   3    1.56    0.19 
   1   1   3    2.72    1.00 
   1   1   3    1.83    0.57 
   1   1   3    0.39    0.54 
   1   1   3    1.94    0.47 
   1   1   3    2.31    0.58 
  -2  -1  -3   35.18    1.36 
  -2  -1  -3   36.53    0.96 
  -2  -1  -3   35.23    1.31 
  -2  -1  -3   39.25    1.36 
  -2  -1  -3   36.81    1.86 
  -2  -1  -3   36.96    1.38 
  -2  -1  -3   38.50    1.62 
  -2  -1  -3   37.57    1.04 
   2   1   3   35.56    1.35 
   2   1   3   36.68    1.57 
   2   1   3   36.76    1.28 
   2   1   3   39.85    2.03 
   2   1   3   37.55    0.96 
   2   1   3   36.93    1.43 
   2   1   3   38.39    1.37 
   2   1   3   36.82    1.04 
  -3  -1  -3  153.65    4.01 
  -3  -1  -3  152.46    4.34 
  -3  -1  -3  157.63    3.74 
  -3  -1  -3  151.42    3.89 
  -3  -1  -3  155.43    3.68 
  -3  -1  -3  151.81    3.69 
  -3  -1  -3  154.65    3.71 
  -3  -1  -3  155.30    3.35 
   3   1   3  153.04    3.96 
   3   1   3  150.15    3.77 
   3   1   3  161.82    3.72 
   3   1   3  154.02    3.35 
   3   1   3  153.76    3.29 
   3   1   3  158.97    3.99 
   3   1   3  154.25    3.70 
   3   1   3  165.87    3.74 
   3   1   3  154.31    4.44 
  -4  -1  -3   98.00    2.68 
  -4  -1  -3   98.10    2.37 
  -4  -1  -3   97.61    2.81 
  -4  -1  -3  100.09    2.74 
  -4  -1  -3   94.22    3.08 
   4   1   3  100.44    2.71 
   4   1   3   99.59    3.56 
   4   1   3   97.62    3.04 
   4   1   3  101.13    2.82 
   4   1   3   95.70    2.21 
   4   1   3   99.93    2.67 
  -5  -1  -3  174.19    4.41 
  -5  -1  -3  180.49    4.40 
  -5  -1  -3  176.75    4.01 
  -5  -1  -3  177.25    4.82 
   5   1   3  179.87    3.79 
   5   1   3  175.58    5.49 
   5   1   3  174.73    4.42 
   5   1   3  164.93    4.33 
   5   1   3  183.98    4.36 
   5   1   3  180.82    4.79 
  -6  -1  -3   30.04    1.41 
  -6  -1  -3   30.12    1.66 
  -6  -1  -3   33.16    1.83 
   6   1   3   30.23    2.19 
   6   1   3   28.31    1.67 
   6   1   3   30.16    2.62 
   6   1   3   30.91    1.02 
   6   1   3   28.58    1.79 
   6   1   3   31.68    1.71 
  -7  -1  -3   -0.28    0.77 
  -7  -1  -3    0.53    0.99 
   7   1   3    0.98    0.94 
   7   1   3    1.41    1.08 
   7   1   3    0.41    1.30 
   7   1   3    0.36    1.41 
  -8  -1  -3    0.50    0.79 
  -8  -1  -3    0.40    1.05 
   8   1   3   -0.45    1.63 
   8   1   3    1.60    1.02 
   8   1   3   -1.06    1.32 
   8   1   3    1.23    1.17 
  -9  -1  -3   28.37    1.81 
  -9  -1  -3   24.94    2.14 
  -9  -1  -3   23.61    2.34 
   9   1   3   25.33    2.20 
   9   1   3   21.67    2.13 
   9   1   3   22.94    1.98 
   9   1   3   23.16    3.20 
  10  -2  -3    9.20    1.30 
  10  -2  -3   12.89    1.45 
  10  -2  -3    6.91    1.83 
  10  -2  -3   11.97    2.40 
 -10   2   3   15.13    1.63 
 -10   2   3   11.12    1.60 
   9  -2  -3    2.06    1.42 
   9  -2  -3    2.46    0.94 
   9  -2  -3    2.79    0.99 
   9  -2  -3    2.69    1.77 
  -9   2   3    2.76    1.17 
  -9   2   3    4.25    1.22 
   8  -2  -3   38.57    1.90 
   8  -2  -3   38.81    1.96 
   8  -2  -3   40.22    3.35 
   8  -2  -3   39.58    2.62 
  -8   2   3   38.85    2.08 
  -8   2   3   38.00    2.06 
   7  -2  -3    1.28    0.79 
   7  -2  -3    0.67    0.73 
   7  -2  -3    0.61    1.08 
   7  -2  -3    0.75    1.17 
   7  -2  -3    1.13    0.78 
  -7   2   3   -0.19    0.68 
  -7   2   3    1.43    0.92 
  -7   2   3    0.59    0.65 
   6  -2  -3  158.05    3.95 
   6  -2  -3  162.07    3.91 
   6  -2  -3  162.05    3.88 
   6  -2  -3  168.79    3.94 
   6  -2  -3  160.05    4.60 
  -6   2   3  158.45    4.08 
  -6   2   3  161.77    3.87 
  -6   2   3  156.34    4.06 
  -6   2   3  162.12    3.92 
   5  -2  -3  171.08    4.15 
   5  -2  -3  171.62    3.98 
   5  -2  -3  168.24    3.96 
   5  -2  -3  177.03    3.98 
   5  -2  -3  170.95    3.65 
   5  -2  -3  175.40    3.94 
   5  -2  -3  172.89    4.59 
  -5   2   3  168.45    3.79 
  -5   2   3  170.93    4.05 
  -5   2   3  167.42    3.91 
  -5   2   3  169.90    4.08 
  -5   2   3  167.25    4.07 
   4  -2  -3   68.03    1.86 
   4  -2  -3   68.38    1.84 
   4  -2  -3   66.97    1.82 
   4  -2  -3   68.98    2.27 
   4  -2  -3   67.00    1.97 
   4  -2  -3   67.59    1.69 
   4  -2  -3   65.49    1.86 
  -4   2   3   68.89    1.94 
  -4   2   3   69.91    1.83 
  -4   2   3   70.24    1.82 
  -4   2   3   66.26    1.94 
  -4   2   3   68.97    1.91 
  -4   2   3   69.47    1.71 
   3  -2  -3  200.43    4.28 
   3  -2  -3  205.95    4.32 
   3  -2  -3  201.27    4.28 
   3  -2  -3  200.43    4.48 
   3  -2  -3  203.90    4.40 
   3  -2  -3  201.50    4.39 
   3  -2  -3  197.70    4.30 
   3  -2  -3  199.61    4.27 
   3  -2  -3  205.27    4.43 
   3  -2  -3  195.87    4.78 
  -3   2   3  199.70    4.44 
  -3   2   3  202.91    4.37 
  -3   2   3  186.59    4.26 
  -3   2   3  200.70    4.19 
  -3   2   3  204.58    4.29 
  -3   2   3  195.17    4.20 
  -3   2   3  199.79    4.43 
   2  -2  -3    4.99    0.57 
   2  -2  -3    5.73    0.52 
   2  -2  -3    5.88    0.55 
   2  -2  -3    5.72    0.53 
   2  -2  -3    5.77    0.51 
   2  -2  -3    5.37    0.55 
  -2   2   3    6.00    0.49 
  -2   2   3    6.15    0.66 
  -2   2   3    5.69    0.59 
  -2   2   3    5.64    0.56 
  -2   2   3    6.15    0.54 
  -2   2   3    5.84    0.51 
  -2   2   3    6.21    0.50 
   1  -2  -3   53.08    1.40 
   1  -2  -3   51.73    1.45 
   1  -2  -3   53.17    1.43 
   1  -2  -3   51.17    1.38 
   1  -2  -3   48.85    1.39 
   1  -2  -3   51.65    1.34 
   1  -2  -3   51.56    1.29 
   1  -2  -3   51.10    1.36 
  -1   2   3   51.17    1.31 
  -1   2   3   50.94    1.32 
  -1   2   3   51.00    1.32 
  -1   2   3   50.73    1.37 
  -1   2   3   50.48    1.37 
  -1   2   3   50.96    1.41 
  -1   2   3   49.75    1.59 
   0  -2  -3   93.83    2.24 
   0  -2  -3   92.24    2.22 
   0  -2  -3   92.19    2.24 
   0  -2  -3   94.15    2.27 
   0  -2  -3   92.85    2.24 
   0  -2  -3   94.87    2.86 
   0  -2  -3   89.91    2.21 
   0   2   3   95.70    2.23 
   0   2   3   92.90    2.20 
   0   2   3   97.54    2.27 
   0   2   3   93.35    2.37 
   0   2   3   93.29    2.23 
   0   2   3   95.01    2.20 
   0   2   3   94.84    2.30 
   0   2   3   93.86    2.17 
   0   2   3   92.16    1.96 
  -1  -2  -3  528.75   10.82 
  -1  -2  -3  530.96   10.78 
  -1  -2  -3  512.67   10.77 
  -1  -2  -3  519.59   10.70 
  -1  -2  -3  530.98   10.90 
  -1  -2  -3  530.35   11.38 
  -1  -2  -3  530.80   10.84 
   1   2   3  541.32   11.43 
   1   2   3  529.89   10.72 
   1   2   3  522.59   10.82 
   1   2   3  505.33   10.75 
   1   2   3  530.48   10.88 
   1   2   3  525.40   10.82 
   1   2   3  535.24   10.77 
  -2  -2  -3  172.81    4.16 
  -2  -2  -3  172.53    3.92 
  -2  -2  -3  171.90    3.94 
  -2  -2  -3  162.32    3.94 
  -2  -2  -3  165.84    3.93 
  -2  -2  -3  172.19    4.42 
  -2  -2  -3  170.38    3.47 
  -2  -2  -3  176.02    4.16 
  -2  -2  -3  173.09    3.71 
   2   2   3  166.14    4.12 
   2   2   3  162.63    3.88 
   2   2   3  173.13    3.99 
   2   2   3  171.96    4.09 
   2   2   3  179.17    4.61 
   2   2   3  162.84    3.89 
   2   2   3  166.35    3.94 
   2   2   3  170.59    3.71 
  -3  -2  -3  202.93    5.28 
  -3  -2  -3  209.35    4.85 
  -3  -2  -3  213.11    5.08 
  -3  -2  -3  222.31    4.82 
  -3  -2  -3  204.99    4.32 
  -3  -2  -3  203.73    4.80 
  -3  -2  -3  201.54    4.74 
   3   2   3  208.00    5.09 
   3   2   3  209.73    4.46 
   3   2   3  205.91    4.73 
   3   2   3  206.61    4.72 
   3   2   3  209.67    5.45 
   3   2   3  197.60    4.81 
  -4  -2  -3   49.37    1.81 
  -4  -2  -3   50.24    2.24 
  -4  -2  -3   51.58    1.88 
  -4  -2  -3   54.38    1.75 
  -4  -2  -3   51.44    1.42 
   4   2   3   48.50    2.56 
   4   2   3   51.76    1.47 
   4   2   3   47.29    1.69 
   4   2   3   51.97    2.26 
   4   2   3   47.83    1.79 
   4   2   3   52.53    1.75 
  -5  -2  -3    7.10    1.28 
  -5  -2  -3    5.64    0.99 
  -5  -2  -3    6.69    0.94 
  -5  -2  -3    7.16    0.72 
   5   2   3    7.06    1.09 
   5   2   3    5.93    0.95 
   5   2   3    6.95    0.65 
   5   2   3    5.93    1.31 
   5   2   3    5.34    1.23 
   5   2   3    6.06    0.95 
  -6  -2  -3    5.97    1.41 
  -6  -2  -3    4.89    1.14 
  -6  -2  -3    4.16    1.03 
  -6  -2  -3    5.11    0.73 
   6   2   3    3.31    1.39 
   6   2   3    4.85    1.36 
   6   2   3    4.04    1.02 
   6   2   3    5.09    0.63 
   6   2   3    5.07    0.96 
   6   2   3    5.05    1.05 
  -7  -2  -3   10.87    1.43 
  -7  -2  -3   10.50    1.02 
  -7  -2  -3   10.54    1.66 
   7   2   3   12.42    1.48 
   7   2   3   11.24    1.34 
   7   2   3    9.95    1.66 
   7   2   3   10.32    1.94 
   7   2   3   11.23    0.91 
  -8  -2  -3   34.58    2.28 
  -8  -2  -3   38.89    1.78 
   8   2   3   38.23    3.23 
   8   2   3   36.46    2.83 
   8   2   3   38.06    2.38 
   8   2   3   36.58    2.20 
  -9  -2  -3   21.80    1.75 
  -9  -2  -3   21.91    2.01 
   9   2   3   20.30    1.99 
   9   2   3   20.63    1.88 
   9   2   3   18.33    2.28 
   9   2   3   16.08    2.59 
  10  -3  -3   14.92    1.51 
  10  -3  -3   15.89    2.19 
  10  -3  -3   11.12    2.24 
  10  -3  -3   15.04    1.48 
 -10   3   3   15.83    1.72 
 -10   3   3   18.21    1.86 
   9  -3  -3   39.98    3.77 
   9  -3  -3   39.59    2.03 
   9  -3  -3   37.74    1.99 
   9  -3  -3   35.76    2.49 
  -9   3   3   44.11    2.48 
  -9   3   3   37.66    2.24 
   8  -3  -3   75.95    2.49 
   8  -3  -3   67.46    4.18 
   8  -3  -3   72.68    3.33 
   8  -3  -3   67.88    2.38 
  -8   3   3   71.43    2.55 
  -8   3   3   71.16    2.74 
   7  -3  -3   99.02    2.79 
   7  -3  -3   99.07    4.59 
   7  -3  -3   99.10    2.80 
   7  -3  -3  101.71    2.84 
   7  -3  -3   99.14    3.63 
  -7   3   3   97.34    3.09 
  -7   3   3  102.13    3.13 
   6  -3  -3   66.06    2.75 
   6  -3  -3   59.11    1.90 
   6  -3  -3   61.17    1.90 
   6  -3  -3   62.12    1.68 
   6  -3  -3   61.73    1.91 
   6  -3  -3   62.22    1.95 
  -6   3   3   62.55    2.22 
  -6   3   3   63.18    2.12 
  -6   3   3   60.15    1.86 
  -6   3   3   62.74    2.17 
   5  -3  -3   23.41    1.12 
   5  -3  -3   25.80    1.08 
   5  -3  -3   26.31    1.13 
   5  -3  -3   26.14    1.01 
   5  -3  -3   25.49    1.43 
   5  -3  -3   25.77    1.09 
   5  -3  -3   27.04    1.82 
  -5   3   3   26.05    0.87 
  -5   3   3   25.02    1.38 
  -5   3   3   24.87    1.42 
  -5   3   3   27.64    1.03 
  -5   3   3   25.69    1.45 
   4  -3  -3    6.25    1.00 
   4  -3  -3    6.45    0.56 
   4  -3  -3    6.40    0.62 
   4  -3  -3    5.82    0.54 
   4  -3  -3    6.89    0.85 
   4  -3  -3    5.47    0.55 
   4  -3  -3    6.34    0.54 
  -4   3   3    5.21    0.77 
  -4   3   3    6.29    0.57 
  -4   3   3    6.33    0.59 
  -4   3   3    5.70    0.82 
  -4   3   3    6.17    0.40 
  -4   3   3    6.46    0.74 
   3  -3  -3   31.02    0.98 
   3  -3  -3   30.29    1.12 
   3  -3  -3   32.90    1.00 
   3  -3  -3   30.40    1.32 
   3  -3  -3   32.65    1.21 
   3  -3  -3   33.25    1.24 
   3  -3  -3   30.88    0.98 
   3  -3  -3   31.46    1.62 
   3  -3  -3   30.46    0.96 
  -3   3   3   31.53    1.27 
  -3   3   3   31.35    0.91 
  -3   3   3   32.02    1.30 
  -3   3   3   31.27    0.70 
  -3   3   3   31.38    0.71 
  -3   3   3   30.28    1.27 
   2  -3  -3   21.77    0.80 
   2  -3  -3   21.10    1.00 
   2  -3  -3   22.20    0.79 
   2  -3  -3   21.91    1.14 
   2  -3  -3   21.39    0.83 
   2  -3  -3   21.66    0.98 
   2  -3  -3   19.74    1.03 
   2  -3  -3   22.36    0.97 
   2  -3  -3   22.79    0.94 
   2  -3  -3   22.19    0.81 
  -2   3   3   22.40    1.23 
  -2   3   3   24.28    0.56 
  -2   3   3   21.23    0.97 
  -2   3   3   23.21    0.74 
  -2   3   3   21.57    0.73 
  -2   3   3   22.78    1.07 
   1  -3  -3  146.59    3.36 
   1  -3  -3  146.35    3.23 
   1  -3  -3  149.66    3.22 
   1  -3  -3  153.83    3.27 
   1  -3  -3  151.62    3.31 
   1  -3  -3  150.62    3.39 
   1  -3  -3  148.50    3.21 
   1  -3  -3  150.83    3.22 
  -1   3   3  151.28    3.21 
  -1   3   3  147.42    3.45 
  -1   3   3  146.09    3.22 
  -1   3   3  145.14    3.36 
  -1   3   3  142.72    3.51 
  -1   3   3  152.27    3.15 
  -1   3   3  147.10    3.24 
  -1   3   3  147.40    3.32 
  -1   3   3  147.94    3.12 
   0  -3  -3  157.18    3.64 
   0  -3  -3  157.73    3.27 
   0  -3  -3  161.60    4.16 
   0  -3  -3  160.60    3.48 
   0  -3  -3  157.44    3.50 
   0  -3  -3  157.51    3.54 
   0  -3  -3  155.60    3.50 
   0  -3  -3  158.33    3.61 
   0   3   3  155.93    3.70 
   0   3   3  155.54    3.61 
   0   3   3  155.67    3.45 
   0   3   3  156.45    3.52 
   0   3   3  157.22    3.44 
   0   3   3  158.46    3.60 
  -1  -3  -3   37.71    1.94 
  -1  -3  -3   37.94    1.31 
  -1  -3  -3   38.16    1.55 
  -1  -3  -3   38.20    1.38 
  -1  -3  -3   40.32    1.32 
  -1  -3  -3   38.07    0.86 
  -1  -3  -3   37.60    1.70 
  -1  -3  -3   36.70    1.33 
  -1  -3  -3   35.81    1.31 
   1   3   3   39.12    1.35 
   1   3   3   34.85    1.81 
   1   3   3   37.00    1.43 
   1   3   3   39.15    1.25 
   1   3   3   36.99    1.34 
   1   3   3   37.75    1.52 
   1   3   3   35.73    1.30 
   1   3   3   40.13    1.31 
  -2  -3  -3  123.18    2.94 
  -2  -3  -3  119.88    3.11 
  -2  -3  -3  127.73    3.10 
  -2  -3  -3  123.69    3.48 
  -2  -3  -3  125.29    3.04 
  -2  -3  -3  122.87    2.56 
  -2  -3  -3  122.49    3.01 
  -2  -3  -3  121.60    3.33 
   2   3   3  127.28    3.01 
   2   3   3  126.25    3.66 
   2   3   3  122.65    2.93 
   2   3   3  116.08    3.08 
   2   3   3  122.02    3.01 
   2   3   3  118.82    3.22 
  -3  -3  -3   10.93    1.04 
  -3  -3  -3   12.83    1.12 
  -3  -3  -3   11.82    1.22 
  -3  -3  -3   12.36    0.88 
  -3  -3  -3   11.52    0.90 
  -3  -3  -3   11.31    0.60 
  -3  -3  -3   11.06    1.32 
   3   3   3   12.19    1.64 
   3   3   3   11.38    0.83 
   3   3   3   11.99    0.98 
   3   3   3   11.99    0.95 
   3   3   3   13.25    1.03 
   3   3   3   12.19    1.24 
  -4  -3  -3   11.60    1.20 
  -4  -3  -3   13.08    1.13 
  -4  -3  -3   13.73    1.21 
  -4  -3  -3   14.09    1.40 
  -4  -3  -3   12.29    0.98 
  -4  -3  -3   13.44    0.76 
   4   3   3   14.38    1.36 
   4   3   3   12.42    1.08 
   4   3   3   14.82    1.11 
   4   3   3   12.02    1.45 
   4   3   3   12.27    0.94 
  -5  -3  -3   20.50    1.00 
  -5  -3  -3   17.37    1.69 
  -5  -3  -3   21.94    1.67 
  -5  -3  -3   20.55    1.53 
  -5  -3  -3   21.80    1.71 
   5   3   3   20.01    1.11 
   5   3   3   22.87    1.62 
   5   3   3   20.50    1.46 
   5   3   3   20.96    2.21 
   5   3   3   21.44    1.98 
  -6  -3  -3  135.72    3.86 
  -6  -3  -3  134.88    4.40 
  -6  -3  -3  135.35    3.88 
  -6  -3  -3  132.07    3.26 
   6   3   3  137.92    3.84 
   6   3   3  137.55    4.80 
   6   3   3  131.04    3.28 
   6   3   3  129.14    4.34 
   6   3   3  129.03    3.82 
  -7  -3  -3   68.91    2.16 
  -7  -3  -3   64.49    3.29 
  -7  -3  -3   67.89    2.67 
   7   3   3   66.41    2.83 
   7   3   3   70.15    2.72 
   7   3   3   72.04    2.08 
   7   3   3   72.31    3.61 
   7   3   3   65.32    3.27 
  -8  -3  -3   51.60    2.80 
  -8  -3  -3   48.62    1.94 
  -8  -3  -3   46.59    2.59 
   8   3   3   46.60    3.12 
   8   3   3   48.26    2.62 
   8   3   3   45.48    3.32 
   8   3   3   46.57    2.85 
  -9  -3  -3   50.45    2.80 
   9   3   3   43.11    3.85 
   9   3   3   44.04    2.46 
   9   3   3   41.87    3.35 
   9  -4  -3   39.56    1.89 
   9  -4  -3   33.59    2.84 
   9  -4  -3   37.49    1.83 
   9  -4  -3   39.75    3.87 
  -9   4   3   44.50    2.37 
  -9   4   3   37.67    2.30 
   8  -4  -3   61.76    2.11 
   8  -4  -3   58.31    2.09 
   8  -4  -3   60.46    4.09 
   8  -4  -3   57.15    3.06 
  -8   4   3   59.94    2.55 
  -8   4   3   63.25    2.59 
   7  -4  -3   18.04    2.28 
   7  -4  -3   14.15    1.17 
   7  -4  -3   15.09    1.17 
   7  -4  -3   15.20    1.18 
   7  -4  -3   13.77    1.66 
  -7   4   3   15.82    1.41 
  -7   4   3   15.54    1.42 
   6  -4  -3   22.19    1.06 
   6  -4  -3   23.27    1.14 
   6  -4  -3   21.23    2.20 
   6  -4  -3   23.56    1.24 
   6  -4  -3   22.63    1.95 
   6  -4  -3   21.21    1.13 
   6  -4  -3   23.59    1.18 
  -6   4   3   24.28    1.55 
  -6   4   3   21.16    1.56 
  -6   4   3   22.42    1.30 
  -6   4   3   20.78    0.94 
   5  -4  -3    8.76    0.86 
   5  -4  -3    9.57    0.76 
   5  -4  -3    9.67    0.76 
   5  -4  -3    9.93    0.75 
   5  -4  -3    9.63    1.24 
   5  -4  -3    9.22    0.78 
  -5   4   3    7.75    0.98 
  -5   4   3    9.74    1.06 
  -5   4   3    9.48    0.60 
  -5   4   3    9.08    1.02 
   4  -4  -3   79.97    1.91 
   4  -4  -3   82.25    1.93 
   4  -4  -3   82.43    2.76 
   4  -4  -3   88.46    2.40 
   4  -4  -3   79.93    1.90 
   4  -4  -3   80.54    1.93 
  -4   4   3   78.53    1.80 
  -4   4   3   80.50    1.78 
  -4   4   3   83.81    2.38 
  -4   4   3   82.34    2.28 
  -4   4   3   82.04    2.38 
   3  -4  -3   46.42    1.16 
   3  -4  -3   43.95    1.14 
   3  -4  -3   42.91    1.57 
   3  -4  -3   47.75    1.67 
   3  -4  -3   46.23    1.13 
  -3   4   3   47.31    0.95 
  -3   4   3   43.16    0.94 
  -3   4   3   46.75    1.74 
  -3   4   3   43.50    1.55 
  -3   4   3   44.79    1.54 
  -3   4   3   44.66    1.65 
   2  -4  -3  338.08    7.20 
   2  -4  -3  360.26    7.42 
   2  -4  -3  367.76    7.21 
   2  -4  -3  359.47    7.22 
   2  -4  -3  349.25    7.57 
   2  -4  -3  354.18    7.57 
   2  -4  -3  355.06    7.18 
  -2   4   3  354.28    7.66 
  -2   4   3  342.98    7.10 
  -2   4   3  360.75    7.11 
  -2   4   3  353.25    7.45 
  -2   4   3  360.24    7.44 
   1  -4  -3  141.36    3.17 
   1  -4  -3  141.81    3.35 
   1  -4  -3  140.82    3.06 
   1  -4  -3  140.02    3.06 
   1  -4  -3  135.79    3.09 
   1  -4  -3  136.12    3.05 
   1  -4  -3  142.08    3.10 
   1  -4  -3  141.67    3.37 
  -1   4   3  138.61    3.07 
  -1   4   3  137.43    3.18 
  -1   4   3  140.59    3.44 
  -1   4   3  139.00    3.38 
  -1   4   3  138.32    3.12 
  -1   4   3  138.04    2.90 
   0  -4  -3  103.88    2.46 
   0  -4  -3  104.53    2.77 
   0  -4  -3  105.80    3.15 
   0  -4  -3  105.19    2.31 
   0  -4  -3  105.62    2.50 
   0  -4  -3  100.75    2.53 
   0  -4  -3  104.99    2.48 
   0   4   3  101.60    2.42 
   0   4   3  105.44    2.41 
   0   4   3   97.43    2.75 
   0   4   3  102.18    2.47 
   0   4   3  104.26    2.49 
   0   4   3  101.96    2.71 
   0   4   3  105.10    2.66 
  -1  -4  -3  124.69    3.03 
  -1  -4  -3  124.88    3.03 
  -1  -4  -3  124.11    3.04 
  -1  -4  -3  126.25    3.08 
  -1  -4  -3  131.67    3.34 
  -1  -4  -3  122.80    2.66 
  -1  -4  -3  124.57    3.62 
   1   4   3  126.19    3.27 
   1   4   3  125.53    3.24 
   1   4   3  127.84    2.82 
   1   4   3  123.62    3.04 
   1   4   3  126.65    3.13 
   1   4   3  123.52    2.94 
  -2  -4  -3   20.42    1.13 
  -2  -4  -3   20.93    1.45 
  -2  -4  -3   19.32    1.18 
  -2  -4  -3   20.06    1.22 
  -2  -4  -3   21.16    1.19 
  -2  -4  -3   21.13    1.51 
   2   4   3   20.39    1.35 
   2   4   3   21.30    1.20 
   2   4   3   20.76    1.54 
   2   4   3   19.64    1.14 
   2   4   3   20.99    1.09 
  -3  -4  -3    9.61    1.04 
  -3  -4  -3    8.87    0.97 
  -3  -4  -3    9.84    1.21 
  -3  -4  -3    9.55    0.94 
  -3  -4  -3   11.38    1.23 
   3   4   3    8.77    0.98 
   3   4   3    7.83    1.20 
   3   4   3   10.36    0.95 
   3   4   3   10.53    0.89 
  -4  -4  -3   50.67    2.11 
  -4  -4  -3   51.98    1.89 
  -4  -4  -3   52.23    1.97 
  -4  -4  -3   49.19    1.44 
  -4  -4  -3   51.80    2.24 
  -4  -4  -3   52.48    2.51 
   4   4   3   53.30    1.85 
   4   4   3   50.03    1.72 
   4   4   3   49.90    2.44 
   4   4   3   51.22    2.08 
   4   4   3   52.35    2.60 
  -5  -4  -3   89.14    2.25 
  -5  -4  -3   91.80    3.04 
  -5  -4  -3   87.40    2.83 
  -5  -4  -3   87.13    3.38 
  -5  -4  -3   83.80    2.74 
   5   4   3   87.50    2.97 
   5   4   3   89.70    3.20 
   5   4   3   89.59    3.54 
   5   4   3   89.60    2.85 
   5   4   3   90.38    2.54 
  -6  -4  -3   21.12    1.17 
  -6  -4  -3   16.01    1.87 
  -6  -4  -3   20.78    1.86 
  -6  -4  -3   20.33    1.72 
   6   4   3   20.75    1.64 
   6   4   3   19.35    2.42 
   6   4   3   20.09    1.79 
   6   4   3   18.50    1.94 
   6   4   3   21.81    1.32 
  -7  -4  -3   17.00    2.05 
  -7  -4  -3   20.80    1.88 
  -7  -4  -3   22.47    1.26 
   7   4   3   20.69    1.88 
   7   4   3   20.64    2.03 
   7   4   3   16.02    2.13 
   7   4   3   20.12    1.31 
  -8  -4  -3   10.10    1.65 
  -8  -4  -3    7.80    1.90 
   8   4   3    8.10    1.57 
   8   4   3    6.73    1.77 
  -9  -4  -3    1.28    1.10 
   9   4   3   -1.09    1.35 
   9  -5  -3    1.95    1.49 
   9  -5  -3    1.71    0.79 
   9  -5  -3    1.67    0.84 
   9  -5  -3    1.48    1.47 
  -9   5   3    1.57    1.22 
  -9   5   3    3.81    1.37 
   8  -5  -3    3.53    0.78 
   8  -5  -3    3.27    1.85 
   8  -5  -3    3.93    1.19 
   8  -5  -3    2.89    0.76 
  -8   5   3    4.05    1.00 
  -8   5   3    3.64    1.21 
   7  -5  -3    4.07    0.66 
   7  -5  -3    4.06    1.28 
   7  -5  -3    2.88    0.67 
   7  -5  -3    2.67    1.65 
   7  -5  -3    3.31    0.69 
  -7   5   3    4.13    1.19 
  -7   5   3    4.94    1.13 
   6  -5  -3   35.38    2.95 
   6  -5  -3   37.06    1.28 
   6  -5  -3   35.41    1.21 
   6  -5  -3   38.28    2.28 
   6  -5  -3   37.17    1.30 
  -6   5   3   37.91    1.89 
  -6   5   3   34.90    1.85 
   5  -5  -3   70.60    1.68 
   5  -5  -3   70.74    1.77 
   5  -5  -3   70.82    1.67 
   5  -5  -3   69.54    1.77 
   5  -5  -3   72.10    2.79 
  -5   5   3   69.11    2.37 
  -5   5   3   72.93    2.24 
  -5   5   3   68.79    2.40 
   4  -5  -3   76.27    2.72 
   4  -5  -3   77.61    1.75 
   4  -5  -3   78.92    1.60 
   4  -5  -3   75.25    1.60 
  -4   5   3   73.80    2.38 
  -4   5   3   74.57    2.31 
  -4   5   3   73.16    2.32 
   3  -5  -3  174.68    4.25 
   3  -5  -3  173.98    3.63 
   3  -5  -3  173.36    3.62 
  -3   5   3  178.23    4.25 
  -3   5   3  173.08    4.10 
  -3   5   3  175.20    4.11 
   2  -5  -3   53.19    1.34 
   2  -5  -3   54.59    1.60 
   2  -5  -3   53.72    1.88 
   2  -5  -3   52.30    1.26 
   2  -5  -3   54.30    1.31 
   2  -5  -3   53.14    1.32 
  -2   5   3   53.51    1.67 
  -2   5   3   53.13    1.79 
  -2   5   3   54.05    1.71 
  -2   5   3   50.95    1.90 
   1  -5  -3    6.96    0.85 
   1  -5  -3    7.72    0.60 
   1  -5  -3    6.59    0.63 
   1  -5  -3    7.33    0.65 
   1  -5  -3    7.28    0.60 
   1  -5  -3    7.01    0.54 
   1  -5  -3    6.93    0.55 
  -1   5   3    7.78    0.92 
  -1   5   3    7.48    0.72 
  -1   5   3    7.26    0.59 
  -1   5   3    7.77    0.94 
  -1   5   3    6.54    0.54 
   0  -5  -3   35.11    1.26 
   0  -5  -3   36.43    1.86 
   0  -5  -3   38.44    1.65 
   0  -5  -3   38.38    1.27 
   0  -5  -3   36.80    1.11 
   0  -5  -3   37.35    1.32 
   0  -5  -3   34.73    1.24 
   0   5   3   36.39    1.11 
   0   5   3   35.90    1.60 
   0   5   3   37.76    1.58 
   0   5   3   36.86    1.22 
   0   5   3   36.13    1.23 
  -1  -5  -3   21.98    1.07 
  -1  -5  -3   21.28    0.79 
  -1  -5  -3   18.87    1.05 
  -1  -5  -3   18.92    1.45 
  -1  -5  -3   17.64    1.59 
  -1  -5  -3   19.45    1.18 
  -1  -5  -3   20.19    1.11 
   1   5   3   20.27    1.06 
   1   5   3   19.09    1.35 
   1   5   3   20.70    0.94 
   1   5   3   19.63    0.84 
   1   5   3   20.06    1.10 
  -2  -5  -3   75.25    2.24 
  -2  -5  -3   76.04    2.46 
  -2  -5  -3   72.41    2.19 
  -2  -5  -3   72.59    2.28 
  -2  -5  -3   72.39    2.61 
  -2  -5  -3   73.70    2.24 
   2   5   3   73.79    2.17 
   2   5   3   76.40    2.27 
   2   5   3   74.25    1.82 
   2   5   3   75.12    2.43 
   2   5   3   75.86    2.29 
  -3  -5  -3  138.09    3.67 
  -3  -5  -3  135.78    3.71 
  -3  -5  -3  137.28    3.57 
  -3  -5  -3  136.03    4.03 
  -3  -5  -3  140.07    3.61 
   3   5   3  135.40    3.82 
   3   5   3  132.88    3.62 
   3   5   3  135.43    3.49 
   3   5   3  138.77    3.51 
  -4  -5  -3  109.24    3.25 
  -4  -5  -3  104.01    2.47 
  -4  -5  -3  106.13    3.24 
  -4  -5  -3  106.03    3.65 
  -4  -5  -3  102.89    3.02 
  -4  -5  -3  102.36    3.06 
   4   5   3   99.64    3.00 
   4   5   3  104.74    3.55 
   4   5   3  101.85    2.88 
   4   5   3  102.72    3.16 
  -5  -5  -3   96.50    3.01 
  -5  -5  -3   95.17    3.68 
  -5  -5  -3   93.78    3.21 
  -5  -5  -3   98.27    2.44 
   5   5   3   98.14    3.66 
   5   5   3   95.62    3.73 
   5   5   3   96.34    2.78 
   5   5   3   98.59    2.95 
   5   5   3   92.57    3.17 
  -6  -5  -3   52.91    2.70 
  -6  -5  -3   49.46    2.28 
  -6  -5  -3   51.04    2.40 
  -6  -5  -3   54.35    1.72 
   6   5   3   53.25    2.97 
   6   5   3   53.09    2.49 
   6   5   3   53.23    2.04 
   6   5   3   46.74    3.14 
  -7  -5  -3    3.60    1.64 
  -7  -5  -3    4.26    1.15 
   7   5   3    4.65    0.94 
   7   5   3    3.82    1.55 
   7   5   3    4.26    1.36 
  -8  -5  -3   -1.54    1.57 
  -8  -5  -3    0.74    1.35 
   8   5   3    0.58    1.61 
   8   5   3    1.71    1.37 
   9  -6  -3    2.25    1.95 
   9  -6  -3   -0.22    1.45 
   9  -6  -3    0.75    0.72 
  -9   6   3    2.04    1.33 
  -9   6   3    2.65    1.30 
   8  -6  -3    5.03    1.52 
   8  -6  -3    8.78    0.84 
   8  -6  -3    9.93    2.27 
  -8   6   3    6.85    1.39 
  -8   6   3   13.02    1.64 
   7  -6  -3   96.10    2.48 
   7  -6  -3   96.76    4.84 
   7  -6  -3  100.80    3.79 
   7  -6  -3   95.52    2.28 
   7  -6  -3   99.39    2.49 
  -7   6   3   98.05    3.31 
  -7   6   3   96.98    3.25 
   6  -6  -3   23.37    0.97 
   6  -6  -3   22.91    2.02 
   6  -6  -3   23.24    0.95 
   6  -6  -3   24.16    2.79 
   6  -6  -3   25.00    0.62 
  -6   6   3   25.52    1.75 
  -6   6   3   24.34    1.69 
   5  -6  -3  150.08    3.16 
   5  -6  -3  147.15    4.38 
   5  -6  -3  144.58    5.28 
  -5   6   3  148.84    3.91 
  -5   6   3  151.43    4.06 
  -5   6   3  147.87    3.95 
   4  -6  -3    3.13    0.27 
   4  -6  -3    3.13    0.25 
   4  -6  -3    3.15    0.98 
   4  -6  -3    3.16    0.87 
  -4   6   3    3.17    0.89 
  -4   6   3    2.72    0.86 
   3  -6  -3    8.63    1.00 
   3  -6  -3    8.65    0.44 
   3  -6  -3    8.43    0.41 
  -3   6   3    8.66    0.96 
  -3   6   3    9.18    0.97 
  -3   6   3    9.81    0.93 
   2  -6  -3   29.39    0.82 
   2  -6  -3   30.23    0.88 
   2  -6  -3   29.80    0.93 
   2  -6  -3   30.38    0.94 
   2  -6  -3   30.45    1.55 
  -2   6   3   30.90    1.30 
  -2   6   3   30.04    1.63 
  -2   6   3   30.61    1.43 
   1  -6  -3   80.66    2.01 
   1  -6  -3   78.95    2.07 
   1  -6  -3   81.15    2.02 
   1  -6  -3   77.11    1.95 
   1  -6  -3   80.88    1.99 
   1  -6  -3   77.02    2.59 
  -1   6   3   80.64    2.41 
  -1   6   3   78.62    1.91 
  -1   6   3   80.34    2.50 
  -1   6   3   78.77    1.89 
  -1   6   3   78.11    2.11 
   0  -6  -3   33.68    1.17 
   0  -6  -3   37.40    1.80 
   0  -6  -3   36.16    1.35 
   0  -6  -3   36.06    1.90 
   0  -6  -3   34.76    1.34 
   0  -6  -3   34.44    1.27 
   0  -6  -3   34.64    1.28 
   0   6   3   36.26    1.70 
   0   6   3   36.43    1.70 
   0   6   3   35.53    1.25 
   0   6   3   34.60    1.23 
   0   6   3   35.66    1.12 
  -1  -6  -3   94.57    3.10 
  -1  -6  -3  102.72    3.18 
  -1  -6  -3  101.56    2.69 
  -1  -6  -3  101.71    2.40 
  -1  -6  -3  105.16    2.71 
  -1  -6  -3   98.29    2.71 
  -1  -6  -3  105.37    2.75 
   1   6   3  102.41    2.54 
   1   6   3  100.51    2.84 
   1   6   3  101.01    2.40 
   1   6   3  100.86    2.99 
   1   6   3  103.31    2.68 
  -2  -6  -3  142.92    3.74 
  -2  -6  -3  153.82    3.83 
  -2  -6  -3  153.66    4.33 
  -2  -6  -3  149.10    3.80 
  -2  -6  -3  152.12    3.86 
  -2  -6  -3  153.32    3.88 
   2   6   3  153.64    3.70 
   2   6   3  150.31    3.30 
   2   6   3  150.74    4.03 
   2   6   3  150.97    3.91 
   2   6   3  147.69    3.80 
  -3  -6  -3   20.87    1.50 
  -3  -6  -3   18.06    1.24 
  -3  -6  -3   20.31    1.44 
  -3  -6  -3   20.02    1.95 
  -3  -6  -3   19.73    1.37 
   3   6   3   17.71    1.41 
   3   6   3   20.24    1.44 
   3   6   3   20.99    0.80 
   3   6   3   19.58    1.55 
   3   6   3   19.73    1.27 
  -4  -6  -3    1.75    1.32 
  -4  -6  -3    2.91    1.06 
  -4  -6  -3    2.96    1.00 
   4   6   3    2.25    0.90 
   4   6   3    3.03    0.83 
   4   6   3    2.75    0.42 
   4   6   3    3.16    1.01 
  -5  -6  -3    0.57    1.04 
  -5  -6  -3    1.76    1.05 
  -5  -6  -3    0.56    0.63 
  -5  -6  -3   -0.51    1.37 
   5   6   3    1.20    0.94 
   5   6   3    1.56    1.05 
  -6  -6  -3   23.92    1.77 
  -6  -6  -3   26.87    1.98 
  -6  -6  -3   20.96    2.11 
   6   6   3   28.99    2.59 
   6   6   3   22.50    1.96 
   6   6   3   26.85    1.61 
  -7  -6  -3    4.80    1.80 
  -7  -6  -3    4.73    1.21 
   7   6   3    6.82    1.76 
   7   6   3    6.56    1.47 
   7   6   3    6.30    1.17 
  -8  -6  -3   40.70    2.76 
   8   6   3   45.87    2.78 
   8   6   3   38.08    3.62 
   8  -7  -3   25.91    2.49 
   8  -7  -3   29.50    3.52 
   8  -7  -3   27.33    1.20 
  -8   7   3   23.88    1.78 
  -8   7   3   27.32    2.14 
   7  -7  -3   41.37    1.28 
   7  -7  -3   41.34    1.27 
   7  -7  -3   44.07    2.70 
   7  -7  -3   41.98    3.61 
  -7   7   3   43.34    2.29 
  -7   7   3   42.59    2.34 
   6  -7  -3   57.02    3.72 
   6  -7  -3   60.49    2.82 
   6  -7  -3   58.95    1.40 
  -6   7   3   58.92    2.53 
  -6   7   3   58.54    2.43 
   5  -7  -3    7.33    1.27 
   5  -7  -3    8.21    1.66 
   5  -7  -3    9.42    1.20 
  -5   7   3    8.88    1.19 
   4  -7  -3    2.06    1.00 
   4  -7  -3    2.90    0.96 
  -4   7   3    4.13    0.90 
   3  -7  -3   23.54    0.66 
   3  -7  -3   23.92    0.69 
   3  -7  -3   25.01    1.72 
  -3   7   3   24.11    1.40 
  -3   7   3   24.23    1.67 
   2  -7  -3   72.19    1.77 
   2  -7  -3   70.49    2.55 
   2  -7  -3   74.06    1.67 
   2  -7  -3   71.27    1.75 
   2  -7  -3   68.71    1.61 
  -2   7   3   72.50    2.56 
  -2   7   3   71.98    2.13 
  -2   7   3   70.65    2.48 
   1  -7  -3   86.17    2.17 
   1  -7  -3   87.18    2.21 
   1  -7  -3   85.02    2.22 
   1  -7  -3   87.56    2.21 
   1  -7  -3   89.34    2.91 
  -1   7   3   91.30    2.80 
  -1   7   3   85.20    2.07 
  -1   7   3   88.22    2.83 
  -1   7   3   88.77    2.37 
   0  -7  -3   74.45    2.13 
   0  -7  -3   74.13    2.11 
   0  -7  -3   74.96    2.10 
   0  -7  -3   73.33    2.73 
   0  -7  -3   75.46    2.15 
   0  -7  -3   74.85    2.78 
   0   7   3   77.27    2.58 
   0   7   3   74.84    2.01 
   0   7   3   71.94    2.04 
   0   7   3   74.87    2.57 
  -1  -7  -3   58.33    1.93 
  -1  -7  -3   59.85    1.96 
  -1  -7  -3   59.39    2.06 
  -1  -7  -3   63.25    2.59 
  -1  -7  -3   60.48    1.92 
  -1  -7  -3   60.12    1.72 
  -1  -7  -3   56.26    2.29 
   1   7   3   56.49    1.94 
   1   7   3   64.32    2.37 
   1   7   3   61.76    2.32 
   1   7   3   61.60    1.63 
  -2  -7  -3    5.61    1.03 
  -2  -7  -3    6.68    0.92 
  -2  -7  -3    8.07    1.02 
  -2  -7  -3    6.09    1.30 
   2   7   3    6.61    0.54 
   2   7   3    6.09    1.06 
   2   7   3    6.05    1.00 
   2   7   3    6.46    1.21 
  -3  -7  -3   35.62    2.37 
  -3  -7  -3   36.69    1.90 
  -3  -7  -3   41.24    1.88 
   3   7   3   38.88    1.84 
   3   7   3   37.83    2.11 
   3   7   3   36.41    1.90 
  -4  -7  -3   23.95    2.32 
  -4  -7  -3   22.05    1.77 
  -4  -7  -3   20.20    1.66 
   4   7   3   24.32    2.00 
   4   7   3   27.53    1.69 
   4   7   3   20.89    1.67 
  -5  -7  -3   15.51    1.57 
  -5  -7  -3   18.70    1.73 
  -5  -7  -3   16.67    1.84 
   5   7   3   19.12    1.58 
   5   7   3   20.41    1.81 
  -6  -7  -3   50.52    2.60 
  -6  -7  -3   54.01    3.40 
  -6  -7  -3   59.83    2.83 
   6   7   3   56.60    2.43 
   6   7   3   56.20    2.71 
  -7  -7  -3   47.47    2.81 
  -7  -7  -3   41.77    3.31 
   7   7   3   52.19    2.25 
   7   7   3   47.07    2.76 
   8  -8  -3   32.71    2.69 
  -8   8   3   38.88    2.65 
  -8   8   3   34.05    2.37 
   7  -8  -3    3.43    1.35 
   7  -8  -3    2.27    1.73 
  -7   8   3    4.46    1.26 
  -7   8   3    0.39    1.23 
   6  -8  -3   18.10    1.71 
   6  -8  -3   10.06    2.03 
   6  -8  -3   12.04    1.64 
   5  -8  -3   11.05    1.32 
   5  -8  -3    6.71    1.64 
   5  -8  -3    8.99    1.45 
   4  -8  -3   57.46    2.59 
   4  -8  -3   56.78    2.44 
   4  -8  -3   56.78    3.17 
   3  -8  -3   59.08    1.33 
   3  -8  -3   60.90    3.11 
   3  -8  -3   55.76    2.53 
   3  -8  -3   56.68    1.30 
  -3   8   3   53.39    2.38 
  -3   8   3   58.75    2.39 
  -3   8   3   55.86    2.04 
   2  -8  -3   49.22    1.24 
   2  -8  -3   51.99    1.24 
   2  -8  -3   49.47    1.43 
   2  -8  -3   50.88    1.41 
   2  -8  -3   51.05    2.34 
  -2   8   3   51.15    2.21 
  -2   8   3   49.45    1.79 
  -2   8   3   46.62    2.05 
   1  -8  -3  116.74    3.60 
   1  -8  -3  108.12    2.74 
   1  -8  -3  109.83    2.70 
   1  -8  -3  108.18    2.71 
  -1   8   3  106.61    3.29 
  -1   8   3  111.95    3.42 
  -1   8   3  112.91    2.87 
   0  -8  -3    3.97    0.73 
   0  -8  -3    4.73    0.79 
   0  -8  -3    3.47    1.12 
   0  -8  -3    4.35    0.73 
   0   8   3    3.31    1.07 
   0   8   3    4.98    1.13 
   0   8   3    4.88    0.66 
  -1  -8  -3    2.87    0.84 
  -1  -8  -3    1.90    1.15 
  -1  -8  -3    2.38    0.84 
   1   8   3    2.92    0.54 
   1   8   3    3.16    1.06 
   1   8   3    2.26    1.08 
  -2  -8  -3   17.22    1.55 
  -2  -8  -3   19.12    1.81 
  -2  -8  -3   18.13    1.39 
   2   8   3   16.43    1.57 
   2   8   3   19.73    1.67 
  -3  -8  -3   27.71    1.95 
  -3  -8  -3   30.96    1.91 
  -3  -8  -3   31.73    2.44 
   3   8   3   31.70    1.94 
   3   8   3   29.09    2.04 
  -4  -8  -3   13.68    1.90 
  -4  -8  -3   16.37    1.52 
  -4  -8  -3   16.91    1.60 
   4   8   3   13.62    1.78 
   4   8   3   16.26    1.51 
   4   8   3   14.16    1.69 
  -5  -8  -3   41.73    2.40 
  -5  -8  -3   37.15    2.60 
  -5  -8  -3   42.01    2.30 
   5   8   3   41.80    2.17 
   5   8   3   42.24    2.52 
  -6  -8  -3   22.64    2.56 
  -6  -8  -3   24.84    2.22 
  -6  -8  -3   24.14    2.10 
   6   8   3   22.92    2.18 
   7  -9  -3   -1.96    1.46 
   7  -9  -3   -0.50    1.21 
   6  -9  -3   19.85    1.89 
   6  -9  -3   16.00    2.31 
   6  -9  -3   17.14    1.83 
   5  -9  -3   48.22    3.44 
   5  -9  -3   49.07    2.47 
   5  -9  -3   47.74    2.69 
   4  -9  -3   10.44    1.73 
   4  -9  -3    8.62    1.32 
   4  -9  -3    9.37    1.33 
   3  -9  -3   57.71    2.65 
   3  -9  -3   59.14    1.38 
   3  -9  -3   59.32    1.35 
   3  -9  -3   61.43    3.19 
  -3   9   3   65.13    2.53 
  -3   9   3   55.12    2.58 
   2  -9  -3    6.52    1.29 
   2  -9  -3    8.29    0.66 
   2  -9  -3    8.28    0.64 
   2  -9  -3    5.52    1.23 
  -2   9   3   10.13    1.33 
  -2   9   3    8.19    1.35 
   1  -9  -3    0.22    1.07 
   1  -9  -3   -0.03    0.56 
   1  -9  -3    1.03    0.56 
   1  -9  -3    0.32    0.55 
  -1   9   3    0.79    0.84 
  -1   9   3    0.10    1.01 
   0  -9  -3   -0.47    1.06 
   0  -9  -3    1.22    0.68 
   0  -9  -3    0.86    0.68 
   0   9   3   -0.29    1.07 
   0   9   3    2.40    1.05 
  -1  -9  -3   35.17    2.40 
  -1  -9  -3   33.46    1.71 
  -1  -9  -3   36.21    1.72 
   1   9   3   33.40    2.08 
   1   9   3   34.19    2.07 
  -2  -9  -3   62.79    2.50 
  -2  -9  -3   67.93    3.19 
  -2  -9  -3   69.05    2.43 
   2   9   3   65.21    2.72 
   2   9   3   67.66    2.77 
  -3  -9  -3   36.36    2.03 
  -3  -9  -3   31.50    2.60 
  -3  -9  -3   34.12    1.94 
   3   9   3   34.05    2.24 
   3   9   3   37.60    2.14 
  -4  -9  -3   76.73    3.13 
  -4  -9  -3   72.06    3.67 
  -4  -9  -3   74.80    2.90 
   4   9   3   74.12    3.12 
   4   9   3   72.28    2.91 
  -5  -9  -3    6.31    1.42 
  -5  -9  -3    4.98    1.31 
  -5  -9  -3    4.34    1.92 
   5   9   3    6.65    1.35 
   5   9   3    6.47    1.62 
   5 -10  -3   22.07    2.06 
   5 -10  -3   20.85    2.93 
   5 -10  -3   23.69    2.22 
   4 -10  -3   14.16    1.63 
   4 -10  -3   16.13    2.32 
   4 -10  -3   13.45    1.57 
   3 -10  -3    0.00    0.25 
   3 -10  -3   -0.27    0.21 
   3 -10  -3   -0.28    1.15 
  -3  10   3    1.47    1.12 
  -3  10   3    0.80    1.23 
   2 -10  -3    2.72    1.24 
   2 -10  -3    3.25    0.56 
   2 -10  -3    2.54    0.55 
  -2  10   3    4.51    1.35 
  -2  10   3    2.88    1.15 
   1 -10  -3    8.25    0.76 
   1 -10  -3    7.27    1.46 
   1 -10  -3    8.26    0.86 
  -1  10   3    7.50    1.42 
  -1  10   3   11.01    1.48 
   0 -10  -3   61.84    2.15 
   0 -10  -3   62.03    2.08 
   0 -10  -3   61.90    3.21 
   0  10   3   57.36    2.57 
   0  10   3   55.86    2.71 
  -1 -10  -3   11.12    1.74 
  -1 -10  -3   12.20    1.22 
   1  10   3   13.37    1.53 
   1  10   3   11.83    1.58 
  -2 -10  -3   25.74    2.60 
  -2 -10  -3   30.08    1.89 
  -2 -10  -3   28.53    1.76 
   2  10   3   33.18    2.36 
   2  10   3   25.09    2.03 
  -3 -10  -3   10.49    1.37 
  -3 -10  -3   10.27    1.88 
  -3 -10  -3    6.66    1.21 
   3  10   3    9.95    1.61 
   3  10   3    7.96    1.46 
  -4 -10  -3   -0.16    1.11 
  -4 -10  -3    0.61    1.08 
  -4 -10  -3   -4.37    1.53 
   4  10   3    0.22    1.23 
   4  10   3   -0.07    1.30 
   3 -11  -3    8.40    1.54 
  -3  11   3    6.80    1.41 
  -3  11   3    7.63    1.34 
   2 -11  -3   38.49    2.68 
   2 -11  -3   39.11    1.38 
  -2  11   3   41.64    2.33 
  -2  11   3   34.40    2.43 
   1 -11  -3   46.69    2.90 
   1 -11  -3   45.80    1.78 
  -1  11   3   52.73    2.77 
  -1  11   3   49.04    2.50 
   0 -11  -3   18.56    1.47 
   0 -11  -3   17.21    2.01 
   0 -11  -3   16.43    1.31 
   0  11   3   19.00    1.79 
   0  11   3   20.24    1.92 
  -1 -11  -3   34.63    1.82 
  -1 -11  -3   29.41    2.73 
  -1 -11  -3   31.81    1.83 
   1  11   3   33.12    2.43 
   1  11   3   35.24    2.24 
  -2 -11  -3   -2.45    1.41 
  -2 -11  -3    0.07    0.97 
  -2 -11  -3    0.90    1.15 
   2  11   3    3.86    1.36 
   2  11   3    2.12    1.32 
   2  11  -4   18.09    1.78 
   2  11  -4   15.48    1.85 
  -2 -11   4   17.92    2.30 
  -2 -11   4   13.43    1.58 
  -2 -11   4   17.44    1.58 
   1  11  -4   23.89    1.97 
   1  11  -4   23.99    2.07 
  -1 -11   4   23.27    1.80 
  -1 -11   4   23.15    1.83 
  -1 -11   4   20.46    2.20 
   0  11  -4   27.55    2.18 
   0  11  -4   26.67    2.26 
   0 -11   4   25.38    1.75 
   0 -11   4   26.08    2.52 
   0 -11   4   27.07    1.72 
  -1  11  -4   70.78    3.10 
  -1  11  -4   72.21    2.97 
   1 -11   4   66.18    2.46 
   1 -11   4   67.84    2.38 
   1 -11   4   64.19    3.69 
  -2  11  -4   34.55    2.44 
  -2  11  -4   36.86    2.38 
   2 -11   4   32.99    1.73 
   2 -11   4   33.85    3.04 
  -3  11  -4    4.89    1.49 
  -3  11  -4    6.58    1.43 
   3 -11   4    5.54    0.99 
   3 -11   4    5.74    1.77 
   4  10  -4   -0.58    1.30 
  -4 -10   4    0.45    1.51 
  -4 -10   4   -0.18    1.18 
  -4 -10   4   -0.08    1.14 
   3  10  -4   33.37    2.07 
   3  10  -4   28.36    2.31 
  -3 -10   4   36.35    2.25 
  -3 -10   4   33.69    2.10 
  -3 -10   4   32.47    2.91 
   2  10  -4   36.19    2.19 
   2  10  -4   40.30    2.16 
  -2 -10   4   37.25    2.98 
  -2 -10   4   41.15    2.19 
  -2 -10   4   35.85    2.19 
   1  10  -4   22.73    1.84 
   1  10  -4   19.87    1.83 
  -1 -10   4   19.28    1.71 
  -1 -10   4   19.29    1.67 
  -1 -10   4   18.28    2.11 
   0  10  -4   27.25    2.03 
   0  10  -4   25.87    2.05 
   0 -10   4   25.91    1.65 
   0 -10   4   26.57    1.70 
   0 -10   4   28.69    2.69 
  -1  10  -4   -0.23    1.05 
  -1  10  -4    0.54    1.22 
   1 -10   4    1.52    1.44 
   1 -10   4    0.84    0.82 
   1 -10   4    0.70    0.79 
  -2  10  -4    0.58    1.10 
  -2  10  -4    0.56    1.18 
   2 -10   4    1.13    0.73 
   2 -10   4    0.55    1.36 
   2 -10   4   -0.08    0.76 
  -3  10  -4   11.68    1.38 
  -3  10  -4   13.09    1.61 
   3 -10   4    9.24    1.00 
   3 -10   4   10.57    1.81 
   3 -10   4   11.43    0.95 
  -4  10  -4   21.97    1.90 
  -4  10  -4   19.76    1.70 
   4 -10   4   22.79    2.18 
   4 -10   4   21.73    1.38 
  -5  10  -4   19.29    1.86 
   5 -10   4   19.52    1.31 
   5 -10   4   15.29    2.08 
   5 -10   4   13.84    2.38 
   6   9  -4    2.90    1.44 
  -6  -9   4    5.37    1.40 
  -6  -9   4    5.67    1.43 
  -6  -9   4    2.50    1.75 
   5   9  -4   32.56    2.05 
  -5  -9   4   30.10    2.12 
  -5  -9   4   28.15    2.22 
  -5  -9   4   29.72    2.84 
   4   9  -4   61.61    2.90 
  -4  -9   4   65.07    2.91 
  -4  -9   4   64.58    3.42 
  -4  -9   4   65.02    2.82 
   3   9  -4   18.38    1.78 
   3   9  -4   19.24    1.57 
  -3  -9   4   20.14    1.69 
  -3  -9   4   17.85    2.08 
  -3  -9   4   16.88    1.52 
   2   9  -4   77.89    2.87 
   2   9  -4   81.19    2.88 
  -2  -9   4   80.38    2.77 
  -2  -9   4   80.13    2.82 
  -2  -9   4   81.90    3.59 
   1   9  -4    6.91    1.07 
   1   9  -4    6.11    1.24 
  -1  -9   4    5.87    1.15 
  -1  -9   4    3.85    1.51 
  -1  -9   4    7.41    1.05 
   0   9  -4    4.11    1.13 
   0   9  -4    4.20    1.16 
   0  -9   4    2.78    0.94 
   0  -9   4    3.80    0.92 
   0  -9   4    1.96    1.10 
  -1   9  -4   -0.93    0.92 
  -1   9  -4    1.58    1.11 
   1  -9   4   -0.07    0.76 
   1  -9   4    1.43    1.28 
   1  -9   4    0.13    0.75 
  -2   9  -4   20.74    1.62 
  -2   9  -4   22.07    1.77 
   2  -9   4   17.75    2.38 
   2  -9   4   22.26    1.98 
   2  -9   4   23.21    1.37 
   2  -9   4   22.86    1.36 
  -3   9  -4   54.85    2.53 
  -3   9  -4   52.32    2.29 
   3  -9   4   48.45    3.25 
   3  -9   4   51.25    1.81 
   3  -9   4   51.10    1.91 
   3  -9   4   55.81    3.07 
  -4   9  -4   23.94    1.98 
  -4   9  -4   20.90    1.56 
   4  -9   4   24.35    2.45 
   4  -9   4   22.31    1.36 
   4  -9   4   21.46    1.20 
   4  -9   4   18.01    2.37 
  -5   9  -4   48.17    2.90 
  -5   9  -4   46.19    2.47 
   5  -9   4   46.26    3.62 
  -6   9  -4    3.60    1.28 
  -6   9  -4    2.66    1.54 
   6  -9   4    2.69    0.82 
   6  -9   4    1.27    1.84 
   7   8  -4   11.25    1.79 
   7   8  -4   16.17    1.79 
   7   8  -4   16.82    1.75 
  -7  -8   4   12.69    2.15 
  -7  -8   4   15.92    1.92 
   6   8  -4   62.31    3.11 
   6   8  -4   66.65    2.98 
   6   8  -4   67.25    2.95 
  -6  -8   4   64.12    3.01 
  -6  -8   4   64.65    2.89 
  -6  -8   4   64.67    3.52 
   5   8  -4   11.70    1.60 
   5   8  -4   12.82    1.57 
   5   8  -4    9.77    1.45 
  -5  -8   4   13.25    1.53 
  -5  -8   4   11.00    1.81 
  -5  -8   4   12.47    1.60 
   4   8  -4   46.44    2.29 
   4   8  -4   50.86    2.47 
   4   8  -4   45.84    2.03 
   4   8  -4   49.44    2.13 
  -4  -8   4   45.78    2.25 
  -4  -8   4   49.26    2.84 
  -4  -8   4   48.29    2.37 
   3   8  -4   21.59    1.42 
   3   8  -4   24.11    1.90 
   3   8  -4   20.83    1.71 
   3   8  -4   25.04    1.68 
  -3  -8   4   22.42    1.66 
  -3  -8   4   20.31    1.86 
  -3  -8   4   21.99    1.74 
   2   8  -4    1.24    0.95 
   2   8  -4    2.31    0.96 
   2   8  -4    0.87    0.65 
   2   8  -4    0.94    0.84 
  -2  -8   4    0.56    0.89 
  -2  -8   4    0.49    0.84 
  -2  -8   4   -0.21    0.92 
   1   8  -4   15.15    1.45 
   1   8  -4   13.84    0.94 
   1   8  -4   14.34    1.34 
   1   8  -4   13.88    1.20 
  -1  -8   4   12.53    1.64 
  -1  -8   4   12.97    1.21 
  -1  -8   4   14.14    1.26 
   0   8  -4   41.23    1.84 
   0   8  -4   44.14    1.39 
   0   8  -4   41.27    1.87 
   0   8  -4   43.35    1.66 
   0  -8   4   37.83    2.31 
   0  -8   4   43.27    2.56 
   0  -8   4   43.20    1.76 
   0  -8   4   41.29    1.81 
  -1   8  -4  108.08    3.23 
  -1   8  -4  106.15    3.34 
   1  -8   4  104.25    2.95 
   1  -8   4  106.15    2.97 
   1  -8   4  106.54    2.97 
   1  -8   4  109.37    3.88 
   1  -8   4  111.11    3.90 
  -2   8  -4   19.13    1.59 
  -2   8  -4   17.80    1.43 
   2  -8   4   18.69    1.26 
   2  -8   4   18.56    2.23 
   2  -8   4   20.58    1.80 
   2  -8   4   18.36    1.26 
   2  -8   4   18.75    1.22 
  -3   8  -4   81.11    2.54 
  -3   8  -4   76.91    2.83 
   3  -8   4   74.86    2.34 
   3  -8   4   76.52    3.33 
   3  -8   4   77.93    2.29 
   3  -8   4   75.04    3.78 
   3  -8   4   76.53    2.35 
  -4   8  -4   16.22    1.63 
  -4   8  -4   17.14    1.55 
  -4   8  -4   16.84    1.33 
   4  -8   4   16.38    1.16 
   4  -8   4   14.80    2.08 
  -5   8  -4   -0.42    1.36 
  -5   8  -4   -0.04    1.04 
   5  -8   4   -0.37    1.62 
   5  -8   4    0.30    0.72 
   5  -8   4    0.14    0.66 
  -6   8  -4    2.53    1.53 
  -6   8  -4    2.67    1.18 
   6  -8   4    4.21    0.91 
   6  -8   4    1.87    1.85 
  -7   8  -4   32.95    2.65 
  -7   8  -4   34.12    2.23 
   7  -8   4   31.26    1.76 
   7  -8   4   23.05    3.08 
   7   7  -4   78.52    3.51 
   7   7  -4   80.53    3.21 
   7   7  -4   81.38    3.35 
  -7  -7   4   73.29    3.73 
  -7  -7   4   82.41    3.40 
   6   7  -4   17.70    1.91 
   6   7  -4   20.43    1.85 
   6   7  -4   21.36    1.97 
  -6  -7   4   14.70    1.93 
  -6  -7   4   20.59    1.91 
  -6  -7   4   22.80    1.93 
   5   7  -4   21.94    1.82 
   5   7  -4   20.70    1.83 
   5   7  -4   23.95    1.91 
  -5  -7   4   22.14    1.79 
  -5  -7   4   24.18    1.93 
  -5  -7   4   20.77    2.00 
   4   7  -4   -0.36    0.91 
   4   7  -4    0.64    0.96 
   4   7  -4   -1.17    1.03 
   4   7  -4    0.82    0.84 
  -4  -7   4    1.07    1.15 
  -4  -7   4   -0.59    0.93 
  -4  -7   4    1.16    1.04 
   3   7  -4   33.71    1.52 
   3   7  -4   35.63    1.66 
   3   7  -4   30.40    1.91 
   3   7  -4   33.67    1.82 
  -3  -7   4   28.84    1.81 
  -3  -7   4   30.89    1.77 
  -3  -7   4   31.39    2.28 
   2   7  -4   16.15    1.36 
   2   7  -4   15.70    1.28 
   2   7  -4   13.44    1.37 
   2   7  -4   15.56    1.08 
  -2  -7   4   15.23    1.32 
  -2  -7   4   15.16    1.25 
  -2  -7   4   14.28    1.58 
  -2  -7   4   15.56    1.49 
   1   7  -4   72.68    2.15 
   1   7  -4   72.43    2.38 
   1   7  -4   72.99    2.53 
   1   7  -4   74.02    1.93 
   1   7  -4   70.93    2.20 
   1   7  -4   72.45    2.45 
  -1  -7   4   70.41    1.79 
  -1  -7   4   70.76    1.92 
  -1  -7   4   69.02    2.35 
  -1  -7   4   73.37    2.36 
  -1  -7   4   66.75    2.29 
  -1  -7   4   73.65    2.80 
  -1  -7   4   73.33    2.35 
   0   7  -4   94.98    2.83 
   0   7  -4   99.71    2.32 
   0   7  -4   97.33    2.69 
   0   7  -4   98.36    3.03 
   0   7  -4   96.54    2.98 
   0  -7   4   97.52    2.71 
   0  -7   4   99.86    3.44 
   0  -7   4   98.24    3.47 
   0  -7   4   92.28    2.76 
   0  -7   4   95.81    2.80 
   0  -7   4   99.03    2.80 
   0  -7   4   95.86    2.19 
  -1   7  -4   62.82    1.99 
  -1   7  -4   65.09    2.23 
  -1   7  -4   62.77    2.36 
  -1   7  -4   64.15    1.81 
   1  -7   4   66.42    2.11 
   1  -7   4   64.12    2.81 
   1  -7   4   61.18    1.99 
   1  -7   4   63.06    2.01 
   1  -7   4   66.08    2.95 
   1  -7   4   65.22    2.09 
  -2   7  -4   69.36    2.51 
  -2   7  -4   70.11    2.26 
  -2   7  -4   69.96    2.02 
   2  -7   4   69.26    2.13 
   2  -7   4   65.40    2.90 
   2  -7   4   66.46    1.57 
   2  -7   4   68.37    2.13 
   2  -7   4   69.92    3.26 
   2  -7   4   66.21    2.12 
  -3   7  -4    0.59    0.95 
  -3   7  -4    0.61    0.72 
  -3   7  -4   -1.62    1.08 
   3  -7   4   -0.14    1.16 
   3  -7   4   -0.38    0.61 
   3  -7   4   -0.80    0.42 
   3  -7   4   -0.75    0.64 
  -4   7  -4    0.93    1.23 
  -4   7  -4    0.81    0.77 
  -4   7  -4    2.12    0.98 
   4  -7   4    0.66    0.71 
   4  -7   4    1.21    0.72 
   4  -7   4   -1.06    0.88 
   4  -7   4    0.38    1.30 
  -5   7  -4   28.36    2.28 
  -5   7  -4   30.89    1.89 
   5  -7   4   29.01    1.59 
   5  -7   4   30.91    1.53 
   5  -7   4   31.16    3.05 
  -6   7  -4   23.28    2.12 
  -6   7  -4   22.47    1.74 
   6  -7   4   22.58    3.15 
   6  -7   4   21.12    1.48 
   6  -7   4   21.45    1.39 
  -7   7  -4   21.55    1.71 
  -7   7  -4   17.82    2.07 
   7  -7   4   17.37    2.77 
   7  -7   4   19.66    1.51 
   7  -7   4   22.17    1.58 
  -8   7  -4   21.26    1.96 
   8  -7   4   19.16    3.04 
   8  -7   4   22.29    1.67 
   8   6  -4   28.04    2.18 
   8   6  -4   26.89    2.49 
   8   6  -4   27.22    2.33 
  -8  -6   4   22.83    2.41 
  -8  -6   4   28.74    2.39 
   7   6  -4    8.59    1.47 
   7   6  -4   10.43    1.38 
   7   6  -4    7.40    1.59 
  -7  -6   4    9.64    1.60 
  -7  -6   4    8.18    1.75 
   6   6  -4    3.27    0.99 
   6   6  -4    2.58    1.38 
  -6  -6   4    3.31    1.41 
  -6  -6   4    3.84    1.17 
  -6  -6   4    1.61    1.19 
   5   6  -4    7.07    1.36 
   5   6  -4    9.47    1.33 
  -5  -6   4    8.63    1.47 
  -5  -6   4    7.91    1.30 
  -5  -6   4   10.80    1.18 
   4   6  -4   17.22    0.96 
   4   6  -4   16.12    1.14 
   4   6  -4   15.41    1.29 
   4   6  -4   16.43    1.35 
   4   6  -4   16.60    1.67 
   4   6  -4   17.73    1.38 
  -4  -6   4   20.55    1.93 
  -4  -6   4   15.37    1.36 
  -4  -6   4   18.32    1.65 
   3   6  -4   58.71    2.18 
   3   6  -4   62.98    1.83 
   3   6  -4   63.15    2.22 
   3   6  -4   62.39    2.15 
   3   6  -4   59.83    2.28 
   3   6  -4   58.08    2.01 
  -3  -6   4   62.86    2.34 
  -3  -6   4   59.89    2.23 
  -3  -6   4   60.14    2.18 
  -3  -6   4   58.00    2.62 
   2   6  -4  203.02    4.82 
   2   6  -4  202.06    4.95 
   2   6  -4  199.32    4.83 
   2   6  -4  204.70    4.69 
   2   6  -4  203.98    5.04 
   2   6  -4  202.38    4.52 
  -2  -6   4  206.32    5.31 
  -2  -6   4  207.51    4.94 
  -2  -6   4  210.43    5.30 
  -2  -6   4  204.39    4.89 
  -2  -6   4  204.42    5.00 
  -2  -6   4  206.92    4.65 
   1   6  -4   12.67    0.97 
   1   6  -4   12.52    1.11 
   1   6  -4   14.18    1.11 
   1   6  -4   13.20    0.78 
   1   6  -4   13.38    1.13 
   1   6  -4   12.91    1.12 
  -1  -6   4   14.11    1.19 
  -1  -6   4   11.91    1.30 
  -1  -6   4   11.44    0.74 
  -1  -6   4   13.49    1.13 
  -1  -6   4   13.33    1.07 
  -1  -6   4   12.73    1.12 
  -1  -6   4   12.89    1.36 
   0   6  -4   58.31    2.06 
   0   6  -4   58.43    1.96 
   0   6  -4   55.68    2.18 
   0   6  -4   58.04    1.80 
   0   6  -4   60.38    2.11 
   0   6  -4   58.77    1.48 
   0  -6   4   58.85    1.33 
   0  -6   4   61.14    2.36 
   0  -6   4   60.21    1.93 
   0  -6   4   59.86    2.65 
   0  -6   4   62.86    2.05 
   0  -6   4   61.18    1.90 
   0  -6   4   61.58    2.00 
  -1   6  -4    4.36    0.95 
  -1   6  -4    4.17    0.55 
  -1   6  -4    4.03    0.69 
  -1   6  -4    5.12    0.82 
  -1   6  -4    3.45    0.94 
   1  -6   4    4.90    0.77 
   1  -6   4    3.35    1.12 
   1  -6   4    4.70    0.76 
   1  -6   4    4.60    0.69 
   1  -6   4    4.87    0.73 
   1  -6   4    3.20    0.85 
  -2   6  -4   26.99    1.43 
  -2   6  -4   29.06    1.24 
  -2   6  -4   29.38    1.07 
  -2   6  -4   28.08    1.60 
  -2   6  -4   28.16    1.64 
   2  -6   4   28.00    2.31 
   2  -6   4   28.08    1.05 
   2  -6   4   26.48    1.33 
   2  -6   4   26.35    0.78 
   2  -6   4   27.19    1.35 
   2  -6   4   27.40    1.34 
  -3   6  -4    1.51    1.12 
  -3   6  -4    0.93    0.59 
  -3   6  -4    0.33    0.59 
  -3   6  -4    0.58    0.68 
   3  -6   4    0.34    0.65 
   3  -6   4    1.47    1.22 
   3  -6   4   -0.05    0.61 
   3  -6   4   -0.37    0.44 
   3  -6   4    1.20    0.55 
   3  -6   4    1.08    0.69 
  -4   6  -4   91.65    2.54 
  -4   6  -4   91.07    3.10 
  -4   6  -4   93.98    2.94 
  -4   6  -4  100.04    2.65 
   4  -6   4   92.26    2.56 
   4  -6   4   95.17    2.64 
   4  -6   4   90.84    2.66 
   4  -6   4   93.96    2.70 
   4  -6   4   94.43    4.20 
  -5   6  -4  116.52    3.93 
  -5   6  -4  121.78    3.55 
   5  -6   4  121.63    3.34 
   5  -6   4  119.33    3.25 
   5  -6   4  118.22    5.03 
   5  -6   4  121.62    3.21 
   5  -6   4  122.06    3.26 
  -6   6  -4   50.49    2.71 
  -6   6  -4   53.92    2.20 
   6  -6   4   52.20    2.30 
   6  -6   4   50.17    3.81 
   6  -6   4   53.18    2.05 
   6  -6   4   49.21    2.01 
  -7   6  -4   73.82    3.33 
  -7   6  -4   72.52    2.69 
   7  -6   4   72.58    2.95 
   7  -6   4   73.77    4.69 
   7  -6   4   76.48    2.56 
   7  -6   4   70.00    2.55 
  -8   6  -4    3.23    0.97 
  -8   6  -4    1.56    1.52 
   8  -6   4    0.10    1.86 
   8  -6   4    3.43    1.08 
   8  -6   4    1.58    0.98 
   9   5  -4   -3.93    1.64 
   9   5  -4    1.62    1.41 
  -9  -5   4   -2.02    1.51 
  -9  -5   4    0.29    1.34 
  -9  -5   4   -0.76    1.16 
   8   5  -4    7.38    1.53 
   8   5  -4    1.87    1.64 
  -8  -5   4    7.17    1.55 
  -8  -5   4    2.74    1.62 
  -8  -5   4    3.42    1.27 
   7   5  -4    5.88    1.35 
   7   5  -4    5.68    1.46 
  -7  -5   4    5.56    1.50 
  -7  -5   4    5.85    1.35 
   6   5  -4   63.85    2.50 
   6   5  -4   58.98    2.91 
   6   5  -4   62.30    2.68 
   6   5  -4   66.05    2.64 
  -6  -5   4   60.75    2.66 
  -6  -5   4   65.42    2.91 
  -6  -5   4   62.36    2.53 
   5   5  -4   72.95    2.03 
   5   5  -4   71.62    2.74 
   5   5  -4   71.60    2.52 
   5   5  -4   68.07    2.65 
  -5  -5   4   64.40    2.64 
  -5  -5   4   70.07    2.44 
  -5  -5   4   72.95    2.89 
   4   5  -4  128.17    3.63 
   4   5  -4  130.58    3.51 
   4   5  -4  123.10    3.54 
   4   5  -4  126.83    3.57 
   4   5  -4  125.70    3.12 
  -4  -5   4  128.76    3.65 
  -4  -5   4  127.26    3.54 
  -4  -5   4  124.28    2.63 
  -4  -5   4  122.66    3.81 
  -4  -5   4  127.78    3.51 
   3   5  -4  111.22    3.15 
   3   5  -4  110.05    2.99 
   3   5  -4  105.18    3.09 
   3   5  -4  109.78    2.82 
   3   5  -4  106.00    2.98 
  -3  -5   4  104.83    2.88 
  -3  -5   4  105.54    2.92 
  -3  -5   4  104.60    3.12 
  -3  -5   4  103.93    2.28 
  -3  -5   4  108.20    3.34 
  -3  -5   4  105.17    3.03 
   2   5  -4   49.32    1.87 
   2   5  -4   48.04    1.71 
   2   5  -4   51.47    1.65 
   2   5  -4   49.41    1.87 
   2   5  -4   53.05    1.77 
  -2  -5   4   45.97    1.80 
  -2  -5   4   48.14    1.57 
  -2  -5   4   48.44    1.77 
  -2  -5   4   52.45    2.18 
  -2  -5   4   48.54    1.88 
  -2  -5   4   49.43    1.83 
   1   5  -4   39.62    1.11 
   1   5  -4   38.09    1.70 
   1   5  -4   38.76    1.55 
   1   5  -4   37.76    1.64 
   1   5  -4   38.45    1.55 
   1   5  -4   37.67    1.42 
  -1  -5   4   39.78    1.55 
  -1  -5   4   38.55    1.59 
  -1  -5   4   38.53    1.14 
  -1  -5   4   41.18    1.88 
  -1  -5   4   37.07    1.52 
  -1  -5   4   37.66    1.90 
  -1  -5   4   40.30    1.51 
   0   5  -4   -0.51    0.65 
   0   5  -4    0.07    0.71 
   0   5  -4    0.48    0.57 
   0   5  -4    0.39    0.49 
   0   5  -4    0.09    0.55 
   0   5  -4    0.36    0.26 
   0  -5   4    1.32    0.60 
   0  -5   4    0.60    0.61 
   0  -5   4    0.71    0.60 
   0  -5   4   -0.21    0.60 
   0  -5   4   -0.05    0.61 
   0  -5   4    1.02    0.94 
  -1   5  -4   47.10    2.12 
  -1   5  -4   45.42    1.55 
  -1   5  -4   46.23    1.78 
  -1   5  -4   46.99    1.92 
  -1   5  -4   45.28    1.46 
  -1   5  -4   46.25    1.60 
   1  -5   4   44.49    2.37 
   1  -5   4   46.21    1.55 
   1  -5   4   43.54    1.59 
   1  -5   4   45.77    1.65 
  -2   5  -4   98.05    3.02 
  -2   5  -4  101.67    2.47 
  -2   5  -4   97.87    2.82 
  -2   5  -4  103.57    2.61 
  -2   5  -4   98.48    2.58 
   2  -5   4  101.27    2.18 
   2  -5   4   94.99    2.66 
   2  -5   4  102.76    2.64 
   2  -5   4   98.99    2.68 
   2  -5   4  102.31    3.65 
   2  -5   4   98.20    2.32 
  -3   5  -4  113.78    2.87 
  -3   5  -4  114.18    3.29 
  -3   5  -4  116.11    2.79 
  -3   5  -4  110.44    3.12 
   3  -5   4  111.70    4.19 
   3  -5   4  110.54    2.70 
   3  -5   4  115.93    2.98 
   3  -5   4  110.83    2.94 
   3  -5   4  112.87    3.00 
   3  -5   4  112.76    2.93 
   3  -5   4  113.03    2.71 
  -4   5  -4   30.71    1.61 
  -4   5  -4   31.74    1.20 
  -4   5  -4   32.88    1.99 
  -4   5  -4   28.00    1.17 
  -4   5  -4   29.58    1.38 
   4  -5   4   30.35    1.35 
   4  -5   4   30.52    2.70 
   4  -5   4   28.77    1.37 
   4  -5   4   29.70    1.37 
   4  -5   4   27.40    1.39 
   4  -5   4   28.28    1.39 
  -5   5  -4    9.16    1.26 
  -5   5  -4    6.48    1.03 
  -5   5  -4    8.68    0.96 
   5  -5   4    8.67    0.96 
   5  -5   4    8.75    1.85 
   5  -5   4   10.07    1.07 
   5  -5   4    8.21    1.03 
   5  -5   4    8.59    0.96 
  -6   5  -4    4.20    1.35 
  -6   5  -4    4.58    0.98 
   6  -5   4    3.16    0.81 
   6  -5   4    3.35    1.73 
   6  -5   4    3.48    1.01 
   6  -5   4    3.40    0.94 
  -7   5  -4   -0.55    1.27 
  -7   5  -4    1.56    0.88 
   7  -5   4    0.60    0.92 
   7  -5   4    0.90    0.78 
   7  -5   4   -1.59    1.67 
   7  -5   4    0.05    1.07 
  -8   5  -4    2.54    1.21 
  -8   5  -4    3.55    0.96 
   8  -5   4    1.89    1.03 
   8  -5   4    1.87    2.04 
   8  -5   4    1.38    1.35 
   8  -5   4    4.07    0.99 
   9   4  -4   -0.62    1.23 
   9   4  -4   -2.61    1.54 
  -9  -4   4    0.28    1.31 
  -9  -4   4    0.12    1.17 
  -9  -4   4   -1.84    1.37 
   8   4  -4   46.83    2.95 
   8   4  -4   52.74    3.32 
   8   4  -4   51.85    2.64 
   8   4  -4   48.89    2.43 
  -8  -4   4   47.70    2.57 
  -8  -4   4   47.71    2.33 
  -8  -4   4   44.04    2.77 
   7   4  -4   38.32    2.45 
   7   4  -4   39.09    2.09 
   7   4  -4   35.10    2.20 
   7   4  -4   34.99    2.62 
  -7  -4   4   34.75    2.38 
  -7  -4   4   39.73    2.02 
   6   4  -4   57.12    2.62 
   6   4  -4   54.75    2.44 
   6   4  -4   54.11    2.59 
   6   4  -4   55.07    2.30 
  -6  -4   4   54.25    2.42 
  -6  -4   4   55.13    2.58 
  -6  -4   4   51.00    2.25 
   5   4  -4  124.51    3.36 
   5   4  -4  114.71    2.77 
   5   4  -4  113.19    3.51 
   5   4  -4  119.06    3.61 
  -5  -4   4  123.08    3.58 
  -5  -4   4  117.02    3.71 
  -5  -4   4  122.29    3.45 
   4   4  -4   20.93    1.40 
   4   4  -4   20.97    1.51 
   4   4  -4   21.61    1.49 
   4   4  -4   21.67    1.02 
  -4  -4   4   21.09    1.30 
  -4  -4   4   20.92    1.59 
  -4  -4   4   22.63    1.40 
  -4  -4   4   21.64    0.76 
  -4  -4   4   22.95    1.45 
   3   4  -4    3.55    0.71 
   3   4  -4    3.64    0.62 
   3   4  -4    2.43    0.75 
   3   4  -4    3.81    0.77 
   3   4  -4    3.14    0.82 
  -3  -4   4    3.31    0.69 
  -3  -4   4    3.44    0.71 
  -3  -4   4    2.34    0.75 
  -3  -4   4    3.72    0.80 
  -3  -4   4    4.02    0.39 
  -3  -4   4    3.11    0.88 
   2   4  -4    6.27    0.88 
   2   4  -4    6.88    0.70 
   2   4  -4    5.60    0.95 
   2   4  -4    6.58    0.74 
   2   4  -4    7.81    0.82 
  -2  -4   4    7.35    0.85 
  -2  -4   4    8.06    0.76 
  -2  -4   4    6.61    0.92 
  -2  -4   4    7.62    0.88 
  -2  -4   4    7.60    0.74 
  -2  -4   4    7.55    0.92 
   1   4  -4  139.07    2.93 
   1   4  -4  137.03    3.35 
   1   4  -4  135.85    3.32 
   1   4  -4  139.77    3.04 
   1   4  -4  141.31    3.73 
   1   4  -4  136.84    3.43 
  -1  -4   4  141.70    3.67 
  -1  -4   4  138.51    3.01 
  -1  -4   4  144.01    3.42 
  -1  -4   4  136.64    3.81 
  -1  -4   4  136.27    3.36 
  -1  -4   4  136.76    3.37 
  -1  -4   4  142.37    3.44 
  -1  -4   4  134.60    3.44 
   0   4  -4   25.17    1.26 
   0   4  -4   22.91    1.05 
   0   4  -4   21.82    1.15 
   0  -4   4   21.46    1.16 
   0  -4   4   22.52    1.21 
   0  -4   4   23.05    1.17 
   0  -4   4   21.70    1.14 
   0  -4   4   26.83    1.97 
   0  -4   4   22.33    1.44 
   0  -4   4   21.48    1.09 
  -1   4  -4  215.46    5.56 
  -1   4  -4  218.83    4.78 
  -1   4  -4  217.98    4.87 
  -1   4  -4  215.81    5.01 
  -1   4  -4  212.38    4.74 
  -1   4  -4  214.38    4.94 
   1  -4   4  212.08    4.85 
   1  -4   4  210.34    4.88 
   1  -4   4  224.05    4.85 
   1  -4   4  218.89    5.71 
   1  -4   4  216.24    4.40 
  -2   4  -4  138.92    3.61 
  -2   4  -4  145.78    3.80 
  -2   4  -4  144.03    3.34 
  -2   4  -4  149.86    3.40 
  -2   4  -4  146.48    3.54 
   2  -4   4  149.88    4.56 
   2  -4   4  145.67    3.54 
   2  -4   4  149.43    3.61 
   2  -4   4  147.16    3.18 
   2  -4   4  147.45    3.15 
   2  -4   4  145.75    3.54 
   2  -4   4  151.01    3.54 
  -3   4  -4  103.35    2.75 
  -3   4  -4   97.43    3.04 
  -3   4  -4  105.23    2.60 
  -3   4  -4  102.62    2.53 
  -3   4  -4  101.75    2.83 
  -3   4  -4  105.07    2.44 
   3  -4   4  101.67    2.70 
   3  -4   4  100.18    2.70 
   3  -4   4   98.52    3.88 
   3  -4   4  105.33    2.75 
   3  -4   4  105.36    2.57 
   3  -4   4  108.01    2.79 
  -4   4  -4  145.70    3.49 
  -4   4  -4  146.11    3.68 
  -4   4  -4  143.49    3.71 
  -4   4  -4  146.51    3.61 
  -4   4  -4  143.78    4.05 
   4  -4   4  152.45    5.19 
   4  -4   4  144.47    3.60 
   4  -4   4  147.67    3.62 
   4  -4   4  155.06    3.69 
   4  -4   4  141.34    3.59 
   4  -4   4  145.16    3.69 
  -5   4  -4    2.04    0.83 
  -5   4  -4    1.64    0.91 
  -5   4  -4    1.64    0.80 
   5  -4   4    3.07    0.74 
   5  -4   4    2.09    0.79 
   5  -4   4    2.98    0.87 
   5  -4   4    2.41    0.86 
   5  -4   4    0.79    0.74 
   5  -4   4    2.18    1.53 
  -6   4  -4   12.38    1.57 
  -6   4  -4   10.82    1.10 
  -6   4  -4   13.05    1.20 
   6  -4   4   11.75    2.07 
   6  -4   4   12.33    1.17 
   6  -4   4   12.02    1.15 
   6  -4   4   13.20    1.29 
  -7   4  -4   10.52    1.15 
  -7   4  -4   11.87    1.67 
   7  -4   4   10.27    1.15 
   7  -4   4    8.32    1.34 
   7  -4   4    9.84    1.25 
   7  -4   4    9.50    2.19 
  -8   4  -4  100.18    3.23 
  -8   4  -4   96.12    3.58 
   8  -4   4   91.43    3.24 
   8  -4   4   96.54    3.80 
   8  -4   4   97.36    5.34 
   8  -4   4   95.30    3.17 
  -9   4  -4    7.49    1.78 
   9  -4   4    6.13    1.33 
   9  -4   4    6.14    2.44 
   9  -4   4    6.02    1.25 
   9  -4   4    4.36    1.58 
   9   3  -4   53.82    2.77 
   9   3  -4   52.77    3.48 
   9   3  -4   53.85    2.61 
   9   3  -4   46.64    3.16 
  -9  -3   4   49.01    2.45 
  -9  -3   4   50.00    2.93 
  -9  -3   4   53.23    2.75 
   8   3  -4   41.91    2.81 
   8   3  -4   40.79    2.36 
   8   3  -4   39.56    2.75 
   8   3  -4   39.92    2.20 
  -8  -3   4   38.41    2.51 
  -8  -3   4   40.11    2.11 
  -8  -3   4   40.66    2.31 
   7   3  -4   83.97    3.37 
   7   3  -4   88.59    3.09 
   7   3  -4   82.36    2.77 
   7   3  -4   82.92    3.52 
  -7  -3   4   80.02    3.01 
  -7  -3   4   84.38    3.19 
  -7  -3   4   80.81    2.79 
   6   3  -4   53.98    2.29 
   6   3  -4   51.67    1.98 
   6   3  -4   52.44    2.51 
   6   3  -4   48.39    2.13 
   6   3  -4   48.08    1.52 
  -6  -3   4   50.46    2.25 
  -6  -3   4   52.21    2.38 
  -6  -3   4   48.24    2.10 
   5   3  -4    1.55    0.38 
   5   3  -4    0.64    0.91 
   5   3  -4   -0.51    0.78 
   5   3  -4    3.07    0.89 
   5   3  -4    1.66    0.73 
  -5  -3   4    1.15    0.81 
  -5  -3   4    1.65    0.47 
  -5  -3   4    1.99    0.92 
  -5  -3   4    1.72    0.95 
   4   3  -4   10.81    0.71 
   4   3  -4    9.38    1.03 
   4   3  -4   10.50    0.92 
   4   3  -4    9.75    0.99 
   4   3  -4    9.81    1.08 
  -4  -3   4   12.27    1.04 
  -4  -3   4   10.29    1.02 
  -4  -3   4    8.55    1.05 
  -4  -3   4   10.71    0.64 
  -4  -3   4    8.54    1.02 
   3   3  -4  107.03    2.92 
   3   3  -4  112.86    2.93 
   3   3  -4  108.01    2.84 
   3   3  -4  112.96    2.63 
   3   3  -4  108.26    2.91 
   3   3  -4  110.57    3.03 
  -3  -3   4  108.37    2.94 
  -3  -3   4  114.62    2.94 
  -3  -3   4  112.16    2.96 
  -3  -3   4  111.40    3.06 
  -3  -3   4  109.17    2.48 
  -3  -3   4  111.60    2.90 
   2   3  -4  140.79    3.34 
   2   3  -4  133.84    3.34 
   2   3  -4  139.22    3.32 
   2   3  -4  135.01    3.14 
   2   3  -4  138.19    3.78 
   2   3  -4  138.14    3.22 
   2   3  -4  134.21    3.35 
  -2  -3   4  135.45    3.16 
  -2  -3   4  134.99    3.43 
  -2  -3   4  132.53    3.28 
  -2  -3   4  135.39    3.32 
  -2  -3   4  126.95    3.32 
  -2  -3   4  135.85    3.38 
   1   3  -4   95.69    2.45 
   1   3  -4   97.95    2.20 
   1   3  -4   91.28    2.55 
   1   3  -4   92.27    2.46 
   1   3  -4   90.76    2.46 
   1   3  -4   99.42    3.05 
  -1  -3   4   97.58    2.56 
  -1  -3   4   96.10    2.46 
  -1  -3   4   97.03    3.07 
  -1  -3   4   96.03    2.17 
  -1  -3   4   95.22    2.63 
  -1  -3   4   98.43    2.51 
  -1  -3   4   96.40    2.51 
   0   3  -4  284.05    6.24 
   0   3  -4  297.93    6.23 
   0   3  -4  301.50    6.30 
   0   3  -4  285.34    6.19 
   0   3  -4  290.11    6.22 
   0   3  -4  276.78    6.25 
   0  -3   4  290.87    6.22 
   0  -3   4  301.40    7.01 
   0  -3   4  285.76    6.30 
   0  -3   4  278.08    6.26 
  -1   3  -4   68.12    2.06 
  -1   3  -4   65.45    1.90 
  -1   3  -4   65.69    1.90 
  -1   3  -4   71.94    2.04 
  -1   3  -4   69.39    2.63 
  -1   3  -4   69.59    2.01 
  -1   3  -4   69.04    2.08 
   1  -3   4   71.42    2.05 
   1  -3   4   69.00    2.01 
   1  -3   4   72.37    2.07 
   1  -3   4   69.13    1.49 
   1  -3   4   71.46    2.81 
   1  -3   4   70.65    2.01 
   1  -3   4   71.60    1.98 
  -2   3  -4   -0.10    0.39 
  -2   3  -4    0.28    0.67 
  -2   3  -4    0.38    0.34 
  -2   3  -4   -0.36    0.66 
  -2   3  -4    0.15    0.58 
  -2   3  -4   -0.14    0.71 
   2  -3   4    0.92    0.40 
   2  -3   4    0.25    0.66 
   2  -3   4    0.29    0.63 
   2  -3   4    0.00    0.57 
   2  -3   4    0.24    0.99 
   2  -3   4    0.24    0.60 
  -3   3  -4    1.45    0.55 
  -3   3  -4    0.58    0.71 
  -3   3  -4    0.08    0.44 
  -3   3  -4    0.62    0.33 
  -3   3  -4    0.38    0.82 
  -3   3  -4    0.44    0.70 
   3  -3   4    1.41    1.15 
   3  -3   4    0.83    0.66 
   3  -3   4    0.45    0.57 
   3  -3   4    0.35    0.56 
   3  -3   4    1.48    0.57 
   3  -3   4    0.62    0.67 
  -4   3  -4   68.27    2.02 
  -4   3  -4   69.72    2.15 
  -4   3  -4   64.44    2.11 
  -4   3  -4   69.38    2.47 
  -4   3  -4   66.46    2.19 
   4  -3   4   68.82    2.16 
   4  -3   4   69.07    2.09 
   4  -3   4   70.88    2.16 
   4  -3   4   65.41    2.06 
   4  -3   4   66.77    3.14 
   4  -3   4   68.11    2.09 
  -5   3  -4   75.03    2.78 
  -5   3  -4   74.66    2.31 
  -5   3  -4   74.74    2.40 
  -5   3  -4   74.61    2.33 
   5  -3   4   75.45    2.36 
   5  -3   4   76.40    2.34 
   5  -3   4   77.28    3.85 
   5  -3   4   81.64    2.68 
   5  -3   4   77.08    2.44 
   5  -3   4   79.49    2.38 
  -6   3  -4   58.54    2.17 
  -6   3  -4   59.19    2.19 
  -6   3  -4   58.40    2.08 
  -6   3  -4   53.95    2.36 
   6  -3   4   58.14    2.13 
   6  -3   4   59.50    2.23 
   6  -3   4   58.91    2.47 
   6  -3   4   57.44    3.75 
  -7   3  -4   75.47    3.11 
  -7   3  -4   72.98    2.60 
  -7   3  -4   71.43    2.36 
   7  -3   4   73.16    3.00 
   7  -3   4   76.55    2.59 
   7  -3   4   76.03    4.44 
   7  -3   4   72.33    2.64 
  -8   3  -4   49.43    2.55 
  -8   3  -4   51.86    2.30 
   8  -3   4   47.66    2.75 
   8  -3   4   50.07    2.25 
   8  -3   4   51.83    4.15 
   8  -3   4   53.52    2.50 
  -9   3  -4   17.91    2.09 
  -9   3  -4   17.81    1.66 
   9  -3   4   17.97    1.69 
   9  -3   4   16.53    2.58 
   9  -3   4   18.98    1.71 
   9  -3   4   15.91    1.99 
  10   2  -4   34.56    3.31 
  10   2  -4   37.21    2.41 
  10   2  -4   29.22    2.71 
  10   2  -4   35.69    2.94 
 -10  -2   4   35.04    2.67 
 -10  -2   4   41.31    2.34 
   9   2  -4   48.22    3.13 
   9   2  -4   50.36    2.62 
   9   2  -4   48.96    3.62 
   9   2  -4   50.66    2.51 
  -9  -2   4   54.05    2.47 
  -9  -2   4   51.44    2.90 
  -9  -2   4   50.03    2.57 
   8   2  -4   30.33    2.64 
   8   2  -4   29.82    2.04 
   8   2  -4   30.39    2.52 
   8   2  -4   31.09    1.96 
  -8  -2   4   30.97    1.93 
  -8  -2   4   31.64    2.23 
  -8  -2   4   32.38    2.06 
   7   2  -4    2.04    1.16 
   7   2  -4    3.19    1.28 
   7   2  -4    4.25    1.12 
   7   2  -4    2.36    1.01 
  -7  -2   4    2.60    1.14 
  -7  -2   4    2.63    1.07 
  -7  -2   4    2.40    1.03 
   6   2  -4    5.73    1.09 
   6   2  -4    8.21    1.06 
   6   2  -4    7.25    1.29 
   6   2  -4    6.60    0.91 
  -6  -2   4    8.15    0.79 
  -6  -2   4    6.28    1.22 
  -6  -2   4    8.28    1.04 
  -6  -2   4    8.62    1.19 
   5   2  -4    3.37    0.99 
   5   2  -4    5.25    0.82 
   5   2  -4    2.87    0.56 
   5   2  -4    4.51    0.86 
   5   2  -4    5.20    0.91 
  -5  -2   4    3.53    0.56 
  -5  -2   4    3.41    0.87 
  -5  -2   4    3.37    0.91 
  -5  -2   4    3.22    0.84 
   4   2  -4  141.10    3.55 
   4   2  -4  146.21    3.80 
   4   2  -4  148.72    3.72 
   4   2  -4  148.92    3.56 
   4   2  -4  142.02    3.09 
   4   2  -4  139.32    3.54 
  -4  -2   4  141.60    3.70 
  -4  -2   4  140.85    3.21 
  -4  -2   4  149.86    3.60 
  -4  -2   4  139.67    3.60 
  -4  -2   4  142.10    3.60 
   3   2  -4  145.01    3.51 
   3   2  -4  138.35    3.59 
   3   2  -4  141.87    3.61 
   3   2  -4  149.79    3.59 
   3   2  -4  146.16    3.65 
   3   2  -4  146.37    3.22 
   3   2  -4  146.08    3.55 
  -3  -2   4  146.02    3.58 
  -3  -2   4  149.35    3.58 
  -3  -2   4  143.67    3.59 
  -3  -2   4  149.11    3.57 
  -3  -2   4  145.41    3.23 
  -3  -2   4  156.02    3.58 
   2   2  -4  225.06    5.03 
   2   2  -4  225.47    5.02 
   2   2  -4  226.62    4.99 
   2   2  -4  221.30    5.44 
   2   2  -4  220.95    4.91 
   2   2  -4  221.02    4.91 
   2   2  -4  224.26    4.78 
   2   2  -4  222.88    4.93 
  -2  -2   4  215.73    4.99 
  -2  -2   4  219.47    4.94 
  -2  -2   4  227.70    4.97 
  -2  -2   4  232.23    4.73 
  -2  -2   4  220.49    5.02 
  -2  -2   4  223.73    4.97 
  -2  -2   4  222.00    4.89 
   1   2  -4  159.21    4.18 
   1   2  -4  149.62    3.16 
   1   2  -4  151.13    3.35 
   1   2  -4  154.48    3.56 
   1   2  -4  149.46    3.57 
   1   2  -4  157.48    3.57 
   1   2  -4  147.90    3.53 
  -1  -2   4  154.72    3.37 
  -1  -2   4  145.19    3.53 
  -1  -2   4  162.30    3.67 
  -1  -2   4  161.05    3.63 
  -1  -2   4  151.24    3.55 
  -1  -2   4  150.28    4.12 
  -1  -2   4  152.00    3.57 
   0   2  -4   -0.03    0.48 
   0   2  -4    0.74    0.46 
   0   2  -4    0.09    0.54 
   0   2  -4   -0.01    0.26 
   0   2  -4   -0.44    0.70 
   0   2  -4   -0.53    0.43 
   0  -2   4    0.51    0.46 
   0  -2   4    0.76    0.63 
   0  -2   4    0.33    0.63 
   0  -2   4    0.20    0.67 
   0  -2   4    0.79    0.60 
   0  -2   4    1.35    1.02 
  -1   2  -4   50.14    1.60 
  -1   2  -4   46.37    1.56 
  -1   2  -4   49.69    2.24 
  -1   2  -4   50.93    1.31 
  -1   2  -4   49.17    1.57 
  -1   2  -4   46.38    1.54 
   1  -2   4   53.65    2.46 
   1  -2   4   49.49    1.64 
   1  -2   4   50.96    1.63 
   1  -2   4   54.46    1.62 
   1  -2   4   48.23    1.65 
  -2   2  -4   54.07    1.67 
  -2   2  -4   51.84    1.28 
  -2   2  -4   52.43    1.78 
  -2   2  -4   52.79    1.68 
  -2   2  -4   53.54    1.55 
  -2   2  -4   51.66    1.69 
  -2   2  -4   52.12    2.41 
  -2   2  -4   49.52    1.65 
   2  -2   4   53.24    1.72 
   2  -2   4   51.19    1.69 
   2  -2   4   55.33    2.68 
   2  -2   4   56.17    1.79 
   2  -2   4   53.95    1.58 
   2  -2   4   50.33    1.66 
   2  -2   4   53.69    1.70 
   2  -2   4   52.38    1.56 
  -3   2  -4   43.11    1.59 
  -3   2  -4   43.65    1.62 
  -3   2  -4   42.44    1.50 
   3  -2   4   41.30    1.40 
   3  -2   4   41.19    1.56 
   3  -2   4   40.89    1.51 
   3  -2   4   42.94    1.58 
   3  -2   4   42.45    1.52 
   3  -2   4   41.35    1.59 
   3  -2   4   42.10    2.58 
  -4   2  -4   63.00    1.96 
  -4   2  -4   63.10    2.16 
  -4   2  -4   59.59    2.03 
  -4   2  -4   62.74    2.07 
   4  -2   4   59.52    1.97 
   4  -2   4   64.42    2.99 
   4  -2   4   63.88    2.01 
   4  -2   4   60.99    2.01 
   4  -2   4   63.47    2.13 
   4  -2   4   64.08    2.08 
  -5   2  -4  177.74    4.30 
  -5   2  -4  176.45    4.35 
  -5   2  -4  179.86    4.53 
  -5   2  -4  176.68    4.31 
  -5   2  -4  180.32    4.77 
   5  -2   4  188.45    4.50 
   5  -2   4  186.48    4.69 
   5  -2   4  184.66    5.99 
   5  -2   4  178.33    4.50 
   5  -2   4  189.40    4.46 
   5  -2   4  177.51    4.42 
  -6   2  -4   31.86    1.81 
  -6   2  -4   30.13    1.44 
  -6   2  -4   31.68    1.72 
  -6   2  -4   34.54    1.60 
   6  -2   4   29.56    1.73 
   6  -2   4   33.84    2.05 
   6  -2   4   33.56    1.70 
   6  -2   4   32.05    3.06 
  -7   2  -4    9.09    0.98 
  -7   2  -4    8.29    1.10 
  -7   2  -4    9.09    1.55 
  -7   2  -4    7.87    1.16 
   7  -2   4    7.45    1.38 
   7  -2   4    7.69    2.02 
   7  -2   4    8.59    1.17 
   7  -2   4    9.16    1.31 
  -8   2  -4   12.25    1.57 
  -8   2  -4    9.24    1.23 
   8  -2   4   10.45    1.40 
   8  -2   4    8.44    2.20 
   8  -2   4    8.72    1.71 
   8  -2   4   10.80    1.32 
  -9   2  -4   19.65    1.63 
  -9   2  -4   22.30    2.05 
   9  -2   4   23.11    1.91 
   9  -2   4   19.33    1.77 
   9  -2   4   18.56    2.11 
   9  -2   4   13.54    2.69 
  10   1  -4   14.36    2.22 
  10   1  -4   24.35    2.02 
  10   1  -4   17.69    1.86 
  10   1  -4   15.19    2.51 
 -10  -1   4   20.36    1.64 
 -10  -1   4   15.86    1.98 
   9   1  -4   15.75    1.67 
   9   1  -4   13.46    1.94 
   9   1  -4   14.25    1.49 
   9   1  -4   13.44    2.13 
  -9  -1   4   15.85    1.63 
  -9  -1   4   12.97    1.68 
  -9  -1   4   15.52    1.55 
   8   1  -4    9.22    1.28 
   8   1  -4    6.96    1.66 
   8   1  -4    6.08    1.57 
   8   1  -4   10.00    1.28 
  -8  -1   4    8.22    1.25 
  -8  -1   4    8.29    1.23 
   7   1  -4   14.84    1.33 
   7   1  -4   14.47    1.38 
   7   1  -4   15.23    1.69 
  -7  -1   4   13.25    1.21 
  -7  -1   4   14.34    1.46 
  -7  -1   4   15.83    1.25 
   6   1  -4  140.08    4.09 
   6   1  -4  147.02    3.87 
   6   1  -4  131.26    3.71 
   6   1  -4  134.70    3.69 
  -6  -1   4  145.40    3.96 
  -6  -1   4  141.73    3.75 
  -6  -1   4  139.74    3.40 
  -6  -1   4  147.07    3.86 
  -6  -1   4  143.29    3.70 
   5   1  -4  193.57    5.01 
   5   1  -4  194.79    4.71 
   5   1  -4  195.35    4.65 
   5   1  -4  197.63    4.64 
  -5  -1   4  206.54    4.66 
  -5  -1   4  189.07    4.72 
  -5  -1   4  191.86    4.37 
  -5  -1   4  194.33    4.69 
   4   1  -4  105.23    2.88 
   4   1  -4  109.46    2.83 
   4   1  -4  108.48    3.08 
   4   1  -4  105.44    2.28 
   4   1  -4  107.72    2.81 
   4   1  -4  108.67    2.88 
   4   1  -4  103.88    2.68 
   4   1  -4  107.34    2.55 
  -4  -1   4  102.74    2.77 
  -4  -1   4  107.28    2.97 
  -4  -1   4  105.52    2.76 
  -4  -1   4  103.33    2.53 
  -4  -1   4  102.62    2.87 
   3   1  -4  220.77    5.11 
   3   1  -4  222.99    4.81 
   3   1  -4  220.77    5.00 
   3   1  -4  223.28    4.99 
   3   1  -4  211.47    4.92 
   3   1  -4  218.37    4.95 
  -3  -1   4  226.27    4.92 
  -3  -1   4  220.73    4.84 
  -3  -1   4  219.62    5.04 
  -3  -1   4  223.43    4.96 
  -3  -1   4  215.16    5.00 
  -3  -1   4  225.45    4.93 
  -3  -1   4  224.45    4.73 
   2   1  -4    0.06    0.38 
   2   1  -4    0.03    0.48 
   2   1  -4   -0.01    0.62 
   2   1  -4    0.56    0.52 
   2   1  -4    0.59    0.59 
   2   1  -4    0.62    0.59 
  -2  -1   4    0.31    0.43 
  -2  -1   4    0.57    0.48 
  -2  -1   4    0.30    0.45 
  -2  -1   4    0.69    0.50 
  -2  -1   4    0.66    0.63 
  -2  -1   4    0.34    0.58 
   1   1  -4   36.26    0.99 
   1   1  -4   36.22    1.23 
   1   1  -4   36.85    1.38 
   1   1  -4   37.97    1.38 
   1   1  -4   34.72    1.43 
   1   1  -4   37.13    1.33 
   1   1  -4   34.17    1.83 
  -1  -1   4   37.61    1.23 
  -1  -1   4   34.42    1.36 
  -1  -1   4   37.93    1.43 
  -1  -1   4   35.48    1.17 
  -1  -1   4   37.94    1.24 
  -1  -1   4   35.54    0.98 
   0   1  -4   62.11    1.80 
   0   1  -4   63.99    1.75 
   0   1  -4   65.89    1.90 
   0   1  -4   61.77    1.60 
   0   1  -4   60.53    1.82 
   0  -1   4   62.40    1.45 
   0  -1   4   59.85    1.78 
   0  -1   4   63.45    1.76 
   0  -1   4   65.70    2.64 
   0  -1   4   62.49    1.83 
   0  -1   4   62.78    1.58 
   0  -1   4   61.22    1.90 
  -1   1  -4   63.09    1.99 
  -1   1  -4   66.06    1.75 
  -1   1  -4   61.64    1.90 
  -1   1  -4   66.00    1.81 
  -1   1  -4   63.75    1.81 
  -1   1  -4   64.48    1.85 
   1  -1   4   70.17    2.78 
   1  -1   4   67.93    1.98 
   1  -1   4   67.54    2.02 
   1  -1   4   67.82    1.91 
   1  -1   4   62.90    1.81 
  -2   1  -4  249.06    5.49 
  -2   1  -4  254.84    5.46 
  -2   1  -4  250.66    5.56 
  -2   1  -4  246.56    5.44 
  -2   1  -4  241.01    5.51 
   2  -1   4  253.36    5.45 
   2  -1   4  252.49    5.52 
   2  -1   4  243.39    5.45 
   2  -1   4  255.04    5.28 
   2  -1   4  257.19    6.48 
   2  -1   4  243.20    5.44 
   2  -1   4  246.58    5.53 
  -3   1  -4  169.61    4.05 
  -3   1  -4  162.67    3.91 
  -3   1  -4  162.87    3.96 
  -3   1  -4  167.97    4.13 
  -3   1  -4  171.20    4.02 
   3  -1   4  170.40    3.99 
   3  -1   4  171.63    3.77 
   3  -1   4  172.09    5.09 
   3  -1   4  176.40    4.13 
   3  -1   4  166.87    3.93 
   3  -1   4  166.98    4.06 
   3  -1   4  167.52    4.02 
  -4   1  -4  160.92    4.04 
  -4   1  -4  160.11    4.19 
  -4   1  -4  158.59    3.94 
  -4   1  -4  164.11    3.78 
   4  -1   4  175.06    3.95 
   4  -1   4  163.72    4.02 
   4  -1   4  164.41    5.22 
   4  -1   4  165.81    3.98 
   4  -1   4  159.03    3.96 
   4  -1   4  154.72    4.02 
   4  -1   4  165.78    4.15 
  -5   1  -4    6.55    0.80 
  -5   1  -4    7.27    0.92 
  -5   1  -4    6.55    1.20 
  -5   1  -4    6.78    0.99 
   5  -1   4    6.66    0.99 
   5  -1   4    8.35    0.96 
   5  -1   4    6.62    0.82 
   5  -1   4    6.43    1.37 
   5  -1   4    6.96    1.10 
  -6   1  -4   16.58    1.40 
  -6   1  -4   16.92    1.24 
  -6   1  -4   17.47    1.47 
  -6   1  -4   17.84    1.50 
   6  -1   4   17.82    1.44 
   6  -1   4   17.14    1.55 
   6  -1   4   16.45    1.51 
   6  -1   4   13.93    2.08 
  -7   1  -4   10.11    1.35 
  -7   1  -4   10.37    1.10 
  -7   1  -4    9.83    1.01 
  -7   1  -4   11.21    1.35 
   7  -1   4    9.88    1.52 
   7  -1   4   10.63    1.31 
   7  -1   4    8.91    2.04 
   7  -1   4   10.28    1.25 
  -8   1  -4   15.60    1.43 
  -8   1  -4   16.52    1.69 
  -8   1  -4   18.13    1.63 
   8  -1   4   15.09    2.45 
   8  -1   4   15.78    1.52 
   8  -1   4   16.98    1.87 
   8  -1   4   15.80    1.61 
  -9   1  -4   28.08    2.59 
  -9   1  -4   28.43    1.86 
   9  -1   4   34.54    2.25 
   9  -1   4   30.56    2.72 
   9  -1   4   32.72    2.15 
   9  -1   4   30.01    3.71 
  10   0  -4   -0.59    1.59 
  10   0  -4    1.43    1.72 
  10   0  -4    1.83    1.15 
  10   0  -4    1.25    1.21 
 -10   0   4    1.89    1.23 
 -10   0   4   -0.82    1.30 
   9   0  -4   16.91    2.39 
   9   0  -4   21.55    1.76 
   9   0  -4   19.00    1.67 
   9   0  -4   17.51    1.90 
  -9   0   4   21.81    1.88 
  -9   0   4   20.76    1.72 
   8   0  -4   13.58    1.79 
   8   0  -4   14.96    2.08 
   8   0  -4   13.09    1.38 
   8   0  -4   13.48    1.32 
  -8   0   4   12.97    1.38 
  -8   0   4   12.86    1.50 
  -8   0   4   13.36    1.44 
   7   0  -4  122.99    3.44 
   7   0  -4  119.23    4.04 
   7   0  -4  120.75    3.51 
  -7   0   4  117.88    3.45 
  -7   0   4  126.24    3.53 
  -7   0   4  116.53    3.45 
   6   0  -4    5.99    0.87 
   6   0  -4    6.07    1.09 
   6   0  -4    4.42    0.87 
   6   0  -4    5.22    0.94 
   6   0  -4    6.18    1.20 
  -6   0   4    6.24    0.84 
  -6   0   4    4.85    0.91 
  -6   0   4    6.70    1.02 
  -6   0   4    4.82    0.90 
  -6   0   4    4.49    0.76 
   5   0  -4  111.22    3.30 
   5   0  -4  115.78    3.04 
   5   0  -4  109.55    3.04 
   5   0  -4  109.82    2.96 
   5   0  -4  115.01    2.94 
   5   0  -4  113.82    2.99 
  -5   0   4  112.67    2.91 
  -5   0   4  113.84    3.04 
  -5   0   4  113.99    3.02 
  -5   0   4  113.97    3.03 
  -5   0   4  110.32    2.81 
   4   0  -4   88.65    2.49 
   4   0  -4   91.85    2.42 
   4   0  -4   91.40    2.43 
   4   0  -4   90.39    2.31 
   4   0  -4   87.35    2.26 
   4   0  -4   88.61    2.78 
   4   0  -4   89.40    2.45 
  -4   0   4   88.63    2.37 
  -4   0   4   90.24    2.47 
  -4   0   4   87.28    2.46 
  -4   0   4   89.28    2.28 
  -4   0   4   88.39    2.36 
   3   0  -4    7.66    0.66 
   3   0  -4    6.66    0.73 
   3   0  -4    8.37    0.74 
   3   0  -4    8.99    0.72 
   3   0  -4    7.57    0.66 
   3   0  -4    6.45    0.66 
   3   0  -4    7.69    0.78 
   3   0  -4    6.45    0.77 
  -3   0   4    8.34    0.72 
  -3   0   4    7.65    0.72 
  -3   0   4    7.77    0.70 
  -3   0   4    6.80    0.77 
  -3   0   4    7.28    0.68 
  -3   0   4    6.32    0.68 
   2   0  -4   54.88    1.64 
   2   0  -4   56.43    1.62 
   2   0  -4   53.35    1.26 
   2   0  -4   55.17    1.48 
   2   0  -4   54.46    1.60 
   2   0  -4   52.15    1.77 
  -2   0   4   54.98    1.55 
  -2   0   4   53.43    1.58 
  -2   0   4   54.68    1.29 
  -2   0   4   53.79    1.59 
  -2   0   4   54.75    1.58 
   1   0  -4  194.27    4.17 
   1   0  -4  190.18    4.38 
   1   0  -4  189.55    4.33 
   1   0  -4  208.34    4.40 
   1   0  -4  189.22    4.31 
  -1   0   4  199.36    4.19 
  -1   0   4  203.83    4.33 
  -1   0   4  195.70    4.38 
   0   0  -4  776.70   15.78 
   0   0  -4  745.09   15.77 
   0   0  -4  781.08   15.83 
   0   0  -4  803.22   16.27 
   0   0  -4  801.81   15.61 
   0   0  -4  808.00   15.87 
   0   0   4  797.86   16.54 
   0   0   4  779.16   15.79 
   0   0   4  769.61   15.87 
   0   0   4  785.31   15.85 
   0   0   4  731.37   15.80 
   0   0   4  778.10   15.78 
  -1   0  -4    8.91    1.22 
  -1   0  -4    8.41    0.87 
  -1   0  -4    8.78    0.73 
  -1   0  -4    8.70    0.83 
  -1   0  -4    9.12    0.80 
  -1   0  -4    9.91    0.84 
   1   0   4    9.32    0.87 
   1   0   4    8.73    0.81 
   1   0   4    8.25    0.76 
   1   0   4   10.09    1.44 
   1   0   4    7.15    0.73 
   1   0   4   10.26    0.76 
  -2   0  -4  257.96    5.72 
  -2   0  -4  256.72    5.78 
  -2   0  -4  266.17    5.77 
  -2   0  -4  259.80    6.53 
  -2   0  -4  253.03    5.68 
  -2   0  -4  257.98    5.30 
   2   0   4  257.60    5.71 
   2   0   4  262.62    5.75 
   2   0   4  264.62    5.85 
   2   0   4  266.36    6.57 
   2   0   4  255.53    5.70 
   2   0   4  269.54    5.77 
   2   0   4  264.10    5.41 
   2   0   4  261.39    5.80 
  -3   0  -4   44.39    1.58 
  -3   0  -4   44.62    1.59 
  -3   0  -4   43.69    1.72 
  -3   0  -4   45.23    1.64 
   3   0   4   50.86    2.61 
   3   0   4   43.24    1.51 
   3   0   4   43.99    1.58 
   3   0   4   42.37    1.81 
   3   0   4   44.28    1.26 
   3   0   4   44.54    1.52 
   3   0   4   43.23    1.65 
  -4   0  -4   -0.31    0.75 
  -4   0  -4    0.37    0.67 
  -4   0  -4    0.12    0.51 
   4   0   4    0.61    0.64 
   4   0   4    0.37    1.13 
   4   0   4    0.53    0.69 
   4   0   4    0.92    0.49 
   4   0   4   -1.05    0.68 
   4   0   4   -1.04    0.67 
  -5   0  -4    0.74    0.56 
  -5   0  -4    0.11    0.72 
  -5   0  -4   -0.18    0.62 
   5   0   4    0.26    0.82 
   5   0   4    0.46    0.73 
   5   0   4    0.00    0.94 
   5   0   4    0.74    0.95 
   5   0   4    0.54    0.61 
  -6   0  -4   75.36    2.60 
  -6   0  -4   78.78    2.79 
  -6   0  -4   83.12    2.34 
  -6   0  -4   81.69    3.06 
   6   0   4   81.36    2.67 
   6   0   4   78.63    2.68 
   6   0   4   82.67    3.13 
   6   0   4   84.15    4.03 
  -7   0  -4   44.20    1.82 
  -7   0  -4   42.20    2.51 
  -7   0  -4   39.08    2.16 
   7   0   4   37.69    2.52 
   7   0   4   40.63    3.28 
   7   0   4   39.60    2.05 
   7   0   4   42.08    2.17 
  -8   0  -4   60.52    2.68 
  -8   0  -4   56.86    3.01 
  -8   0  -4   62.92    2.23 
   8   0   4   64.64    2.66 
   8   0   4   59.50    3.11 
   8   0   4   59.46    2.72 
   8   0   4   55.41    4.01 
  -9   0  -4   29.95    1.79 
  -9   0  -4   31.17    2.27 
   9   0   4   30.08    2.82 
   9   0   4   29.83    3.63 
   9   0   4   34.98    2.22 
   9   0   4   29.84    2.26 
  10  -1  -4   11.63    1.43 
  10  -1  -4   11.48    2.08 
  10  -1  -4   12.77    1.51 
  10  -1  -4    9.47    2.34 
 -10   1   4   13.99    1.60 
 -10   1   4   15.66    1.76 
   9  -1  -4   79.32    2.90 
   9  -1  -4   75.88    4.44 
   9  -1  -4   73.99    3.68 
   9  -1  -4   79.48    2.83 
  -9   1   4   78.85    2.95 
  -9   1   4   78.86    2.94 
   8  -1  -4  156.19    4.26 
   8  -1  -4  157.02    5.00 
   8  -1  -4  156.12    5.94 
   8  -1  -4  157.65    4.19 
  -8   1   4  155.11    4.28 
  -8   1   4  151.60    4.29 
  -8   1   4  155.37    4.23 
   7  -1  -4   78.56    3.05 
   7  -1  -4   79.04    2.61 
   7  -1  -4   84.29    2.66 
  -7   1   4   79.64    2.56 
  -7   1   4   75.81    2.46 
  -7   1   4   80.72    2.61 
  -7   1   4   83.31    2.70 
   6  -1  -4   19.94    1.38 
   6  -1  -4   17.76    1.29 
   6  -1  -4   19.27    1.82 
   6  -1  -4   18.20    1.19 
   6  -1  -4   20.51    1.29 
  -6   1   4   19.75    1.26 
  -6   1   4   18.67    1.08 
  -6   1   4   20.93    1.44 
  -6   1   4   19.96    1.27 
  -6   1   4   19.28    1.19 
   5  -1  -4   -0.15    0.87 
   5  -1  -4    0.33    0.61 
   5  -1  -4    0.04    0.25 
   5  -1  -4    0.54    0.59 
   5  -1  -4   -0.71    0.56 
   5  -1  -4   -0.07    0.61 
   5  -1  -4    0.07    0.64 
  -5   1   4    0.26    0.60 
  -5   1   4    0.49    0.51 
  -5   1   4    0.71    0.75 
  -5   1   4   -0.08    0.66 
  -5   1   4   -0.86    0.61 
   4  -1  -4   23.21    1.10 
   4  -1  -4   23.46    1.03 
   4  -1  -4   24.37    1.57 
   4  -1  -4   23.98    1.13 
   4  -1  -4   24.28    1.10 
   4  -1  -4   21.93    1.22 
  -4   1   4   21.34    1.10 
  -4   1   4   22.59    1.22 
  -4   1   4   23.71    1.07 
  -4   1   4   22.66    1.00 
  -4   1   4   23.40    1.01 
   3  -1  -4   45.87    1.47 
   3  -1  -4   45.38    1.48 
   3  -1  -4   45.70    1.22 
   3  -1  -4   44.78    1.50 
   3  -1  -4   46.52    1.86 
   3  -1  -4   46.65    1.38 
   3  -1  -4   46.79    1.50 
   3  -1  -4   47.37    1.47 
  -3   1   4   46.30    1.48 
  -3   1   4   48.01    1.39 
  -3   1   4   46.73    1.47 
  -3   1   4   46.89    1.25 
  -3   1   4   49.03    1.54 
  -3   1   4   45.95    1.45 
  -3   1   4   47.30    1.43 
   2  -1  -4   98.99    2.54 
   2  -1  -4   98.74    2.47 
   2  -1  -4  101.18    2.53 
   2  -1  -4  104.18    2.45 
   2  -1  -4  108.86    2.54 
  -2   1   4  107.62    2.51 
  -2   1   4  106.88    2.58 
  -2   1   4  102.55    2.57 
  -2   1   4  103.24    2.47 
  -2   1   4  104.28    2.51 
  -2   1   4  107.79    2.53 
  -2   1   4  103.91    2.48 
   1  -1  -4   69.26    1.89 
   1  -1  -4   68.94    1.75 
   1  -1  -4   66.40    1.91 
   1  -1  -4   66.00    2.52 
   1  -1  -4   68.24    1.85 
   1  -1  -4   73.18    1.92 
  -1   1   4   71.41    1.90 
  -1   1   4   69.12    1.85 
  -1   1   4   68.28    1.47 
  -1   1   4   72.12    1.84 
  -1   1   4   66.29    1.86 
  -1   1   4   71.09    1.86 
   0  -1  -4  277.04    6.07 
   0  -1  -4  281.06    6.08 
   0  -1  -4  293.69    6.92 
   0  -1  -4  290.98    5.95 
   0  -1  -4  281.55    6.12 
   0  -1  -4  285.44    6.12 
   0  -1  -4  289.59    6.02 
   0   1   4  282.36    6.07 
   0   1   4  291.92    6.89 
   0   1   4  279.12    6.05 
   0   1   4  295.10    5.95 
   0   1   4  282.89    6.03 
   0   1   4  281.99    6.12 
  -1  -1  -4   71.74    2.03 
  -1  -1  -4   69.72    1.99 
  -1  -1  -4   70.57    2.02 
  -1  -1  -4   72.22    2.74 
  -1  -1  -4   71.34    2.07 
  -1  -1  -4   74.14    2.05 
  -1  -1  -4   72.65    1.79 
   1   1   4   72.20    2.06 
   1   1   4   70.43    1.90 
   1   1   4   73.38    2.05 
   1   1   4   72.06    1.94 
   1   1   4   68.82    2.02 
   1   1   4   71.75    2.87 
   1   1   4   72.39    1.92 
  -2  -1  -4    0.12    0.64 
  -2  -1  -4   -0.45    0.72 
  -2  -1  -4    0.29    0.37 
  -2  -1  -4    0.67    0.88 
  -2  -1  -4    0.59    0.51 
  -2  -1  -4    0.19    0.69 
  -2  -1  -4   -0.11    0.70 
  -2  -1  -4    0.14    0.65 
   2   1   4   -0.21    0.61 
   2   1   4    0.36    0.52 
   2   1   4    0.29    0.63 
   2   1   4    0.32    0.65 
   2   1   4    0.10    0.28 
   2   1   4    0.31    0.70 
  -3  -1  -4    0.68    0.35 
  -3  -1  -4    0.78    0.87 
  -3  -1  -4    0.25    1.00 
  -3  -1  -4    0.13    0.56 
  -3  -1  -4    0.12    0.62 
  -3  -1  -4    1.01    0.39 
  -3  -1  -4    0.90    0.69 
   3   1   4    0.84    0.67 
   3   1   4    0.81    1.09 
   3   1   4   -0.45    0.53 
   3   1   4    0.80    0.66 
   3   1   4    0.81    0.37 
   3   1   4    0.43    0.81 
   3   1   4    0.07    0.33 
  -4  -1  -4   92.93    2.65 
  -4  -1  -4   88.95    2.68 
  -4  -1  -4   96.53    2.64 
  -4  -1  -4   91.83    2.26 
   4   1   4   95.03    2.63 
   4   1   4   93.20    2.69 
   4   1   4   94.68    2.10 
   4   1   4   89.56    2.76 
   4   1   4   95.12    3.65 
   4   1   4   94.62    3.02 
  -5  -1  -4   71.90    1.96 
  -5  -1  -4   69.53    2.39 
  -5  -1  -4   68.35    2.48 
   5   1   4   71.44    2.51 
   5   1   4   70.14    2.36 
   5   1   4   69.80    3.41 
   5   1   4   69.82    1.65 
   5   1   4   68.42    2.38 
   5   1   4   69.58    2.77 
  -6  -1  -4   65.22    2.46 
  -6  -1  -4   71.14    2.51 
  -6  -1  -4   69.41    2.03 
   6   1   4   66.62    1.61 
   6   1   4   71.93    3.02 
   6   1   4   70.16    2.39 
   6   1   4   72.28    3.71 
   6   1   4   64.54    2.44 
  -7  -1  -4   68.50    2.20 
  -7  -1  -4   69.55    2.80 
   7   1   4   61.49    2.70 
   7   1   4   69.83    3.92 
   7   1   4   70.69    2.65 
   7   1   4   66.28    3.13 
  -8  -1  -4   60.70    2.64 
  -8  -1  -4   67.14    2.25 
   8   1   4   67.86    2.78 
   8   1   4   65.63    3.34 
   8   1   4   67.96    2.92 
   8   1   4   62.99    4.10 
  -9  -1  -4    0.12    1.20 
  -9  -1  -4    0.15    1.60 
   9   1   4    2.17    1.19 
   9   1   4    0.53    2.01 
   9   1   4    1.82    1.28 
   9   1   4   -1.12    1.57 
  10  -2  -4   32.77    3.75 
  10  -2  -4   33.08    3.07 
  10  -2  -4   33.34    2.02 
  10  -2  -4   33.41    2.07 
 -10   2   4   38.58    2.28 
 -10   2   4   35.24    2.35 
   9  -2  -4    8.14    2.10 
   9  -2  -4    7.39    1.25 
   9  -2  -4    7.61    1.24 
   9  -2  -4    7.61    1.71 
  -9   2   4    7.90    1.29 
  -9   2   4    8.39    1.39 
   8  -2  -4    3.50    1.64 
   8  -2  -4    4.41    1.46 
   8  -2  -4    3.87    0.98 
   8  -2  -4    5.16    1.07 
  -8   2   4    4.30    1.16 
  -8   2   4    4.04    1.15 
   7  -2  -4    5.07    0.90 
   7  -2  -4    4.38    0.83 
   7  -2  -4    5.69    1.17 
  -7   2   4    4.76    0.89 
  -7   2   4    5.80    0.93 
  -7   2   4    5.79    1.06 
  -7   2   4    5.40    0.98 
   6  -2  -4   58.90    1.99 
   6  -2  -4   64.67    2.73 
   6  -2  -4   62.60    2.04 
   6  -2  -4   60.90    2.05 
   6  -2  -4   65.51    1.99 
   6  -2  -4   61.90    1.53 
  -6   2   4   66.07    2.16 
  -6   2   4   61.61    2.23 
  -6   2   4   61.52    2.01 
  -6   2   4   60.86    2.11 
   5  -2  -4   25.28    1.26 
   5  -2  -4   26.94    1.24 
   5  -2  -4   21.94    1.23 
   5  -2  -4   26.28    1.58 
   5  -2  -4   24.18    0.89 
   5  -2  -4   26.61    1.17 
   5  -2  -4   26.95    1.22 
  -5   2   4   24.30    1.38 
  -5   2   4   24.07    1.19 
  -5   2   4   25.33    1.02 
  -5   2   4   25.02    1.25 
  -5   2   4   24.60    1.32 
   4  -2  -4  187.15    4.16 
   4  -2  -4  184.15    3.98 
   4  -2  -4  184.34    4.13 
   4  -2  -4  185.05    4.65 
   4  -2  -4  184.73    4.10 
   4  -2  -4  184.52    4.12 
   4  -2  -4  179.31    4.13 
  -4   2   4  186.45    4.14 
  -4   2   4  183.48    4.11 
  -4   2   4  179.90    4.01 
  -4   2   4  183.34    4.27 
  -4   2   4  182.01    4.23 
   3  -2  -4  497.19   10.31 
   3  -2  -4  497.79   10.79 
   3  -2  -4  503.45   10.16 
   3  -2  -4  511.59   10.25 
   3  -2  -4  513.70   10.28 
   3  -2  -4  500.45   10.29 
   3  -2  -4  496.16   10.32 
  -3   2   4  491.75   10.28 
  -3   2   4  500.91   10.38 
  -3   2   4  501.51   10.30 
  -3   2   4  510.65   10.38 
  -3   2   4  487.85   10.21 
  -3   2   4  514.18   10.20 
   2  -2  -4  100.63    2.36 
   2  -2  -4  101.82    2.39 
   2  -2  -4   97.10    2.42 
   2  -2  -4   94.84    2.23 
   2  -2  -4   99.10    2.38 
   2  -2  -4   96.67    2.12 
   2  -2  -4  100.23    2.45 
  -2   2   4   98.12    2.39 
  -2   2   4   98.90    2.40 
  -2   2   4   94.67    2.34 
  -2   2   4   95.72    2.34 
  -2   2   4   96.48    2.55 
  -2   2   4  100.55    2.27 
   1  -2  -4  123.55    2.91 
   1  -2  -4  119.37    2.86 
   1  -2  -4  126.69    2.96 
   1  -2  -4  117.04    2.88 
   1  -2  -4  121.29    2.69 
   1  -2  -4  123.01    2.87 
   1  -2  -4  126.92    2.98 
   1  -2  -4  125.56    3.67 
  -1   2   4  124.87    3.01 
  -1   2   4  124.23    2.71 
  -1   2   4  125.68    2.79 
  -1   2   4  127.57    2.90 
  -1   2   4  119.42    2.89 
  -1   2   4  123.48    2.69 
  -1   2   4  125.28    2.81 
   0  -2  -4    8.31    0.71 
   0  -2  -4    7.37    0.72 
   0  -2  -4    8.47    0.80 
   0  -2  -4    6.05    1.14 
   0  -2  -4    7.25    0.70 
   0  -2  -4    9.30    0.82 
   0  -2  -4    6.94    0.74 
   0   2   4    5.89    0.81 
   0   2   4    7.54    0.40 
   0   2   4    8.51    0.75 
   0   2   4    7.48    0.69 
   0   2   4    6.52    0.73 
   0   2   4    7.23    0.67 
   0   2   4    7.40    0.76 
  -1  -2  -4   45.19    1.80 
  -1  -2  -4   40.68    1.28 
  -1  -2  -4   44.82    1.49 
  -1  -2  -4   46.51    1.55 
  -1  -2  -4   44.21    1.55 
  -1  -2  -4   44.49    2.25 
  -1  -2  -4   45.02    1.52 
  -1  -2  -4   48.70    1.62 
   1   2   4   45.24    1.45 
   1   2   4   35.49    1.42 
   1   2   4   45.07    1.47 
   1   2   4   46.28    1.57 
   1   2   4   43.83    2.29 
   1   2   4   45.39    1.57 
   1   2   4   44.83    1.38 
  -2  -2  -4    8.58    0.68 
  -2  -2  -4    9.76    0.91 
  -2  -2  -4    8.37    0.95 
  -2  -2  -4    7.28    0.78 
  -2  -2  -4    7.54    0.83 
  -2  -2  -4    7.86    1.13 
  -2  -2  -4    8.08    0.83 
   2   2   4    7.70    0.64 
   2   2   4    7.80    0.81 
   2   2   4    8.76    1.32 
   2   2   4    8.17    0.81 
   2   2   4    8.07    0.89 
   2   2   4    8.28    0.77 
  -3  -2  -4  223.61    4.55 
  -3  -2  -4  218.37    5.79 
  -3  -2  -4  223.80    4.72 
  -3  -2  -4  225.28    5.17 
  -3  -2  -4  220.69    5.11 
  -3  -2  -4  218.02    5.07 
  -3  -2  -4  229.03    5.40 
   3   2   4  226.05    5.10 
   3   2   4  210.27    5.05 
   3   2   4  212.84    5.15 
   3   2   4  221.94    5.94 
   3   2   4  218.93    4.72 
   3   2   4  217.32    5.39 
  -4  -2  -4  141.56    3.84 
  -4  -2  -4  145.49    3.20 
  -4  -2  -4  140.07    3.74 
  -4  -2  -4  142.83    4.11 
  -4  -2  -4  142.91    3.71 
   4   2   4  138.13    3.64 
   4   2   4  152.75    3.87 
   4   2   4  150.87    3.73 
   4   2   4  144.46    4.66 
   4   2   4  144.26    3.26 
   4   2   4  147.15    4.12 
  -5  -2  -4   60.61    2.72 
  -5  -2  -4   52.23    2.11 
  -5  -2  -4   58.86    1.67 
  -5  -2  -4   57.49    2.23 
   5   2   4   57.87    2.44 
   5   2   4   57.36    2.19 
   5   2   4   59.10    2.18 
   5   2   4   58.37    1.61 
   5   2   4   58.77    2.18 
   5   2   4   58.91    3.27 
  -6  -2  -4   64.33    2.45 
  -6  -2  -4   61.62    1.93 
  -6  -2  -4   62.60    2.41 
  -6  -2  -4   59.58    2.69 
   6   2   4   65.83    3.50 
   6   2   4   62.51    2.58 
   6   2   4   64.78    2.98 
   6   2   4   65.03    2.47 
   6   2   4   63.20    1.72 
  -7  -2  -4    1.71    0.73 
  -7  -2  -4    4.25    1.26 
   7   2   4    3.67    1.12 
   7   2   4    1.49    1.64 
   7   2   4    1.62    0.91 
   7   2   4    2.97    1.48 
  -8  -2  -4    1.47    1.23 
  -8  -2  -4    1.22    0.81 
   8   2   4    0.58    1.22 
   8   2   4   -0.79    1.70 
   8   2   4    0.36    1.09 
   8   2   4   -0.65    1.48 
  -9  -2  -4   16.16    1.92 
   9   2   4    8.59    2.29 
   9   2   4   10.26    2.06 
   9   2   4   12.90    1.79 
  10  -3  -4    1.66    1.71 
  10  -3  -4    1.30    2.00 
  10  -3  -4    2.79    1.13 
  10  -3  -4    2.64    1.11 
 -10   3   4    4.56    1.37 
 -10   3   4    4.56    1.41 
   9  -3  -4   14.29    1.33 
   9  -3  -4   13.20    1.72 
   9  -3  -4   13.36    2.45 
   9  -3  -4   14.89    1.37 
  -9   3   4   17.92    1.65 
  -9   3   4   16.68    1.65 
   8  -3  -4   12.13    2.23 
   8  -3  -4   15.76    1.29 
   8  -3  -4   16.06    1.42 
   8  -3  -4   14.85    1.84 
  -8   3   4   15.82    1.46 
  -8   3   4   14.59    1.48 
   7  -3  -4   51.65    2.11 
   7  -3  -4   47.90    1.84 
   7  -3  -4   48.11    1.88 
   7  -3  -4   47.21    2.71 
  -7   3   4   44.49    1.94 
  -7   3   4   48.01    2.05 
  -7   3   4   51.22    2.06 
   6  -3  -4   60.42    1.90 
   6  -3  -4   57.66    2.49 
   6  -3  -4   57.88    1.87 
   6  -3  -4   56.89    1.87 
   6  -3  -4   59.53    1.92 
   6  -3  -4   58.88    1.63 
  -6   3   4   58.25    2.11 
  -6   3   4   59.93    2.13 
  -6   3   4   56.27    1.78 
  -6   3   4   57.72    2.04 
   5  -3  -4  128.95    3.09 
   5  -3  -4  127.67    3.26 
   5  -3  -4  130.44    3.00 
   5  -3  -4  128.45    3.09 
   5  -3  -4  126.59    3.84 
   5  -3  -4  126.96    3.08 
   5  -3  -4  127.07    3.09 
  -5   3   4  129.57    3.36 
  -5   3   4  125.96    3.01 
  -5   3   4  125.29    3.31 
  -5   3   4  128.78    3.23 
  -5   3   4  127.25    2.85 
   4  -3  -4   36.65    1.24 
   4  -3  -4   34.99    1.86 
   4  -3  -4   33.26    1.19 
   4  -3  -4   34.54    1.37 
   4  -3  -4   35.15    1.23 
   4  -3  -4   32.87    1.16 
  -4   3   4   33.62    1.42 
  -4   3   4   33.72    1.31 
  -4   3   4   34.30    0.97 
  -4   3   4   33.12    1.13 
  -4   3   4   37.37    1.37 
   3  -3  -4   45.20    1.36 
   3  -3  -4   43.20    1.46 
   3  -3  -4   46.58    1.47 
   3  -3  -4   45.49    1.35 
   3  -3  -4   45.74    1.42 
   3  -3  -4   46.11    1.35 
  -3   3   4   43.75    1.50 
  -3   3   4   47.21    1.34 
  -3   3   4   44.74    1.43 
  -3   3   4   44.72    1.28 
  -3   3   4   46.56    1.73 
  -3   3   4   44.62    1.55 
   2  -3  -4    5.85    0.58 
   2  -3  -4    6.59    0.62 
   2  -3  -4    5.93    0.59 
   2  -3  -4    6.67    0.60 
   2  -3  -4    6.74    0.60 
   2  -3  -4    5.99    0.60 
   2  -3  -4    6.64    0.80 
   2  -3  -4    7.12    0.67 
  -2   3   4    7.85    0.62 
  -2   3   4    6.19    0.72 
  -2   3   4    5.73    0.84 
  -2   3   4    6.14    0.53 
  -2   3   4    6.32    0.46 
  -2   3   4    6.42    0.61 
   1  -3  -4   21.91    0.98 
   1  -3  -4   21.15    1.16 
   1  -3  -4   19.09    0.95 
   1  -3  -4   23.33    0.99 
   1  -3  -4   19.41    0.98 
   1  -3  -4   21.15    0.98 
   1  -3  -4   20.63    0.95 
   1  -3  -4   20.33    0.82 
  -1   3   4   21.62    1.02 
  -1   3   4   19.28    0.83 
  -1   3   4   21.19    1.07 
  -1   3   4   20.55    0.84 
  -1   3   4   20.89    0.95 
  -1   3   4   19.57    0.96 
  -1   3   4   21.10    0.77 
  -1   3   4   19.76    0.90 
   0  -3  -4   81.81    2.14 
   0  -3  -4   85.44    2.13 
   0  -3  -4   81.84    2.22 
   0  -3  -4   84.26    3.05 
   0  -3  -4   80.72    2.17 
   0  -3  -4   83.14    2.20 
   0  -3  -4   83.49    2.11 
   0  -3  -4   80.52    2.19 
   0   3   4   82.18    2.18 
   0   3   4   80.51    2.10 
   0   3   4   79.06    2.02 
   0   3   4   78.18    2.32 
   0   3   4   81.07    2.14 
   0   3   4   80.93    2.08 
   0   3   4   85.81    2.12 
   0   3   4   81.57    2.24 
  -1  -3  -4  111.13    2.67 
  -1  -3  -4  108.29    2.74 
  -1  -3  -4  107.57    2.70 
  -1  -3  -4  110.28    2.79 
  -1  -3  -4  102.78    2.70 
  -1  -3  -4  111.72    2.94 
  -1  -3  -4  105.87    3.47 
   1   3   4  106.37    2.65 
   1   3   4  108.44    2.86 
   1   3   4  106.61    2.86 
   1   3   4  107.13    2.69 
   1   3   4  105.25    3.46 
   1   3   4  106.60    2.74 
   1   3   4  105.53    2.64 
  -2  -3  -4  150.55    3.87 
  -2  -3  -4  144.79    3.69 
  -2  -3  -4  148.85    3.46 
  -2  -3  -4  147.13    3.58 
  -2  -3  -4  146.47    3.60 
  -2  -3  -4  147.56    3.56 
  -2  -3  -4  148.12    4.25 
   2   3   4  151.73    3.64 
   2   3   4  147.40    3.57 
   2   3   4  153.45    4.36 
   2   3   4  145.92    3.45 
  -3  -3  -4   64.13    2.46 
  -3  -3  -4   64.72    2.16 
  -3  -3  -4   60.14    2.07 
  -3  -3  -4   64.78    2.69 
  -3  -3  -4   64.53    1.47 
  -3  -3  -4   64.77    2.10 
  -3  -3  -4   66.44    1.88 
   3   3   4   67.37    1.88 
   3   3   4   64.44    2.10 
   3   3   4   70.13    2.93 
   3   3   4   68.37    2.12 
  -4  -3  -4   64.63    2.29 
  -4  -3  -4   65.27    1.63 
  -4  -3  -4   65.52    2.68 
  -4  -3  -4   67.93    2.39 
  -4  -3  -4   64.66    2.23 
   4   3   4   64.04    2.35 
   4   3   4   67.69    2.69 
   4   3   4   66.76    2.25 
   4   3   4   63.19    1.87 
   4   3   4   65.07    3.00 
  -5  -3  -4   10.53    1.23 
  -5  -3  -4    9.41    0.69 
  -5  -3  -4    8.14    1.42 
  -5  -3  -4    8.02    1.22 
   5   3   4    9.22    1.26 
   5   3   4    9.41    0.81 
   5   3   4    8.90    1.15 
   5   3   4    9.32    1.08 
   5   3   4    7.14    1.60 
  -6  -3  -4    4.50    1.22 
  -6  -3  -4    3.59    0.67 
  -6  -3  -4    3.11    1.07 
  -6  -3  -4    2.23    1.39 
   6   3   4    2.97    1.40 
   6   3   4    5.00    0.69 
   6   3   4    4.48    1.19 
   6   3   4    3.70    0.88 
   6   3   4    2.82    1.56 
  -7  -3  -4    4.77    0.79 
  -7  -3  -4    2.88    1.20 
  -7  -3  -4    4.13    1.30 
   7   3   4    6.21    1.38 
   7   3   4    2.83    1.47 
   7   3   4    2.15    1.68 
   7   3   4    4.05    0.97 
  -8  -3  -4   49.99    3.16 
  -8  -3  -4   50.83    2.73 
   8   3   4   49.98    2.47 
   8   3   4   45.18    3.84 
   8   3   4   45.72    3.17 
  -9  -3  -4   42.29    2.76 
   9   3   4   38.30    3.20 
   9   3   4   44.35    2.73 
   9   3   4   33.69    3.88 
   9  -4  -4   51.15    4.07 
   9  -4  -4   51.10    2.06 
   9  -4  -4   42.98    1.96 
   9  -4  -4   43.72    3.08 
  -9   4   4   42.46    2.17 
  -9   4   4   48.69    2.38 
   8  -4  -4   47.48    1.87 
   8  -4  -4   47.66    3.41 
   8  -4  -4   49.22    2.94 
   8  -4  -4   49.30    1.92 
  -8   4   4   50.73    2.38 
  -8   4   4   44.99    2.09 
   7  -4  -4   73.45    3.84 
   7  -4  -4   73.12    2.21 
   7  -4  -4   77.14    2.24 
   7  -4  -4   74.47    3.26 
   7  -4  -4   71.30    2.18 
  -7   4   4   68.28    2.46 
  -7   4   4   69.81    2.40 
  -7   4   4   75.03    2.66 
   6  -4  -4   98.58    2.53 
   6  -4  -4   96.23    3.49 
   6  -4  -4   97.56    2.53 
   6  -4  -4   93.31    2.54 
  -6   4   4   97.45    2.93 
  -6   4   4  100.91    2.90 
  -6   4   4   96.34    2.97 
   5  -4  -4   31.21    1.14 
   5  -4  -4   31.07    1.16 
   5  -4  -4   26.64    1.96 
   5  -4  -4   31.16    1.17 
  -5   4   4   29.54    1.01 
  -5   4   4   31.41    1.55 
  -5   4   4   31.35    1.59 
  -5   4   4   29.34    1.37 
   4  -4  -4   11.80    1.28 
   4  -4  -4   14.81    0.77 
   4  -4  -4   13.74    0.76 
   4  -4  -4   14.42    1.13 
   4  -4  -4   13.29    0.75 
   4  -4  -4   13.26    0.76 
  -4   4   4   13.49    0.67 
  -4   4   4   12.92    1.04 
  -4   4   4   14.51    1.04 
  -4   4   4   12.00    0.92 
  -4   4   4   13.59    0.63 
   3  -4  -4    0.20    0.36 
   3  -4  -4    0.12    0.49 
   3  -4  -4   -0.34    0.37 
   3  -4  -4    0.26    0.60 
   3  -4  -4    0.25    0.39 
   3  -4  -4   -0.01    0.39 
  -3   4   4   -0.61    0.62 
  -3   4   4    0.99    0.61 
  -3   4   4    0.32    0.64 
  -3   4   4    0.12    0.29 
  -3   4   4    0.28    0.29 
   2  -4  -4  161.57    3.54 
   2  -4  -4  156.55    3.66 
   2  -4  -4  155.73    3.47 
   2  -4  -4  157.11    3.45 
   2  -4  -4  157.38    3.47 
   2  -4  -4  159.09    3.44 
   2  -4  -4  151.60    3.65 
  -2   4   4  155.54    3.55 
  -2   4   4  159.02    3.38 
  -2   4   4  156.98    3.18 
  -2   4   4  152.55    3.86 
  -2   4   4  157.65    3.66 
   1  -4  -4   20.95    1.15 
   1  -4  -4   20.75    1.05 
   1  -4  -4   22.03    1.00 
   1  -4  -4   21.07    0.92 
   1  -4  -4   22.27    0.96 
   1  -4  -4   21.97    0.96 
   1  -4  -4   21.56    0.87 
  -1   4   4   21.58    0.93 
  -1   4   4   21.83    1.32 
  -1   4   4   20.71    0.87 
  -1   4   4   20.69    0.85 
  -1   4   4   20.45    1.02 
  -1   4   4   21.21    0.78 
   0  -4  -4  370.28    7.38 
   0  -4  -4  365.70    7.67 
   0  -4  -4  366.80    7.72 
   0  -4  -4  369.20    7.66 
   0  -4  -4  361.99    7.86 
   0  -4  -4  367.22    8.54 
   0  -4  -4  355.06    7.66 
   0   4   4  358.23    7.91 
   0   4   4  359.48    7.61 
   0   4   4  367.57    7.83 
   0   4   4  362.94    7.60 
   0   4   4  370.42    7.87 
   0   4   4  365.77    7.69 
  -1  -4  -4  113.41    2.86 
  -1  -4  -4  113.13    3.64 
  -1  -4  -4  116.71    2.89 
  -1  -4  -4  111.57    2.91 
  -1  -4  -4  116.41    2.84 
  -1  -4  -4  115.45    3.14 
  -1  -4  -4  112.40    2.31 
   1   4   4  116.89    2.81 
   1   4   4  109.43    3.04 
   1   4   4  110.04    2.89 
   1   4   4  104.21    2.84 
   1   4   4  111.50    2.67 
   1   4   4  111.27    3.02 
  -2  -4  -4   54.17    1.87 
  -2  -4  -4   54.51    2.33 
  -2  -4  -4   53.81    1.13 
  -2  -4  -4   55.09    2.15 
  -2  -4  -4   53.70    1.81 
  -2  -4  -4   51.05    1.84 
  -2  -4  -4   58.06    1.96 
  -2  -4  -4   54.28    1.13 
   2   4   4   52.77    2.41 
   2   4   4   52.97    2.00 
   2   4   4   54.35    1.78 
   2   4   4   56.94    1.91 
   2   4   4   54.21    1.82 
  -3  -4  -4   65.71    2.24 
  -3  -4  -4   67.72    1.50 
  -3  -4  -4   65.36    2.64 
  -3  -4  -4   64.36    2.17 
  -3  -4  -4   68.92    2.63 
  -3  -4  -4   64.92    2.30 
   3   4   4   67.91    2.03 
   3   4   4   67.05    2.28 
   3   4   4   67.34    2.16 
   3   4   4   69.72    2.95 
  -4  -4  -4   22.86    1.47 
  -4  -4  -4   21.59    1.56 
  -4  -4  -4   23.22    0.82 
  -4  -4  -4   23.01    2.00 
  -4  -4  -4   22.64    1.63 
   4   4   4   23.79    1.21 
   4   4   4   22.57    1.47 
   4   4   4   23.37    2.38 
   4   4   4   22.33    1.58 
  -5  -4  -4   39.14    2.01 
  -5  -4  -4   41.87    1.29 
  -5  -4  -4   40.80    2.54 
  -5  -4  -4   42.78    2.18 
   5   4   4   42.19    2.55 
   5   4   4   36.64    2.89 
   5   4   4   43.22    2.15 
   5   4   4   42.28    1.62 
   5   4   4   42.10    1.98 
  -6  -4  -4   13.43    1.84 
  -6  -4  -4   13.95    1.51 
  -6  -4  -4   15.04    0.98 
  -6  -4  -4   13.16    1.37 
   6   4   4   15.02    1.57 
   6   4   4    9.74    1.85 
   6   4   4   13.92    1.29 
   6   4   4   14.41    1.15 
   6   4   4   16.36    1.84 
  -7  -4  -4   96.72    4.01 
  -7  -4  -4   97.11    3.54 
   7   4   4   93.15    3.95 
   7   4   4   93.31    3.47 
   7   4   4   84.88    4.33 
  -8  -4  -4   25.76    2.33 
  -8  -4  -4   22.12    2.08 
   8   4   4   22.56    2.11 
   8   4   4   22.04    2.34 
   9  -5  -4   17.76    1.35 
   9  -5  -4   19.16    2.85 
   9  -5  -4   18.44    2.14 
   9  -5  -4   20.21    1.48 
  -9   5   4   22.53    1.88 
  -9   5   4   18.42    1.71 
   8  -5  -4   61.94    3.24 
   8  -5  -4   64.69    2.09 
   8  -5  -4   66.66    4.34 
   8  -5  -4   62.10    2.04 
  -8   5   4   61.44    2.58 
  -8   5   4   66.35    2.72 
   7  -5  -4   18.34    1.16 
   7  -5  -4   20.64    1.12 
   7  -5  -4   20.16    1.20 
   7  -5  -4   19.12    2.39 
   7  -5  -4   17.12    1.83 
  -7   5   4   20.28    1.60 
  -7   5   4   19.37    1.57 
   6  -5  -4   -0.04    0.49 
   6  -5  -4   -1.06    1.02 
   6  -5  -4    0.27    0.53 
   6  -5  -4    0.27    0.45 
  -6   5   4    0.68    0.88 
  -6   5   4    0.09    0.90 
  -6   5   4    0.24    0.90 
   5  -5  -4    0.16    0.39 
   5  -5  -4    0.03    0.37 
   5  -5  -4   -0.20    1.01 
   5  -5  -4    0.06    0.44 
   5  -5  -4    0.84    0.44 
  -5   5   4    0.64    0.78 
  -5   5   4    0.08    0.83 
  -5   5   4   -0.02    0.82 
   4  -5  -4   74.05    1.69 
   4  -5  -4   71.35    1.70 
   4  -5  -4   70.57    1.76 
   4  -5  -4   67.49    2.72 
   4  -5  -4   74.08    2.26 
   4  -5  -4   72.62    1.79 
  -4   5   4   71.70    2.17 
  -4   5   4   72.70    2.27 
  -4   5   4   70.87    2.24 
   3  -5  -4   77.38    1.89 
   3  -5  -4   79.80    2.31 
   3  -5  -4   77.07    1.80 
   3  -5  -4   79.64    1.82 
   3  -5  -4   78.19    1.90 
  -3   5   4   76.84    2.28 
  -3   5   4   77.85    2.53 
  -3   5   4   81.51    2.25 
   2  -5  -4  102.74    2.78 
   2  -5  -4  101.52    2.40 
   2  -5  -4  105.38    2.41 
   2  -5  -4  101.12    2.38 
   2  -5  -4  104.30    2.53 
   2  -5  -4   98.96    2.34 
  -2   5   4  104.10    2.25 
  -2   5   4   95.76    2.89 
  -2   5   4  104.83    2.57 
  -2   5   4  102.02    2.59 
   1  -5  -4  112.98    2.68 
   1  -5  -4  113.15    2.74 
   1  -5  -4  116.31    2.64 
   1  -5  -4  111.24    3.03 
   1  -5  -4  112.81    2.66 
   1  -5  -4  113.16    2.69 
  -1   5   4  115.61    2.79 
  -1   5   4  109.96    3.01 
  -1   5   4  113.08    2.68 
  -1   5   4  112.44    2.48 
  -1   5   4  114.69    3.02 
   0  -5  -4   29.44    1.21 
   0  -5  -4   31.88    1.30 
   0  -5  -4   30.88    1.23 
   0  -5  -4   31.19    1.26 
   0  -5  -4   30.55    0.95 
   0  -5  -4   31.47    1.59 
   0  -5  -4   31.69    2.01 
   0   5   4   28.70    1.34 
   0   5   4   29.01    1.19 
   0   5   4   31.24    1.18 
   0   5   4   30.86    1.07 
   0   5   4   28.72    1.56 
  -1  -5  -4   20.82    1.09 
  -1  -5  -4   19.32    1.09 
  -1  -5  -4   14.15    1.77 
  -1  -5  -4   19.63    0.66 
  -1  -5  -4   17.61    1.16 
  -1  -5  -4   20.90    1.44 
  -1  -5  -4   19.55    1.12 
   1   5   4   18.30    1.09 
   1   5   4   20.29    0.96 
   1   5   4   18.38    1.27 
   1   5   4   18.77    1.04 
   1   5   4   20.78    1.24 
  -2  -5  -4    4.21    0.76 
  -2  -5  -4    3.14    0.82 
  -2  -5  -4    3.45    0.31 
  -2  -5  -4    4.00    0.77 
  -2  -5  -4    3.20    0.95 
  -2  -5  -4    3.72    0.79 
  -2  -5  -4    2.16    0.86 
   2   5   4    3.92    0.70 
   2   5   4    6.23    1.08 
   2   5   4    3.56    0.82 
   2   5   4    2.93    0.54 
   2   5   4    3.54    0.78 
  -3  -5  -4   18.39    1.65 
  -3  -5  -4   21.29    1.43 
  -3  -5  -4   20.05    1.86 
  -3  -5  -4   19.90    0.68 
  -3  -5  -4   18.44    1.47 
  -3  -5  -4   19.20    1.33 
   3   5   4   19.00    1.27 
   3   5   4   20.93    1.79 
   3   5   4   20.63    1.44 
   3   5   4   21.02    1.30 
   3   5   4   19.01    1.37 
  -4  -5  -4   46.50    2.67 
  -4  -5  -4   49.91    2.63 
  -4  -5  -4   46.93    2.08 
  -4  -5  -4   47.57    1.99 
  -4  -5  -4   46.76    1.26 
   4   5   4   46.43    2.69 
   4   5   4   43.53    2.08 
   4   5   4   48.40    1.82 
   4   5   4   45.31    1.93 
  -5  -5  -4   73.85    2.74 
  -5  -5  -4   73.42    3.28 
  -5  -5  -4   71.24    2.66 
   5   5   4   72.48    2.79 
   5   5   4   74.29    2.33 
   5   5   4   75.09    3.59 
  -6  -5  -4   39.36    2.25 
  -6  -5  -4   43.88    2.53 
  -6  -5  -4   42.16    2.40 
   6   5   4   43.78    2.37 
   6   5   4   43.83    1.81 
   6   5   4   39.38    2.46 
   6   5   4   34.55    3.18 
  -7  -5  -4   28.47    2.28 
  -7  -5  -4   27.14    2.34 
   7   5   4   31.61    2.29 
   7   5   4   30.72    2.76 
  -8  -5  -4   15.10    1.92 
  -8  -5  -4   16.06    2.30 
   8   5   4   18.41    2.04 
   8   5   4   18.74    2.32 
   9  -6  -4   20.45    2.25 
   9  -6  -4   20.02    2.98 
   9  -6  -4   21.20    1.36 
  -9   6   4   19.14    1.88 
  -9   6   4   21.28    1.94 
   8  -6  -4    0.09    0.61 
   8  -6  -4   -0.06    1.34 
   8  -6  -4    0.59    1.63 
  -8   6   4   -0.97    1.06 
  -8   6   4    0.49    1.16 
   7  -6  -4    2.78    1.67 
   7  -6  -4    1.96    0.60 
   7  -6  -4    2.70    0.60 
   7  -6  -4    3.15    1.34 
   7  -6  -4    2.31    0.81 
  -7   6   4    2.70    1.10 
  -7   6   4    3.15    1.16 
   6  -6  -4   11.06    0.77 
   6  -6  -4   10.02    0.46 
   6  -6  -4    9.62    1.49 
  -6   6   4    9.05    1.22 
  -6   6   4    9.37    1.25 
  -6   6   4    8.18    1.18 
   5  -6  -4  108.53    2.44 
   5  -6  -4  106.59    3.16 
   5  -6  -4  109.93    3.71 
   5  -6  -4  108.18    2.45 
  -5   6   4  110.22    3.27 
  -5   6   4  101.76    3.12 
  -5   6   4  105.05    3.12 
   4  -6  -4   49.37    1.96 
   4  -6  -4   46.98    1.26 
   4  -6  -4   44.79    2.35 
   4  -6  -4   49.10    1.24 
  -4   6   4   44.61    1.88 
  -4   6   4   50.10    1.91 
   3  -6  -4  152.01    3.29 
   3  -6  -4  146.88    3.09 
   3  -6  -4  152.84    3.89 
   3  -6  -4  151.69    3.26 
   3  -6  -4  156.45    3.11 
  -3   6   4  148.32    3.74 
  -3   6   4  152.27    4.04 
  -3   6   4  149.20    3.71 
   2  -6  -4   90.15    2.14 
   2  -6  -4   88.51    2.13 
   2  -6  -4   90.29    2.17 
   2  -6  -4   89.51    2.73 
   2  -6  -4   87.06    2.07 
  -2   6   4   89.48    1.91 
  -2   6   4   85.28    2.43 
  -2   6   4   91.00    2.81 
   1  -6  -4    0.04    0.49 
   1  -6  -4    0.06    0.44 
   1  -6  -4   -0.37    0.44 
   1  -6  -4   -0.21    0.68 
   1  -6  -4   -0.01    0.49 
   1  -6  -4    0.20    0.47 
  -1   6   4    0.59    0.56 
  -1   6   4    1.68    0.48 
  -1   6   4    0.87    0.88 
  -1   6   4    0.66    0.90 
   0  -6  -4    5.92    0.74 
   0  -6  -4    3.57    0.89 
   0  -6  -4    5.77    0.70 
   0  -6  -4    6.12    0.56 
   0  -6  -4    6.80    0.73 
   0  -6  -4    4.58    0.70 
   0  -6  -4    4.98    1.16 
   0   6   4    5.57    0.84 
   0   6   4    4.98    0.68 
   0   6   4    5.24    0.57 
   0   6   4    6.00    1.02 
   0   6   4    5.48    0.68 
  -1  -6  -4   40.96    1.63 
  -1  -6  -4   37.68    1.94 
  -1  -6  -4   37.17    1.10 
  -1  -6  -4   36.13    1.48 
  -1  -6  -4   34.78    2.29 
  -1  -6  -4   37.15    1.58 
  -1  -6  -4   35.85    1.47 
   1   6   4   37.90    1.61 
   1   6   4   38.27    1.29 
   1   6   4   38.60    1.57 
   1   6   4   39.17    1.39 
   1   6   4   38.86    1.90 
  -2  -6  -4   54.76    1.38 
  -2  -6  -4   52.39    1.93 
  -2  -6  -4   52.19    1.98 
  -2  -6  -4   56.99    2.45 
  -2  -6  -4   56.18    2.07 
  -2  -6  -4   58.18    2.03 
  -2  -6  -4   54.36    2.31 
   2   6   4   53.84    1.89 
   2   6   4   54.57    2.09 
   2   6   4   54.20    2.27 
   2   6   4   57.78    2.03 
   2   6   4   54.98    1.58 
  -3  -6  -4   47.16    1.97 
  -3  -6  -4   43.00    2.44 
  -3  -6  -4   42.85    2.02 
   3   6   4   45.21    1.95 
   3   6   4   43.43    1.96 
   3   6   4   44.45    1.37 
   3   6   4   44.80    1.91 
  -4  -6  -4  104.97    3.34 
  -4  -6  -4  100.59    3.23 
  -4  -6  -4  104.28    3.81 
   4   6   4  101.60    3.42 
   4   6   4  106.88    3.51 
   4   6   4  103.48    2.49 
   4   6   4  101.96    3.28 
   4   6   4  106.06    3.13 
  -5  -6  -4   16.11    1.94 
  -5  -6  -4   20.54    1.85 
  -5  -6  -4   21.57    1.77 
   5   6   4   20.26    1.81 
   5   6   4   18.94    1.44 
  -6  -6  -4   13.48    1.59 
  -6  -6  -4   13.83    1.66 
  -6  -6  -4   12.84    1.75 
   6   6   4   13.37    1.67 
   6   6   4   15.25    1.35 
  -7  -6  -4    5.29    1.83 
  -7  -6  -4    5.34    1.28 
   7   6   4    3.35    1.15 
   8  -7  -4    8.39    0.72 
   8  -7  -4    7.26    2.17 
   8  -7  -4    7.37    1.65 
  -8   7   4    6.13    1.43 
  -8   7   4    6.48    1.37 
   7  -7  -4   59.75    4.07 
   7  -7  -4   57.36    1.58 
   7  -7  -4   62.21    3.14 
  -7   7   4   54.14    2.34 
  -7   7   4   56.87    2.68 
   6  -7  -4   45.46    2.65 
   6  -7  -4   41.39    1.11 
   6  -7  -4   38.66    3.24 
   6  -7  -4   39.73    1.15 
   6  -7  -4   46.70    2.14 
  -6   7   4   42.01    2.15 
  -6   7   4   39.93    2.08 
   5  -7  -4   36.82    0.89 
   5  -7  -4   36.32    0.91 
   5  -7  -4   40.48    2.38 
   5  -7  -4   36.31    1.85 
  -5   7   4   36.85    1.88 
  -5   7   4   39.11    1.91 
   4  -7  -4   46.07    1.09 
   4  -7  -4   44.91    2.40 
   4  -7  -4   46.90    2.12 
   4  -7  -4   47.67    1.09 
  -4   7   4   48.87    1.96 
  -4   7   4   43.06    1.91 
   3  -7  -4    0.95    0.38 
   3  -7  -4    0.92    0.86 
   3  -7  -4    0.78    0.34 
  -3   7   4    1.20    1.03 
  -3   7   4    0.55    0.74 
   2  -7  -4    7.71    1.04 
   2  -7  -4    7.74    0.68 
   2  -7  -4    9.44    0.75 
   2  -7  -4    8.09    0.65 
   2  -7  -4    8.19    0.59 
  -2   7   4    9.07    1.26 
  -2   7   4    8.31    1.21 
  -2   7   4   10.45    0.93 
   1  -7  -4   29.86    1.16 
   1  -7  -4   29.20    1.25 
   1  -7  -4   29.48    1.21 
   1  -7  -4   29.40    1.87 
   1  -7  -4   30.62    1.24 
  -1   7   4   31.15    1.11 
  -1   7   4   31.47    1.84 
  -1   7   4   31.98    1.32 
  -1   7   4   32.17    1.83 
   0  -7  -4   60.66    2.88 
   0  -7  -4   66.68    1.80 
   0  -7  -4   64.48    2.53 
   0  -7  -4   68.91    2.32 
   0  -7  -4   61.86    1.94 
   0  -7  -4   64.04    2.00 
   0  -7  -4   62.31    2.01 
   0   7   4   63.30    1.88 
   0   7   4   66.66    2.45 
   0   7   4   59.67    1.88 
   0   7   4   65.41    2.46 
  -1  -7  -4   64.73    2.16 
  -1  -7  -4   68.07    2.22 
  -1  -7  -4   65.04    2.14 
  -1  -7  -4   67.59    2.71 
   1   7   4   67.84    2.14 
   1   7   4   65.94    1.85 
   1   7   4   69.93    2.35 
   1   7   4   65.93    2.55 
  -2  -7  -4  105.80    3.20 
  -2  -7  -4  111.40    3.67 
  -2  -7  -4  109.59    3.09 
   2   7   4  105.89    3.38 
   2   7   4  107.02    3.10 
   2   7   4  102.28    3.20 
   2   7   4  103.95    2.54 
  -3  -7  -4   90.71    2.95 
  -3  -7  -4   88.20    2.95 
  -3  -7  -4   86.91    3.43 
   3   7   4   86.40    2.15 
   3   7   4   91.95    2.90 
   3   7   4   84.85    2.85 
   3   7   4   85.02    3.09 
  -4  -7  -4   -1.06    0.92 
  -4  -7  -4   -0.49    0.92 
  -4  -7  -4   -0.56    1.32 
   4   7   4   -0.83    1.14 
   4   7   4    1.19    1.00 
   4   7   4    0.88    0.91 
  -5  -7  -4    1.63    1.54 
  -5  -7  -4    3.51    1.21 
  -5  -7  -4    3.03    1.11 
   5   7   4    2.33    0.93 
   5   7   4    2.55    1.40 
   5   7   4    3.96    1.03 
  -6  -7  -4   17.95    1.87 
  -6  -7  -4   15.98    1.71 
  -6  -7  -4   13.88    2.17 
   6   7   4   13.72    1.53 
   6   7   4   18.19    1.55 
  -7  -7  -4   12.14    1.85 
  -7  -7  -4    9.71    2.18 
   7   7   4   14.66    1.88 
   7  -8  -4   14.62    1.83 
   7  -8  -4   13.90    2.39 
  -7   8   4   15.43    1.64 
   6  -8  -4   35.26    3.24 
   6  -8  -4   40.42    2.22 
   6  -8  -4   36.44    2.55 
  -6   8   4   39.38    2.15 
   5  -8  -4   35.52    2.08 
   5  -8  -4   32.22    2.29 
   5  -8  -4   33.62    2.84 
   4  -8  -4    5.44    1.23 
   4  -8  -4    4.94    1.13 
  -4   8   4    4.30    0.98 
  -4   8   4    5.50    1.21 
   3  -8  -4    9.34    0.57 
   3  -8  -4   10.04    0.64 
   3  -8  -4    7.34    1.15 
  -3   8   4   10.85    1.09 
  -3   8   4    9.10    1.32 
   2  -8  -4   40.16    1.35 
   2  -8  -4   37.41    2.17 
   2  -8  -4   43.33    1.23 
   2  -8  -4   41.69    1.32 
  -2   8   4   40.47    2.11 
  -2   8   4   43.92    2.21 
  -2   8   4   42.72    1.68 
   1  -8  -4  102.19    2.58 
   1  -8  -4   98.72    2.63 
   1  -8  -4  100.86    2.58 
   1  -8  -4  103.29    3.35 
  -1   8   4   98.21    2.66 
  -1   8   4   99.29    3.28 
  -1   8   4   96.98    3.22 
   0  -8  -4   11.27    1.01 
   0  -8  -4   12.18    1.02 
   0  -8  -4   13.58    1.07 
   0  -8  -4   12.85    1.44 
   0   8   4   12.07    1.40 
   0   8   4   12.00    0.89 
   0   8   4   11.08    1.35 
  -1  -8  -4   44.68    1.91 
  -1  -8  -4   40.29    1.80 
  -1  -8  -4   45.20    2.42 
   1   8   4   43.08    2.16 
   1   8   4   42.16    2.21 
   1   8   4   41.95    1.43 
  -2  -8  -4    6.11    1.33 
  -2  -8  -4    7.49    1.03 
  -2  -8  -4    7.62    1.10 
   2   8   4    6.91    1.32 
   2   8   4    6.75    1.24 
  -3  -8  -4    4.88    1.11 
  -3  -8  -4    6.99    1.21 
  -3  -8  -4    3.91    1.41 
   3   8   4    4.72    1.35 
   3   8   4    3.52    1.09 
  -4  -8  -4    2.24    1.15 
  -4  -8  -4    2.47    1.06 
  -4  -8  -4   -0.04    1.47 
   4   8   4    0.25    1.28 
   4   8   4    0.04    0.99 
  -5  -8  -4   26.32    2.00 
  -5  -8  -4   21.47    2.32 
  -5  -8  -4   27.20    2.17 
   5   8   4   26.31    1.86 
   5   8   4   26.63    2.19 
  -6  -8  -4   13.03    1.66 
  -6  -8  -4   10.73    1.48 
  -6  -8  -4   10.06    2.20 
   6   8   4   12.75    1.45 
   6   8   4   11.82    1.91 
   6  -9  -4    8.10    1.63 
   6  -9  -4    7.00    1.79 
   5  -9  -4    3.20    1.06 
   5  -9  -4    2.55    1.19 
   5  -9  -4    3.03    1.49 
   4  -9  -4   14.58    1.57 
   4  -9  -4   21.06    2.47 
   4  -9  -4   16.77    1.79 
   3  -9  -4   70.00    2.87 
   3  -9  -4   77.13    3.55 
   3  -9  -4   72.07    1.75 
   3  -9  -4   71.71    1.70 
  -3   9   4   72.25    2.51 
  -3   9   4   75.05    2.85 
   2  -9  -4   26.49    1.12 
   2  -9  -4   26.08    1.11 
   2  -9  -4   27.87    1.98 
  -2   9   4   28.63    2.07 
  -2   9   4   26.48    1.44 
  -2   9   4   25.91    1.67 
   1  -9  -4   84.21    2.35 
   1  -9  -4   78.49    2.29 
   1  -9  -4   87.77    3.23 
   1  -9  -4   83.49    2.29 
  -1   9   4   82.10    2.84 
  -1   9   4   83.01    2.45 
  -1   9   4   80.27    3.08 
   0  -9  -4   16.82    1.31 
   0  -9  -4   16.77    1.77 
   0  -9  -4   19.50    1.31 
   0   9   4   18.05    1.63 
   0   9   4   20.42    1.67 
   0   9   4   18.54    1.13 
  -1  -9  -4   -0.33    1.11 
  -1  -9  -4   -0.92    0.80 
  -1  -9  -4    0.53    0.87 
   1   9   4    1.10    0.88 
   1   9   4    0.71    1.11 
  -2  -9  -4    0.52    1.30 
  -2  -9  -4    2.01    0.95 
  -2  -9  -4    0.96    0.97 
   2   9   4    1.88    1.22 
   2   9   4    1.35    1.13 
  -3  -9  -4   37.72    2.84 
  -3  -9  -4   42.49    2.31 
  -3  -9  -4   34.72    2.00 
   3   9   4   38.24    2.42 
   3   9   4   42.49    2.26 
  -4  -9  -4   42.63    2.39 
  -4  -9  -4   38.39    2.23 
  -4  -9  -4   41.82    2.72 
   4   9   4   43.27    2.63 
   4   9   4   46.42    2.49 
  -5  -9  -4   31.64    2.33 
  -5  -9  -4   25.52    2.69 
  -5  -9  -4   29.23    2.20 
   5   9   4   31.81    2.53 
   5   9   4   32.52    2.15 
   5 -10  -4   40.29    2.82 
   5 -10  -4   49.86    3.58 
   5 -10  -4   45.13    2.71 
   4 -10  -4   36.37    2.40 
   4 -10  -4   33.56    2.27 
   3 -10  -4    9.73    1.52 
   3 -10  -4   12.70    0.62 
   3 -10  -4   11.35    0.56 
  -3  10   4   11.02    1.52 
   2 -10  -4   14.96    1.04 
   2 -10  -4   11.43    1.55 
   2 -10  -4   12.96    0.97 
  -2  10   4   14.62    1.70 
  -2  10   4   15.77    1.63 
   1 -10  -4    0.28    0.61 
   1 -10  -4    0.16    0.66 
   1 -10  -4   -0.08    1.28 
  -1  10   4    0.07    0.91 
  -1  10   4    1.01    1.17 
   0 -10  -4   14.40    1.18 
   0 -10  -4   16.00    1.28 
   0 -10  -4   15.36    1.77 
   0  10   4   14.68    1.63 
   0  10   4   16.61    1.72 
  -1 -10  -4    0.26    0.87 
  -1 -10  -4    1.59    1.38 
  -1 -10  -4    0.91    0.93 
   1  10   4    4.13    1.22 
   1  10   4    0.55    1.18 
  -2 -10  -4   50.77    2.38 
  -2 -10  -4   47.87    2.30 
  -2 -10  -4   55.79    3.13 
   2  10   4   51.56    2.67 
   2  10   4   49.85    2.62 
  -3 -10  -4   18.00    1.63 
  -3 -10  -4   20.11    1.83 
  -3 -10  -4   12.02    2.05 
   3  10   4   21.12    1.87 
   3  10   4   22.33    2.02 
   3 -11  -4    1.62    1.37 
  -3  11   4    2.70    1.31 
   2 -11  -4    3.92    1.51 
   2 -11  -4    3.29    0.63 
  -2  11   4    7.68    1.47 
  -2  11   4    4.98    1.43 
   1 -11  -4    9.17    1.68 
   1 -11  -4    9.34    0.95 
  -1  11   4    9.54    1.65 
  -1  11   4   12.01    1.57 
   0 -11  -4   28.91    2.56 
   0 -11  -4   26.63    1.67 
   0 -11  -4   26.65    1.55 
   0  11   4   29.34    2.39 
   0  11   4   28.64    2.17 
  -1 -11  -4   30.50    2.95 
  -1 -11  -4   33.81    1.92 
  -1 -11  -4   31.50    2.09 
   1  11   4   30.95    2.37 
   1  11   4   33.49    2.32 
   1  11  -5    0.68    1.03 
   1  11  -5    1.28    1.18 
  -1 -11   5    0.27    1.04 
  -1 -11   5   -2.28    1.44 
  -1 -11   5    0.45    1.03 
   0  11  -5   10.41    1.63 
   0  11  -5    9.93    1.56 
   0 -11   5    7.73    1.20 
   0 -11   5    6.54    1.91 
   0 -11   5    7.68    1.21 
  -1  11  -5   25.11    2.07 
  -1  11  -5   27.75    2.08 
   1 -11   5   22.41    2.29 
   1 -11   5   25.68    1.73 
   1 -11   5   22.52    1.70 
  -2  11  -5    9.96    1.85 
  -2  11  -5   14.28    1.61 
   2 -11   5   11.65    2.04 
   2 -11   5   12.50    1.17 
   2 -11   5   10.49    1.34 
   4  10  -5    5.10    1.22 
   4  10  -5    3.10    1.43 
  -4 -10   5    3.99    1.43 
  -4 -10   5    4.50    1.34 
  -4 -10   5    3.24    1.26 
   3  10  -5    0.40    1.06 
   3  10  -5   -0.35    1.23 
  -3 -10   5    0.24    1.55 
  -3 -10   5   -1.03    1.03 
  -3 -10   5    0.87    1.08 
   2  10  -5    0.96    1.28 
   2  10  -5   -0.43    1.13 
  -2 -10   5    1.09    1.14 
  -2 -10   5    1.01    1.51 
  -2 -10   5    1.46    1.02 
   1  10  -5   33.39    2.27 
   1  10  -5   34.50    2.20 
  -1 -10   5   31.63    2.87 
  -1 -10   5   36.38    2.06 
  -1 -10   5   36.44    1.97 
   0  10  -5   33.90    2.21 
   0  10  -5   41.26    2.34 
   0 -10   5   31.02    2.82 
   0 -10   5   34.24    1.91 
   0 -10   5   33.77    1.93 
  -1  10  -5   27.30    1.98 
  -1  10  -5   29.09    2.18 
   1 -10   5   30.03    1.73 
   1 -10   5   29.16    2.76 
   1 -10   5   28.91    1.70 
  -2  10  -5   34.83    2.05 
  -2  10  -5   36.89    2.35 
   2 -10   5   37.48    2.84 
   2 -10   5   32.92    1.80 
   2 -10   5   33.23    1.71 
  -3  10  -5    1.81    1.12 
  -3  10  -5    2.05    1.03 
   3 -10   5    0.44    0.80 
   3 -10   5    1.01    0.79 
   3 -10   5    0.66    1.15 
  -4  10  -5    0.98    1.02 
   4 -10   5   -1.22    0.76 
   4 -10   5    1.94    1.51 
   5   9  -5    5.61    1.52 
  -5  -9   5    4.31    1.12 
  -5  -9   5    3.86    1.31 
  -5  -9   5    3.39    1.63 
   4   9  -5   15.22    1.78 
   4   9  -5   16.61    1.44 
  -4  -9   5   14.11    1.57 
  -4  -9   5   14.49    1.64 
  -4  -9   5   13.24    1.98 
   3   9  -5   18.90    1.83 
   3   9  -5   17.26    1.54 
  -3  -9   5   14.90    1.99 
  -3  -9   5   20.87    1.85 
  -3  -9   5   19.73    1.71 
   2   9  -5   91.35    3.15 
   2   9  -5   92.86    3.39 
  -2  -9   5   97.63    3.94 
  -2  -9   5   98.40    3.17 
  -2  -9   5   97.10    3.21 
   1   9  -5   13.11    1.52 
   1   9  -5   15.68    1.54 
  -1  -9   5   13.82    1.33 
  -1  -9   5   14.45    1.38 
  -1  -9   5   15.85    1.96 
   0   9  -5   53.99    2.39 
   0   9  -5   51.65    2.47 
   0  -9   5   51.47    2.73 
   0  -9   5   55.59    2.22 
   0  -9   5   53.37    2.12 
  -1   9  -5   23.81    1.76 
  -1   9  -5   24.35    1.93 
   1  -9   5   24.60    2.07 
   1  -9   5   21.86    1.52 
   1  -9   5   23.13    1.57 
  -2   9  -5    2.66    1.22 
  -2   9  -5    3.18    1.01 
   2  -9   5    0.28    0.79 
   2  -9   5   -1.17    1.43 
   2  -9   5    1.36    1.34 
   2  -9   5    0.63    0.82 
  -3   9  -5    3.12    1.00 
  -3   9  -5    3.88    1.01 
   3  -9   5    0.76    1.43 
   3  -9   5    3.09    0.84 
   3  -9   5    2.14    0.82 
   3  -9   5    4.35    1.40 
  -4   9  -5   28.11    1.85 
  -4   9  -5   26.19    1.72 
   4  -9   5   29.25    2.26 
   4  -9   5   28.08    2.99 
   4  -9   5   26.12    1.50 
   4  -9   5   28.15    1.65 
  -5   9  -5   37.88    2.84 
  -5   9  -5   45.59    2.49 
   5  -9   5   39.30    1.73 
   5  -9   5   42.37    3.89 
  -6   9  -5   20.64    1.86 
   6  -9   5   18.00    2.76 
   6   8  -5    6.64    1.45 
   6   8  -5    6.31    1.50 
  -6  -8   5    4.60    1.71 
  -6  -8   5    9.59    1.59 
  -6  -8   5    6.23    1.43 
   5   8  -5    9.85    2.08 
   5   8  -5    9.27    1.34 
   5   8  -5   11.03    1.54 
  -5  -8   5   10.72    1.37 
  -5  -8   5   11.55    1.48 
  -5  -8   5   10.00    1.74 
   4   8  -5   77.41    2.94 
   4   8  -5   74.71    3.05 
   4   8  -5   78.16    2.68 
  -4  -8   5   76.64    2.91 
  -4  -8   5   84.78    3.33 
  -4  -8   5   71.87    2.95 
   3   8  -5   24.50    1.75 
   3   8  -5   27.04    1.67 
   3   8  -5   30.21    1.90 
   3   8  -5   24.29    2.00 
  -3  -8   5   28.48    1.90 
  -3  -8   5   28.87    2.36 
  -3  -8   5   24.92    1.79 
   2   8  -5   48.35    2.11 
   2   8  -5   44.60    2.04 
   2   8  -5   47.47    2.13 
  -2  -8   5   44.19    2.15 
  -2  -8   5   48.01    2.11 
  -2  -8   5   49.22    2.75 
   1   8  -5    9.19    1.29 
   1   8  -5    9.15    1.24 
   1   8  -5   10.80    1.11 
  -1  -8   5    8.30    1.12 
  -1  -8   5    8.56    1.19 
  -1  -8   5    7.73    1.51 
   0   8  -5    0.39    0.75 
   0   8  -5    0.67    0.98 
   0  -8   5    1.05    0.85 
   0  -8   5   -0.94    1.05 
   0  -8   5   -0.50    0.83 
   0  -8   5    0.75    1.18 
  -1   8  -5    3.44    0.99 
  -1   8  -5    2.25    0.86 
   1  -8   5    1.31    0.84 
   1  -8   5    1.24    1.23 
   1  -8   5    2.22    0.84 
   1  -8   5   -0.31    1.37 
  -2   8  -5   11.37    1.38 
  -2   8  -5    8.55    1.11 
   2  -8   5    8.40    1.72 
   2  -8   5    9.37    1.52 
   2  -8   5    9.98    1.07 
   2  -8   5   11.33    1.07 
  -3   8  -5   67.94    3.06 
  -3   8  -5   74.48    2.81 
  -3   8  -5   73.20    2.48 
   3  -8   5   68.99    3.82 
   3  -8   5   70.88    2.37 
   3  -8   5   72.18    2.36 
  -4   8  -5   17.04    1.61 
  -4   8  -5   16.34    1.93 
  -4   8  -5   17.52    1.37 
   4  -8   5   17.96    2.38 
   4  -8   5   16.27    1.27 
  -5   8  -5   42.89    2.75 
  -5   8  -5   42.79    2.32 
   5  -8   5   40.66    1.88 
   5  -8   5   43.86    1.83 
   5  -8   5   39.52    3.58 
  -6   8  -5   32.34    2.64 
  -6   8  -5   30.73    2.13 
   6  -8   5   32.80    1.78 
   6  -8   5   31.09    3.65 
   7   7  -5   17.93    1.86 
   7   7  -5   16.53    1.69 
   7   7  -5   16.76    2.03 
  -7  -7   5   16.42    1.90 
  -7  -7   5   14.84    2.08 
   6   7  -5   22.29    2.06 
   6   7  -5   28.76    2.13 
   6   7  -5   24.28    2.02 
  -6  -7   5   25.37    2.13 
  -6  -7   5   21.13    2.12 
  -6  -7   5   22.07    1.94 
   5   7  -5  111.42    3.72 
   5   7  -5  110.33    3.68 
   5   7  -5  111.20    3.09 
   5   7  -5  115.05    3.73 
  -5  -7   5  108.39    3.59 
  -5  -7   5  114.58    4.09 
  -5  -7   5  108.89    3.57 
   4   7  -5   24.94    1.57 
   4   7  -5   26.87    1.86 
   4   7  -5   27.52    1.96 
   4   7  -5   22.96    1.74 
  -4  -7   5   24.86    1.89 
  -4  -7   5   23.37    1.76 
  -4  -7   5   27.24    2.20 
   3   7  -5   24.01    1.30 
   3   7  -5   23.48    1.84 
   3   7  -5   25.86    1.53 
   3   7  -5   26.98    1.49 
   3   7  -5   24.21    1.68 
  -3  -7   5   25.34    2.15 
  -3  -7   5   23.19    1.68 
  -3  -7   5   21.12    1.69 
   2   7  -5   16.23    0.94 
   2   7  -5   16.47    1.43 
   2   7  -5   15.03    1.31 
   2   7  -5   16.21    1.48 
  -2  -7   5   15.39    1.65 
  -2  -7   5   14.47    1.36 
  -2  -7   5   12.86    1.26 
   1   7  -5   22.28    1.44 
   1   7  -5   23.01    1.60 
   1   7  -5   23.18    0.87 
   1   7  -5   23.29    1.67 
  -1  -7   5   24.75    1.77 
  -1  -7   5   23.05    1.48 
  -1  -7   5   22.11    2.08 
  -1  -7   5   21.99    1.49 
  -1  -7   5   22.89    2.03 
  -1  -7   5   24.30    1.53 
   0   7  -5   33.57    1.94 
   0   7  -5   31.92    1.75 
   0   7  -5   31.29    1.61 
   0   7  -5   32.38    1.81 
   0  -7   5   36.70    2.29 
   0  -7   5   27.28    2.29 
   0  -7   5   33.19    2.34 
   0  -7   5   33.10    1.55 
   0  -7   5   33.31    1.64 
   0  -7   5   35.81    1.71 
  -1   7  -5   89.93    2.97 
  -1   7  -5   93.25    2.68 
  -1   7  -5   90.36    2.78 
   1  -7   5   92.65    2.75 
   1  -7   5   93.38    3.46 
   1  -7   5   96.07    3.85 
   1  -7   5   92.01    2.73 
   1  -7   5   92.41    2.78 
  -2   7  -5  153.13    3.74 
  -2   7  -5  149.82    3.88 
  -2   7  -5  143.22    4.11 
   2  -7   5  152.39    3.85 
   2  -7   5  149.82    3.85 
   2  -7   5  148.94    5.07 
   2  -7   5  151.01    3.86 
  -3   7  -5   23.38    1.99 
  -3   7  -5   23.71    1.41 
  -3   7  -5   23.10    1.76 
   3  -7   5   23.30    1.47 
   3  -7   5   25.92    2.60 
   3  -7   5   22.82    1.41 
   3  -7   5   24.14    1.45 
  -4   7  -5   39.96    1.66 
  -4   7  -5   40.58    2.44 
  -4   7  -5   41.37    2.15 
   4  -7   5   44.02    3.48 
   4  -7   5   45.48    1.87 
  -5   7  -5    0.60    1.36 
  -5   7  -5   -0.52    0.92 
   5  -7   5   -0.11    1.60 
   5  -7   5    0.62    0.82 
   5  -7   5    0.34    0.81 
  -6   7  -5    1.55    1.04 
  -6   7  -5    3.82    1.54 
   6  -7   5    0.54    0.90 
   6  -7   5    0.79    1.82 
   6  -7   5    2.21    0.89 
  -7   7  -5   12.81    1.44 
  -7   7  -5   12.41    1.90 
   7  -7   5   11.27    1.31 
   7  -7   5    9.86    2.55 
   7  -7   5   12.75    1.32 
   8   6  -5   29.31    2.37 
   8   6  -5   24.33    2.31 
  -8  -6   5   23.51    2.54 
  -8  -6   5   26.88    2.34 
   7   6  -5   59.75    2.87 
   7   6  -5   59.31    3.01 
  -7  -6   5   59.59    2.65 
  -7  -6   5   57.01    3.15 
   6   6  -5   21.05    1.95 
   6   6  -5   20.95    2.00 
  -6  -6   5   18.72    1.91 
  -6  -6   5   21.17    1.83 
  -6  -6   5   21.75    1.98 
   5   6  -5   13.57    1.50 
   5   6  -5   13.73    1.48 
   5   6  -5   14.24    1.15 
  -5  -6   5   14.08    1.53 
  -5  -6   5   13.95    1.61 
  -5  -6   5   17.32    1.54 
   4   6  -5    0.03    0.82 
   4   6  -5    0.53    0.76 
   4   6  -5    0.71    0.94 
   4   6  -5    1.82    1.01 
  -4  -6   5    1.15    1.11 
  -4  -6   5   -0.41    0.97 
  -4  -6   5    0.69    0.74 
   3   6  -5   33.53    1.62 
   3   6  -5   34.65    1.57 
   3   6  -5   31.51    1.71 
   3   6  -5   34.57    1.67 
   3   6  -5   34.55    1.82 
  -3  -6   5   33.59    1.50 
  -3  -6   5   31.23    2.11 
  -3  -6   5   32.93    1.87 
  -3  -6   5   34.38    2.09 
  -3  -6   5   32.94    0.96 
  -3  -6   5   34.91    1.81 
   2   6  -5   51.77    1.91 
   2   6  -5   50.17    1.94 
   2   6  -5   57.57    2.21 
   2   6  -5   51.68    2.06 
   2   6  -5   48.21    2.02 
   2   6  -5   53.01    1.53 
  -2  -6   5   52.68    1.97 
  -2  -6   5   50.51    1.60 
  -2  -6   5   53.33    2.47 
  -2  -6   5   53.43    2.00 
  -2  -6   5   53.45    2.05 
   1   6  -5   26.56    1.40 
   1   6  -5   24.90    1.51 
   1   6  -5   23.61    0.79 
   1   6  -5   23.81    1.55 
   1   6  -5   24.60    1.58 
   1   6  -5   25.79    1.44 
  -1  -6   5   23.97    1.44 
  -1  -6   5   25.86    1.90 
  -1  -6   5   23.25    1.36 
  -1  -6   5   23.72    0.75 
  -1  -6   5   25.04    1.43 
  -1  -6   5   23.45    1.60 
  -1  -6   5   24.94    1.61 
   0   6  -5  119.66    3.32 
   0   6  -5  114.77    3.19 
   0   6  -5  120.29    3.05 
   0   6  -5  115.15    3.67 
   0   6  -5  116.97    3.21 
   0  -6   5  115.71    3.21 
   0  -6   5  123.74    4.03 
   0  -6   5  117.44    3.71 
   0  -6   5  113.19    3.10 
   0  -6   5  123.40    3.22 
   0  -6   5  118.23    3.22 
  -1   6  -5   15.37    1.02 
  -1   6  -5   16.21    1.24 
  -1   6  -5   14.40    1.20 
  -1   6  -5   14.49    1.27 
   1  -6   5   15.13    1.18 
   1  -6   5   12.95    1.30 
   1  -6   5   12.48    1.08 
   1  -6   5   16.38    2.19 
   1  -6   5   14.03    1.18 
   1  -6   5   14.26    1.15 
  -2   6  -5   50.89    1.78 
  -2   6  -5   51.57    1.79 
  -2   6  -5   51.07    2.32 
  -2   6  -5   50.29    2.13 
   2  -6   5   54.46    1.88 
   2  -6   5   52.13    1.38 
   2  -6   5   53.59    1.89 
   2  -6   5   49.72    2.90 
   2  -6   5   51.52    1.85 
   2  -6   5   53.03    1.89 
  -3   6  -5   11.77    0.95 
  -3   6  -5   11.63    1.27 
  -3   6  -5   11.32    1.25 
  -3   6  -5    9.97    0.79 
  -3   6  -5   10.58    0.99 
   3  -6   5    9.35    1.06 
   3  -6   5    9.75    1.74 
   3  -6   5   10.88    0.65 
   3  -6   5   10.47    1.05 
   3  -6   5   10.67    1.02 
  -4   6  -5    8.40    0.83 
  -4   6  -5    8.90    1.43 
  -4   6  -5    7.33    1.20 
   4  -6   5    8.01    0.77 
   4  -6   5    8.10    1.04 
   4  -6   5    7.00    1.75 
   4  -6   5    9.11    1.00 
   4  -6   5    7.74    0.98 
  -5   6  -5   19.54    1.85 
  -5   6  -5   16.43    1.47 
   5  -6   5   19.53    1.41 
   5  -6   5   18.35    1.49 
   5  -6   5   20.16    1.52 
   5  -6   5   16.62    2.35 
  -6   6  -5   48.28    2.74 
  -6   6  -5   46.46    2.19 
   6  -6   5   44.58    2.06 
   6  -6   5   47.38    3.46 
   6  -6   5   47.05    2.09 
  -7   6  -5   77.60    2.83 
  -7   6  -5   81.91    3.53 
   7  -6   5   80.75    2.84 
   7  -6   5   78.85    4.96 
  -8   6  -5    7.75    1.75 
  -8   6  -5    8.45    1.30 
   8  -6   5    7.66    1.30 
   8  -6   5    8.75    1.23 
   8  -6   5    6.63    2.10 
   8   5  -5   50.03    2.70 
   8   5  -5   44.15    2.95 
  -8  -5   5   41.95    3.11 
  -8  -5   5   50.80    2.75 
   7   5  -5    9.11    1.59 
   7   5  -5   10.82    1.35 
  -7  -5   5   13.64    1.49 
  -7  -5   5    9.75    1.66 
   6   5  -5   -1.08    1.17 
   6   5  -5    0.80    0.95 
   6   5  -5    0.11    1.05 
  -6  -5   5    0.73    1.10 
  -6  -5   5    0.35    1.15 
  -6  -5   5    2.95    1.09 
   5   5  -5    0.29    1.00 
   5   5  -5    0.73    0.87 
   5   5  -5    1.03    1.09 
   5   5  -5    1.05    0.60 
  -5  -5   5    0.79    1.07 
  -5  -5   5   -0.04    1.02 
  -5  -5   5    0.45    0.93 
  -5  -5   5    1.94    0.38 
   4   5  -5   72.33    2.50 
   4   5  -5   71.79    2.15 
   4   5  -5   74.49    2.66 
   4   5  -5   70.95    2.86 
   4   5  -5   72.71    2.58 
  -4  -5   5   74.67    2.53 
  -4  -5   5   70.67    2.75 
  -4  -5   5   75.30    2.58 
  -4  -5   5   72.48    1.73 
  -4  -5   5   74.19    2.69 
   3   5  -5   45.99    1.81 
   3   5  -5   44.89    1.98 
   3   5  -5   46.26    1.66 
   3   5  -5   47.44    1.86 
  -3  -5   5   45.13    1.88 
  -3  -5   5   45.94    1.71 
  -3  -5   5   48.90    2.19 
  -3  -5   5   47.89    1.28 
  -3  -5   5   45.22    1.93 
  -3  -5   5   46.95    1.87 
   2   5  -5  186.70    4.20 
   2   5  -5  186.10    4.59 
   2   5  -5  189.44    4.39 
   2   5  -5  181.01    4.44 
  -2  -5   5  183.07    4.44 
  -2  -5   5  181.67    4.52 
  -2  -5   5  183.27    4.13 
  -2  -5   5  184.68    4.81 
  -2  -5   5  187.57    4.61 
   1   5  -5  157.91    3.36 
   1   5  -5  167.28    3.96 
   1   5  -5  166.61    4.09 
   1   5  -5  164.45    4.45 
   1   5  -5  164.26    3.96 
  -1  -5   5  157.25    4.01 
  -1  -5   5  161.99    4.29 
  -1  -5   5  161.13    4.04 
  -1  -5   5  166.35    4.02 
  -1  -5   5  167.46    4.09 
  -1  -5   5  165.44    4.62 
   0   5  -5   42.63    1.59 
   0   5  -5   42.93    1.68 
   0   5  -5   42.38    2.16 
   0   5  -5   40.43    1.72 
   0   5  -5   42.71    1.67 
   0  -5   5   44.46    1.69 
   0  -5   5   41.30    2.02 
   0  -5   5   45.97    2.55 
   0  -5   5   42.36    1.60 
   0  -5   5   45.59    1.74 
   0  -5   5   44.89    1.69 
  -1   5  -5   39.31    1.81 
  -1   5  -5   38.23    1.49 
  -1   5  -5   38.20    1.55 
  -1   5  -5   39.03    1.47 
  -1   5  -5   39.49    1.74 
   1  -5   5   36.96    1.51 
   1  -5   5   41.71    1.72 
   1  -5   5   38.51    2.39 
   1  -5   5   38.82    1.58 
  -2   5  -5   12.85    0.97 
  -2   5  -5   12.51    1.13 
  -2   5  -5   13.09    1.18 
  -2   5  -5   11.66    1.05 
  -2   5  -5   12.21    0.99 
   2  -5   5   12.17    0.62 
   2  -5   5   12.19    1.06 
   2  -5   5   12.23    1.06 
   2  -5   5   10.42    1.63 
   2  -5   5   11.32    1.06 
   2  -5   5   11.00    1.00 
  -3   5  -5   42.36    1.47 
  -3   5  -5   43.77    1.51 
  -3   5  -5   40.69    1.64 
  -3   5  -5   41.79    1.89 
  -3   5  -5   40.02    2.11 
   3  -5   5   46.85    2.94 
   3  -5   5   45.47    1.36 
   3  -5   5   44.46    1.34 
   3  -5   5   42.43    1.68 
   3  -5   5   46.29    1.75 
   3  -5   5   42.76    1.75 
   3  -5   5   44.51    1.85 
  -4   5  -5   14.63    0.91 
  -4   5  -5   13.41    1.28 
  -4   5  -5   10.01    0.84 
  -4   5  -5   14.19    1.51 
  -4   5  -5   13.24    1.13 
   4  -5   5   11.58    1.11 
   4  -5   5   13.19    2.00 
   4  -5   5   14.39    0.95 
   4  -5   5   14.45    1.18 
   4  -5   5   12.94    1.13 
   4  -5   5   14.93    1.39 
   4  -5   5   11.72    1.07 
  -5   5  -5   62.34    2.59 
  -5   5  -5   73.63    2.76 
  -5   5  -5   73.84    2.54 
   5  -5   5   73.87    2.45 
   5  -5   5   72.44    2.38 
   5  -5   5   73.52    4.12 
   5  -5   5   72.02    2.46 
  -6   5  -5   39.44    2.49 
  -6   5  -5   40.64    2.09 
   6  -5   5   43.68    2.18 
   6  -5   5   46.17    3.74 
   6  -5   5   39.95    1.94 
   6  -5   5   40.06    1.86 
  -7   5  -5   21.08    1.75 
  -7   5  -5   19.58    2.05 
   7  -5   5   14.99    2.63 
   7  -5   5   18.79    1.55 
   7  -5   5   16.60    1.65 
   7  -5   5   18.06    1.55 
  -8   5  -5    8.64    1.16 
  -8   5  -5    8.39    1.51 
   8  -5   5    9.01    1.26 
   8  -5   5    5.63    2.35 
   8  -5   5    7.99    1.36 
   9   4  -5    9.34    1.91 
   9   4  -5   13.29    1.80 
  -9  -4   5   12.47    1.60 
  -9  -4   5   11.21    1.98 
  -9  -4   5   10.45    1.69 
   8   4  -5    3.08    1.35 
   8   4  -5    0.00    1.42 
   8   4  -5    2.51    1.27 
   8   4  -5    3.26    1.97 
  -8  -4   5    1.28    1.37 
  -8  -4   5    1.95    1.24 
  -8  -4   5    5.28    1.36 
   7   4  -5    0.42    1.02 
   7   4  -5   -0.79    1.16 
   7   4  -5    0.44    1.13 
   7   4  -5    0.35    1.05 
  -7  -4   5   -2.14    1.24 
  -7  -4   5    0.12    1.11 
   6   4  -5   78.02    2.97 
   6   4  -5   82.51    2.87 
   6   4  -5   83.29    3.26 
  -6  -4   5   80.19    3.05 
  -6  -4   5   83.05    3.02 
  -6  -4   5   83.91    2.75 
   5   4  -5   65.99    2.66 
   5   4  -5   64.18    2.52 
   5   4  -5   63.47    1.78 
   5   4  -5   62.78    2.40 
  -5  -4   5   66.53    2.42 
  -5  -4   5   63.45    2.51 
  -5  -4   5   61.34    1.67 
  -5  -4   5   67.66    2.57 
   4   4  -5  103.44    2.64 
   4   4  -5  102.90    3.06 
   4   4  -5  103.86    3.09 
   4   4  -5  101.18    3.07 
   4   4  -5  107.21    3.48 
  -4  -4   5  107.97    3.12 
  -4  -4   5  110.74    3.25 
  -4  -4   5  106.16    2.46 
  -4  -4   5  111.19    3.33 
  -4  -4   5  112.17    3.03 
   3   4  -5  101.49    2.82 
   3   4  -5   98.94    2.73 
   3   4  -5   94.19    3.27 
   3   4  -5   96.49    2.54 
   3   4  -5   92.82    2.88 
  -3  -4   5   97.77    2.80 
  -3  -4   5   96.73    2.92 
  -3  -4   5   98.34    2.29 
  -3  -4   5   99.88    3.03 
  -3  -4   5   95.15    2.83 
  -3  -4   5   98.65    2.64 
   2   4  -5   54.82    1.74 
   2   4  -5   56.77    1.98 
   2   4  -5   53.34    1.64 
   2   4  -5   53.27    1.85 
  -2  -4   5   54.19    2.04 
  -2  -4   5   52.23    1.56 
  -2  -4   5   52.23    1.79 
  -2  -4   5   50.15    1.84 
  -2  -4   5   53.12    1.76 
  -2  -4   5   54.86    2.00 
   1   4  -5    1.57    0.65 
   1   4  -5    1.20    0.34 
   1   4  -5    1.10    0.69 
   1   4  -5    1.32    0.19 
   1   4  -5    1.15    0.71 
   1   4  -5    1.08    0.76 
  -1  -4   5    1.00    0.69 
  -1  -4   5    2.45    0.74 
  -1  -4   5    1.59    0.58 
  -1  -4   5    1.38    0.91 
  -1  -4   5    1.22    0.72 
  -1  -4   5    1.44    0.67 
  -1  -4   5    1.14    0.57 
   0   4  -5    0.10    0.55 
   0   4  -5    0.37    0.64 
   0   4  -5   -0.77    0.68 
   0   4  -5    0.53    0.78 
   0  -4   5    0.61    0.68 
   0  -4   5    0.51    0.50 
   0  -4   5    1.16    0.68 
   0  -4   5   -0.49    0.68 
   0  -4   5    0.93    0.58 
   0  -4   5   -0.19    0.73 
   0  -4   5    1.80    1.05 
  -1   4  -5   92.10    2.44 
  -1   4  -5   96.73    2.50 
  -1   4  -5   95.80    2.73 
  -1   4  -5   97.51    2.64 
  -1   4  -5   91.40    2.57 
   1  -4   5   94.38    2.65 
   1  -4   5   91.18    2.59 
   1  -4   5   91.71    2.61 
   1  -4   5   97.20    3.64 
  -2   4  -5   71.45    1.95 
  -2   4  -5   71.39    2.41 
  -2   4  -5   78.59    2.13 
  -2   4  -5   71.05    2.23 
  -2   4  -5   71.77    2.32 
   2  -4   5   70.89    2.23 
   2  -4   5   75.56    3.28 
   2  -4   5   77.30    2.24 
   2  -4   5   73.32    2.35 
   2  -4   5   78.61    2.28 
   2  -4   5   74.73    1.73 
  -3   4  -5  158.20    3.61 
  -3   4  -5  158.20    3.95 
  -3   4  -5  159.83    4.03 
  -3   4  -5  157.45    3.52 
  -3   4  -5  159.96    4.23 
  -3   4  -5  157.35    3.82 
   3  -4   5  163.86    4.03 
   3  -4   5  162.85    5.30 
   3  -4   5  160.78    3.95 
   3  -4   5  155.11    3.92 
   3  -4   5  155.72    3.96 
   3  -4   5  164.20    3.66 
  -4   4  -5  113.88    2.90 
  -4   4  -5  111.97    2.46 
  -4   4  -5  103.51    3.37 
  -4   4  -5  107.03    3.10 
  -4   4  -5  112.08    3.08 
  -4   4  -5  109.31    2.88 
   4  -4   5  108.88    4.51 
   4  -4   5  108.79    3.01 
   4  -4   5  111.60    2.96 
   4  -4   5  108.22    3.02 
   4  -4   5  108.22    3.12 
   4  -4   5  107.36    3.01 
  -5   4  -5   40.73    1.84 
  -5   4  -5   44.28    1.95 
  -5   4  -5   38.05    2.22 
   5  -4   5   40.55    1.87 
   5  -4   5   41.30    1.89 
   5  -4   5   36.75    3.26 
   5  -4   5   41.06    1.78 
   5  -4   5   42.52    1.94 
  -6   4  -5   40.34    2.13 
  -6   4  -5   34.16    2.20 
  -6   4  -5   39.40    1.83 
   6  -4   5   36.75    1.88 
   6  -4   5   36.51    3.48 
   6  -4   5   40.17    2.15 
   6  -4   5   38.07    1.83 
  -7   4  -5    0.74    1.35 
  -7   4  -5    1.03    0.94 
   7  -4   5    0.20    0.85 
   7  -4   5   -0.22    1.14 
   7  -4   5    0.71    0.95 
   7  -4   5    0.14    1.81 
  -8   4  -5   16.94    2.01 
  -8   4  -5   20.12    1.58 
   8  -4   5   14.98    2.69 
   8  -4   5   20.47    1.68 
   8  -4   5   12.92    1.80 
   9   3  -5   -2.74    1.45 
   9   3  -5    0.84    1.23 
   9   3  -5    1.48    1.49 
   9   3  -5    1.57    1.22 
  -9  -3   5    0.25    1.18 
  -9  -3   5   -0.17    1.11 
  -9  -3   5    0.84    1.44 
   8   3  -5   12.60    1.51 
   8   3  -5   11.47    1.79 
   8   3  -5   13.01    1.80 
   8   3  -5   13.64    1.66 
  -8  -3   5   11.40    1.71 
  -8  -3   5   13.31    1.63 
  -8  -3   5   13.12    1.53 
   7   3  -5   73.74    2.61 
   7   3  -5   70.69    3.14 
   7   3  -5   73.09    2.72 
  -7  -3   5   71.95    2.85 
  -7  -3   5   72.69    2.92 
   6   3  -5   85.76    2.85 
   6   3  -5   80.51    3.09 
   6   3  -5   81.13    2.78 
  -6  -3   5   82.51    2.19 
  -6  -3   5   83.18    2.78 
  -6  -3   5   88.60    2.98 
  -6  -3   5   80.40    2.93 
   5   3  -5   65.02    2.33 
   5   3  -5   63.41    2.48 
   5   3  -5   67.26    2.46 
   5   3  -5   64.63    1.65 
   5   3  -5   60.31    2.27 
  -5  -3   5   62.88    2.37 
  -5  -3   5   65.13    1.76 
  -5  -3   5   64.23    2.18 
  -5  -3   5   60.63    2.24 
   4   3  -5   88.28    2.65 
   4   3  -5   88.32    2.18 
   4   3  -5   88.35    2.63 
   4   3  -5   83.99    2.63 
   4   3  -5   90.31    2.73 
  -4  -3   5   89.50    2.67 
  -4  -3   5   85.76    2.53 
  -4  -3   5   83.59    2.62 
  -4  -3   5   88.74    2.15 
  -4  -3   5   88.36    2.74 
   3   3  -5    1.39    0.65 
   3   3  -5    2.55    0.75 
   3   3  -5    1.92    0.82 
   3   3  -5    2.20    0.76 
   3   3  -5    1.86    0.54 
   3   3  -5    2.34    0.66 
   3   3  -5    2.75    0.86 
  -3  -3   5    2.63    0.82 
  -3  -3   5    1.99    0.61 
  -3  -3   5    1.23    0.57 
  -3  -3   5    2.36    0.71 
  -3  -3   5    1.72    0.59 
  -3  -3   5    2.65    0.50 
   2   3  -5   10.25    0.93 
   2   3  -5    8.61    1.26 
   2   3  -5   11.74    0.89 
   2   3  -5   10.64    0.94 
   2   3  -5   11.26    0.93 
  -2  -3   5   10.99    0.82 
  -2  -3   5   10.82    0.93 
  -2  -3   5   11.37    0.89 
  -2  -3   5   10.57    0.97 
  -2  -3   5    9.03    0.93 
  -2  -3   5   10.30    1.02 
   1   3  -5   56.36    2.43 
   1   3  -5   57.33    1.46 
   1   3  -5   51.74    1.78 
   1   3  -5   55.76    1.20 
   1   3  -5   56.19    1.77 
   1   3  -5   55.27    1.80 
   1   3  -5   54.28    1.80 
  -1  -3   5   53.75    1.86 
  -1  -3   5   57.24    1.87 
  -1  -3   5   59.00    1.84 
  -1  -3   5   54.18    1.80 
  -1  -3   5   55.01    2.48 
  -1  -3   5   54.14    1.89 
   0   3  -5  109.59    2.80 
   0   3  -5  109.32    2.97 
   0   3  -5  114.72    2.32 
   0   3  -5  110.79    3.57 
   0   3  -5  111.14    2.87 
   0   3  -5  111.96    2.88 
   0   3  -5  113.62    2.91 
   0   3  -5  113.71    2.31 
   0  -3   5  111.72    2.96 
   0  -3   5  114.85    2.78 
   0  -3   5  117.34    3.86 
   0  -3   5  112.52    2.89 
  -1   3  -5   79.12    3.04 
  -1   3  -5   82.10    1.76 
  -1   3  -5   81.04    2.34 
  -1   3  -5   77.91    2.37 
  -1   3  -5   82.95    2.32 
  -1   3  -5   81.04    2.37 
   1  -3   5   83.01    2.28 
   1  -3   5   79.43    2.40 
   1  -3   5   84.68    3.31 
   1  -3   5   84.23    2.40 
   1  -3   5   78.22    2.33 
   1  -3   5   82.95    2.33 
  -2   3  -5  225.45    5.20 
  -2   3  -5  214.92    5.05 
  -2   3  -5  227.11    5.25 
  -2   3  -5  223.18    4.76 
  -2   3  -5  226.87    4.78 
  -2   3  -5  224.92    5.18 
   2  -3   5  219.32    5.20 
   2  -3   5  227.90    6.30 
   2  -3   5  221.59    5.14 
   2  -3   5  236.58    5.17 
   2  -3   5  222.45    5.17 
  -3   3  -5   25.06    1.15 
  -3   3  -5   30.10    1.48 
  -3   3  -5   28.92    1.46 
  -3   3  -5   27.12    1.62 
  -3   3  -5   27.48    1.30 
  -3   3  -5   28.91    0.87 
   3  -3   5   29.37    1.25 
   3  -3   5   29.20    1.37 
   3  -3   5   28.13    1.37 
   3  -3   5   29.26    1.41 
   3  -3   5   30.92    1.51 
   3  -3   5   28.82    2.15 
  -4   3  -5    3.64    1.06 
  -4   3  -5    4.55    0.87 
  -4   3  -5    3.51    0.83 
  -4   3  -5    4.72    0.88 
  -4   3  -5    1.44    0.63 
   4  -3   5    3.33    1.50 
   4  -3   5    3.80    0.82 
   4  -3   5    3.33    0.78 
   4  -3   5    2.94    0.85 
   4  -3   5    3.50    0.79 
   4  -3   5    2.89    0.76 
  -5   3  -5    1.16    0.80 
  -5   3  -5    2.36    0.84 
  -5   3  -5    3.40    0.87 
  -5   3  -5    2.79    0.91 
   5  -3   5    2.49    0.88 
   5  -3   5    2.49    1.30 
   5  -3   5    2.75    0.92 
   5  -3   5    1.76    0.89 
   5  -3   5    2.22    0.94 
   5  -3   5    1.51    0.83 
  -6   3  -5   22.29    1.60 
  -6   3  -5   25.05    1.74 
  -6   3  -5   23.70    2.01 
   6  -3   5   23.11    1.63 
   6  -3   5   22.51    1.55 
   6  -3   5   23.64    1.80 
   6  -3   5   21.97    3.00 
  -7   3  -5   31.51    1.73 
  -7   3  -5   28.53    2.27 
   7  -3   5   31.18    1.92 
   7  -3   5   28.14    2.95 
   7  -3   5   29.45    2.14 
   7  -3   5   27.14    1.78 
  -8   3  -5   41.97    2.77 
  -8   3  -5   44.94    2.23 
   8  -3   5   42.62    4.14 
   8  -3   5   47.59    2.41 
   8  -3   5   44.70    2.67 
   8  -3   5   51.00    2.57 
  -9   3  -5   28.28    2.22 
   9  -3   5   26.62    2.31 
   9  -3   5   23.08    3.27 
   9  -3   5   22.91    2.21 
   9  -3   5   27.40    2.20 
   9   2  -5   57.01    3.39 
   9   2  -5   60.72    3.88 
   9   2  -5   60.72    2.73 
   9   2  -5   63.25    2.87 
  -9  -2   5   58.09    2.66 
  -9  -2   5   61.04    3.01 
  -9  -2   5   61.45    2.81 
   8   2  -5   56.13    3.05 
   8   2  -5   57.49    3.52 
   8   2  -5   61.98    2.58 
   8   2  -5   64.06    2.69 
  -8  -2   5   58.17    2.62 
  -8  -2   5   56.62    2.67 
  -8  -2   5   54.53    2.44 
   7   2  -5   39.00    2.01 
   7   2  -5   34.70    2.42 
   7   2  -5   41.27    2.14 
  -7  -2   5   34.15    2.00 
  -7  -2   5   34.88    2.22 
  -7  -2   5   36.65    2.07 
  -7  -2   5   38.93    1.55 
   6   2  -5   78.09    2.55 
   6   2  -5   78.46    3.01 
   6   2  -5   75.43    2.60 
   6   2  -5   74.46    2.64 
  -6  -2   5   77.67    2.69 
  -6  -2   5   75.19    2.70 
  -6  -2   5   85.22    2.63 
  -6  -2   5   80.41    2.21 
   5   2  -5   10.52    0.98 
   5   2  -5   10.92    1.23 
   5   2  -5   10.53    0.59 
   5   2  -5   11.58    1.00 
   5   2  -5   11.49    1.20 
  -5  -2   5   10.80    1.06 
  -5  -2   5   10.43    0.78 
  -5  -2   5   10.59    1.06 
  -5  -2   5   10.84    1.18 
   4   2  -5   -0.10    0.39 
   4   2  -5    0.76    0.79 
   4   2  -5   -0.75    0.70 
   4   2  -5   -0.56    0.64 
   4   2  -5    0.01    0.50 
   4   2  -5   -0.66    0.52 
  -4  -2   5    0.79    0.77 
  -4  -2   5    0.30    0.69 
  -4  -2   5   -0.54    0.50 
   3   2  -5   12.57    1.09 
   3   2  -5   13.95    0.84 
   3   2  -5   14.20    0.95 
   3   2  -5   12.94    1.11 
   3   2  -5   13.48    1.10 
   3   2  -5   15.77    1.63 
   3   2  -5   14.36    1.23 
  -3  -2   5   13.58    1.13 
  -3  -2   5   13.79    1.07 
  -3  -2   5   15.72    1.05 
  -3  -2   5   13.59    1.01 
  -3  -2   5   14.07    1.10 
  -3  -2   5   14.68    0.80 
   2   2  -5  291.74    6.54 
   2   2  -5  302.24    7.27 
   2   2  -5  303.26    6.47 
   2   2  -5  293.27    6.17 
   2   2  -5  300.39    6.64 
  -2  -2   5  291.85    6.22 
  -2  -2   5  306.12    6.47 
  -2  -2   5  305.05    6.65 
  -2  -2   5  297.27    6.50 
  -2  -2   5  309.84    6.58 
  -2  -2   5  290.66    6.56 
   1   2  -5  107.03    2.55 
   1   2  -5  106.52    2.30 
   1   2  -5  105.04    2.72 
   1   2  -5  106.58    2.87 
   1   2  -5  114.58    3.65 
   1   2  -5  108.60    2.84 
   1   2  -5  105.17    2.76 
  -1  -2   5  105.54    3.55 
  -1  -2   5  106.60    2.89 
  -1  -2   5  105.86    2.49 
  -1  -2   5  106.62    2.77 
  -1  -2   5  108.71    2.75 
  -1  -2   5  114.59    2.80 
  -1  -2   5  107.74    2.75 
   0   2  -5  192.22    4.45 
   0   2  -5  183.73    4.34 
   0   2  -5  185.00    4.18 
   0   2  -5  190.35    5.18 
   0   2  -5  188.93    4.34 
   0   2  -5  178.08    4.33 
   0  -2   5  184.02    3.81 
   0  -2   5  183.64    4.43 
   0  -2   5  195.84    4.36 
   0  -2   5  187.71    4.14 
   0  -2   5  188.98    4.37 
   0  -2   5  194.96    4.40 
   0  -2   5  197.16    5.35 
  -1   2  -5  193.26    4.55 
  -1   2  -5  184.22    4.41 
  -1   2  -5  200.13    5.37 
  -1   2  -5  196.16    4.17 
  -1   2  -5  196.18    4.41 
  -1   2  -5  186.99    4.44 
   1  -2   5  172.07    4.31 
   1  -2   5  198.97    4.51 
   1  -2   5  206.06    5.63 
   1  -2   5  200.54    4.58 
   1  -2   5  199.94    4.56 
   1  -2   5  188.63    4.47 
  -2   2  -5    8.26    0.84 
  -2   2  -5   10.69    1.02 
  -2   2  -5    9.46    0.86 
  -2   2  -5   10.29    0.91 
  -2   2  -5    8.70    0.92 
   2  -2   5    8.92    0.75 
   2  -2   5    9.34    0.88 
   2  -2   5    8.94    0.99 
   2  -2   5    9.26    0.91 
   2  -2   5    8.94    1.49 
   2  -2   5    9.29    0.94 
  -3   2  -5   -0.29    0.54 
  -3   2  -5   -0.40    0.60 
  -3   2  -5    1.49    0.82 
  -3   2  -5   -0.86    0.70 
  -3   2  -5   -0.08    0.14 
   3  -2   5   -0.24    0.89 
   3  -2   5   -0.04    0.66 
   3  -2   5   -0.12    0.60 
   3  -2   5    1.22    0.65 
   3  -2   5    0.68    0.65 
   3  -2   5    0.62    0.73 
  -4   2  -5    0.70    0.91 
  -4   2  -5    1.93    0.81 
  -4   2  -5    1.39    0.70 
   4  -2   5    2.13    0.83 
   4  -2   5    1.58    0.75 
   4  -2   5    1.02    0.82 
   4  -2   5    1.56    0.72 
   4  -2   5    1.84    0.76 
   4  -2   5    1.16    1.34 
  -5   2  -5  118.27    3.33 
  -5   2  -5  113.32    3.20 
  -5   2  -5  113.77    3.52 
   5  -2   5  105.66    3.17 
   5  -2   5  115.52    3.22 
   5  -2   5  114.65    4.75 
   5  -2   5  111.52    3.44 
   5  -2   5  115.10    3.31 
  -6   2  -5   35.72    1.90 
  -6   2  -5   37.60    2.23 
  -6   2  -5   37.59    1.80 
   6  -2   5   36.97    2.12 
   6  -2   5   33.88    1.91 
   6  -2   5   33.64    2.84 
   6  -2   5   35.89    1.96 
  -7   2  -5  104.31    3.37 
  -7   2  -5  107.16    3.06 
  -7   2  -5  103.00    3.55 
   7  -2   5  105.94    3.31 
   7  -2   5  105.87    5.17 
   7  -2   5  101.71    3.40 
   7  -2   5  106.56    3.69 
  -8   2  -5   34.87    2.61 
  -8   2  -5   37.42    1.94 
   8  -2   5   33.30    3.74 
   8  -2   5   38.48    2.24 
   8  -2   5   34.56    2.52 
   8  -2   5   39.10    2.14 
  -9   2  -5    2.67    1.64 
   9  -2   5    0.84    2.12 
   9  -2   5    0.37    1.16 
   9  -2   5   -1.91    1.42 
   9  -2   5    2.82    1.18 
  10   1  -5   49.44    3.51 
  10   1  -5   49.51    2.75 
  10   1  -5   52.43    2.64 
  10   1  -5   55.16    3.95 
 -10  -1   5   55.59    2.72 
   9   1  -5   45.67    3.45 
   9   1  -5   48.56    3.12 
   9   1  -5   49.46    2.49 
   9   1  -5   43.52    2.31 
  -9  -1   5   44.45    2.35 
  -9  -1   5   47.44    2.40 
   8   1  -5   22.08    1.56 
   8   1  -5   17.28    1.95 
   8   1  -5   19.82    2.48 
   8   1  -5   20.11    1.72 
  -8  -1   5   18.47    1.62 
  -8  -1   5   19.61    1.69 
   7   1  -5   25.76    1.76 
   7   1  -5   21.08    1.64 
   7   1  -5   23.07    2.18 
  -7  -1   5   21.50    1.66 
  -7  -1   5   24.88    1.31 
  -7  -1   5   24.17    1.85 
  -7  -1   5   25.15    1.74 
   6   1  -5   37.62    2.23 
   6   1  -5   32.49    1.81 
   6   1  -5   37.69    1.79 
   6   1  -5   36.67    1.75 
  -6  -1   5   34.30    1.79 
  -6  -1   5   36.55    1.65 
  -6  -1   5   38.01    1.45 
  -6  -1   5   36.21    1.88 
  -6  -1   5   40.21    1.72 
   5   1  -5   74.57    2.33 
   5   1  -5   72.22    2.18 
   5   1  -5   74.22    2.68 
   5   1  -5   68.01    2.28 
   5   1  -5   73.83    1.64 
   5   1  -5   76.40    2.27 
  -5  -1   5   70.32    2.29 
  -5  -1   5   74.64    2.29 
  -5  -1   5   71.71    2.03 
  -5  -1   5   74.29    2.43 
   4   1  -5   57.32    1.90 
   4   1  -5   58.78    1.74 
   4   1  -5   58.43    2.18 
   4   1  -5   58.14    1.96 
   4   1  -5   65.11    1.99 
   4   1  -5   52.95    1.90 
  -4  -1   5   59.99    1.71 
  -4  -1   5   58.17    2.03 
  -4  -1   5   59.96    1.84 
  -4  -1   5   60.95    1.94 
   3   1  -5  248.86    5.73 
   3   1  -5  247.78    5.37 
   3   1  -5  245.17    5.63 
   3   1  -5  249.02    5.60 
   3   1  -5  252.03    5.34 
   3   1  -5  262.15    5.71 
   3   1  -5  242.29    5.56 
  -3  -1   5  254.02    5.38 
  -3  -1   5  241.09    5.60 
  -3  -1   5  249.58    5.37 
  -3  -1   5  259.98    5.59 
  -3  -1   5  249.92    5.57 
   2   1  -5   64.09    1.95 
   2   1  -5   59.86    1.60 
   2   1  -5   61.60    1.95 
   2   1  -5   56.86    1.86 
   2   1  -5   61.75    2.61 
   2   1  -5   65.71    2.04 
   2   1  -5   63.68    1.96 
  -2  -1   5   64.81    1.66 
  -2  -1   5   62.76    2.00 
  -2  -1   5   62.35    1.44 
  -2  -1   5   64.72    1.74 
  -2  -1   5   57.32    1.85 
  -2  -1   5   62.36    1.91 
  -2  -1   5   63.32    1.86 
   1   1  -5  146.32    3.65 
   1   1  -5  148.52    3.64 
   1   1  -5  149.19    3.63 
   1   1  -5  151.22    3.61 
   1   1  -5  154.68    3.28 
   1   1  -5  153.79    4.49 
  -1  -1   5  147.82    4.44 
  -1  -1   5  158.18    3.64 
  -1  -1   5  149.32    3.57 
  -1  -1   5  153.45    3.22 
  -1  -1   5  163.64    3.64 
   0   1  -5   31.74    2.22 
   0   1  -5   30.10    1.21 
   0   1  -5   31.30    1.23 
   0   1  -5   29.73    1.45 
   0   1  -5   27.73    1.06 
   0   1  -5   29.35    1.41 
   0  -1   5   28.77    0.94 
   0  -1   5   32.52    2.30 
   0  -1   5   30.08    1.06 
   0  -1   5   32.45    1.40 
   0  -1   5   29.96    1.45 
   0  -1   5   29.50    1.34 
   0  -1   5   28.43    1.40 
  -1   1  -5   25.59    1.30 
  -1   1  -5   23.45    1.10 
  -1   1  -5   25.25    1.32 
  -1   1  -5   25.80    1.15 
  -1   1  -5   23.35    1.23 
  -1   1  -5   25.90    1.72 
  -1   1  -5   23.61    1.38 
   1  -1   5   27.09    1.44 
   1  -1   5   25.88    0.95 
   1  -1   5   23.57    1.16 
   1  -1   5   23.82    1.32 
   1  -1   5   25.30    1.14 
   1  -1   5   28.80    2.03 
  -2   1  -5   78.38    2.23 
  -2   1  -5   70.54    2.13 
  -2   1  -5   75.23    2.31 
  -2   1  -5   72.87    2.19 
   2  -1   5   77.28    3.32 
   2  -1   5   75.73    2.13 
   2  -1   5   69.61    2.17 
   2  -1   5   73.98    2.30 
   2  -1   5   74.62    2.26 
  -3   1  -5  126.13    3.26 
  -3   1  -5  126.42    3.26 
  -3   1  -5  127.10    3.37 
  -3   1  -5  123.86    3.34 
   3  -1   5  126.39    3.29 
   3  -1   5  128.16    2.97 
   3  -1   5  119.71    3.31 
   3  -1   5  125.36    4.26 
   3  -1   5  128.48    3.27 
   3  -1   5  130.20    3.28 
   3  -1   5  127.91    3.26 
  -4   1  -5   39.45    1.66 
  -4   1  -5   37.69    1.76 
  -4   1  -5   41.67    1.91 
   4  -1   5   38.84    1.69 
   4  -1   5   38.67    1.66 
   4  -1   5   37.64    1.81 
   4  -1   5   39.51    2.51 
   4  -1   5   39.36    1.79 
  -5   1  -5   71.05    2.39 
  -5   1  -5   72.14    2.54 
  -5   1  -5   73.23    2.73 
   5  -1   5   74.41    2.45 
   5  -1   5   74.49    2.46 
   5  -1   5   75.10    3.82 
   5  -1   5   72.97    2.68 
   5  -1   5   71.04    2.53 
  -6   1  -5   67.78    2.81 
  -6   1  -5   73.36    2.63 
  -6   1  -5   72.00    2.24 
   6  -1   5   69.40    2.54 
   6  -1   5   72.56    4.05 
   6  -1   5   67.84    2.47 
   6  -1   5   71.64    2.88 
  -7   1  -5    7.73    1.54 
  -7   1  -5    9.83    1.36 
  -7   1  -5   11.41    1.18 
   7  -1   5   10.29    1.28 
   7  -1   5    9.07    1.36 
   7  -1   5    7.97    1.79 
   7  -1   5    8.72    1.60 
  -8   1  -5    6.32    1.06 
  -8   1  -5    5.79    1.61 
  -8   1  -5    5.63    1.30 
   8  -1   5    6.06    1.55 
   8  -1   5    5.92    2.12 
   8  -1   5    7.63    1.40 
   8  -1   5    6.48    1.26 
  -9   1  -5    5.20    1.24 
  -9   1  -5    4.75    1.38 
   9  -1   5    5.18    1.40 
   9  -1   5    6.95    1.38 
   9  -1   5    3.52    2.24 
   9  -1   5    3.88    1.79 
  10   0  -5   11.61    1.85 
  10   0  -5   10.42    2.22 
  10   0  -5   14.15    1.67 
  10   0  -5   11.82    1.52 
 -10   0   5   15.59    1.54 
   9   0  -5    5.31    1.65 
   9   0  -5    6.44    1.84 
   9   0  -5    9.02    1.35 
   9   0  -5    7.70    1.34 
  -9   0   5    7.71    1.28 
  -9   0   5    7.32    1.38 
   8   0  -5    2.14    0.94 
   8   0  -5    1.84    1.00 
   8   0  -5    2.01    1.37 
  -8   0   5    2.26    1.11 
  -8   0   5    1.09    0.91 
  -8   0   5    1.92    0.98 
   7   0  -5    5.53    1.15 
   7   0  -5    6.42    1.05 
   7   0  -5    7.06    1.10 
  -7   0   5    6.40    0.92 
  -7   0   5    5.01    1.04 
  -7   0   5    9.29    1.19 
  -7   0   5    6.75    1.09 
   6   0  -5   11.36    1.45 
   6   0  -5   12.52    1.16 
   6   0  -5   14.25    1.18 
   6   0  -5   13.62    1.24 
   6   0  -5   13.91    1.22 
  -6   0   5   13.78    1.26 
  -6   0   5   13.16    1.11 
  -6   0   5   13.98    1.03 
  -6   0   5   11.74    1.04 
  -6   0   5   12.31    1.19 
   5   0  -5  234.20    5.47 
   5   0  -5  240.39    5.32 
   5   0  -5  250.31    5.59 
   5   0  -5  228.59    5.48 
   5   0  -5  249.14    5.99 
   5   0  -5  224.82    5.53 
  -5   0   5  245.94    5.58 
  -5   0   5  239.47    5.38 
  -5   0   5  237.63    5.53 
  -5   0   5  237.71    5.42 
  -5   0   5  245.11    5.31 
  -5   0   5  232.41    5.31 
   4   0  -5   62.71    1.92 
   4   0  -5   59.63    1.93 
   4   0  -5   59.91    2.26 
   4   0  -5   58.09    1.98 
   4   0  -5   55.51    1.93 
   4   0  -5   59.96    1.66 
  -4   0   5   62.93    1.65 
  -4   0   5   60.95    1.86 
  -4   0   5   64.15    2.00 
  -4   0   5   60.53    1.80 
  -4   0   5   60.78    1.74 
   3   0  -5  164.91    3.87 
   3   0  -5  167.11    4.15 
   3   0  -5  163.03    3.51 
   3   0  -5  166.57    3.90 
   3   0  -5  165.62    3.77 
   3   0  -5  160.70    3.94 
  -3   0   5  169.06    3.85 
  -3   0   5  166.20    3.84 
  -3   0   5  168.44    3.47 
  -3   0   5  166.75    3.94 
  -3   0   5  163.56    3.76 
  -3   0   5  165.12    3.54 
   2   0  -5   54.31    1.73 
   2   0  -5   51.66    1.76 
   2   0  -5   51.66    1.82 
   2   0  -5   50.98    1.72 
   2   0  -5   51.10    1.66 
   2   0  -5   53.31    2.43 
  -2   0   5   51.84    1.64 
  -2   0   5   53.32    1.64 
  -2   0   5   52.64    1.60 
  -2   0   5   49.98    1.74 
  -2   0   5   53.75    1.21 
   1   0  -5   38.54    2.19 
   1   0  -5   35.24    1.33 
   1   0  -5   40.17    1.48 
   1   0  -5   37.81    1.16 
   1   0  -5   37.12    1.42 
   1   0  -5   35.01    1.36 
  -1   0   5   37.24    1.40 
  -1   0   5   35.69    1.50 
  -1   0   5   37.40    1.25 
  -1   0   5   38.05    1.42 
   0   0  -5    5.85    0.79 
   0   0  -5    6.46    0.82 
   0   0  -5    6.35    0.71 
   0   0  -5    5.42    0.71 
   0   0  -5    6.36    0.53 
   0   0   5    5.19    0.68 
   0   0   5    5.76    0.62 
   0   0   5    5.78    0.87 
   0   0   5    7.40    0.69 
   0   0   5    6.41    0.81 
   0   0   5    5.07    0.60 
   0   0   5    5.94    1.30 
  -1   0  -5   14.77    0.99 
  -1   0  -5   12.11    0.86 
  -1   0  -5   12.29    0.91 
  -1   0  -5   11.79    1.48 
  -1   0  -5   13.45    1.12 
  -1   0  -5   12.93    1.19 
   1   0   5   11.46    0.95 
   1   0   5   16.29    0.94 
   1   0   5   13.31    0.91 
   1   0   5    8.32    0.85 
   1   0   5   15.53    2.16 
   1   0   5   12.85    0.90 
   1   0   5   12.25    0.96 
  -2   0  -5  479.00    9.85 
  -2   0  -5  474.89    9.95 
  -2   0  -5  467.80    9.44 
  -2   0  -5  437.92    9.93 
  -2   0  -5  457.42    9.85 
   2   0   5  473.17   10.03 
   2   0   5  472.60    9.51 
   2   0   5  463.40    9.87 
   2   0   5  482.55   11.06 
   2   0   5  487.48    9.91 
   2   0   5  472.27    9.94 
   2   0   5  450.32    9.91 
  -3   0  -5  109.11    2.97 
  -3   0  -5  109.18    2.29 
  -3   0  -5  114.42    2.93 
  -3   0  -5  106.74    2.95 
   3   0   5  108.27    4.06 
   3   0   5  104.56    3.03 
   3   0   5  115.20    3.10 
   3   0   5  110.93    2.95 
   3   0   5  104.11    2.92 
  -4   0  -5  172.88    4.25 
  -4   0  -5  157.93    4.03 
   4   0   5  157.81    4.09 
   4   0   5  157.33    4.19 
   4   0   5  163.66    4.33 
   4   0   5  166.82    5.37 
   4   0   5  166.86    4.13 
   4   0   5  166.50    3.70 
  -5   0  -5   57.19    1.81 
  -5   0  -5   58.92    2.19 
  -5   0  -5   60.16    2.32 
  -5   0  -5   59.98    2.32 
   5   0   5   58.11    2.32 
   5   0   5   59.12    2.20 
   5   0   5   55.80    3.38 
   5   0   5   59.19    2.55 
   5   0   5   58.85    2.21 
  -6   0  -5    0.96    0.78 
  -6   0  -5    1.57    1.22 
  -6   0  -5    0.40    0.64 
  -6   0  -5    0.44    0.93 
   6   0   5    1.13    0.72 
   6   0   5    0.15    1.40 
   6   0   5    1.50    1.00 
   6   0   5    0.25    1.13 
  -7   0  -5    1.04    0.84 
  -7   0  -5   -0.70    1.28 
  -7   0  -5    0.71    1.08 
   7   0   5   -0.20    0.99 
   7   0   5   -0.98    1.32 
   7   0   5   -0.12    1.64 
   7   0   5   -0.22    1.01 
  -8   0  -5   33.01    2.53 
  -8   0  -5   31.94    2.16 
  -8   0  -5   30.85    1.76 
   8   0   5   29.59    2.60 
   8   0   5   31.76    2.12 
   8   0   5   30.83    2.22 
   8   0   5   32.42    3.55 
  -9   0  -5    7.29    1.85 
   9   0   5    6.20    2.33 
   9   0   5    8.78    1.56 
   9   0   5    5.44    1.80 
   9   0   5    9.45    1.49 
  10  -1  -5    2.38    1.23 
  10  -1  -5    1.77    1.26 
  10  -1  -5    3.67    1.92 
  10  -1  -5    1.06    1.68 
 -10   1   5    1.93    1.32 
   9  -1  -5   47.12    3.68 
   9  -1  -5   37.78    2.95 
   9  -1  -5   37.54    2.14 
   9  -1  -5   44.21    2.27 
  -9   1   5   43.22    2.14 
  -9   1   5   43.87    2.34 
   8  -1  -5   63.31    2.60 
   8  -1  -5   70.17    3.32 
   8  -1  -5   68.81    2.58 
  -8   1   5   62.42    2.42 
  -8   1   5   68.06    2.44 
   7  -1  -5   83.54    3.40 
   7  -1  -5   88.39    2.80 
   7  -1  -5   83.42    2.70 
  -7   1   5   88.84    2.73 
  -7   1   5   87.15    2.63 
  -7   1   5   86.54    2.70 
  -7   1   5   89.19    2.88 
   6  -1  -5  169.77    4.31 
   6  -1  -5  169.65    4.25 
   6  -1  -5  165.18    4.17 
   6  -1  -5  170.54    4.86 
   6  -1  -5  169.60    3.50 
   6  -1  -5  172.88    4.14 
   6  -1  -5  167.04    4.19 
  -6   1   5  173.21    4.11 
  -6   1   5  172.11    4.14 
  -6   1   5  169.57    4.09 
  -6   1   5  166.15    4.24 
  -6   1   5  169.11    4.22 
   5  -1  -5   47.11    1.71 
   5  -1  -5   47.31    1.73 
   5  -1  -5   42.04    1.49 
   5  -1  -5   42.92    1.67 
   5  -1  -5   46.27    2.21 
   5  -1  -5   47.42    1.68 
   5  -1  -5   42.82    1.21 
  -5   1   5   43.49    1.78 
  -5   1   5   46.19    1.68 
  -5   1   5   44.23    1.53 
  -5   1   5   45.73    1.53 
  -5   1   5   44.17    1.62 
   4  -1  -5   37.69    1.15 
   4  -1  -5   37.22    1.44 
   4  -1  -5   36.99    1.42 
   4  -1  -5   38.64    1.90 
   4  -1  -5   39.41    1.56 
   4  -1  -5   35.31    1.38 
  -4   1   5   34.94    1.41 
  -4   1   5   36.68    1.50 
  -4   1   5   35.83    1.31 
  -4   1   5   37.38    1.42 
  -4   1   5   36.21    1.17 
   3  -1  -5    2.34    0.60 
   3  -1  -5    1.59    0.19 
   3  -1  -5    2.29    0.61 
   3  -1  -5    1.77    0.61 
   3  -1  -5    1.76    0.63 
   3  -1  -5    1.58    0.56 
   3  -1  -5    1.86    0.81 
  -3   1   5    2.64    0.69 
  -3   1   5    1.04    0.62 
  -3   1   5    1.99    0.31 
  -3   1   5    1.87    0.52 
  -3   1   5    1.78    0.60 
   2  -1  -5   65.89    1.84 
   2  -1  -5   68.39    1.88 
   2  -1  -5   67.15    1.98 
   2  -1  -5   63.75    1.93 
   2  -1  -5   66.92    1.92 
  -2   1   5   64.39    1.89 
  -2   1   5   68.40    1.95 
  -2   1   5   64.13    1.81 
  -2   1   5   66.59    1.85 
  -2   1   5   66.07    1.92 
  -2   1   5   64.92    1.88 
   1  -1  -5   69.74    2.05 
   1  -1  -5   75.04    2.10 
   1  -1  -5   77.48    2.09 
   1  -1  -5   71.90    2.12 
   1  -1  -5   72.31    2.91 
  -1   1   5   70.33    2.01 
  -1   1   5   75.40    2.14 
  -1   1   5   76.57    1.65 
  -1   1   5   77.95    2.09 
  -1   1   5   74.28    2.04 
  -1   1   5   78.17    1.97 
  -1   1   5   74.71    2.01 
   0  -1  -5  198.12    4.39 
   0  -1  -5  187.74    4.42 
   0  -1  -5  183.86    4.38 
   0  -1  -5  190.93    4.47 
   0  -1  -5  212.63    5.52 
   0   1   5  190.00    4.35 
   0   1   5  192.68    4.47 
   0   1   5  196.40    4.21 
   0   1   5  185.54    4.36 
   0   1   5  191.62    4.29 
   0   1   5  189.46    5.22 
  -1  -1  -5  172.66    4.10 
  -1  -1  -5  170.26    4.05 
  -1  -1  -5  180.12    4.03 
  -1  -1  -5  165.07    4.14 
  -1  -1  -5  175.03    4.99 
  -1  -1  -5  168.63    3.75 
  -1  -1  -5  175.41    4.03 
   1   1   5  156.47    4.01 
   1   1   5  172.73    3.99 
   1   1   5  168.35    3.90 
   1   1   5  169.63    3.95 
   1   1   5  168.87    4.07 
   1   1   5  177.43    5.09 
  -2  -1  -5   32.50    1.48 
  -2  -1  -5   33.31    1.04 
  -2  -1  -5   31.56    1.58 
  -2  -1  -5   32.45    1.29 
  -2  -1  -5   31.48    1.58 
  -2  -1  -5   31.71    1.46 
  -2  -1  -5   32.60    1.39 
   2   1   5   32.43    0.89 
   2   1   5   34.52    1.45 
   2   1   5   32.98    1.55 
   2   1   5   37.45    2.53 
   2   1   5   32.28    1.42 
   2   1   5   32.49    1.53 
  -3  -1  -5   50.53    1.84 
  -3  -1  -5   47.02    1.90 
  -3  -1  -5   51.58    1.69 
  -3  -1  -5   46.90    1.28 
   3   1   5   50.74    1.83 
   3   1   5   47.51    1.89 
   3   1   5   49.35    1.29 
   3   1   5   43.62    1.97 
   3   1   5   46.97    2.76 
   3   1   5   47.82    1.79 
  -4  -1  -5   11.54    1.19 
  -4  -1  -5   13.03    1.06 
   4   1   5   12.91    1.12 
   4   1   5   15.49    2.13 
   4   1   5   12.24    1.12 
   4   1   5   15.52    1.58 
   4   1   5   12.84    1.12 
  -5  -1  -5    1.45    0.57 
  -5  -1  -5    2.50    0.93 
  -5  -1  -5    1.63    0.77 
   5   1   5    2.05    0.91 
   5   1   5    1.41    1.44 
   5   1   5    0.23    0.93 
   5   1   5    1.22    0.88 
   5   1   5    2.41    0.88 
  -6  -1  -5   30.05    1.38 
  -6  -1  -5   32.77    2.04 
  -6  -1  -5   33.29    1.67 
   6   1   5   29.68    2.95 
   6   1   5   38.88    1.94 
   6   1   5   28.77    2.29 
   6   1   5   32.69    2.00 
  -7  -1  -5   79.78    2.41 
  -7  -1  -5   81.63    3.12 
   7   1   5   75.55    4.24 
   7   1   5   79.73    3.44 
   7   1   5   76.69    3.05 
   7   1   5   76.96    2.91 
  -8  -1  -5   76.31    2.52 
  -8  -1  -5   77.48    3.00 
  -8  -1  -5   73.86    3.51 
   8   1   5   76.72    3.05 
   8   1   5   77.41    4.56 
   8   1   5   76.57    3.19 
   8   1   5   75.14    3.61 
  -9  -1  -5   46.10    2.72 
  -9  -1  -5   37.31    2.98 
   9   1   5   41.80    3.21 
   9   1   5   44.11    2.50 
   9   1   5   42.22    2.68 
   9   1   5   38.79    4.32 
  10  -2  -5   22.44    1.81 
  10  -2  -5   27.17    3.56 
  10  -2  -5   21.88    2.52 
  10  -2  -5   26.11    1.89 
 -10   2   5   22.95    1.97 
   9  -2  -5   17.50    2.11 
   9  -2  -5   23.25    3.16 
   9  -2  -5   21.27    1.68 
   9  -2  -5   20.52    1.64 
  -9   2   5   24.69    1.75 
  -9   2   5   22.60    1.80 
   8  -2  -5   66.91    3.28 
   8  -2  -5   65.53    2.41 
   8  -2  -5   65.73    2.47 
  -8   2   5   69.59    2.66 
  -8   2   5   64.76    2.46 
   7  -2  -5   33.60    1.65 
   7  -2  -5   32.63    1.68 
   7  -2  -5   33.47    2.14 
  -7   2   5   31.40    1.86 
  -7   2   5   33.63    1.62 
  -7   2   5   30.93    1.68 
  -7   2   5   32.79    1.68 
   6  -2  -5    9.32    1.01 
   6  -2  -5    7.17    0.88 
   6  -2  -5    9.96    0.98 
   6  -2  -5    8.38    0.95 
   6  -2  -5    9.21    0.89 
   6  -2  -5    8.30    1.38 
   6  -2  -5    8.93    0.65 
  -6   2   5    7.82    0.90 
  -6   2   5    9.22    1.03 
  -6   2   5    8.27    1.12 
  -6   2   5    8.42    0.91 
   5  -2  -5    9.62    0.90 
   5  -2  -5   11.06    0.89 
   5  -2  -5    8.13    0.74 
   5  -2  -5    9.58    0.85 
   5  -2  -5    9.56    0.91 
   5  -2  -5    9.94    0.71 
   5  -2  -5    8.14    1.25 
  -5   2   5   10.12    0.90 
  -5   2   5    9.54    0.84 
  -5   2   5    9.89    0.89 
  -5   2   5   11.74    1.06 
  -5   2   5   10.21    0.81 
   4  -2  -5   41.41    1.44 
   4  -2  -5   39.67    1.48 
   4  -2  -5   38.77    1.44 
   4  -2  -5   37.98    1.17 
   4  -2  -5   38.31    1.96 
  -4   2   5   38.06    1.25 
  -4   2   5   37.85    1.27 
  -4   2   5   37.18    1.51 
  -4   2   5   37.28    1.51 
  -4   2   5   40.43    1.43 
   3  -2  -5   86.49    2.16 
   3  -2  -5   86.54    2.23 
   3  -2  -5   82.02    2.20 
   3  -2  -5   83.17    1.79 
   3  -2  -5   81.00    2.68 
   3  -2  -5   78.52    2.23 
   3  -2  -5   80.88    1.77 
  -3   2   5   83.27    2.22 
  -3   2   5   82.40    2.20 
  -3   2   5   83.31    2.08 
  -3   2   5   81.42    2.26 
   2  -2  -5  132.57    3.23 
   2  -2  -5  137.09    3.18 
   2  -2  -5  140.06    3.28 
   2  -2  -5  137.82    2.72 
   2  -2  -5  134.72    2.91 
   2  -2  -5  134.36    3.28 
   2  -2  -5  133.48    3.22 
  -2   2   5  136.91    3.22 
  -2   2   5  134.61    3.22 
  -2   2   5  134.83    3.22 
  -2   2   5  134.79    3.10 
  -2   2   5  130.50    3.31 
  -2   2   5  136.32    3.09 
   1  -2  -5  189.42    3.89 
   1  -2  -5  177.27    4.15 
   1  -2  -5  188.28    4.24 
   1  -2  -5  184.83    4.17 
   1  -2  -5  175.31    4.13 
   1  -2  -5  179.85    4.19 
   1  -2  -5  183.81    5.13 
  -1   2   5  180.69    4.22 
  -1   2   5  185.44    3.87 
  -1   2   5  184.93    4.10 
  -1   2   5  183.18    4.20 
  -1   2   5  186.16    4.20 
  -1   2   5  187.32    3.92 
  -1   2   5  190.66    4.15 
  -1   2   5  175.88    4.10 
   0  -2  -5   92.24    2.52 
   0  -2  -5   94.46    2.45 
   0  -2  -5   85.04    2.43 
   0  -2  -5   94.10    2.41 
   0  -2  -5   96.49    2.50 
   0  -2  -5   95.13    2.50 
   0  -2  -5   94.25    2.36 
   0  -2  -5  100.78    3.54 
   0   2   5   92.18    2.32 
   0   2   5   95.12    2.51 
   0   2   5   94.24    2.39 
   0   2   5   92.27    2.02 
   0   2   5   97.90    2.55 
   0   2   5   90.90    2.43 
   0   2   5   93.72    2.46 
  -1  -2  -5  168.17    4.03 
  -1  -2  -5  170.32    3.85 
  -1  -2  -5  170.41    3.98 
  -1  -2  -5  170.07    4.05 
  -1  -2  -5  175.45    4.08 
  -1  -2  -5  178.91    4.14 
  -1  -2  -5  168.70    4.98 
   1   2   5  171.45    4.01 
   1   2   5  179.18    4.08 
   1   2   5  170.44    4.10 
   1   2   5  171.45    5.01 
   1   2   5  170.07    3.99 
  -2  -2  -5   29.84    1.57 
  -2  -2  -5   29.17    1.49 
  -2  -2  -5   29.83    1.39 
  -2  -2  -5   31.30    1.44 
  -2  -2  -5   31.33    2.37 
  -2  -2  -5   28.82    1.44 
   2   2   5   30.56    1.46 
   2   2   5   28.15    1.36 
   2   2   5   30.43    1.33 
   2   2   5   28.17    1.35 
   2   2   5   30.34    2.34 
  -3  -2  -5    8.07    0.95 
  -3  -2  -5    8.48    1.06 
  -3  -2  -5   10.32    0.94 
  -3  -2  -5    7.58    0.96 
   3   2   5    7.55    1.53 
   3   2   5    8.31    1.04 
   3   2   5    8.57    0.94 
   3   2   5    8.75    0.83 
   3   2   5    7.93    0.66 
  -4  -2  -5   41.22    1.87 
  -4  -2  -5   44.03    1.85 
  -4  -2  -5   44.71    2.02 
  -4  -2  -5   45.10    2.05 
  -4  -2  -5   44.83    1.24 
   4   2   5   45.18    2.11 
   4   2   5   42.10    2.22 
   4   2   5   41.19    1.78 
   4   2   5   46.02    1.37 
   4   2   5   41.67    1.84 
   4   2   5   44.24    2.84 
  -5  -2  -5   64.21    2.46 
  -5  -2  -5   64.08    2.41 
  -5  -2  -5   66.70    2.90 
  -5  -2  -5   67.96    1.83 
   5   2   5   67.18    3.51 
   5   2   5   68.00    1.76 
   5   2   5   68.60    2.45 
   5   2   5   65.84    2.56 
   5   2   5   67.47    2.90 
  -6  -2  -5   81.31    2.21 
  -6  -2  -5   82.18    2.89 
  -6  -2  -5   81.02    3.04 
  -6  -2  -5   79.01    3.36 
   6   2   5   81.11    2.72 
   6   2   5   81.49    3.16 
   6   2   5   84.48    4.14 
   6   2   5   75.86    2.95 
  -7  -2  -5    2.94    0.75 
  -7  -2  -5    3.84    1.28 
   7   2   5    2.93    1.25 
   7   2   5    3.18    1.12 
   7   2   5    1.60    1.41 
   7   2   5    1.66    1.69 
  -8  -2  -5   22.40    2.08 
   8   2   5   20.02    2.83 
   8   2   5   22.76    2.03 
   8   2   5   22.50    2.30 
   8   2   5   26.04    2.01 
  -9  -2  -5   -0.94    1.37 
   9   2   5   -2.51    1.88 
   9   2   5   -1.45    1.59 
   9   2   5    2.24    1.45 
  10  -3  -5   32.28    2.05 
   9  -3  -5   66.29    2.52 
   9  -3  -5   61.29    2.45 
   9  -3  -5   61.54    3.48 
   9  -3  -5   64.59    4.39 
  -9   3   5   63.92    2.80 
  -9   3   5   64.37    2.57 
   8  -3  -5    4.54    0.90 
   8  -3  -5    4.85    1.53 
   8  -3  -5    5.10    0.97 
  -8   3   5    4.72    1.11 
  -8   3   5    3.96    1.16 
   7  -3  -5    6.13    0.85 
   7  -3  -5    5.98    0.85 
   7  -3  -5    4.71    1.41 
  -7   3   5    5.93    1.01 
  -7   3   5    4.46    1.04 
  -7   3   5    5.34    1.13 
   6  -3  -5   15.10    1.11 
   6  -3  -5   14.51    1.15 
   6  -3  -5   14.24    1.13 
   6  -3  -5   11.85    1.36 
   6  -3  -5   11.20    1.09 
  -6   3   5   13.14    1.06 
  -6   3   5   13.10    1.22 
  -6   3   5   14.74    1.22 
  -6   3   5   15.32    1.32 
   5  -3  -5  101.12    2.68 
   5  -3  -5  103.09    2.69 
   5  -3  -5  100.94    2.57 
   5  -3  -5  105.78    3.50 
   5  -3  -5  107.66    2.73 
   5  -3  -5  110.33    2.71 
  -5   3   5  107.08    2.75 
  -5   3   5  104.49    2.91 
  -5   3   5  102.80    2.93 
  -5   3   5  100.91    2.62 
  -5   3   5  103.73    2.45 
   4  -3  -5   43.12    1.42 
   4  -3  -5   41.20    2.09 
   4  -3  -5   42.27    1.39 
   4  -3  -5   42.48    1.45 
   4  -3  -5   45.76    1.36 
   4  -3  -5   43.42    1.45 
   4  -3  -5   42.41    1.44 
  -4   3   5   42.09    1.41 
  -4   3   5   41.32    1.61 
  -4   3   5   42.76    1.22 
  -4   3   5   42.55    1.40 
  -4   3   5   41.51    1.65 
   3  -3  -5  282.04    6.12 
   3  -3  -5  288.08    6.16 
   3  -3  -5  279.83    6.14 
   3  -3  -5  289.35    6.10 
   3  -3  -5  285.65    5.96 
   3  -3  -5  295.90    6.19 
  -3   3   5  289.52    6.21 
  -3   3   5  283.35    6.40 
  -3   3   5  288.95    6.10 
  -3   3   5  290.88    6.27 
   2  -3  -5   94.21    2.37 
   2  -3  -5   95.30    2.42 
   2  -3  -5   92.24    2.35 
   2  -3  -5   93.23    2.16 
   2  -3  -5   93.86    2.38 
   2  -3  -5   89.35    2.26 
  -2   3   5   94.05    2.54 
  -2   3   5   94.04    2.20 
  -2   3   5   92.22    2.30 
  -2   3   5   92.46    2.32 
  -2   3   5   89.53    2.36 
   1  -3  -5   25.27    1.02 
   1  -3  -5   24.09    1.06 
   1  -3  -5   24.02    1.89 
   1  -3  -5   24.03    1.24 
   1  -3  -5   25.53    1.10 
   1  -3  -5   26.59    1.18 
  -1   3   5   25.96    1.25 
  -1   3   5   24.41    0.97 
  -1   3   5   23.81    1.03 
  -1   3   5   24.98    0.86 
  -1   3   5   23.72    1.16 
  -1   3   5   22.79    1.15 
  -1   3   5   22.08    1.31 
   0  -3  -5   21.19    1.99 
   0  -3  -5   19.73    1.08 
   0  -3  -5   22.33    1.15 
   0  -3  -5   19.28    1.04 
   0  -3  -5   19.01    1.12 
   0  -3  -5   21.43    1.09 
   0   3   5   21.45    1.12 
   0   3   5   18.19    0.59 
   0   3   5   18.28    0.99 
   0   3   5   19.49    1.00 
   0   3   5   19.24    1.05 
   0   3   5   18.48    1.27 
  -1  -3  -5   40.47    1.53 
  -1  -3  -5   41.36    1.64 
  -1  -3  -5   38.35    1.58 
  -1  -3  -5   39.56    1.41 
  -1  -3  -5   39.41    2.38 
  -1  -3  -5   41.09    1.56 
  -1  -3  -5   41.58    1.52 
   1   3   5   40.27    2.40 
   1   3   5   42.42    1.69 
   1   3   5   40.93    1.62 
   1   3   5   37.50    1.43 
   1   3   5   40.39    1.46 
  -2  -3  -5   62.84    2.10 
  -2  -3  -5   66.54    2.31 
  -2  -3  -5   64.87    1.98 
  -2  -3  -5   65.74    1.86 
  -2  -3  -5   64.36    2.01 
  -2  -3  -5   64.67    2.76 
  -2  -3  -5   65.93    2.18 
   2   3   5   69.43    2.09 
   2   3   5   63.03    2.15 
   2   3   5   66.11    2.92 
   2   3   5   68.22    2.07 
   2   3   5   63.80    1.88 
  -3  -3  -5   66.67    2.24 
  -3  -3  -5   64.11    2.32 
  -3  -3  -5   61.19    2.15 
  -3  -3  -5   64.45    1.87 
  -3  -3  -5   64.34    2.48 
   3   3   5   64.43    3.13 
   3   3   5   67.83    2.18 
   3   3   5   64.21    1.89 
   3   3   5   65.94    2.28 
  -4  -3  -5  136.07    3.79 
  -4  -3  -5  136.49    4.20 
  -4  -3  -5  147.72    3.90 
  -4  -3  -5  143.24    3.90 
  -4  -3  -5  144.15    3.05 
   4   3   5  145.08    3.96 
   4   3   5  146.06    3.39 
   4   3   5  139.53    3.79 
   4   3   5  143.50    5.05 
  -5  -3  -5   53.94    2.42 
  -5  -3  -5   54.79    1.52 
  -5  -3  -5   55.34    2.52 
  -5  -3  -5   60.23    2.36 
   5   3   5   53.59    2.51 
   5   3   5   53.63    2.23 
   5   3   5   54.02    3.24 
   5   3   5   51.46    2.35 
   5   3   5   55.03    1.71 
  -6  -3  -5   98.03    3.83 
  -6  -3  -5   94.16    3.41 
  -6  -3  -5   98.88    2.52 
  -6  -3  -5   99.03    3.30 
   6   3   5  102.40    3.45 
   6   3   5  100.10    3.83 
   6   3   5   98.84    4.39 
   6   3   5  102.30    2.58 
   6   3   5   98.40    3.25 
  -7  -3  -5    6.07    1.60 
  -7  -3  -5    5.69    1.45 
   7   3   5    5.18    1.40 
   7   3   5    2.58    1.75 
   7   3   5    2.55    1.53 
  -8  -3  -5    1.00    1.35 
   8   3   5   -0.36    1.48 
   8   3   5   -2.88    1.84 
   8   3   5    0.13    0.97 
   9  -4  -5    4.56    1.98 
   9  -4  -5    5.12    0.99 
   9  -4  -5    8.52    1.82 
   9  -4  -5    6.05    1.01 
  -9   4   5    7.01    1.22 
  -9   4   5    6.08    1.39 
   8  -4  -5   -0.42    0.70 
   8  -4  -5   -1.12    1.29 
   8  -4  -5    0.66    1.61 
   8  -4  -5    0.07    0.75 
  -8   4   5   -0.02    0.86 
  -8   4   5   -0.20    1.05 
   7  -4  -5   59.30    2.01 
   7  -4  -5   60.36    2.00 
   7  -4  -5   61.44    3.09 
  -7   4   5   56.29    2.40 
  -7   4   5   61.28    2.37 
  -7   4   5   56.97    2.28 
   6  -4  -5   43.48    1.56 
   6  -4  -5   39.94    1.51 
   6  -4  -5   39.42    2.44 
   6  -4  -5   41.55    1.55 
  -6   4   5   42.09    1.82 
  -6   4   5   40.44    1.76 
  -6   4   5   38.80    1.87 
   5  -4  -5   89.65    2.43 
   5  -4  -5   98.68    2.63 
   5  -4  -5   98.23    2.46 
   5  -4  -5   95.60    2.46 
   5  -4  -5   91.89    2.44 
   5  -4  -5   99.19    3.43 
  -5   4   5   93.60    2.79 
  -5   4   5   91.33    2.32 
  -5   4   5   98.77    2.68 
  -5   4   5   95.36    2.80 
   4  -4  -5   93.18    2.54 
   4  -4  -5   93.58    2.35 
   4  -4  -5   91.11    2.33 
   4  -4  -5   96.08    2.35 
   4  -4  -5   93.87    3.19 
   4  -4  -5   92.38    2.32 
   4  -4  -5   92.93    2.40 
  -4   4   5   96.50    2.24 
  -4   4   5   90.08    2.59 
  -4   4   5   86.70    2.62 
   3  -4  -5   51.93    1.56 
   3  -4  -5   51.73    1.52 
   3  -4  -5   50.94    1.67 
   3  -4  -5   52.76    1.53 
   3  -4  -5   51.04    1.54 
   3  -4  -5   50.51    1.53 
  -3   4   5   51.32    1.66 
  -3   4   5   51.99    1.68 
  -3   4   5   50.47    1.42 
  -3   4   5   49.15    1.95 
   2  -4  -5    2.27    0.54 
   2  -4  -5    1.43    0.55 
   2  -4  -5    1.96    0.53 
   2  -4  -5    2.24    0.58 
   2  -4  -5    2.21    0.54 
   2  -4  -5    2.74    0.51 
   2  -4  -5    2.70    0.56 
  -2   4   5    2.19    0.68 
  -2   4   5    2.03    0.85 
  -2   4   5    2.33    0.36 
  -2   4   5    2.64    0.58 
   1  -4  -5    0.28    0.54 
   1  -4  -5   -0.78    0.51 
   1  -4  -5    0.75    0.53 
   1  -4  -5    0.18    0.53 
   1  -4  -5    0.46    0.53 
  -1   4   5    0.85    0.48 
  -1   4   5    0.97    0.58 
  -1   4   5    0.97    0.43 
  -1   4   5    0.13    0.38 
  -1   4   5    0.71    0.40 
  -1   4   5    0.96    0.78 
   0  -4  -5  151.35    3.50 
   0  -4  -5  151.69    3.66 
   0  -4  -5  140.25    3.54 
   0  -4  -5  145.89    3.52 
   0  -4  -5  141.83    3.50 
   0  -4  -5  148.05    4.58 
   0   4   5  148.86    3.46 
   0   4   5  148.66    3.54 
   0   4   5  146.10    3.74 
   0   4   5  150.52    3.63 
   0   4   5  146.65    3.43 
  -1  -4  -5   20.31    1.24 
  -1  -4  -5   23.99    1.51 
  -1  -4  -5   21.58    1.20 
  -1  -4  -5   19.52    1.98 
  -1  -4  -5   23.27    1.17 
  -1  -4  -5   21.55    1.18 
   1   4   5   21.65    1.23 
   1   4   5   19.38    1.07 
   1   4   5   20.08    1.02 
   1   4   5   22.51    1.45 
   1   4   5   21.86    1.25 
  -2  -4  -5  161.99    3.99 
  -2  -4  -5  162.11    4.21 
  -2  -4  -5  156.86    3.94 
  -2  -4  -5  148.20    3.99 
  -2  -4  -5  159.48    3.91 
  -2  -4  -5  158.37    4.73 
   2   4   5  156.97    4.68 
   2   4   5  157.66    4.06 
   2   4   5  164.25    4.01 
   2   4   5  147.84    3.81 
   2   4   5  158.82    3.81 
  -3  -4  -5  108.79    3.07 
  -3  -4  -5  108.48    3.10 
  -3  -4  -5  110.72    3.46 
  -3  -4  -5  107.41    3.11 
   3   4   5  106.39    3.07 
   3   4   5  102.83    2.80 
   3   4   5  102.63    2.91 
   3   4   5  108.64    3.15 
   3   4   5  108.65    4.02 
  -4  -4  -5    8.32    1.17 
  -4  -4  -5   11.69    1.22 
  -4  -4  -5   12.10    1.35 
  -4  -4  -5   11.92    0.49 
  -4  -4  -5   10.81    1.46 
   4   4   5   13.03    1.21 
   4   4   5   10.89    1.14 
   4   4   5   10.70    0.91 
   4   4   5   10.64    1.86 
  -5  -4  -5   13.08    1.43 
  -5  -4  -5   15.87    1.79 
  -5  -4  -5   17.19    1.61 
   5   4   5   12.45    1.94 
   5   4   5   15.76    1.39 
   5   4   5   16.05    1.40 
   5   4   5   16.57    1.15 
  -6  -4  -5    4.50    1.01 
  -6  -4  -5    4.02    1.28 
  -6  -4  -5    4.52    1.53 
   6   4   5    3.91    0.78 
   6   4   5    0.58    1.79 
   6   4   5    4.23    1.44 
   6   4   5    5.14    1.27 
  -7  -4  -5   41.03    2.89 
  -7  -4  -5   34.76    2.41 
   7   4   5   25.93    2.85 
   7   4   5   32.79    2.04 
   7   4   5   35.86    2.83 
  -8  -4  -5    9.01    1.73 
  -8  -4  -5    6.65    1.88 
   8   4   5    6.80    1.87 
   8   4   5    9.49    1.72 
   9  -5  -5   22.48    1.49 
   9  -5  -5   28.29    3.63 
   9  -5  -5   24.64    1.50 
   9  -5  -5   20.96    2.32 
  -9   5   5   24.49    1.80 
   8  -5  -5   75.32    2.31 
   8  -5  -5   73.55    2.27 
   8  -5  -5   72.78    3.54 
   8  -5  -5   69.47    4.46 
  -8   5   5   74.29    2.79 
  -8   5   5   73.70    2.90 
   7  -5  -5   67.36    1.96 
   7  -5  -5   66.08    3.18 
   7  -5  -5   61.98    1.98 
  -7   5   5   62.70    2.51 
  -7   5   5   59.06    2.50 
  -7   5   5   62.15    2.43 
   6  -5  -5   47.56    1.59 
   6  -5  -5   48.67    1.52 
   6  -5  -5   48.30    2.68 
   6  -5  -5   46.63    1.58 
  -6   5   5   48.28    2.04 
  -6   5   5   47.39    1.91 
  -6   5   5   48.97    2.12 
   5  -5  -5   47.04    1.59 
   5  -5  -5   48.31    1.40 
   5  -5  -5   45.95    1.48 
   5  -5  -5   46.52    2.47 
   5  -5  -5   45.56    1.47 
   5  -5  -5   47.43    1.75 
  -5   5   5   47.00    1.97 
  -5   5   5   47.17    1.94 
  -5   5   5   44.95    1.79 
   4  -5  -5    0.57    0.45 
   4  -5  -5    0.62    0.44 
   4  -5  -5    0.39    0.43 
   4  -5  -5   -0.16    0.55 
   4  -5  -5   -0.68    0.72 
   4  -5  -5   -0.28    0.47 
  -4   5   5    0.81    0.76 
  -4   5   5   -0.21    0.27 
  -4   5   5    0.24    0.30 
  -4   5   5    0.04    0.77 
   3  -5  -5    8.01    0.67 
   3  -5  -5    6.43    0.76 
   3  -5  -5    7.73    0.66 
   3  -5  -5    7.70    0.70 
   3  -5  -5    7.63    0.69 
  -3   5   5    5.71    1.07 
  -3   5   5    8.79    0.61 
  -3   5   5    8.13    0.92 
  -3   5   5    6.95    0.82 
  -3   5   5    7.92    0.56 
   2  -5  -5   44.12    1.41 
   2  -5  -5   43.13    1.35 
   2  -5  -5   43.58    1.39 
   2  -5  -5   42.37    1.43 
   2  -5  -5   42.61    1.43 
   2  -5  -5   44.08    1.61 
  -2   5   5   43.98    1.74 
  -2   5   5   41.79    1.59 
  -2   5   5   43.94    1.48 
   1  -5  -5   45.37    1.55 
   1  -5  -5   44.13    1.30 
   1  -5  -5   48.43    1.57 
   1  -5  -5   44.14    1.46 
   1  -5  -5   44.79    1.73 
   1  -5  -5   48.58    1.50 
  -1   5   5   44.28    1.29 
  -1   5   5   44.80    1.48 
  -1   5   5   43.76    1.55 
  -1   5   5   45.37    1.61 
  -1   5   5   43.02    1.73 
   0  -5  -5  126.75    3.05 
   0  -5  -5  118.07    3.07 
   0  -5  -5  121.30    3.14 
   0  -5  -5  121.27    3.04 
   0  -5  -5  124.22    3.31 
   0  -5  -5  122.78    2.65 
   0   5   5  124.08    3.09 
   0   5   5  123.29    2.95 
   0   5   5  121.26    2.97 
   0   5   5  124.29    3.24 
   0   5   5  115.97    3.35 
  -1  -5  -5  142.53    3.72 
  -1  -5  -5  144.90    3.69 
  -1  -5  -5  150.03    3.98 
  -1  -5  -5  145.59    4.66 
  -1  -5  -5  152.65    3.73 
  -1  -5  -5  152.74    3.78 
   1   5   5  147.17    3.58 
   1   5   5  154.51    3.51 
   1   5   5  150.02    3.72 
   1   5   5  152.94    3.96 
   1   5   5  149.97    3.81 
  -2  -5  -5   19.75    1.41 
  -2  -5  -5   18.55    1.31 
  -2  -5  -5   20.49    1.68 
  -2  -5  -5   17.09    1.33 
  -2  -5  -5   19.91    1.28 
  -2  -5  -5   18.09    1.86 
   2   5   5   17.27    1.26 
   2   5   5   22.87    1.37 
   2   5   5   19.25    1.08 
   2   5   5   18.38    1.32 
   2   5   5   18.36    1.34 
  -3  -5  -5   20.86    1.53 
  -3  -5  -5   20.41    1.93 
  -3  -5  -5   20.12    1.42 
  -3  -5  -5   19.57    1.56 
   3   5   5   19.43    1.49 
   3   5   5   21.03    1.34 
   3   5   5   20.56    1.32 
   3   5   5   19.84    1.57 
   3   5   5   18.17    1.99 
  -4  -5  -5    0.40    0.93 
  -4  -5  -5    0.58    0.77 
  -4  -5  -5    0.34    0.95 
   4   5   5   -0.31    0.94 
   4   5   5   -0.05    0.71 
   4   5   5    1.34    1.26 
  -5  -5  -5   16.67    1.67 
  -5  -5  -5   18.51    1.90 
  -5  -5  -5   18.60    1.61 
   5   5   5   18.13    1.64 
   5   5   5   11.74    1.90 
   5   5   5   17.01    1.35 
  -6  -5  -5   17.76    1.56 
  -6  -5  -5   18.37    1.89 
  -6  -5  -5   17.66    1.82 
   6   5   5   19.05    1.78 
   6   5   5   19.30    1.36 
   6   5   5   13.09    2.17 
  -7  -5  -5   46.13    3.21 
  -7  -5  -5   48.89    2.80 
   7   5   5   49.79    2.73 
   8  -6  -5   15.79    2.00 
   8  -6  -5   17.32    1.20 
   8  -6  -5   15.22    2.54 
  -8   6   5   17.08    1.65 
  -8   6   5   16.73    1.56 
   7  -6  -5   41.96    1.49 
   7  -6  -5   42.84    2.81 
  -7   6   5   39.88    2.14 
  -7   6   5   43.96    2.23 
  -7   6   5   42.67    2.19 
   6  -6  -5    0.40    0.50 
   6  -6  -5   -0.25    0.47 
   6  -6  -5    0.50    0.34 
   6  -6  -5    0.59    1.18 
   6  -6  -5    0.92    0.73 
  -6   6   5    1.38    1.00 
  -6   6   5    0.41    0.85 
  -6   6   5   -0.71    0.92 
   5  -6  -5    3.88    0.35 
   5  -6  -5    3.74    0.51 
   5  -6  -5    3.72    1.24 
   5  -6  -5    3.63    0.54 
   5  -6  -5    3.50    0.81 
  -5   6   5    4.06    0.99 
  -5   6   5    3.79    1.01 
   4  -6  -5   31.46    1.10 
   4  -6  -5   33.62    0.92 
   4  -6  -5   32.04    1.12 
   4  -6  -5   32.52    2.14 
   4  -6  -5   32.16    1.56 
   4  -6  -5   30.39    0.90 
  -4   6   5   31.12    1.68 
  -4   6   5   33.04    1.66 
  -4   6   5   32.99    1.94 
   3  -6  -5  222.01    4.84 
   3  -6  -5  223.03    4.81 
   3  -6  -5  230.03    5.31 
   3  -6  -5  214.92    4.70 
   3  -6  -5  229.32    4.75 
  -3   6   5  221.70    5.45 
  -3   6   5  222.34    5.21 
  -3   6   5  228.19    5.14 
   2  -6  -5   79.93    2.13 
   2  -6  -5   79.08    2.11 
   2  -6  -5   81.36    2.10 
   2  -6  -5   76.83    2.01 
   2  -6  -5   81.27    2.52 
  -2   6   5   79.86    2.71 
  -2   6   5   82.44    2.35 
   1  -6  -5   66.78    1.94 
   1  -6  -5   64.81    1.90 
   1  -6  -5   67.99    2.35 
   1  -6  -5   68.36    1.79 
   1  -6  -5   66.28    1.94 
   1  -6  -5   66.68    1.97 
  -1   6   5   65.23    2.43 
  -1   6   5   67.48    2.41 
  -1   6   5   65.70    2.00 
   0  -6  -5   70.29    2.15 
   0  -6  -5   71.73    2.08 
   0  -6  -5   68.04    2.09 
   0  -6  -5   70.84    2.47 
   0  -6  -5   73.15    1.75 
   0  -6  -5   73.21    2.21 
   0   6   5   69.03    1.95 
   0   6   5   73.02    2.56 
   0   6   5   69.27    2.46 
   0   6   5   69.91    2.07 
   0   6   5   69.53    2.09 
  -1  -6  -5    4.24    0.76 
  -1  -6  -5    4.52    0.81 
  -1  -6  -5    4.68    0.80 
  -1  -6  -5    4.88    1.03 
  -1  -6  -5    4.40    0.36 
  -1  -6  -5    0.83    1.40 
  -1  -6  -5    5.15    0.87 
   1   6   5    4.50    0.98 
   1   6   5    2.46    1.03 
   1   6   5    3.66    0.61 
   1   6   5    4.19    0.68 
   1   6   5    3.46    0.84 
  -2  -6  -5    1.21    0.86 
  -2  -6  -5   -2.03    0.91 
  -2  -6  -5    0.56    1.04 
  -2  -6  -5    0.70    0.84 
  -2  -6  -5    0.09    0.77 
  -2  -6  -5   -0.59    0.68 
   2   6   5   -0.50    1.02 
   2   6   5   -0.41    0.84 
   2   6   5   -0.03    0.73 
   2   6   5   -0.33    0.55 
  -3  -6  -5    2.82    0.97 
  -3  -6  -5    1.84    1.25 
  -3  -6  -5    4.44    1.06 
   3   6   5    2.97    0.91 
   3   6   5    1.84    0.61 
   3   6   5    1.34    1.15 
   3   6   5    2.88    0.97 
  -4  -6  -5   58.41    2.98 
  -4  -6  -5   58.76    2.46 
  -4  -6  -5   55.98    2.52 
   4   6   5   61.41    2.87 
   4   6   5   58.75    1.79 
   4   6   5   58.99    2.48 
   4   6   5   61.86    2.23 
   4   6   5   56.55    2.61 
  -5  -6  -5   38.42    2.19 
  -5  -6  -5   36.55    2.30 
  -5  -6  -5   31.50    2.29 
   5   6   5   37.80    1.87 
   5   6   5   35.29    2.09 
   5   6   5   38.46    1.99 
  -6  -6  -5   58.33    2.75 
  -6  -6  -5   55.14    3.28 
  -6  -6  -5   56.97    2.88 
   6   6   5   59.77    2.81 
  -7  -6  -5   13.98    1.95 
  -7  -6  -5   11.52    1.58 
   7   6   5   14.04    1.64 
   8  -7  -5    3.21    1.54 
   8  -7  -5    4.13    0.64 
   8  -7  -5    3.85    1.95 
  -8   7   5    3.48    1.33 
  -8   7   5    3.20    1.18 
   7  -7  -5   10.54    0.80 
   7  -7  -5    8.14    0.69 
   7  -7  -5    6.25    1.57 
   7  -7  -5    8.21    2.02 
  -7   7   5    8.88    1.37 
   6  -7  -5    6.66    0.57 
   6  -7  -5    7.23    0.63 
   6  -7  -5    5.22    1.41 
   6  -7  -5    7.69    1.21 
  -6   7   5    7.67    1.26 
  -6   7   5    7.26    1.23 
   5  -7  -5   23.03    0.86 
   5  -7  -5   23.12    2.09 
   5  -7  -5   23.66    1.61 
   5  -7  -5   23.27    0.82 
  -5   7   5   21.65    1.66 
  -5   7   5   22.57    1.63 
   4  -7  -5   27.50    0.95 
   4  -7  -5   28.34    0.96 
   4  -7  -5   29.16    1.69 
  -4   7   5   25.93    1.62 
  -4   7   5   26.09    1.56 
  -4   7   5   29.29    1.96 
   3  -7  -5   24.03    1.63 
   3  -7  -5   23.11    1.02 
   3  -7  -5   23.99    0.97 
   3  -7  -5   24.78    0.78 
  -3   7   5   25.58    1.84 
  -3   7   5   20.26    1.41 
   2  -7  -5   82.01    2.10 
   2  -7  -5   77.87    2.70 
   2  -7  -5   78.90    2.10 
   2  -7  -5   78.00    2.13 
  -2   7   5   79.96    2.39 
  -2   7   5   78.49    2.66 
   1  -7  -5    0.69    0.59 
   1  -7  -5    0.57    0.62 
   1  -7  -5    0.80    0.83 
   1  -7  -5    0.93    0.58 
  -1   7   5    0.45    1.00 
  -1   7   5   -0.19    0.62 
  -1   7   5   -0.13    1.01 
   0  -7  -5    1.20    0.72 
   0  -7  -5    2.49    0.97 
   0  -7  -5    1.66    0.68 
   0  -7  -5    1.66    0.70 
   0   7   5    1.42    0.63 
   0   7   5    1.59    0.67 
   0   7   5    2.14    0.85 
   0   7   5    2.19    0.84 
  -1  -7  -5   23.41    1.43 
  -1  -7  -5   22.57    1.85 
  -1  -7  -5   22.27    1.38 
   1   7   5   21.37    1.69 
   1   7   5   24.45    1.17 
   1   7   5   21.17    1.37 
   1   7   5   20.24    1.66 
  -2  -7  -5  109.86    3.31 
  -2  -7  -5  108.29    3.32 
  -2  -7  -5  117.73    3.81 
   2   7   5  106.83    3.20 
   2   7   5  113.41    3.57 
   2   7   5  118.49    3.43 
   2   7   5  116.26    2.80 
  -3  -7  -5   17.29    1.53 
  -3  -7  -5   18.68    1.88 
  -3  -7  -5   19.36    1.59 
   3   7   5   20.04    1.56 
   3   7   5   19.63    1.74 
   3   7   5   21.22    1.60 
   3   7   5   20.91    1.02 
  -4  -7  -5   52.68    2.51 
  -4  -7  -5   55.24    2.39 
  -4  -7  -5   50.55    2.96 
   4   7   5   48.79    2.15 
   4   7   5   46.61    2.55 
   4   7   5   51.39    2.35 
  -5  -7  -5   55.82    2.63 
  -5  -7  -5   55.90    3.30 
  -5  -7  -5   54.68    2.75 
   5   7   5   56.50    2.30 
   5   7   5   54.14    2.62 
   5   7   5   59.09    2.87 
  -6  -7  -5    6.75    1.40 
  -6  -7  -5    4.95    1.87 
  -6  -7  -5    5.60    1.50 
   6   7   5    3.92    1.50 
   6   7   5    8.68    1.54 
   6   7   5    9.27    1.27 
   7  -8  -5   17.73    2.00 
   7  -8  -5   14.43    2.38 
  -7   8   5   16.53    1.65 
   6  -8  -5  114.98    4.25 
   6  -8  -5  110.57    5.11 
  -6   8   5  109.93    3.52 
   5  -8  -5   60.02    2.54 
   5  -8  -5   65.12    3.10 
  -5   8   5   58.92    2.42 
  -5   8   5   64.00    2.46 
   4  -8  -5   40.36    1.06 
   4  -8  -5   42.14    2.13 
   4  -8  -5   40.48    1.07 
  -4   8   5   37.84    2.00 
  -4   8   5   39.82    1.91 
   3  -8  -5   19.18    0.88 
   3  -8  -5   17.72    1.67 
   3  -8  -5   18.94    0.95 
  -3   8   5   23.18    1.46 
  -3   8   5   19.67    1.66 
   2  -8  -5    5.29    0.67 
   2  -8  -5    5.13    0.64 
   2  -8  -5    5.41    0.63 
   2  -8  -5    4.17    1.12 
  -2   8   5    4.73    1.25 
  -2   8   5    6.32    0.91 
   1  -8  -5    4.89    1.08 
   1  -8  -5    4.44    0.75 
   1  -8  -5    4.07    0.71 
   1  -8  -5    5.28    0.72 
  -1   8   5    4.02    0.84 
  -1   8   5    5.08    1.21 
  -1   8   5    3.83    1.21 
   0  -8  -5   10.95    1.06 
   0  -8  -5   11.76    1.05 
   0  -8  -5   13.27    1.53 
   0   8   5   10.33    0.88 
   0   8   5   12.08    1.45 
   0   8   5   10.95    1.41 
  -1  -8  -5   78.58    2.64 
  -1  -8  -5   84.29    3.21 
  -1  -8  -5   81.35    2.63 
   1   8   5   81.37    3.01 
   1   8   5   80.36    2.94 
   1   8   5   80.89    2.23 
  -2  -8  -5   28.45    1.68 
  -2  -8  -5   30.47    1.77 
  -2  -8  -5   26.67    2.43 
   2   8   5   27.61    2.06 
   2   8   5   26.68    1.89 
  -3  -8  -5   31.27    2.55 
  -3  -8  -5   36.62    2.20 
  -3  -8  -5   32.17    2.06 
   3   8   5   33.18    1.99 
   3   8   5   37.29    2.34 
  -4  -8  -5    4.39    1.62 
  -4  -8  -5   10.06    1.48 
  -4  -8  -5    6.71    1.34 
   4   8   5    7.97    1.55 
   4   8   5    6.97    1.26 
  -5  -8  -5    0.94    1.23 
  -5  -8  -5    0.77    1.18 
  -5  -8  -5   -1.42    1.60 
   5   8   5   -0.81    1.43 
   5   8   5    2.16    1.17 
   6  -9  -5    1.58    1.34 
   6  -9  -5    1.18    1.43 
   5  -9  -5   14.10    2.06 
   5  -9  -5   12.81    1.71 
   4  -9  -5    1.44    1.04 
  -4   9   5    2.26    1.26 
  -4   9   5    2.97    1.08 
   3  -9  -5   11.36    1.38 
   3  -9  -5   12.94    0.86 
   3  -9  -5   13.80    0.76 
  -3   9   5   14.86    1.66 
  -3   9   5   14.53    1.32 
   2  -9  -5   17.55    1.01 
   2  -9  -5   16.09    1.38 
   2  -9  -5   15.89    1.06 
   2  -9  -5   14.54    1.52 
  -2   9   5   16.05    1.28 
  -2   9   5   18.15    1.73 
   1  -9  -5   80.64    2.33 
   1  -9  -5   79.23    3.10 
   1  -9  -5   80.99    2.37 
  -1   9   5   79.56    2.44 
  -1   9   5   77.71    3.06 
  -1   9   5   81.80    3.06 
   0  -9  -5   38.08    1.72 
   0  -9  -5   43.43    1.80 
   0  -9  -5   43.43    2.44 
   0   9   5   41.62    2.32 
   0   9   5   40.18    2.32 
   0   9   5   40.50    1.59 
  -1  -9  -5   37.39    2.68 
  -1  -9  -5   35.81    1.85 
  -1  -9  -5   37.91    1.78 
   1   9   5   38.48    2.25 
   1   9   5   34.59    2.26 
  -2  -9  -5   12.82    1.39 
  -2  -9  -5   12.19    1.78 
  -2  -9  -5   14.28    1.40 
   2   9   5   15.35    1.75 
   2   9   5   15.88    1.62 
  -3  -9  -5   -0.56    1.35 
  -3  -9  -5    2.21    1.04 
  -3  -9  -5    1.06    1.18 
   3   9   5    1.47    1.21 
   3   9   5   -1.55    1.23 
  -4  -9  -5    0.87    1.32 
  -4  -9  -5   -3.26    1.54 
  -4  -9  -5    1.20    1.14 
   4   9   5    0.72    1.13 
   4   9   5    0.99    1.44 
   5 -10  -5   13.46    2.09 
   5 -10  -5   10.22    1.67 
   4 -10  -5   12.76    1.70 
  -4  10   5   11.18    1.67 
   3 -10  -5   40.94    1.21 
   3 -10  -5   37.07    2.49 
   3 -10  -5   42.30    1.28 
  -3  10   5   41.18    1.94 
  -3  10   5   44.46    2.49 
   2 -10  -5   30.05    1.36 
   2 -10  -5   30.84    2.23 
  -2  10   5   31.69    1.74 
  -2  10   5   35.55    2.29 
   1 -10  -5    9.68    0.97 
   1 -10  -5    8.86    0.93 
   1 -10  -5    7.21    1.41 
  -1  10   5    8.44    1.55 
  -1  10   5    9.06    1.50 
   0 -10  -5   20.41    1.47 
   0 -10  -5   23.66    1.51 
   0 -10  -5   22.19    2.21 
   0  10   5   24.06    1.95 
   0  10   5   21.36    1.96 
  -1 -10  -5   -0.09    1.32 
  -1 -10  -5    1.72    0.94 
  -1 -10  -5    2.20    0.95 
   1  10   5    2.25    1.32 
   1  10   5    0.93    1.26 
  -2 -10  -5   13.81    1.48 
  -2 -10  -5   12.01    1.42 
  -2 -10  -5   11.19    1.91 
   2  10   5   15.31    1.56 
   2  10   5   13.84    1.78 
  -3 -10  -5    9.94    1.56 
  -3 -10  -5    7.67    1.38 
  -3 -10  -5    5.29    1.82 
   3  10   5    8.85    1.66 
   3  10   5    8.07    1.51 
   2 -11  -5    3.75    0.71 
   1 -11  -5    2.05    1.37 
   1 -11  -5    2.50    0.87 
  -1  11   5    2.19    1.58 
  -1  11   5    2.88    1.34 
   3  10  -6   19.63    1.79 
   3  10  -6   19.74    2.01 
  -3 -10   6   17.19    1.69 
  -3 -10   6   18.66    1.77 
  -3 -10   6   16.29    2.17 
   2  10  -6    8.15    1.55 
   2  10  -6    5.56    1.33 
  -2 -10   6    6.16    1.29 
  -2 -10   6    5.79    1.77 
  -2 -10   6    8.88    1.32 
   1  10  -6    3.00    1.22 
   1  10  -6    2.34    1.30 
  -1 -10   6    1.30    1.53 
  -1 -10   6    1.19    1.02 
  -1 -10   6    0.49    0.98 
   0  10  -6    2.23    1.30 
   0  10  -6    2.67    1.23 
   0 -10   6    4.06    1.10 
   0 -10   6    4.05    1.65 
   0 -10   6    3.34    1.12 
  -1  10  -6   56.34    2.57 
  -1  10  -6   55.95    2.78 
   1 -10   6   60.78    2.44 
   1 -10   6   56.94    3.35 
   1 -10   6   57.89    2.35 
  -2  10  -6   17.56    1.59 
  -2  10  -6   16.10    1.81 
   2 -10   6   19.41    1.52 
   2 -10   6   18.72    2.19 
   2 -10   6   16.26    1.42 
  -3  10  -6   25.50    2.09 
  -3  10  -6   22.90    1.88 
   3 -10   6   24.01    2.41 
   3 -10   6   24.96    1.62 
   3 -10   6   26.58    1.72 
  -4  10  -6   23.11    2.05 
   4 -10   6   26.41    1.58 
   5   9  -6    0.90    1.40 
  -5  -9   6    2.74    1.61 
  -5  -9   6   -0.53    1.23 
  -5  -9   6    1.92    1.28 
   4   9  -6   21.61    1.73 
   4   9  -6   25.39    2.10 
  -4  -9   6   24.71    2.00 
  -4  -9   6   22.03    2.30 
  -4  -9   6   21.47    1.92 
   3   9  -6    4.02    1.21 
   3   9  -6    2.15    1.32 
  -3  -9   6    2.04    1.48 
  -3  -9   6    2.97    1.17 
  -3  -9   6    4.11    1.19 
   2   9  -6   14.16    1.48 
   2   9  -6   14.49    1.65 
  -2  -9   6   12.72    1.46 
  -2  -9   6   14.56    1.53 
  -2  -9   6   14.42    1.90 
   1   9  -6   12.02    1.30 
   1   9  -6   13.51    1.55 
  -1  -9   6   10.96    1.77 
  -1  -9   6    9.61    1.35 
  -1  -9   6   10.21    1.29 
   0   9  -6  100.53    3.29 
   0   9  -6   98.56    3.37 
   0  -9   6   98.67    4.02 
   0  -9   6   91.59    3.05 
   0  -9   6   94.24    3.12 
  -1   9  -6   37.71    2.00 
  -1   9  -6   35.37    2.01 
   1  -9   6   36.61    1.83 
   1  -9   6   37.65    2.75 
   1  -9   6   36.42    1.93 
  -2   9  -6    8.42    1.43 
  -2   9  -6    9.60    1.33 
   2  -9   6   10.77    1.77 
   2  -9   6   11.03    1.25 
   2  -9   6    7.08    2.06 
   2  -9   6    9.20    1.13 
  -3   9  -6   31.67    1.90 
  -3   9  -6   33.67    1.96 
   3  -9   6   31.56    1.85 
   3  -9   6   32.61    2.71 
   3  -9   6   23.82    3.31 
   3  -9   6   34.72    1.73 
  -4   9  -6    0.85    1.43 
  -4   9  -6    1.14    1.16 
   4  -9   6   -0.51    0.85 
   4  -9   6    1.48    0.88 
   4  -9   6   -1.04    1.90 
  -5   9  -6    3.30    1.66 
  -5   9  -6    3.14    1.35 
   5  -9   6    1.49    0.89 
   5  -9   6   -1.65    1.99 
   6   8  -6    8.90    1.67 
   6   8  -6    7.93    1.55 
  -6  -8   6    9.36    2.33 
  -6  -8   6    6.75    1.90 
  -6  -8   6    9.25    1.66 
   5   8  -6   -0.84    0.84 
   5   8  -6    1.61    1.17 
   5   8  -6   -0.78    1.29 
  -5  -8   6    0.65    1.14 
  -5  -8   6   -0.76    1.33 
  -5  -8   6   -1.02    1.18 
   4   8  -6   24.26    2.09 
   4   8  -6   22.03    1.71 
   4   8  -6   24.19    1.94 
  -4  -8   6   25.39    2.05 
  -4  -8   6   25.89    1.95 
  -4  -8   6   22.65    2.15 
   3   8  -6   11.33    1.54 
   3   8  -6   10.33    1.36 
   3   8  -6    9.82    1.30 
  -3  -8   6    8.02    1.33 
  -3  -8   6    9.66    1.41 
  -3  -8   6   10.32    1.37 
   2   8  -6   49.92    2.34 
   2   8  -6   47.48    2.19 
   2   8  -6   50.83    2.43 
  -2  -8   6   53.01    2.27 
  -2  -8   6   53.29    2.87 
  -2  -8   6   53.06    2.35 
   1   8  -6   27.76    1.64 
   1   8  -6   29.12    1.87 
   1   8  -6   27.81    1.91 
  -1  -8   6   24.98    1.69 
  -1  -8   6   26.03    1.73 
  -1  -8   6   31.08    2.42 
   0   8  -6   37.32    2.07 
   0   8  -6   36.35    1.99 
   0  -8   6   40.11    2.02 
   0  -8   6   36.83    2.66 
   0  -8   6   34.93    1.93 
   0  -8   6   36.94    2.25 
  -1   8  -6   23.49    1.87 
  -1   8  -6   24.15    1.63 
   1  -8   6   22.61    1.63 
   1  -8   6   22.91    2.28 
   1  -8   6   19.30    2.70 
   1  -8   6   23.87    1.67 
  -2   8  -6    3.29    0.94 
  -2   8  -6    1.57    1.08 
   2  -8   6    2.11    1.64 
   2  -8   6    0.82    0.89 
   2  -8   6    3.92    1.36 
   2  -8   6    2.31    0.84 
  -3   8  -6    4.11    1.44 
  -3   8  -6    3.35    0.94 
  -3   8  -6    3.65    1.25 
   3  -8   6    2.82    1.66 
   3  -8   6    4.88    1.02 
   3  -8   6    4.94    0.97 
  -4   8  -6    8.53    1.40 
  -4   8  -6    5.80    1.57 
   4  -8   6    7.79    1.09 
   4  -8   6    5.72    1.94 
   4  -8   6    7.52    1.09 
  -5   8  -6   66.42    3.03 
  -5   8  -6   69.30    2.91 
   5  -8   6   71.45    4.45 
   5  -8   6   67.05    2.52 
  -6   8  -6   29.97    2.62 
  -6   8  -6   27.12    2.14 
   6  -8   6   29.19    1.86 
   6  -8   6   20.65    2.96 
   7   7  -6   -1.65    1.30 
   7   7  -6   -2.26    1.36 
   7   7  -6    1.58    1.36 
  -7  -7   6   -0.80    1.25 
  -7  -7   6   -2.39    1.47 
   6   7  -6    4.90    1.40 
   6   7  -6    6.58    1.45 
  -6  -7   6    4.42    1.53 
  -6  -7   6    6.82    1.21 
  -6  -7   6    7.52    1.29 
   5   7  -6   34.67    2.17 
   5   7  -6   41.08    2.31 
   5   7  -6   36.52    1.74 
  -5  -7   6   37.54    2.19 
  -5  -7   6   40.24    2.38 
  -5  -7   6   34.84    2.53 
   4   7  -6   41.93    2.22 
   4   7  -6   36.21    1.97 
   4   7  -6   39.09    1.86 
   4   7  -6   39.78    2.26 
  -4  -7   6   37.39    2.11 
  -4  -7   6   39.49    2.20 
  -4  -7   6   36.56    2.64 
   3   7  -6  121.27    3.65 
   3   7  -6  125.06    3.01 
   3   7  -6  123.93    3.26 
   3   7  -6  123.92    3.73 
   3   7  -6  127.16    3.47 
  -3  -7   6  121.15    3.66 
  -3  -7   6  114.31    3.72 
  -3  -7   6  127.38    4.16 
   2   7  -6   54.13    2.21 
   2   7  -6   57.52    2.31 
   2   7  -6   58.58    2.47 
  -2  -7   6   61.63    2.35 
  -2  -7   6   56.18    2.78 
  -2  -7   6   55.29    2.36 
   1   7  -6   16.25    1.40 
   1   7  -6   15.76    1.39 
   1   7  -6   15.85    1.47 
  -1  -7   6   19.69    1.94 
  -1  -7   6   16.27    1.67 
  -1  -7   6   18.77    1.48 
  -1  -7   6   16.92    1.48 
   0   7  -6    7.11    1.07 
   0   7  -6    7.46    1.16 
   0   7  -6    6.54    1.10 
   0  -7   6    6.27    1.37 
   0  -7   6    7.13    1.06 
   0  -7   6    9.00    1.14 
   0  -7   6    6.79    1.47 
  -1   7  -6   16.94    1.43 
  -1   7  -6   20.16    1.68 
  -1   7  -6   17.66    1.40 
   1  -7   6   15.38    1.94 
   1  -7   6   19.56    1.41 
   1  -7   6   18.32    1.42 
   1  -7   6   17.54    1.74 
  -2   7  -6   26.38    1.84 
  -2   7  -6   24.99    1.99 
  -2   7  -6   25.60    1.54 
   2  -7   6   24.64    2.94 
   2  -7   6   24.06    1.64 
   2  -7   6   22.89    1.64 
  -3   7  -6   25.01    1.61 
  -3   7  -6   26.66    2.10 
  -3   7  -6   26.27    1.43 
   3  -7   6   24.16    1.63 
   3  -7   6   25.06    3.10 
   3  -7   6   27.68    1.65 
  -4   7  -6   80.88    2.94 
  -4   7  -6   78.78    2.34 
  -4   7  -6   79.29    3.24 
   4  -7   6   75.86    2.67 
   4  -7   6   77.41    4.25 
  -5   7  -6   17.74    1.63 
  -5   7  -6   17.42    1.94 
   5  -7   6   15.89    1.37 
   5  -7   6   15.17    1.37 
   5  -7   6   14.40    2.42 
  -6   7  -6   23.34    2.26 
  -6   7  -6   23.21    1.92 
   6  -7   6   18.17    2.77 
   6  -7   6   24.13    1.74 
   6  -7   6   25.56    1.80 
  -7   7  -6    3.70    1.61 
  -7   7  -6    2.56    1.17 
   7  -7   6   -3.32    1.90 
   7  -7   6    2.57    1.06 
   7  -7   6    1.67    1.11 
   8   6  -6    1.75    1.35 
   8   6  -6   -1.31    1.42 
  -8  -6   6   -4.32    1.44 
  -8  -6   6    1.48    1.10 
   7   6  -6   57.35    3.12 
   7   6  -6   59.01    2.69 
  -7  -6   6   64.09    2.98 
  -7  -6   6   55.21    3.27 
   6   6  -6   17.28    1.75 
   6   6  -6   19.82    1.65 
  -6  -6   6   18.31    1.53 
  -6  -6   6   15.88    1.78 
  -6  -6   6   17.72    1.78 
   5   6  -6   86.27    2.54 
   5   6  -6   89.86    3.23 
   5   6  -6   89.46    3.06 
  -5  -6   6   87.02    3.37 
  -5  -6   6   87.99    3.11 
  -5  -6   6   92.01    3.29 
   4   6  -6   23.70    1.66 
   4   6  -6   22.50    1.35 
   4   6  -6   26.65    1.62 
  -4  -6   6   25.75    2.04 
  -4  -6   6   27.03    1.91 
  -4  -6   6   22.11    1.75 
   3   6  -6    0.40    0.72 
   3   6  -6    2.28    0.98 
   3   6  -6    1.02    0.83 
   3   6  -6    1.39    0.78 
  -3  -6   6    0.87    0.47 
  -3  -6   6    1.58    1.08 
  -3  -6   6    1.05    0.94 
  -3  -6   6    1.64    1.02 
   2   6  -6   13.89    1.22 
   2   6  -6   12.11    1.15 
   2   6  -6   12.86    0.71 
   2   6  -6   10.02    1.25 
   2   6  -6   12.47    1.25 
  -2  -6   6   15.04    1.30 
  -2  -6   6   14.00    0.87 
  -2  -6   6   13.17    1.29 
  -2  -6   6    9.72    1.38 
  -2  -6   6   13.08    1.37 
   1   6  -6    7.33    1.05 
   1   6  -6    6.59    1.03 
   1   6  -6    5.10    1.10 
   1   6  -6    7.25    1.12 
   1   6  -6    6.31    0.89 
  -1  -6   6    7.13    1.06 
  -1  -6   6    6.71    0.97 
  -1  -6   6    6.04    0.98 
  -1  -6   6    7.21    1.30 
  -1  -6   6    6.23    1.18 
   0   6  -6   80.93    2.65 
   0   6  -6   83.96    2.59 
   0   6  -6   81.03    2.38 
   0   6  -6   80.80    2.55 
   0  -6   6   78.29    2.60 
   0  -6   6   79.04    2.55 
   0  -6   6   80.65    3.53 
   0  -6   6   79.00    2.56 
   0  -6   6   79.15    2.56 
   0  -6   6   80.42    3.02 
  -1   6  -6   35.29    1.70 
  -1   6  -6   35.83    1.64 
  -1   6  -6   35.88    1.88 
  -1   6  -6   36.15    1.54 
   1  -6   6   36.54    1.81 
   1  -6   6   34.78    1.63 
   1  -6   6   34.46    1.79 
   1  -6   6   34.47    2.14 
   1  -6   6   34.96    2.72 
   1  -6   6   34.54    1.73 
  -2   6  -6  168.80    4.38 
  -2   6  -6  167.31    4.24 
  -2   6  -6  162.05    4.50 
  -2   6  -6  167.05    4.11 
   2  -6   6  185.18    5.56 
   2  -6   6  179.45    5.73 
   2  -6   6  168.02    4.28 
   2  -6   6  167.12    4.32 
   2  -6   6  169.79    4.33 
  -3   6  -6   21.46    1.45 
  -3   6  -6   22.63    1.46 
  -3   6  -6   22.14    1.88 
  -3   6  -6   20.58    1.26 
   3  -6   6   19.56    1.58 
   3  -6   6   22.54    2.71 
   3  -6   6   20.86    1.45 
  -4   6  -6   34.65    1.98 
  -4   6  -6   34.99    2.27 
  -4   6  -6   34.21    1.35 
   4  -6   6   31.24    1.71 
   4  -6   6   32.82    3.11 
   4  -6   6   33.91    1.73 
  -5   6  -6   11.60    1.39 
  -5   6  -6    9.73    1.62 
   5  -6   6    7.37    2.04 
   5  -6   6    9.51    1.11 
   5  -6   6    8.94    1.21 
  -6   6  -6   -0.47    1.00 
  -6   6  -6    0.18    1.31 
   6  -6   6    0.23    0.95 
   6  -6   6   -1.06    1.73 
   6  -6   6    0.98    0.91 
  -7   6  -6    2.90    1.14 
  -7   6  -6    3.58    1.57 
   7  -6   6    1.76    2.07 
   7  -6   6    3.66    1.05 
   7  -6   6    1.70    1.09 
   8   5  -6   52.93    2.55 
   8   5  -6   47.99    3.24 
  -8  -5   6   41.35    2.84 
  -8  -5   6   49.64    2.76 
   7   5  -6   30.80    2.59 
   7   5  -6   33.84    2.31 
  -7  -5   6   32.24    2.63 
  -7  -5   6   35.74    2.34 
   6   5  -6   55.18    2.60 
   6   5  -6   65.52    2.99 
   6   5  -6   51.86    2.59 
  -6  -5   6   54.21    2.67 
  -6  -5   6   54.12    2.27 
  -6  -5   6   52.75    2.38 
   5   5  -6   53.41    2.47 
   5   5  -6   53.11    2.28 
   5   5  -6   51.23    1.73 
   5   5  -6   53.17    2.45 
  -5  -5   6   52.43    2.31 
  -5  -5   6   51.39    2.23 
  -5  -5   6   50.34    2.47 
  -5  -5   6   51.92    1.46 
   4   5  -6    2.04    0.91 
   4   5  -6    0.21    0.99 
   4   5  -6    0.41    0.78 
   4   5  -6   -0.21    0.67 
  -4  -5   6   -0.60    1.00 
  -4  -5   6    1.00    0.45 
  -4  -5   6    0.19    0.71 
  -4  -5   6   -1.13    0.93 
   3   5  -6    3.68    1.00 
   3   5  -6    1.92    0.75 
   3   5  -6    0.79    1.15 
   3   5  -6    1.82    0.72 
   3   5  -6    2.33    0.85 
  -3  -5   6    1.18    0.89 
  -3  -5   6    2.15    0.61 
  -3  -5   6    1.95    0.71 
  -3  -5   6    3.16    0.99 
  -3  -5   6    2.39    0.53 
  -3  -5   6    1.94    0.78 
   2   5  -6   79.37    2.41 
   2   5  -6   77.38    2.11 
   2   5  -6   84.30    2.66 
   2   5  -6   78.74    2.47 
   2   5  -6   76.18    3.03 
  -2  -5   6   76.46    2.50 
  -2  -5   6   80.56    2.47 
  -2  -5   6   79.70    2.78 
  -2  -5   6   76.22    2.51 
   1   5  -6   64.27    2.28 
   1   5  -6   67.58    2.20 
   1   5  -6   64.99    2.13 
   1   5  -6   63.20    2.76 
  -1  -5   6   64.93    2.49 
  -1  -5   6   63.49    2.16 
  -1  -5   6   68.04    2.34 
  -1  -5   6   63.83    2.91 
  -1  -5   6   66.31    2.25 
   0   5  -6   84.36    2.51 
   0   5  -6   81.42    2.49 
   0   5  -6   84.90    2.60 
   0  -5   6   82.25    2.65 
   0  -5   6   88.70    3.64 
   0  -5   6   83.99    2.90 
   0  -5   6   87.91    2.61 
   0  -5   6   85.44    2.61 
   0  -5   6   85.40    2.54 
  -1   5  -6  114.07    2.99 
  -1   5  -6  115.55    3.32 
  -1   5  -6  115.93    3.05 
  -1   5  -6  120.98    3.20 
  -1   5  -6  115.01    3.24 
   1  -5   6  109.32    3.20 
   1  -5   6  119.65    3.24 
   1  -5   6  112.20    3.11 
   1  -5   6  112.39    4.28 
  -2   5  -6   21.67    1.59 
  -2   5  -6   21.01    1.63 
  -2   5  -6   21.45    1.19 
  -2   5  -6   20.99    1.18 
  -2   5  -6   20.29    1.37 
   2  -5   6   24.99    2.74 
   2  -5   6   22.47    0.65 
   2  -5   6   21.89    1.46 
   2  -5   6   22.00    1.49 
   2  -5   6   21.13    1.42 
   2  -5   6   18.40    1.32 
  -3   5  -6   15.75    1.01 
  -3   5  -6   14.32    1.36 
  -3   5  -6   18.69    1.31 
  -3   5  -6   16.40    1.21 
  -3   5  -6   15.11    1.50 
   3  -5   6   14.22    1.21 
   3  -5   6   15.50    1.40 
   3  -5   6   14.89    1.27 
   3  -5   6   16.07    1.38 
   3  -5   6   16.17    0.81 
   3  -5   6   14.33    2.02 
  -4   5  -6    1.41    0.87 
  -4   5  -6    0.64    0.48 
  -4   5  -6    1.53    1.13 
  -4   5  -6   -0.06    0.91 
   4  -5   6   -0.52    0.76 
   4  -5   6    1.49    0.86 
   4  -5   6   -1.02    1.49 
   4  -5   6    0.57    0.61 
  -5   5  -6   78.35    2.76 
  -5   5  -6   79.37    2.95 
   5  -5   6   79.55    2.81 
   5  -5   6   78.45    2.52 
   5  -5   6   79.53    4.08 
   5  -5   6   78.74    2.76 
  -6   5  -6   29.69    1.86 
  -6   5  -6   31.50    2.39 
   6  -5   6   28.08    1.90 
   6  -5   6   30.63    3.49 
   6  -5   6   30.20    2.12 
   6  -5   6   28.33    1.84 
  -7   5  -6   51.93    2.30 
  -7   5  -6   54.22    2.97 
   7  -5   6   51.66    2.43 
   7  -5   6   52.01    4.35 
   7  -5   6   49.88    2.37 
  -8   5  -6   28.40    1.96 
  -8   5  -6   27.71    2.48 
   8  -5   6   24.93    3.36 
   8  -5   6   28.38    2.14 
   8  -5   6   28.20    2.18 
   9   4  -6   26.66    2.35 
   9   4  -6   21.42    2.39 
  -9  -4   6   19.76    2.21 
  -9  -4   6   24.02    2.01 
  -9  -4   6   22.61    1.91 
   8   4  -6   29.78    2.55 
   8   4  -6   33.31    2.34 
  -8  -4   6   34.45    2.35 
  -8  -4   6   26.59    2.34 
  -8  -4   6   32.27    2.23 
   7   4  -6   32.81    1.82 
   7   4  -6   30.78    2.17 
   7   4  -6   26.89    2.29 
  -7  -4   6   32.04    2.16 
  -7  -4   6   29.94    2.19 
   6   4  -6    8.25    1.36 
   6   4  -6    8.80    1.29 
   6   4  -6    8.30    1.44 
  -6  -4   6    9.02    1.28 
  -6  -4   6   11.54    1.44 
  -6  -4   6    7.76    1.37 
  -6  -4   6    9.70    0.75 
   5   4  -6    1.75    0.59 
   5   4  -6    1.74    1.06 
   5   4  -6    2.24    0.99 
   5   4  -6    2.98    0.99 
  -5  -4   6    3.17    1.10 
  -5  -4   6    2.62    0.56 
  -5  -4   6    1.60    0.98 
  -5  -4   6    2.23    1.11 
   4   4  -6   66.09    2.39 
   4   4  -6   69.07    2.44 
   4   4  -6   65.67    2.38 
   4   4  -6   69.44    2.00 
  -4  -4   6   67.75    2.44 
  -4  -4   6   63.95    2.36 
  -4  -4   6   71.47    1.83 
  -4  -4   6   68.46    2.54 
  -4  -4   6   66.37    2.46 
   3   4  -6   61.34    2.95 
   3   4  -6   67.83    2.17 
   3   4  -6   65.80    2.27 
   3   4  -6   65.94    2.39 
   3   4  -6   67.62    2.05 
  -3  -4   6   66.21    2.04 
  -3  -4   6   66.03    2.41 
  -3  -4   6   68.34    2.38 
  -3  -4   6   66.26    2.17 
  -3  -4   6   68.21    2.34 
  -3  -4   6   66.93    1.81 
   2   4  -6   81.24    2.38 
   2   4  -6   80.73    2.46 
   2   4  -6   79.87    2.16 
   2   4  -6   76.83    3.22 
   2   4  -6   78.98    2.47 
  -2  -4   6   82.79    2.48 
  -2  -4   6   82.57    2.53 
  -2  -4   6   79.90    2.26 
  -2  -4   6   77.96    2.57 
  -2  -4   6   82.54    2.62 
   1   4  -6  168.67    4.06 
   1   4  -6  163.20    4.01 
   1   4  -6  159.63    4.15 
   1   4  -6  168.12    3.51 
   1   4  -6  162.82    4.81 
  -1  -4   6  170.67    4.22 
  -1  -4   6  163.81    4.06 
  -1  -4   6  159.93    4.10 
  -1  -4   6  167.70    4.88 
  -1  -4   6  163.25    3.90 
  -1  -4   6  166.15    4.26 
   0   4  -6   38.63    1.57 
   0   4  -6   42.12    1.73 
   0   4  -6   38.92    1.71 
   0  -4   6   40.95    1.71 
   0  -4   6   44.29    1.66 
   0  -4   6   42.67    1.74 
   0  -4   6   40.30    1.74 
   0  -4   6   42.13    2.74 
  -1   4  -6    1.77    0.77 
  -1   4  -6    1.30    0.66 
  -1   4  -6    2.36    0.81 
  -1   4  -6    2.04    0.87 
   1  -4   6    1.53    0.70 
   1  -4   6    2.28    0.83 
   1  -4   6    2.00    1.33 
   1  -4   6    2.15    0.80 
   1  -4   6    1.84    0.77 
  -2   4  -6    1.36    0.26 
  -2   4  -6    2.16    0.78 
  -2   4  -6    1.03    0.88 
  -2   4  -6   -0.02    0.82 
  -2   4  -6    0.74    0.65 
  -2   4  -6    1.34    0.57 
   2  -4   6    0.28    0.70 
   2  -4   6    1.36    0.78 
   2  -4   6    2.81    0.86 
   2  -4   6    1.16    0.31 
   2  -4   6    2.07    1.32 
   2  -4   6    0.78    0.72 
  -3   4  -6   47.86    1.39 
  -3   4  -6   48.02    2.14 
  -3   4  -6   46.41    1.80 
  -3   4  -6   49.02    2.03 
  -3   4  -6   44.34    1.99 
  -3   4  -6   46.77    1.46 
   3  -4   6   44.83    1.86 
   3  -4   6   42.75    1.95 
   3  -4   6   53.41    1.92 
   3  -4   6   47.13    1.95 
   3  -4   6   50.70    3.25 
  -4   4  -6   27.21    1.51 
  -4   4  -6   25.81    1.56 
  -4   4  -6   27.03    1.92 
  -4   4  -6   25.57    1.30 
  -4   4  -6   26.91    0.84 
  -4   4  -6   26.08    1.68 
   4  -4   6   25.44    1.57 
   4  -4   6   30.26    1.59 
   4  -4   6   29.02    1.47 
   4  -4   6   27.65    1.69 
   4  -4   6   27.59    1.53 
   4  -4   6   26.48    2.90 
  -5   4  -6   51.83    2.17 
  -5   4  -6   50.85    2.54 
  -5   4  -6   54.02    2.17 
   5  -4   6   50.25    2.20 
   5  -4   6   52.66    3.71 
   5  -4   6   53.20    2.18 
   5  -4   6   51.61    2.10 
  -6   4  -6   67.58    3.01 
  -6   4  -6   69.05    2.53 
   6  -4   6   71.11    2.58 
   6  -4   6   70.23    2.69 
   6  -4   6   66.66    2.62 
   6  -4   6   68.49    4.38 
  -7   4  -6   12.56    1.82 
  -7   4  -6    9.91    1.33 
   7  -4   6    9.18    1.46 
   7  -4   6    9.06    2.37 
   7  -4   6    9.95    1.27 
   7  -4   6   11.59    1.50 
  -8   4  -6   13.93    2.03 
  -8   4  -6   16.39    1.46 
   8  -4   6   15.08    1.53 
   8  -4   6   14.80    1.67 
   8  -4   6   13.02    2.72 
   8  -4   6   13.62    1.78 
   9   3  -6   32.13    3.04 
   9   3  -6   28.64    2.34 
   9   3  -6   22.59    2.47 
   9   3  -6   28.59    2.17 
  -9  -3   6   25.35    1.83 
  -9  -3   6   29.78    2.29 
  -9  -3   6   32.96    2.39 
   8   3  -6    0.84    0.91 
   8   3  -6   -0.09    1.31 
   8   3  -6    2.40    1.12 
   8   3  -6    3.06    1.25 
  -8  -3   6    1.26    1.15 
  -8  -3   6   -0.83    1.24 
  -8  -3   6   -0.15    1.18 
   7   3  -6    4.27    1.32 
   7   3  -6    3.60    1.22 
   7   3  -6    3.53    1.13 
  -7  -3   6    4.09    0.74 
  -7  -3   6    5.86    1.27 
  -7  -3   6    2.52    1.16 
   6   3  -6   38.12    2.10 
   6   3  -6   35.20    1.95 
   6   3  -6   36.76    2.21 
  -6  -3   6   34.98    1.82 
  -6  -3   6   34.25    1.37 
  -6  -3   6   36.97    1.90 
  -6  -3   6   34.26    2.11 
   5   3  -6  111.04    3.44 
   5   3  -6  107.24    3.27 
   5   3  -6  109.78    3.40 
   5   3  -6  108.91    2.63 
   5   3  -6  117.17    3.31 
  -5  -3   6  112.79    2.74 
  -5  -3   6  109.24    3.17 
  -5  -3   6  108.50    3.40 
  -5  -3   6  113.95    3.27 
   4   3  -6  196.78    4.77 
   4   3  -6  186.53    4.75 
   4   3  -6  196.70    4.92 
   4   3  -6  191.82    4.80 
   4   3  -6  196.42    4.32 
  -4  -3   6  197.12    4.80 
  -4  -3   6  194.70    4.29 
  -4  -3   6  190.71    4.70 
  -4  -3   6  185.06    4.79 
   3   3  -6   43.45    1.95 
   3   3  -6   48.21    1.62 
   3   3  -6   49.04    1.80 
   3   3  -6   48.15    1.87 
  -3  -3   6   49.60    1.87 
  -3  -3   6   48.52    1.89 
  -3  -3   6   49.87    1.52 
  -3  -3   6   48.85    1.88 
  -3  -3   6   41.62    1.91 
   2   3  -6  156.97    3.73 
   2   3  -6  146.78    3.99 
   2   3  -6  155.38    3.67 
   2   3  -6  159.17    3.89 
   2   3  -6  165.34    3.95 
   2   3  -6  154.73    3.36 
   2   3  -6  154.11    4.80 
  -2  -3   6  161.66    3.94 
  -2  -3   6  154.25    3.92 
  -2  -3   6  162.23    3.92 
  -2  -3   6  159.19    4.04 
   1   3  -6    0.41    0.65 
   1   3  -6    0.50    0.68 
   1   3  -6    0.23    0.75 
   1   3  -6    0.20    0.36 
   1   3  -6   -0.87    1.08 
   1   3  -6    0.62    0.69 
   1   3  -6    0.23    0.18 
  -1  -3   6    0.85    0.76 
  -1  -3   6   -0.08    0.43 
  -1  -3   6   -0.82    0.73 
  -1  -3   6    0.12    0.67 
  -1  -3   6    0.00    0.66 
  -1  -3   6    0.14    1.11 
   0   3  -6    0.55    0.59 
   0   3  -6   -0.39    0.63 
   0   3  -6    0.85    0.30 
   0   3  -6    0.58    0.28 
   0   3  -6    0.83    0.59 
   0   3  -6    0.32    0.60 
   0  -3   6    1.81    1.19 
   0  -3   6    0.28    0.50 
   0  -3   6    0.75    0.67 
   0  -3   6    1.19    0.75 
   0  -3   6    0.69    0.72 
  -1   3  -6    7.32    0.85 
  -1   3  -6    6.16    0.53 
  -1   3  -6    6.81    0.96 
  -1   3  -6    6.58    0.84 
   1  -3   6    6.06    1.51 
   1  -3   6    7.13    0.94 
   1  -3   6    7.22    0.93 
   1  -3   6    7.26    0.32 
   1  -3   6    6.76    0.83 
   1  -3   6    6.39    0.85 
   1  -3   6    5.05    0.91 
  -2   3  -6  123.31    2.85 
  -2   3  -6  122.99    3.34 
  -2   3  -6  121.12    3.29 
  -2   3  -6  121.31    3.19 
   2  -3   6  121.69    3.28 
   2  -3   6  119.39    3.33 
   2  -3   6  121.67    4.30 
   2  -3   6  124.18    3.26 
   2  -3   6  124.40    3.32 
  -3   3  -6   69.63    2.19 
  -3   3  -6   69.68    2.36 
  -3   3  -6   67.47    1.63 
  -3   3  -6   70.21    2.43 
  -3   3  -6   67.09    2.19 
   3  -3   6   62.65    2.24 
   3  -3   6   66.65    2.36 
   3  -3   6   72.40    2.28 
   3  -3   6   66.80    2.28 
   3  -3   6   71.10    3.35 
   3  -3   6   69.33    2.05 
  -4   3  -6  137.60    3.87 
  -4   3  -6  144.16    4.03 
  -4   3  -6  145.29    3.84 
  -4   3  -6  146.82    3.72 
  -4   3  -6  144.15    3.72 
   4  -3   6  146.22    3.71 
   4  -3   6  139.57    3.78 
   4  -3   6  145.20    3.81 
   4  -3   6  144.48    5.40 
   4  -3   6  141.02    3.90 
  -5   3  -6   32.75    1.90 
  -5   3  -6   35.28    2.12 
  -5   3  -6   29.95    1.80 
   5  -3   6   33.89    3.23 
   5  -3   6   33.27    1.89 
   5  -3   6   33.26    1.78 
   5  -3   6   31.29    1.83 
  -6   3  -6    5.42    1.13 
  -6   3  -6    5.58    1.06 
  -6   3  -6    6.39    1.15 
   6  -3   6    2.93    1.86 
   6  -3   6    4.31    1.08 
   6  -3   6    4.20    1.12 
   6  -3   6    3.29    0.99 
  -7   3  -6   -0.53    1.28 
  -7   3  -6    0.53    0.97 
   7  -3   6   -0.84    1.19 
   7  -3   6    0.17    1.01 
   7  -3   6    0.43    0.97 
   7  -3   6   -0.64    1.83 
  -8   3  -6    1.72    1.18 
  -8   3  -6    1.17    1.12 
   8  -3   6    1.38    1.19 
   8  -3   6    2.23    2.14 
   8  -3   6   -0.05    1.37 
   8  -3   6    2.74    1.24 
   9   2  -6    8.29    1.44 
   9   2  -6    7.16    1.44 
   9   2  -6    7.44    1.81 
   9   2  -6    8.91    1.99 
  -9  -2   6    7.01    1.44 
  -9  -2   6    9.43    1.49 
  -9  -2   6    8.82    1.75 
   8   2  -6   15.53    1.67 
   8   2  -6   14.51    1.51 
   8   2  -6   11.47    1.78 
  -8  -2   6   15.06    1.46 
  -8  -2   6   12.25    1.51 
  -8  -2   6   11.54    1.50 
   7   2  -6   48.06    2.67 
   7   2  -6   49.18    2.25 
   7   2  -6   44.20    2.31 
  -7  -2   6   46.63    1.77 
  -7  -2   6   49.50    2.32 
  -7  -2   6   46.36    2.35 
  -7  -2   6   46.82    2.26 
   6   2  -6   78.09    2.71 
   6   2  -6   82.78    3.07 
   6   2  -6   75.25    1.85 
   6   2  -6   75.91    2.65 
  -6  -2   6   78.78    2.63 
  -6  -2   6   74.65    2.74 
  -6  -2   6   80.47    2.74 
  -6  -2   6   78.43    2.20 
   5   2  -6   31.99    1.89 
   5   2  -6   29.89    1.65 
   5   2  -6   27.79    1.46 
   5   2  -6   29.68    1.57 
   5   2  -6   31.41    1.04 
  -5  -2   6   30.81    1.24 
  -5  -2   6   31.86    1.65 
  -5  -2   6   28.63    1.61 
  -5  -2   6   30.04    1.72 
   4   2  -6   62.02    2.28 
   4   2  -6   59.43    1.91 
   4   2  -6   63.39    1.77 
   4   2  -6   66.35    2.18 
   4   2  -6   64.60    2.21 
   4   2  -6   67.36    2.34 
  -4  -2   6   63.97    2.07 
  -4  -2   6   64.22    1.86 
  -4  -2   6   61.44    2.26 
  -4  -2   6   65.23    2.19 
   3   2  -6    0.32    0.57 
   3   2  -6    0.40    0.46 
   3   2  -6    1.39    0.83 
   3   2  -6    0.81    0.70 
  -3  -2   6    0.05    0.53 
  -3  -2   6    0.45    0.61 
  -3  -2   6    0.55    0.71 
  -3  -2   6    0.51    0.57 
  -3  -2   6    0.17    0.66 
   2   2  -6   11.46    0.99 
   2   2  -6    8.77    1.03 
   2   2  -6   11.72    0.67 
   2   2  -6   12.30    1.02 
   2   2  -6   12.80    1.11 
  -2  -2   6   12.38    0.69 
  -2  -2   6   10.94    0.93 
  -2  -2   6   10.04    1.05 
  -2  -2   6   12.13    0.94 
  -2  -2   6   11.90    0.98 
   1   2  -6    1.51    1.16 
   1   2  -6    3.05    0.85 
   1   2  -6    1.98    0.50 
   1   2  -6    2.41    0.64 
   1   2  -6    2.32    0.36 
   1   2  -6    3.03    0.63 
  -1  -2   6    2.12    0.76 
  -1  -2   6    2.71    0.48 
  -1  -2   6    1.46    1.13 
  -1  -2   6    2.62    0.72 
  -1  -2   6    2.18    0.71 
  -1  -2   6    2.61    0.63 
  -1  -2   6    3.08    0.69 
   0   2  -6  385.60    8.23 
   0   2  -6  399.74    8.48 
   0   2  -6  405.61    8.57 
   0   2  -6  395.43    8.47 
   0  -2   6  382.43    7.90 
   0  -2   6  407.87    8.53 
   0  -2   6  407.44    8.50 
   0  -2   6  393.92    8.20 
   0  -2   6  392.80    9.57 
   0  -2   6  386.64    8.57 
   0  -2   6  375.81    8.53 
  -1   2  -6   75.15    2.23 
  -1   2  -6   76.80    2.03 
  -1   2  -6   76.07    2.33 
  -1   2  -6   74.31    2.33 
  -1   2  -6   78.01    2.30 
   1  -2   6   84.43    2.51 
   1  -2   6   80.03    2.18 
   1  -2   6   78.00    2.35 
   1  -2   6   79.75    2.42 
   1  -2   6   79.47    3.28 
   1  -2   6   83.22    2.42 
   1  -2   6   78.80    1.83 
  -2   2  -6  128.16    3.13 
  -2   2  -6  128.53    3.35 
  -2   2  -6  132.53    3.35 
  -2   2  -6  130.24    3.41 
   2  -2   6  125.85    3.42 
   2  -2   6  134.44    4.66 
   2  -2   6  130.98    3.42 
   2  -2   6  126.71    3.48 
   2  -2   6  128.15    3.39 
  -3   2  -6  147.77    3.90 
  -3   2  -6  151.29    3.81 
  -3   2  -6  149.57    3.09 
  -3   2  -6  140.09    3.90 
  -3   2  -6  154.00    3.71 
   3  -2   6  151.42    3.84 
   3  -2   6  153.84    3.74 
   3  -2   6  143.24    3.81 
   3  -2   6  155.41    5.26 
   3  -2   6  151.57    3.96 
  -4   2  -6   11.24    1.22 
  -4   2  -6   12.77    1.14 
  -4   2  -6    9.38    1.26 
   4  -2   6   10.70    1.11 
   4  -2   6   12.53    1.24 
   4  -2   6    9.01    1.84 
   4  -2   6   11.57    1.13 
   4  -2   6   10.71    1.09 
  -5   2  -6    0.69    0.82 
  -5   2  -6    2.17    1.14 
  -5   2  -6    2.90    1.00 
   5  -2   6    1.04    1.63 
   5  -2   6    1.49    0.89 
   5  -2   6    2.41    1.04 
   5  -2   6    1.35    0.92 
  -6   2  -6    3.91    1.11 
  -6   2  -6    4.10    1.02 
  -6   2  -6    6.00    1.38 
   6  -2   6    4.19    1.12 
   6  -2   6    4.20    1.92 
   6  -2   6    4.14    1.16 
   6  -2   6    3.75    1.04 
  -7   2  -6   66.65    2.75 
  -7   2  -6   66.45    3.08 
  -7   2  -6   68.52    2.42 
   7  -2   6   66.51    2.80 
   7  -2   6   64.90    2.66 
   7  -2   6   70.48    4.52 
   7  -2   6   70.34    3.01 
  -8   2  -6   16.24    1.98 
   8  -2   6   18.32    1.66 
   8  -2   6   15.14    1.67 
   8  -2   6   10.60    2.53 
   8  -2   6   12.27    1.74 
   9   1  -6   33.55    3.13 
   9   1  -6   31.19    2.85 
   9   1  -6   30.80    2.08 
   9   1  -6   28.73    2.16 
  -9  -1   6   33.98    2.21 
   8   1  -6   73.76    2.79 
   8   1  -6   71.95    2.89 
   8   1  -6   73.28    3.43 
  -8  -1   6   74.96    2.85 
  -8  -1   6   75.46    2.45 
  -8  -1   6   69.22    2.63 
  -8  -1   6   71.44    2.82 
   7   1  -6  100.27    3.71 
   7   1  -6   95.85    3.24 
   7   1  -6   99.08    3.19 
  -7  -1   6  103.46    3.23 
  -7  -1   6   98.52    2.77 
  -7  -1   6  100.54    3.22 
  -7  -1   6   96.84    3.15 
   6   1  -6   34.29    1.84 
   6   1  -6   32.04    0.77 
   6   1  -6   33.04    1.75 
   6   1  -6   34.07    2.21 
  -6  -1   6   34.15    1.43 
  -6  -1   6   31.14    1.81 
  -6  -1   6   32.57    1.76 
  -6  -1   6   29.70    1.74 
  -6  -1   6   32.03    1.64 
   5   1  -6   83.77    2.92 
   5   1  -6   81.89    1.97 
   5   1  -6   79.10    2.54 
   5   1  -6   81.61    2.58 
   5   1  -6   81.54    2.28 
   5   1  -6   82.19    2.68 
  -5  -1   6   80.67    2.26 
  -5  -1   6   82.54    2.65 
  -5  -1   6   78.28    2.48 
  -5  -1   6   83.97    2.41 
   4   1  -6    3.42    0.88 
   4   1  -6    3.45    0.88 
   4   1  -6    2.95    0.79 
   4   1  -6    2.17    0.49 
   4   1  -6    2.27    0.75 
  -4  -1   6    2.63    0.68 
  -4  -1   6    2.11    0.60 
  -4  -1   6    2.23    0.74 
  -4  -1   6    2.64    0.64 
   3   1  -6   45.36    1.46 
   3   1  -6   48.28    1.77 
   3   1  -6   43.50    1.81 
   3   1  -6   46.56    1.82 
  -3  -1   6   45.27    1.41 
  -3  -1   6   48.72    1.89 
  -3  -1   6   44.96    1.70 
  -3  -1   6   48.31    1.82 
  -3  -1   6   46.38    1.52 
   2   1  -6   73.62    2.12 
   2   1  -6   70.16    2.20 
   2   1  -6   74.96    2.20 
   2   1  -6   72.31    2.16 
   2   1  -6   66.87    2.20 
   2   1  -6   70.51    1.81 
  -2  -1   6   71.51    1.59 
  -2  -1   6   70.04    2.17 
  -2  -1   6   72.92    1.85 
  -2  -1   6   71.37    2.01 
  -2  -1   6   74.69    2.10 
  -2  -1   6   73.56    2.16 
   1   1  -6  183.86    4.32 
   1   1  -6  186.09    4.31 
   1   1  -6  180.81    3.91 
   1   1  -6  182.27    4.36 
   1   1  -6  187.62    4.35 
  -1  -1   6  183.52    3.83 
  -1  -1   6  181.57    3.93 
  -1  -1   6  178.37    4.28 
  -1  -1   6  177.54    5.29 
   0   1  -6  139.77    3.55 
   0   1  -6  146.64    3.62 
   0   1  -6  136.61    3.18 
   0   1  -6  143.78    3.54 
   0   1  -6  147.75    3.53 
   0  -1   6  139.59    3.47 
   0  -1   6  138.79    3.55 
   0  -1   6  138.53    3.09 
   0  -1   6  139.85    4.62 
   0  -1   6  134.32    3.56 
   0  -1   6  143.66    3.53 
  -1   1  -6    2.88    0.74 
  -1   1  -6    1.32    0.48 
  -1   1  -6    2.68    0.69 
  -1   1  -6    2.73    0.80 
  -1   1  -6    3.29    0.63 
   1  -1   6    2.74    1.13 
   1  -1   6    2.77    0.81 
   1  -1   6    3.46    0.53 
   1  -1   6    2.75    0.83 
   1  -1   6    4.01    0.89 
   1  -1   6    2.37    0.75 
  -2   1  -6   33.15    1.55 
  -2   1  -6   33.26    1.47 
  -2   1  -6   32.44    1.43 
  -2   1  -6   32.33    1.47 
  -2   1  -6   31.90    1.44 
   2  -1   6   30.64    1.35 
   2  -1   6   32.98    1.14 
   2  -1   6   33.01    1.40 
   2  -1   6   32.26    2.66 
   2  -1   6   34.98    1.66 
  -3   1  -6    0.04    0.80 
  -3   1  -6   -0.49    0.72 
  -3   1  -6   -1.17    0.76 
  -3   1  -6    0.33    0.83 
  -3   1  -6    0.53    0.20 
   3  -1   6    1.99    1.13 
   3  -1   6    0.66    0.59 
   3  -1   6   -0.49    0.69 
   3  -1   6    0.71    0.83 
   3  -1   6    0.57    0.52 
  -4   1  -6    0.31    0.79 
  -4   1  -6    2.23    1.00 
  -4   1  -6    2.45    0.95 
   4  -1   6    0.35    0.61 
   4  -1   6    1.00    0.82 
   4  -1   6    1.75    0.83 
   4  -1   6    0.85    0.67 
   4  -1   6    0.90    1.17 
  -5   1  -6   73.34    2.53 
  -5   1  -6   72.60    2.69 
  -5   1  -6   70.18    2.79 
   5  -1   6   79.55    2.63 
   5  -1   6   77.37    2.74 
   5  -1   6   74.95    3.74 
   5  -1   6   76.36    2.79 
  -6   1  -6   61.37    2.38 
  -6   1  -6   59.04    2.68 
   6  -1   6   59.60    2.57 
   6  -1   6   62.07    2.76 
   6  -1   6   57.88    3.91 
   6  -1   6   63.78    2.48 
  -7   1  -6   20.37    1.98 
  -7   1  -6   19.36    1.76 
   7  -1   6   21.99    2.17 
   7  -1   6   20.84    1.93 
   7  -1   6   16.50    2.58 
   7  -1   6   21.14    1.81 
  -8   1  -6   69.29    3.33 
  -8   1  -6   67.05    3.67 
   8  -1   6   73.28    2.94 
   8  -1   6   68.64    3.37 
   8  -1   6   76.07    3.12 
   8  -1   6   68.70    4.75 
  -9   1  -6    6.09    2.05 
   9  -1   6    4.65    2.42 
   9  -1   6    3.80    1.66 
   9  -1   6    5.29    1.39 
  10   0  -6   38.07    3.77 
  10   0  -6   36.52    2.40 
  10   0  -6   41.02    3.71 
  10   0  -6   34.24    2.25 
 -10   0   6   39.56    2.81 
   9   0  -6   62.79    2.67 
   9   0  -6   59.94    2.72 
   9   0  -6   70.11    4.32 
   9   0  -6   60.68    3.48 
  -9   0   6   62.28    2.74 
   8   0  -6    6.30    1.22 
   8   0  -6    5.66    1.13 
   8   0  -6    4.33    1.52 
  -8   0   6    4.28    1.01 
  -8   0   6    5.70    1.29 
  -8   0   6    5.88    1.05 
  -8   0   6    7.20    1.27 
   7   0  -6    7.18    1.13 
   7   0  -6    7.90    1.19 
   7   0  -6    8.90    1.51 
  -7   0   6    8.47    1.08 
  -7   0   6    7.76    1.14 
  -7   0   6    8.99    1.03 
  -7   0   6   10.40    1.30 
   6   0  -6   11.55    1.50 
   6   0  -6   13.13    0.55 
   6   0  -6   12.47    1.26 
   6   0  -6   14.27    1.33 
   6   0  -6   11.86    1.17 
   6   0  -6   13.56    1.13 
   6   0  -6   13.44    0.78 
  -6   0   6   14.81    1.32 
  -6   0   6   14.23    1.17 
  -6   0   6   13.61    1.31 
  -6   0   6   15.54    1.17 
  -6   0   6   13.91    1.08 
   5   0  -6   95.20    2.41 
   5   0  -6   94.37    3.19 
   5   0  -6   92.17    2.71 
   5   0  -6   93.05    3.11 
   5   0  -6   91.57    2.82 
   5   0  -6   93.84    2.76 
  -5   0   6   93.46    2.65 
  -5   0   6   93.88    2.79 
  -5   0   6   93.70    2.57 
  -5   0   6   96.20    2.80 
  -5   0   6   96.04    2.39 
   4   0  -6   24.27    1.60 
   4   0  -6   25.17    1.34 
   4   0  -6   23.30    0.88 
   4   0  -6   23.28    1.38 
   4   0  -6   22.42    1.16 
   4   0  -6   20.76    1.25 
  -4   0   6   24.11    0.97 
  -4   0   6   22.23    1.21 
  -4   0   6   22.02    1.04 
  -4   0   6   24.38    1.21 
  -4   0   6   24.12    0.85 
   3   0  -6  219.69    4.94 
   3   0  -6  224.34    5.37 
   3   0  -6  230.42    5.19 
   3   0  -6  223.83    5.17 
   3   0  -6  224.64    5.14 
  -3   0   6  229.13    4.61 
  -3   0   6  227.62    5.00 
  -3   0   6  219.72    5.07 
  -3   0   6  217.31    5.13 
   2   0  -6  131.59    3.34 
   2   0  -6  135.34    3.42 
   2   0  -6  127.00    3.22 
   2   0  -6  130.64    3.07 
   2   0  -6  127.51    3.28 
  -2   0   6  132.04    3.27 
  -2   0   6  132.70    3.20 
  -2   0   6  135.66    3.34 
  -2   0   6  136.46    3.29 
  -2   0   6  134.76    2.76 
   1   0  -6  227.41    5.12 
   1   0  -6  215.40    5.16 
   1   0  -6  221.03    4.50 
   1   0  -6  219.28    5.05 
   1   0  -6  224.80    5.09 
  -1   0   6  226.02    5.07 
  -1   0   6  226.69    5.18 
  -1   0   6  225.67    5.04 
  -1   0   6  222.83    4.83 
   0   0  -6  160.92    4.09 
   0   0  -6  173.31    4.09 
   0   0  -6  167.07    3.64 
   0   0  -6  171.87    4.01 
   0   0  -6  163.48    4.02 
   0   0   6  165.07    3.72 
   0   0   6  166.27    5.12 
   0   0   6  160.94    3.95 
   0   0   6  171.79    4.00 
   0   0   6  166.84    4.04 
   0   0   6  168.63    3.81 
  -1   0  -6   10.13    1.03 
  -1   0  -6   10.47    0.95 
  -1   0  -6   11.02    1.19 
  -1   0  -6   11.08    0.94 
  -1   0  -6   10.31    0.83 
  -1   0  -6    9.07    0.93 
   1   0   6   10.58    0.92 
   1   0   6   10.65    0.96 
   1   0   6    9.07    0.95 
   1   0   6    9.22    1.62 
   1   0   6    8.72    0.79 
   1   0   6   11.15    1.11 
  -2   0  -6   17.36    1.08 
  -2   0  -6   14.92    1.18 
  -2   0  -6   14.63    1.19 
  -2   0  -6   16.63    1.15 
  -2   0  -6   15.52    0.74 
  -2   0  -6   15.41    1.33 
   2   0   6   14.77    1.32 
   2   0   6   16.52    1.21 
   2   0   6   14.03    1.85 
   2   0   6   16.05    0.77 
   2   0   6   16.73    1.23 
  -3   0  -6   49.71    1.94 
  -3   0  -6   49.41    1.88 
  -3   0  -6   49.06    2.04 
  -3   0  -6   50.73    1.24 
  -3   0  -6   50.15    1.98 
   3   0   6   58.72    3.22 
   3   0   6   51.84    1.94 
   3   0   6   50.93    1.93 
   3   0   6   48.85    1.87 
  -4   0  -6  155.18    4.12 
  -4   0  -6  162.73    4.12 
  -4   0  -6  156.17    4.22 
   4   0   6  163.11    4.11 
   4   0   6  145.58    4.08 
   4   0   6  161.70    5.35 
   4   0   6  160.15    4.10 
   4   0   6  152.14    4.24 
   4   0   6  158.37    3.59 
  -5   0  -6  104.88    3.13 
  -5   0  -6   93.75    3.19 
  -5   0  -6  101.47    3.36 
   5   0   6   96.02    3.20 
   5   0   6  103.20    3.40 
   5   0   6   99.14    3.19 
   5   0   6  102.10    4.60 
   5   0   6   99.27    3.09 
  -6   0  -6   35.60    2.32 
  -6   0  -6   36.37    2.11 
   6   0   6   33.50    1.97 
   6   0   6   38.46    3.42 
   6   0   6   35.73    1.89 
   6   0   6   35.59    2.34 
  -7   0  -6   12.13    1.76 
  -7   0  -6   15.09    1.65 
   7   0   6   13.43    2.36 
   7   0   6   10.41    1.51 
   7   0   6    9.91    1.68 
   7   0   6   12.95    1.46 
  -8   0  -6    2.49    1.24 
  -8   0  -6    2.88    1.30 
   8   0   6    1.33    1.25 
   8   0   6    1.97    2.03 
   8   0   6    3.26    1.25 
   8   0   6    0.14    1.40 
   9   0   6   -0.66    1.60 
  10  -1  -6   19.44    1.77 
  10  -1  -6   17.38    1.68 
  10  -1  -6   18.91    2.72 
   9  -1  -6    2.69    1.09 
   9  -1  -6    3.66    1.77 
   9  -1  -6    2.38    1.03 
   9  -1  -6    2.31    1.24 
  -9   1   6    2.46    0.98 
   8  -1  -6    0.88    0.89 
   8  -1  -6    0.82    1.34 
   8  -1  -6    0.83    0.94 
  -8   1   6    1.08    1.09 
  -8   1   6    1.51    0.90 
  -8   1   6   -0.14    0.87 
   7  -1  -6    3.73    0.94 
   7  -1  -6    5.15    1.17 
   7  -1  -6    4.50    1.00 
  -7   1   6    2.21    1.04 
  -7   1   6    4.12    0.93 
  -7   1   6    4.67    0.91 
  -7   1   6    4.85    0.88 
   6  -1  -6   53.80    2.09 
   6  -1  -6   54.38    1.91 
   6  -1  -6   54.18    2.03 
   6  -1  -6   52.58    2.65 
   6  -1  -6   55.03    2.00 
   6  -1  -6   56.12    2.09 
  -6   1   6   55.30    1.78 
  -6   1   6   56.44    2.18 
  -6   1   6   53.17    1.95 
  -6   1   6   58.97    2.07 
  -6   1   6   57.20    2.69 
   5  -1  -6   99.19    3.33 
   5  -1  -6   99.59    2.40 
   5  -1  -6  102.59    2.87 
   5  -1  -6   96.19    2.76 
   5  -1  -6   94.11    2.78 
   5  -1  -6  101.25    2.76 
  -5   1   6   97.80    2.72 
  -5   1   6   99.76    2.69 
  -5   1   6   98.68    2.85 
  -5   1   6   98.17    2.43 
  -5   1   6   98.76    2.84 
   4  -1  -6  168.01    4.22 
   4  -1  -6  180.58    3.65 
   4  -1  -6  171.81    4.65 
   4  -1  -6  180.05    4.21 
   4  -1  -6  173.11    4.19 
  -4   1   6  173.75    3.72 
  -4   1   6  174.25    4.21 
  -4   1   6  183.34    4.12 
  -4   1   6  172.93    4.13 
  -4   1   6  179.64    4.22 
   3  -1  -6   27.85    1.34 
   3  -1  -6   26.09    1.58 
   3  -1  -6   25.75    1.27 
   3  -1  -6   25.20    1.20 
   3  -1  -6   25.76    1.27 
  -3   1   6   23.57    1.25 
  -3   1   6   25.28    1.11 
  -3   1   6   24.78    1.14 
  -3   1   6   26.70    1.21 
   2  -1  -6   19.90    1.13 
   2  -1  -6   21.94    1.23 
   2  -1  -6   23.26    1.23 
   2  -1  -6   24.08    1.29 
   2  -1  -6   21.37    1.15 
  -2   1   6   23.09    1.17 
  -2   1   6   21.89    1.18 
  -2   1   6   21.79    1.24 
  -2   1   6   23.89    1.12 
   1  -1  -6    0.35    0.64 
   1  -1  -6    0.99    0.57 
   1  -1  -6   -0.25    0.66 
   1  -1  -6    0.73    0.72 
   1  -1  -6    0.86    0.69 
  -1   1   6   -0.31    0.64 
  -1   1   6    0.29    0.61 
  -1   1   6    0.34    0.29 
  -1   1   6    0.07    0.67 
  -1   1   6   -0.83    0.57 
   0  -1  -6  130.74    3.28 
   0  -1  -6  123.47    3.22 
   0  -1  -6  132.32    3.39 
   0  -1  -6  130.02    3.28 
   0   1   6  132.06    3.28 
   0   1   6  129.80    3.24 
   0   1   6  131.74    3.15 
   0   1   6  132.08    4.39 
   0   1   6  131.59    3.39 
   0   1   6  129.74    3.07 
  -1  -1  -6   33.58    1.43 
  -1  -1  -6   28.87    1.48 
  -1  -1  -6   32.14    1.36 
  -1  -1  -6   33.62    1.47 
  -1  -1  -6   32.64    1.59 
   1   1   6   36.16    1.47 
   1   1   6   35.51    1.51 
   1   1   6   34.43    1.36 
   1   1   6   35.31    2.56 
   1   1   6   29.49    1.41 
   1   1   6   33.13    1.43 
  -2  -1  -6   89.38    2.19 
  -2  -1  -6   88.46    2.63 
  -2  -1  -6   89.54    2.64 
  -2  -1  -6   86.07    2.57 
   2   1   6   93.37    2.61 
   2   1   6   91.54    2.72 
   2   1   6   90.79    3.59 
   2   1   6   92.15    2.03 
   2   1   6   92.80    2.54 
  -3  -1  -6  108.26    2.50 
  -3  -1  -6  109.20    3.05 
  -3  -1  -6  109.44    3.20 
  -3  -1  -6  106.67    3.10 
   3   1   6  111.73    3.07 
   3   1   6  110.56    2.47 
   3   1   6  109.85    3.20 
   3   1   6  113.22    4.38 
   3   1   6  109.60    3.08 
  -4  -1  -6   40.46    1.79 
  -4  -1  -6   39.99    1.88 
   4   1   6   35.96    2.98 
   4   1   6   37.66    1.94 
   4   1   6   36.90    1.81 
   4   1   6   38.67    2.12 
   4   1   6   41.33    1.86 
  -5  -1  -6   96.91    3.18 
  -5  -1  -6   91.04    3.00 
   5   1   6   94.32    2.40 
   5   1   6   90.85    4.35 
   5   1   6   96.49    3.07 
   5   1   6   94.44    3.01 
   5   1   6   89.21    2.97 
   5   1   6   89.61    3.31 
  -6  -1  -6    6.13    1.29 
   6   1   6    9.24    1.47 
   6   1   6    7.97    1.24 
   6   1   6    6.87    1.94 
   6   1   6    7.50    1.14 
  -7  -1  -6    0.21    1.10 
  -7  -1  -6    0.17    1.16 
   7   1   6   -1.33    1.27 
   7   1   6   -0.02    1.92 
   7   1   6    1.94    1.12 
   7   1   6    0.84    1.20 
  -8  -1  -6   10.48    1.64 
  -8  -1  -6    9.01    1.82 
   8   1   6    8.53    1.72 
   8   1   6    8.78    1.49 
   8   1   6    9.36    1.58 
   8   1   6    5.39    2.25 
   9  -2  -6    7.93    1.80 
   9  -2  -6   10.44    1.27 
   9  -2  -6   10.09    2.16 
   9  -2  -6   10.86    1.32 
  -9   2   6   13.31    1.56 
   8  -2  -6  116.60    4.33 
   8  -2  -6  111.27    3.39 
   8  -2  -6  110.82    3.45 
  -8   2   6  111.62    3.37 
  -8   2   6  115.17    3.28 
  -8   2   6  112.08    3.55 
   7  -2  -6   27.13    2.33 
   7  -2  -6   25.18    1.53 
   7  -2  -6   25.99    1.51 
  -7   2   6   25.85    1.42 
  -7   2   6   23.66    1.74 
  -7   2   6   22.74    1.59 
   6  -2  -6  127.21    3.31 
   6  -2  -6  120.60    3.33 
   6  -2  -6  122.17    3.32 
   6  -2  -6  123.67    4.08 
  -6   2   6  123.29    3.32 
  -6   2   6  122.02    3.47 
  -6   2   6  126.01    3.38 
  -6   2   6  125.35    3.13 
   5  -2  -6   80.27    2.09 
   5  -2  -6   81.00    2.34 
   5  -2  -6   81.61    2.41 
   5  -2  -6   81.76    3.04 
   5  -2  -6   80.13    2.02 
   5  -2  -6   79.61    2.40 
  -5   2   6   82.75    2.12 
  -5   2   6   79.40    2.50 
  -5   2   6   76.52    2.42 
  -5   2   6   82.76    2.41 
  -5   2   6   81.98    2.21 
   4  -2  -6    3.32    0.25 
   4  -2  -6    3.41    0.68 
   4  -2  -6    3.48    0.84 
   4  -2  -6    3.02    0.76 
   4  -2  -6    2.34    0.64 
  -4   2   6    3.67    0.46 
  -4   2   6    1.98    0.77 
  -4   2   6    3.64    0.67 
  -4   2   6    3.84    0.62 
  -4   2   6    3.57    0.81 
   3  -2  -6   28.78    1.34 
   3  -2  -6   26.01    1.33 
   3  -2  -6   27.05    1.33 
   3  -2  -6   26.76    1.26 
  -3   2   6   24.94    1.19 
  -3   2   6   26.19    1.30 
  -3   2   6   26.84    1.08 
  -3   2   6   24.12    1.37 
  -3   2   6   27.90    1.22 
   2  -2  -6   -0.11    0.65 
   2  -2  -6    0.13    0.67 
   2  -2  -6    0.29    0.28 
   2  -2  -6   -0.03    0.56 
   2  -2  -6   -0.40    0.61 
  -2   2   6    1.12    0.53 
  -2   2   6    0.56    0.49 
  -2   2   6   -0.24    0.68 
  -2   2   6    0.62    0.53 
   1  -2  -6  114.24    2.90 
   1  -2  -6  110.30    2.90 
   1  -2  -6  113.83    2.87 
   1  -2  -6  109.19    2.94 
  -1   2   6  107.69    2.82 
  -1   2   6  111.28    2.55 
  -1   2   6  109.63    2.92 
  -1   2   6  110.31    2.89 
  -1   2   6  116.52    2.85 
  -1   2   6  111.98    2.49 
   0  -2  -6  152.52    3.67 
   0  -2  -6  142.47    3.53 
   0  -2  -6  149.85    3.50 
   0  -2  -6  149.19    3.69 
   0  -2  -6  147.28    3.68 
   0  -2  -6  150.68    3.64 
   0   2   6  152.54    3.62 
   0   2   6  144.76    3.72 
   0   2   6  152.23    3.64 
   0   2   6  155.78    3.16 
   0   2   6  145.19    3.43 
  -1  -2  -6  272.33    6.27 
  -1  -2  -6  278.14    6.06 
  -1  -2  -6  291.33    6.29 
  -1  -2  -6  283.12    6.28 
  -1  -2  -6  277.40    6.36 
  -1  -2  -6  274.81    6.32 
   1   2   6  281.48    5.58 
   1   2   6  279.44    7.39 
   1   2   6  281.49    6.35 
   1   2   6  290.42    6.27 
   1   2   6  279.35    6.23 
   1   2   6  283.23    5.58 
   1   2   6  280.12    6.23 
  -2  -2  -6   37.48    1.61 
  -2  -2  -6   34.72    1.63 
  -2  -2  -6   37.14    1.84 
  -2  -2  -6   37.98    1.73 
  -2  -2  -6   36.75    1.23 
   2   2   6   37.85    2.67 
   2   2   6   34.85    1.52 
   2   2   6   35.36    1.57 
   2   2   6   35.83    1.57 
  -3  -2  -6   45.65    2.09 
  -3  -2  -6   43.48    1.95 
  -3  -2  -6   44.15    1.73 
  -3  -2  -6   42.90    1.81 
   3   2   6   41.78    2.95 
   3   2   6   40.97    1.91 
   3   2   6   45.23    1.83 
  -4  -2  -6   24.03    1.63 
  -4  -2  -6   26.13    1.77 
  -4  -2  -6   20.12    1.72 
  -4  -2  -6   22.02    1.93 
   4   2   6   23.52    1.56 
   4   2   6   24.84    2.99 
   4   2   6   21.22    1.43 
  -5  -2  -6   13.03    1.47 
  -5  -2  -6   13.98    1.36 
   5   2   6   13.52    1.33 
   5   2   6    9.65    1.98 
   5   2   6   11.28    1.53 
   5   2   6   13.05    1.44 
  -6  -2  -6   15.83    1.54 
  -6  -2  -6   16.99    1.53 
   6   2   6   15.01    1.75 
   6   2   6   13.33    2.25 
   6   2   6   15.11    1.49 
   6   2   6   16.23    1.63 
  -7  -2  -6   27.62    1.90 
   7   2   6   30.23    1.80 
   7   2   6   20.99    2.72 
   7   2   6   27.47    2.17 
   7   2   6   28.90    2.54 
  -8  -2  -6   65.95    3.16 
   8   2   6   61.91    4.47 
   8   2   6   67.42    3.14 
   8   2   6   71.24    3.60 
   9  -3  -6   46.50    2.18 
   9  -3  -6   49.26    3.27 
   9  -3  -6   49.41    2.14 
   9  -3  -6   51.58    4.10 
  -9   3   6   49.58    2.55 
   8  -3  -6   41.85    1.94 
   8  -3  -6   40.99    1.92 
   8  -3  -6   36.83    2.49 
  -8   3   6   40.70    1.91 
  -8   3   6   39.12    2.06 
  -8   3   6   41.53    2.20 
   7  -3  -6   51.11    2.07 
   7  -3  -6   57.99    2.03 
   7  -3  -6   58.93    3.04 
  -7   3   6   56.97    2.03 
  -7   3   6   56.98    2.34 
  -7   3   6   56.86    2.25 
   6  -3  -6   12.63    1.05 
   6  -3  -6   13.49    1.21 
   6  -3  -6   14.13    1.08 
   6  -3  -6   12.56    1.60 
  -6   3   6   14.17    1.16 
  -6   3   6   12.97    1.10 
  -6   3   6   16.15    1.32 
  -6   3   6   13.20    1.23 
   5  -3  -6   -0.01    0.64 
   5  -3  -6    0.89    0.66 
   5  -3  -6   -0.47    1.00 
   5  -3  -6    0.55    0.63 
   5  -3  -6   -1.63    0.44 
  -5   3   6    0.33    0.45 
  -5   3   6   -0.28    0.55 
  -5   3   6   -0.05    0.78 
  -5   3   6    0.06    0.79 
  -5   3   6    0.13    0.56 
   4  -3  -6   30.01    0.89 
   4  -3  -6   27.85    1.30 
   4  -3  -6   28.87    1.28 
   4  -3  -6   27.78    1.31 
   4  -3  -6   29.98    1.94 
   4  -3  -6   29.80    1.33 
   4  -3  -6   28.40    0.93 
  -4   3   6   28.56    1.46 
  -4   3   6   27.33    1.46 
  -4   3   6   26.72    1.03 
  -4   3   6   29.04    1.22 
   3  -3  -6  100.00    2.58 
   3  -3  -6   98.11    2.12 
   3  -3  -6  100.09    2.60 
   3  -3  -6   98.39    2.60 
   3  -3  -6   97.68    2.62 
   3  -3  -6   98.97    2.36 
  -3   3   6   98.53    2.54 
  -3   3   6  100.50    2.40 
  -3   3   6   99.32    2.77 
  -3   3   6   98.00    2.69 
  -3   3   6   96.77    2.55 
   2  -3  -6   47.44    1.24 
   2  -3  -6   45.71    1.64 
   2  -3  -6   49.34    1.65 
   2  -3  -6   48.52    1.64 
   2  -3  -6   44.59    1.57 
   2  -3  -6   47.00    1.37 
  -2   3   6   47.10    1.67 
  -2   3   6   48.49    1.84 
  -2   3   6   46.90    1.45 
  -2   3   6   48.04    1.46 
   1  -3  -6  139.92    3.52 
   1  -3  -6  148.84    3.54 
   1  -3  -6  144.58    3.59 
   1  -3  -6  146.89    3.54 
   1  -3  -6  150.39    3.33 
  -1   3   6  145.29    3.51 
  -1   3   6  142.57    3.28 
  -1   3   6  150.40    3.47 
  -1   3   6  144.42    3.54 
  -1   3   6  142.45    3.66 
  -1   3   6  146.24    3.19 
   0  -3  -6  143.00    3.57 
   0  -3  -6  145.56    3.44 
   0  -3  -6  136.82    3.46 
   0  -3  -6  136.06    3.45 
   0  -3  -6  141.39    3.51 
   0   3   6  144.32    3.56 
   0   3   6  141.33    3.43 
   0   3   6  140.54    3.59 
   0   3   6  142.87    3.42 
   0   3   6  137.74    2.92 
  -1  -3  -6   26.56    1.46 
  -1  -3  -6   28.67    1.42 
  -1  -3  -6   25.69    1.38 
  -1  -3  -6   28.63    1.43 
  -1  -3  -6   30.13    1.38 
   1   3   6   24.88    2.15 
   1   3   6   27.47    1.30 
   1   3   6   26.41    1.48 
   1   3   6   26.76    1.27 
   1   3   6   27.06    1.40 
  -2  -3  -6    0.41    0.80 
  -2  -3  -6    2.04    0.93 
  -2  -3  -6    1.41    0.73 
  -2  -3  -6    0.73    0.78 
   2   3   6    1.08    0.84 
   2   3   6    2.06    0.73 
   2   3   6    1.25    1.16 
   2   3   6    0.43    0.61 
  -3  -3  -6    1.45    0.89 
  -3  -3  -6    2.24    0.70 
  -3  -3  -6    2.32    1.03 
  -3  -3  -6    3.24    0.75 
  -3  -3  -6    3.90    1.02 
   3   3   6    2.88    0.96 
   3   3   6    3.01    0.88 
   3   3   6    2.46    1.54 
  -4  -3  -6   46.00    2.23 
  -4  -3  -6   50.02    2.52 
  -4  -3  -6   53.87    2.16 
  -4  -3  -6   51.53    2.18 
   4   3   6   46.00    2.06 
   4   3   6   52.49    3.54 
   4   3   6   49.80    1.66 
   4   3   6   51.91    2.27 
  -5  -3  -6   58.22    2.91 
  -5  -3  -6   60.85    2.45 
  -5  -3  -6   65.14    2.55 
   5   3   6   64.36    4.01 
   5   3   6   58.37    2.57 
   5   3   6   59.54    1.81 
   5   3   6   59.53    2.26 
  -6  -3  -6   73.26    3.10 
  -6  -3  -6   82.01    2.99 
  -6  -3  -6   78.74    3.46 
   6   3   6   77.55    2.80 
   6   3   6   77.17    4.53 
   6   3   6   79.42    3.48 
   6   3   6   74.22    3.04 
  -7  -3  -6   21.19    1.97 
   7   3   6   10.46    2.34 
   7   3   6   17.54    2.06 
   7   3   6   16.22    1.82 
  -8  -3  -6   22.66    2.16 
   8   3   6   22.11    2.10 
   8   3   6   13.67    2.89 
   8   3   6   17.93    2.25 
   9  -4  -6   26.99    1.73 
   9  -4  -6   28.98    3.59 
   9  -4  -6   25.71    2.41 
   9  -4  -6   26.50    1.71 
  -9   4   6   30.85    2.21 
   8  -4  -6   22.27    1.52 
   8  -4  -6   19.98    2.11 
   8  -4  -6   23.56    1.56 
  -8   4   6   23.61    1.85 
  -8   4   6   27.13    2.24 
  -8   4   6   28.45    2.03 
   7  -4  -6    3.22    0.79 
   7  -4  -6    2.95    0.78 
   7  -4  -6    4.02    1.37 
  -7   4   6    4.94    1.12 
  -7   4   6    4.67    1.13 
  -7   4   6    3.37    0.86 
   6  -4  -6    3.31    0.74 
   6  -4  -6    2.60    1.27 
   6  -4  -6    3.90    0.76 
   6  -4  -6    3.62    0.74 
  -6   4   6    4.09    0.81 
  -6   4   6    3.20    0.80 
  -6   4   6    4.38    1.06 
   5  -4  -6  105.68    2.62 
   5  -4  -6  107.07    2.74 
   5  -4  -6  109.27    3.57 
   5  -4  -6  100.13    2.71 
   5  -4  -6  106.50    2.75 
  -5   4   6  104.53    2.62 
  -5   4   6  105.71    3.02 
  -5   4   6  105.33    2.80 
  -5   4   6  102.96    2.93 
   4  -4  -6   81.10    2.26 
   4  -4  -6   84.59    2.06 
   4  -4  -6   79.12    2.19 
   4  -4  -6   77.60    3.04 
   4  -4  -6   79.06    2.22 
   4  -4  -6   80.10    2.20 
   4  -4  -6   77.09    2.21 
  -4   4   6   80.06    2.08 
  -4   4   6   81.12    2.39 
  -4   4   6   78.76    2.46 
   3  -4  -6   84.89    2.25 
   3  -4  -6   83.93    2.24 
   3  -4  -6   85.28    2.06 
   3  -4  -6   82.63    2.27 
   3  -4  -6   79.47    2.20 
   3  -4  -6   77.29    2.20 
  -3   4   6   83.47    2.34 
  -3   4   6   79.16    1.94 
  -3   4   6   80.04    2.25 
  -3   4   6   77.89    2.48 
  -3   4   6   79.92    2.12 
   2  -4  -6  155.22    3.72 
   2  -4  -6  151.82    3.65 
   2  -4  -6  151.88    3.59 
   2  -4  -6  155.80    3.66 
   2  -4  -6  156.41    3.52 
   2  -4  -6  155.50    3.64 
  -2   4   6  157.13    3.53 
  -2   4   6  156.31    3.99 
  -2   4   6  150.94    3.62 
  -2   4   6  154.56    3.70 
   1  -4  -6   31.72    1.40 
   1  -4  -6   34.68    1.35 
   1  -4  -6   31.46    1.38 
   1  -4  -6   31.74    1.37 
   1  -4  -6   32.98    1.42 
  -1   4   6   33.00    1.63 
  -1   4   6   32.54    1.38 
  -1   4   6   33.95    1.35 
  -1   4   6   33.81    1.07 
  -1   4   6   30.37    1.21 
   0  -4  -6    2.97    0.73 
   0  -4  -6    2.60    0.69 
   0  -4  -6    3.33    0.76 
   0  -4  -6    3.66    0.70 
   0  -4  -6    2.24    0.66 
   0   4   6    3.20    0.79 
   0   4   6    3.90    0.63 
   0   4   6    2.41    0.68 
   0   4   6    2.79    0.63 
   0   4   6    2.81    0.89 
  -1  -4  -6    0.10    0.66 
  -1  -4  -6    0.36    0.69 
  -1  -4  -6    0.30    0.73 
  -1  -4  -6    0.82    0.66 
  -1  -4  -6   -0.93    0.79 
   1   4   6    1.50    0.64 
   1   4   6    0.22    0.84 
   1   4   6    0.10    0.69 
   1   4   6   -0.09    0.60 
  -2  -4  -6  104.37    3.01 
  -2  -4  -6  104.52    3.24 
  -2  -4  -6   99.65    2.96 
  -2  -4  -6  110.29    3.14 
   2   4   6  103.25    2.88 
   2   4   6  107.76    3.92 
   2   4   6  103.35    3.14 
   2   4   6  105.69    2.92 
   2   4   6  110.59    3.10 
  -3  -4  -6   12.70    1.19 
  -3  -4  -6   11.57    1.16 
  -3  -4  -6   10.26    1.37 
  -3  -4  -6   11.51    1.20 
   3   4   6   13.08    1.05 
   3   4   6    9.97    1.23 
   3   4   6   11.36    1.11 
   3   4   6   11.72    1.30 
   3   4   6   10.07    1.73 
  -4  -4  -6   77.98    2.91 
  -4  -4  -6   76.63    3.14 
  -4  -4  -6   77.30    2.78 
   4   4   6   79.52    2.68 
   4   4   6   84.14    2.33 
   4   4   6   80.89    2.86 
   4   4   6   76.25    3.75 
  -5  -4  -6   67.35    3.14 
  -5  -4  -6   68.79    2.55 
  -5  -4  -6   72.95    2.90 
   5   4   6   68.94    2.79 
   5   4   6   62.69    3.95 
   5   4   6   69.01    2.13 
  -6  -4  -6   14.12    1.93 
  -6  -4  -6   15.02    1.72 
  -6  -4  -6   13.49    1.57 
   6   4   6   10.09    2.38 
   6   4   6   14.92    1.50 
  -7  -4  -6    6.69    1.55 
  -7  -4  -6    3.84    1.32 
   7   4   6    4.10    1.16 
   7   4   6    0.84    2.00 
  -8  -4  -6    0.81    1.43 
   8   4   6   -1.89    1.28 
   8   4   6   -0.16    1.61 
   9  -5  -6    3.55    0.91 
   9  -5  -6    1.88    1.69 
   9  -5  -6    4.45    0.92 
   9  -5  -6    5.84    2.09 
  -9   5   6    3.97    1.10 
   8  -5  -6    8.38    1.80 
   8  -5  -6    9.03    0.96 
   8  -5  -6    7.09    0.95 
  -8   5   6    9.36    1.40 
  -8   5   6    8.64    1.37 
   7  -5  -6   25.85    2.51 
   7  -5  -6   27.19    1.33 
   7  -5  -6   26.23    1.34 
  -7   5   6   28.10    1.90 
  -7   5   6   24.99    1.65 
  -7   5   6   26.37    1.83 
   6  -5  -6   53.31    1.77 
   6  -5  -6   53.54    2.90 
   6  -5  -6   49.88    1.73 
   6  -5  -6   54.89    1.69 
  -6   5   6   51.14    2.18 
  -6   5   6   52.28    2.01 
  -6   5   6   49.80    2.19 
   5  -5  -6   99.91    2.69 
   5  -5  -6   96.58    2.57 
   5  -5  -6  100.79    3.70 
   5  -5  -6  100.74    2.62 
   5  -5  -6  106.08    2.55 
  -5   5   6  101.22    3.02 
  -5   5   6   96.62    2.94 
   4  -5  -6   20.99    1.16 
   4  -5  -6   20.44    1.10 
   4  -5  -6   19.68    1.08 
   4  -5  -6   20.18    1.06 
   4  -5  -6   20.52    1.66 
   4  -5  -6   19.58    1.03 
  -4   5   6   20.68    1.23 
  -4   5   6   21.09    1.32 
  -4   5   6   18.38    0.94 
  -4   5   6   21.58    1.44 
   3  -5  -6   58.84    1.75 
   3  -5  -6   64.24    1.83 
   3  -5  -6   61.27    1.82 
   3  -5  -6   61.27    1.86 
   3  -5  -6   58.81    1.83 
  -3   5   6   55.95    1.64 
  -3   5   6   58.53    1.94 
  -3   5   6   61.61    2.20 
  -3   5   6   60.45    1.95 
   2  -5  -6   -0.23    0.55 
   2  -5  -6   -0.23    0.58 
   2  -5  -6   -1.06    0.55 
   2  -5  -6   -0.21    0.51 
   2  -5  -6    0.27    0.58 
  -2   5   6   -0.33    0.89 
  -2   5   6   -0.71    0.50 
  -2   5   6   -0.48    0.70 
  -2   5   6   -0.46    0.51 
   1  -5  -6    0.09    0.58 
   1  -5  -6   -0.29    0.57 
   1  -5  -6   -0.09    0.66 
   1  -5  -6   -0.01    0.64 
   1  -5  -6   -0.52    0.62 
  -1   5   6    0.94    0.55 
  -1   5   6    0.58    0.47 
  -1   5   6    0.05    0.60 
  -1   5   6    0.37    0.89 
  -1   5   6   -0.80    0.58 
   0  -5  -6   47.70    1.91 
   0  -5  -6   43.88    1.66 
   0  -5  -6   42.72    1.67 
   0  -5  -6   42.53    1.71 
   0  -5  -6   47.47    1.66 
   0   5   6   41.54    1.95 
   0   5   6   42.14    1.53 
   0   5   6   42.27    1.57 
   0   5   6   44.12    1.74 
  -1  -5  -6  115.76    3.24 
  -1  -5  -6  113.56    3.06 
  -1  -5  -6  112.25    3.10 
  -1  -5  -6  116.96    3.41 
  -1  -5  -6  105.78    3.05 
   1   5   6  111.12    2.95 
   1   5   6  110.81    3.10 
   1   5   6  113.40    2.87 
   1   5   6  113.66    3.34 
   1   5   6  111.86    3.13 
  -2  -5  -6   50.61    2.32 
  -2  -5  -6   49.04    1.93 
  -2  -5  -6   47.30    2.06 
  -2  -5  -6   48.73    1.99 
   2   5   6   52.75    1.69 
   2   5   6   47.78    1.92 
   2   5   6   48.30    1.91 
   2   5   6   45.94    2.19 
   2   5   6   49.15    2.00 
  -3  -5  -6  120.68    3.60 
  -3  -5  -6  131.38    4.03 
  -3  -5  -6  122.16    3.70 
   3   5   6  131.04    3.70 
   3   5   6  128.56    3.47 
   3   5   6  127.21    4.40 
   3   5   6  126.96    3.77 
  -4  -5  -6   19.15    1.44 
  -4  -5  -6   16.83    1.79 
  -4  -5  -6   17.85    1.64 
   4   5   6   18.95    1.69 
   4   5   6   16.77    1.67 
   4   5   6   17.27    1.40 
   4   5   6   18.20    2.44 
  -5  -5  -6    9.70    1.37 
  -5  -5  -6    7.64    1.66 
  -5  -5  -6    9.23    1.44 
   5   5   6   10.29    1.43 
   5   5   6    7.26    1.81 
   5   5   6   11.72    1.11 
  -6  -5  -6   -0.80    1.42 
  -6  -5  -6   -0.01    1.11 
  -6  -5  -6    0.41    0.98 
   6   5   6    0.51    1.16 
   6   5   6   -2.58    1.70 
  -7  -5  -6   16.16    2.19 
  -7  -5  -6   20.28    2.08 
   7   5   6   18.54    1.96 
   8  -6  -6   41.07    3.11 
   8  -6  -6   43.75    3.87 
   8  -6  -6   39.92    1.66 
  -8   6   6   39.78    2.30 
   7  -6  -6   57.31    1.86 
   7  -6  -6   58.44    3.24 
  -7   6   6   55.78    2.51 
  -7   6   6   56.45    2.36 
  -7   6   6   63.24    2.56 
   6  -6  -6   25.06    2.40 
   6  -6  -6   26.86    1.20 
   6  -6  -6   27.47    1.02 
   6  -6  -6   25.83    1.23 
  -6   6   6   27.15    1.58 
  -6   6   6   27.12    1.90 
   5  -6  -6   67.78    1.90 
   5  -6  -6   70.74    1.77 
   5  -6  -6   70.41    3.16 
   5  -6  -6   68.18    2.25 
   5  -6  -6   65.46    1.93 
  -5   6   6   65.97    2.44 
  -5   6   6   67.29    2.38 
   4  -6  -6   -0.45    0.49 
   4  -6  -6    0.22    0.67 
   4  -6  -6    0.18    0.44 
   4  -6  -6    0.10    0.53 
  -4   6   6    0.10    0.75 
  -4   6   6    0.14    0.85 
  -4   6   6    0.40    0.84 
   3  -6  -6   10.99    0.85 
   3  -6  -6    9.54    0.96 
   3  -6  -6   10.45    0.84 
   3  -6  -6   10.61    0.89 
  -3   6   6    9.53    1.33 
  -3   6   6   11.10    1.01 
  -3   6   6   11.17    1.07 
   2  -6  -6    2.98    0.60 
   2  -6  -6    3.04    0.69 
   2  -6  -6    2.19    0.63 
   2  -6  -6    3.47    0.70 
   2  -6  -6    2.03    0.78 
  -2   6   6    2.90    0.70 
  -2   6   6    2.68    1.09 
  -2   6   6    3.54    0.80 
   1  -6  -6  113.16    2.98 
   1  -6  -6  108.67    2.90 
   1  -6  -6  112.69    2.93 
   1  -6  -6  107.89    2.62 
   1  -6  -6  115.38    3.20 
   1  -6  -6  115.82    2.89 
  -1   6   6  111.68    2.94 
  -1   6   6  111.52    2.87 
  -1   6   6  103.25    3.32 
   0  -6  -6   62.98    2.23 
   0  -6  -6   64.96    2.15 
   0  -6  -6   65.50    2.18 
   0  -6  -6   70.17    2.11 
   0  -6  -6   70.59    2.51 
   0   6   6   65.38    2.09 
   0   6   6   67.37    2.03 
   0   6   6   67.44    1.99 
   0   6   6   65.50    2.53 
  -1  -6  -6   70.55    2.65 
  -1  -6  -6   70.73    2.40 
  -1  -6  -6   71.67    2.36 
  -1  -6  -6   72.44    2.48 
   1   6   6   66.96    2.10 
   1   6   6   72.32    2.68 
   1   6   6   70.72    2.50 
   1   6   6   70.03    2.37 
  -2  -6  -6   32.73    1.73 
  -2  -6  -6   32.53    1.80 
  -2  -6  -6   33.82    2.32 
   2   6   6   34.03    1.84 
   2   6   6   35.07    2.06 
   2   6   6   33.56    1.77 
   2   6   6   33.67    1.43 
  -3  -6  -6    5.03    1.10 
  -3  -6  -6    5.82    1.18 
  -3  -6  -6    5.31    1.42 
   3   6   6    7.46    1.15 
   3   6   6    6.76    1.12 
   3   6   6    5.56    0.81 
   3   6   6    4.47    1.05 
  -4  -6  -6    7.80    1.37 
  -4  -6  -6    6.02    1.21 
  -4  -6  -6    7.24    1.62 
   4   6   6    9.68    1.29 
   4   6   6    9.15    1.46 
   4   6   6    7.45    0.86 
   4   6   6   11.05    1.24 
   4   6   6    9.61    1.36 
  -5  -6  -6   -0.65    1.45 
  -5  -6  -6    2.34    1.15 
  -5  -6  -6    3.11    1.26 
   5   6   6    3.30    0.90 
   5   6   6    1.07    1.17 
   5   6   6    1.98    1.37 
  -6  -6  -6   36.56    2.39 
  -6  -6  -6   32.25    2.90 
  -6  -6  -6   37.17    2.52 
   6   6   6   32.41    2.22 
   6   6   6   33.06    2.33 
  -7  -6  -6    7.73    1.47 
   7   6   6    5.44    1.53 
   8  -7  -6   19.02    1.13 
   8  -7  -6   17.45    2.71 
   8  -7  -6   12.73    2.08 
  -8   7   6   22.10    1.88 
   7  -7  -6   14.18    0.93 
   7  -7  -6   12.37    1.86 
  -7   7   6   13.39    1.53 
  -7   7   6   17.15    1.61 
   6  -7  -6    9.08    0.72 
   6  -7  -6    8.52    0.67 
   6  -7  -6    7.86    1.59 
  -6   7   6    5.82    1.18 
  -6   7   6   10.48    1.33 
   5  -7  -6    6.42    1.43 
   5  -7  -6    7.52    0.62 
   5  -7  -6    6.67    0.63 
  -5   7   6    5.65    1.16 
  -5   7   6    7.11    0.99 
   4  -7  -6   11.91    0.85 
   4  -7  -6    9.78    1.08 
   4  -7  -6   13.73    0.58 
   4  -7  -6   12.72    0.88 
  -4   7   6   10.32    1.10 
  -4   7   6   11.01    1.51 
  -4   7   6   12.36    1.12 
   3  -7  -6   69.18    1.82 
   3  -7  -6   67.59    1.90 
   3  -7  -6   67.82    1.97 
   3  -7  -6   69.36    2.45 
  -3   7   6   69.22    2.73 
  -3   7   6   66.08    2.29 
   2  -7  -6   66.59    2.03 
   2  -7  -6   68.31    1.97 
   2  -7  -6   68.80    2.03 
   2  -7  -6   66.15    2.41 
  -2   7   6   66.18    2.20 
  -2   7   6   62.91    2.44 
   1  -7  -6   36.63    1.49 
   1  -7  -6   35.55    1.55 
   1  -7  -6   37.91    1.97 
   1  -7  -6   36.73    1.55 
  -1   7   6   35.10    2.08 
  -1   7   6   37.06    1.58 
   0  -7  -6   58.81    2.40 
   0  -7  -6   54.69    2.07 
   0  -7  -6   56.57    2.24 
   0  -7  -6   58.72    2.05 
   0   7   6   58.18    2.39 
   0   7   6   56.11    1.86 
   0   7   6   54.85    2.46 
  -1  -7  -6    5.87    1.03 
  -1  -7  -6    7.21    1.25 
  -1  -7  -6    5.70    0.98 
   1   7   6    6.79    1.17 
   1   7   6    6.05    0.82 
   1   7   6    5.20    1.05 
  -2  -7  -6    0.47    0.87 
  -2  -7  -6   -0.27    0.85 
  -2  -7  -6   -2.82    1.04 
   2   7   6   -0.52    0.58 
   2   7   6    0.45    0.79 
   2   7   6   -0.01    0.90 
   2   7   6    0.23    0.84 
  -3  -7  -6    0.21    1.31 
  -3  -7  -6    0.05    1.02 
  -3  -7  -6    0.74    0.93 
   3   7   6    0.23    0.91 
   3   7   6    0.27    0.61 
   3   7   6    0.09    0.93 
   3   7   6   -1.39    1.19 
  -4  -7  -6   61.36    3.22 
  -4  -7  -6   60.34    2.65 
  -4  -7  -6   61.21    2.76 
   4   7   6   64.10    2.45 
   4   7   6   60.92    2.90 
   4   7   6   66.31    2.68 
  -5  -7  -6   39.88    3.04 
  -5  -7  -6   42.20    2.52 
  -5  -7  -6   41.91    2.42 
   5   7   6   42.09    2.40 
   5   7   6   40.61    2.01 
   5   7   6   42.87    2.67 
  -6  -7  -6   28.77    2.30 
  -6  -7  -6   33.08    2.51 
  -6  -7  -6   24.20    2.53 
   6   7   6   28.36    2.61 
   6   7   6   26.47    2.31 
   7  -8  -6    1.87    0.39 
   7  -8  -6    1.85    1.46 
   7  -8  -6    2.02    0.36 
   7  -8  -6    3.22    1.74 
  -7   8   6    1.82    1.22 
   6  -8  -6   27.57    0.88 
   6  -8  -6   28.74    0.86 
   6  -8  -6   30.84    2.68 
  -6   8   6   31.33    2.01 
  -6   8   6   30.29    2.10 
   5  -8  -6   13.07    1.81 
   5  -8  -6   13.83    0.67 
   5  -8  -6   14.13    0.69 
  -5   8   6   12.98    1.35 
  -5   8   6   13.18    1.41 
   4  -8  -6   63.40    2.57 
   4  -8  -6   63.09    1.66 
   4  -8  -6   62.73    1.70 
  -4   8   6   63.11    2.81 
  -4   8   6   62.42    2.39 
   3  -8  -6   40.31    1.40 
   3  -8  -6   38.72    2.04 
   3  -8  -6   42.65    1.48 
   3  -8  -6   42.59    1.24 
  -3   8   6   43.69    1.90 
  -3   8   6   44.06    2.37 
   2  -8  -6   23.44    1.16 
   2  -8  -6   21.29    1.26 
   2  -8  -6   16.52    1.70 
   2  -8  -6   20.04    1.12 
  -2   8   6   23.84    1.43 
  -2   8   6   19.75    1.74 
   1  -8  -6   28.20    2.02 
   1  -8  -6   24.71    1.42 
   1  -8  -6   29.01    1.43 
  -1   8   6   30.06    1.56 
  -1   8   6   28.30    2.05 
   0  -8  -6   10.82    1.09 
   0  -8  -6   10.11    1.07 
   0  -8  -6   11.22    1.47 
   0   8   6    9.43    1.38 
   0   8   6   10.69    0.99 
   0   8   6   10.68    1.42 
  -1  -8  -6    8.05    1.11 
  -1  -8  -6    7.86    1.38 
  -1  -8  -6    9.62    1.21 
   1   8   6    9.77    1.44 
   1   8   6    9.47    0.89 
   1   8   6   11.22    1.44 
  -2  -8  -6   36.90    1.98 
  -2  -8  -6   40.16    2.54 
  -2  -8  -6   38.81    2.10 
   2   8   6   36.66    2.08 
   2   8   6   40.07    2.33 
  -3  -8  -6   47.34    2.42 
  -3  -8  -6   43.55    2.88 
  -3  -8  -6   46.78    2.36 
   3   8   6   49.11    2.61 
   3   8   6   48.11    2.31 
  -4  -8  -6   21.97    1.83 
  -4  -8  -6   19.72    1.85 
  -4  -8  -6   16.72    2.17 
   4   8   6   23.68    2.09 
   4   8   6   19.92    1.74 
  -5  -8  -6   12.98    1.67 
  -5  -8  -6   12.08    1.72 
  -5  -8  -6    7.62    2.04 
   5   8   6   13.09    1.64 
   5   8   6   13.48    1.48 
   6  -9  -6   28.19    2.68 
   6  -9  -6   26.37    2.98 
  -6   9   6   27.58    2.00 
   5  -9  -6   63.37    3.27 
  -5   9   6   61.40    2.56 
   4  -9  -6    2.98    0.41 
   4  -9  -6    4.09    0.45 
  -4   9   6    1.71    1.33 
  -4   9   6    2.85    1.05 
   3  -9  -6   14.72    0.90 
   3  -9  -6   11.23    1.42 
   3  -9  -6   15.19    1.00 
  -3   9   6   11.01    1.22 
  -3   9   6   16.73    1.57 
   2  -9  -6   -1.37    0.97 
   2  -9  -6   -0.76    0.61 
   2  -9  -6   -0.66    0.55 
  -2   9   6    2.50    1.25 
  -2   9   6    1.27    0.81 
   1  -9  -6   13.50    1.61 
   1  -9  -6   15.84    1.30 
   1  -9  -6   12.42    1.09 
  -1   9   6   15.42    1.52 
  -1   9   6   16.56    1.23 
   0  -9  -6    7.96    1.09 
   0  -9  -6   10.46    1.49 
   0  -9  -6    8.80    1.09 
   0   9   6    9.65    0.96 
   0   9   6   11.44    1.56 
   0   9   6   10.59    1.55 
  -1  -9  -6   30.47    2.33 
  -1  -9  -6   30.27    1.86 
  -1  -9  -6   29.54    1.80 
   1   9   6   33.00    2.20 
   1   9   6   32.02    2.26 
  -2  -9  -6   42.67    2.24 
  -2  -9  -6   36.23    2.73 
  -2  -9  -6   44.29    2.15 
   2   9   6   36.38    2.45 
   2   9   6   43.83    2.39 
  -3  -9  -6   20.04    1.76 
  -3  -9  -6   17.16    2.13 
  -3  -9  -6   19.46    1.76 
   3   9   6   20.94    2.01 
   3   9   6   21.09    1.81 
  -4  -9  -6   31.69    3.05 
  -4  -9  -6   32.30    2.32 
  -4  -9  -6   38.33    2.34 
   4   9   6   39.99    2.31 
   4   9   6   38.91    2.64 
  -4  10   6    0.90    1.07 
  -4  10   6   -1.23    0.95 
   3 -10  -6   15.55    1.00 
  -3  10   6   14.74    1.78 
  -3  10   6   15.30    1.37 
   2 -10  -6   11.87    1.59 
   2 -10  -6   14.60    1.19 
  -2  10   6   15.21    1.77 
  -2  10   6   15.29    1.33 
   1 -10  -6   38.82    2.45 
   1 -10  -6   40.30    1.79 
  -1  10   6   42.76    2.54 
   0 -10  -6   48.27    2.07 
   0 -10  -6   40.07    2.85 
   0  10   6   42.77    2.60 
   0  10   6   46.97    2.65 
  -1 -10  -6    8.01    1.21 
  -1 -10  -6    9.56    1.17 
  -1 -10  -6    6.98    1.62 
   1  10   6   11.20    1.65 
   1  10   6    8.67    1.57 
  -2 -10  -6    5.97    1.18 
  -2 -10  -6    3.69    1.65 
  -2 -10  -6    4.42    1.20 
   2  10   6    6.73    1.60 
   2  10   6    5.65    1.47 
   3  10  -7   36.00    2.21 
   3  10  -7   33.90    2.53 
  -3 -10   7   30.09    2.92 
  -3 -10   7   34.22    2.33 
  -3 -10   7   34.61    2.27 
   2  10  -7   18.62    1.97 
   2  10  -7   23.07    1.88 
  -2 -10   7   19.33    1.75 
  -2 -10   7   23.19    2.35 
  -2 -10   7   24.86    2.01 
   1  10  -7    3.07    1.36 
   1  10  -7    4.46    1.32 
  -1 -10   7    4.34    1.18 
  -1 -10   7    6.23    1.73 
  -1 -10   7    5.51    1.38 
   0  10  -7    8.93    1.54 
   0  10  -7    8.90    1.55 
   0 -10   7    5.11    1.22 
   0 -10   7    6.49    1.20 
   0 -10   7    6.37    1.49 
  -1  10  -7    4.69    1.42 
  -1  10  -7    4.23    1.21 
   1 -10   7    5.18    1.17 
   1 -10   7    3.24    1.17 
   1 -10   7    4.98    1.69 
  -2  10  -7    1.84    1.16 
  -2  10  -7    1.00    1.33 
   2 -10   7   -0.38    0.91 
   2 -10   7    1.43    1.47 
   2 -10   7    0.83    0.98 
  -3  10  -7   32.58    2.75 
   3 -10   7   33.19    3.28 
   3 -10   7   36.44    2.02 
   3 -10   7   36.42    2.85 
  -5  -9   7   18.84    1.90 
   4   9  -7   55.81    2.53 
   4   9  -7   60.90    2.71 
  -4  -9   7   55.54    2.85 
  -4  -9   7   55.60    3.28 
  -4  -9   7   56.91    2.75 
   3   9  -7   11.27    1.60 
   3   9  -7    6.46    1.24 
  -3  -9   7    6.35    1.35 
  -3  -9   7    7.39    1.41 
  -3  -9   7    6.19    1.66 
   2   9  -7   29.66    2.23 
   2   9  -7   34.09    2.25 
  -2  -9   7   33.19    2.15 
  -2  -9   7   33.49    2.08 
  -2  -9   7   31.51    2.72 
   1   9  -7    5.15    1.25 
   1   9  -7    3.64    1.29 
  -1  -9   7    4.06    1.16 
  -1  -9   7    4.19    1.25 
  -1  -9   7    5.18    1.51 
   0   9  -7   10.96    1.52 
   0   9  -7    9.73    1.45 
   0  -9   7    9.95    1.39 
   0  -9   7    9.97    1.77 
   0  -9   7   10.58    1.39 
  -1   9  -7    9.37    1.31 
  -1   9  -7   10.57    1.50 
   1  -9   7    8.91    1.22 
   1  -9   7   10.11    1.76 
   1  -9   7   10.65    1.31 
  -2   9  -7   48.64    2.16 
  -2   9  -7   49.16    2.57 
   2  -9   7   46.62    2.21 
   2  -9   7   46.22    3.03 
   2  -9   7   46.24    2.10 
   2  -9   7   35.97    4.24 
  -3   9  -7   62.29    2.82 
   3  -9   7   56.30    2.32 
   3  -9   7   62.21    3.34 
   3  -9   7   47.79    4.28 
   3  -9   7   60.38    2.41 
  -4   9  -7   13.49    1.70 
  -4   9  -7   11.93    1.88 
   4  -9   7   11.98    1.34 
   4  -9   7    7.93    2.55 
   4  -9   7   10.84    1.32 
   6   8  -7   46.91    2.53 
   6   8  -7   51.08    2.81 
  -6  -8   7   42.93    3.04 
  -6  -8   7   53.22    2.92 
   5   8  -7    7.07    1.52 
   5   8  -7    9.84    1.55 
  -5  -8   7    8.21    1.59 
  -5  -8   7    9.11    1.51 
  -5  -8   7    6.73    1.69 
   4   8  -7    3.22    1.42 
   4   8  -7    3.23    1.18 
   4   8  -7    2.38    1.08 
  -4  -8   7    2.93    1.23 
  -4  -8   7    3.47    1.22 
  -4  -8   7    2.03    1.42 
   3   8  -7    1.33    1.25 
   3   8  -7    0.86    1.05 
   3   8  -7    3.72    1.06 
  -3  -8   7    1.94    1.11 
  -3  -8   7    1.38    1.35 
  -3  -8   7    1.20    1.11 
   2   8  -7   32.64    1.93 
   2   8  -7   31.37    2.12 
   2   8  -7   30.03    1.91 
  -2  -8   7   30.12    2.44 
  -2  -8   7   32.25    1.97 
  -2  -8   7   35.50    2.08 
   1   8  -7   23.03    2.10 
   1   8  -7   18.51    1.61 
   1   8  -7   21.88    1.81 
  -1  -8   7   22.84    1.77 
  -1  -8   7   18.74    1.95 
  -1  -8   7   21.31    1.69 
   0   8  -7   45.23    2.32 
   0   8  -7   47.54    2.24 
   0  -8   7   51.75    2.88 
   0  -8   7   47.19    2.15 
   0  -8   7   47.74    2.99 
   0  -8   7   49.65    2.22 
  -1   8  -7   57.15    2.58 
  -1   8  -7   56.61    2.29 
   1  -8   7   59.56    2.34 
   1  -8   7   50.02    3.60 
   1  -8   7   56.38    2.98 
   1  -8   7   56.11    2.28 
  -2   8  -7    7.78    1.16 
  -2   8  -7    4.97    1.07 
   2  -8   7    4.40    1.90 
   2  -8   7    5.99    1.51 
   2  -8   7    7.53    1.20 
   2  -8   7    6.08    1.14 
  -3   8  -7   23.10    1.88 
  -3   8  -7   20.50    1.99 
  -3   8  -7   19.16    1.47 
   3  -8   7   18.67    1.55 
   3  -8   7   18.19    2.55 
   3  -8   7   22.73    1.61 
  -4   8  -7   -0.24    1.40 
  -4   8  -7    1.32    0.98 
   4  -8   7    0.13    1.83 
   4  -8   7    1.42    0.97 
   4  -8   7    1.14    0.90 
  -5   8  -7   14.17    1.93 
  -5   8  -7   16.72    1.78 
   5  -8   7   14.21    1.46 
   5  -8   7   13.12    2.61 
   7   7  -7   37.47    2.60 
  -7  -7   7   25.38    2.51 
  -7  -7   7   31.01    2.49 
   6   7  -7    1.01    1.28 
  -6  -7   7   -2.23    1.36 
  -6  -7   7    1.37    1.32 
   5   7  -7    0.45    0.79 
   5   7  -7   -0.23    1.15 
  -5  -7   7   -0.56    1.22 
  -5  -7   7    2.11    1.27 
  -5  -7   7    0.46    1.12 
   4   7  -7    3.73    0.94 
   4   7  -7    5.05    1.26 
  -4  -7   7    5.49    1.35 
  -4  -7   7    3.79    1.17 
  -4  -7   7    2.83    1.30 
   3   7  -7   47.60    2.04 
   3   7  -7   49.38    2.33 
  -3  -7   7   48.02    2.17 
  -3  -7   7   47.69    2.66 
  -3  -7   7   48.01    2.30 
   2   7  -7   52.82    2.33 
   2   7  -7   56.20    2.26 
   2   7  -7   56.61    2.24 
  -2  -7   7   53.46    2.33 
  -2  -7   7   52.04    2.71 
  -2  -7   7   52.26    2.38 
   1   7  -7   49.31    2.17 
   1   7  -7   49.55    2.23 
   1   7  -7   48.85    2.22 
  -1  -7   7   50.29    2.66 
  -1  -7   7   51.38    2.83 
  -1  -7   7   47.83    2.17 
  -1  -7   7   48.56    2.23 
   0   7  -7   46.01    2.15 
   0   7  -7   43.98    1.98 
   0   7  -7   44.17    2.14 
   0  -7   7   42.02    2.50 
   0  -7   7   41.99    2.07 
   0  -7   7   40.27    1.99 
   0  -7   7   45.43    2.99 
  -1   7  -7   17.28    1.40 
  -1   7  -7   17.11    1.54 
  -1   7  -7   18.69    1.58 
   1  -7   7   15.81    1.72 
   1  -7   7   13.68    2.04 
   1  -7   7   12.89    1.29 
   1  -7   7   14.27    1.44 
  -2   7  -7   19.83    1.79 
  -2   7  -7   20.68    1.50 
  -2   7  -7   22.08    1.82 
   2  -7   7   19.95    1.58 
   2  -7   7   16.35    2.30 
   2  -7   7   19.59    1.55 
  -3   7  -7    4.95    1.37 
  -3   7  -7    3.20    0.80 
  -3   7  -7    1.10    0.89 
   3  -7   7    2.09    0.95 
   3  -7   7    0.19    1.70 
   3  -7   7    1.89    0.97 
  -4   7  -7   38.30    2.49 
  -4   7  -7   39.04    2.28 
   4  -7   7   35.72    3.55 
   4  -7   7   38.99    1.96 
  -5   7  -7   23.83    2.00 
  -5   7  -7   23.08    2.16 
   5  -7   7   21.37    1.79 
   5  -7   7   20.67    3.00 
   5  -7   7   24.52    1.88 
  -6   7  -7   34.81    2.27 
  -6   7  -7   38.11    2.74 
   6  -7   7   30.11    2.02 
   6  -7   7   33.91    3.96 
   6  -7   7   37.13    2.19 
   7   6  -7    0.70    1.00 
   7   6  -7   -1.26    1.25 
  -7  -6   7   -3.00    1.28 
  -7  -6   7    0.79    1.33 
   6   6  -7    2.32    1.18 
   6   6  -7    6.71    1.44 
  -6  -6   7    2.85    1.36 
  -6  -6   7    3.54    1.33 
   5   6  -7   65.05    2.87 
   5   6  -7   66.86    2.74 
   5   6  -7   72.07    2.28 
  -5  -6   7   69.70    2.96 
  -5  -6   7   70.33    3.02 
  -5  -6   7   74.12    2.86 
   4   6  -7   19.04    1.69 
   4   6  -7   16.79    1.58 
   4   6  -7   16.59    1.29 
  -4  -6   7   15.92    1.64 
  -4  -6   7   18.96    1.63 
  -4  -6   7   18.09    1.68 
   3   6  -7   92.14    2.79 
   3   6  -7   91.48    3.14 
   3   6  -7   89.85    2.61 
  -3  -6   7   93.10    3.42 
  -3  -6   7   86.47    3.03 
  -3  -6   7   95.26    2.36 
  -3  -6   7   92.84    3.18 
   2   6  -7  123.44    3.67 
   2   6  -7  124.28    3.47 
  -2  -6   7  125.82    3.72 
  -2  -6   7  123.15    3.92 
  -2  -6   7  124.37    3.64 
   1   6  -7    2.56    0.97 
   1   6  -7    0.53    0.88 
  -1  -6   7    0.99    1.21 
  -1  -6   7    0.45    0.92 
  -1  -6   7    0.35    0.89 
  -1  -6   7    1.96    1.06 
   0   6  -7    0.53    0.95 
   0   6  -7   -0.17    0.94 
   0   6  -7   -0.18    0.84 
   0  -6   7   -0.12    0.98 
   0  -6   7    1.38    1.25 
   0  -6   7   -0.48    0.88 
   0  -6   7    0.27    0.84 
  -1   6  -7   11.03    1.14 
  -1   6  -7   12.25    1.22 
  -1   6  -7   11.34    1.32 
   1  -6   7   13.93    1.26 
   1  -6   7   10.04    1.87 
   1  -6   7   11.69    1.27 
  -2   6  -7   55.68    2.47 
  -2   6  -7   58.01    2.27 
  -2   6  -7   53.09    1.96 
  -2   6  -7   57.32    2.22 
   2  -6   7   57.17    2.28 
   2  -6   7   59.77    2.33 
   2  -6   7   57.98    3.64 
  -3   6  -7   25.20    1.95 
  -3   6  -7   22.50    1.28 
  -3   6  -7   22.79    1.55 
  -3   6  -7   24.47    1.68 
   3  -6   7   22.55    2.93 
   3  -6   7   21.87    1.78 
   3  -6   7   23.99    1.75 
  -4   6  -7   94.31    3.44 
  -4   6  -7   91.88    3.18 
   4  -6   7   91.41    3.07 
   4  -6   7   93.87    3.13 
   4  -6   7   90.64    4.79 
  -5   6  -7   25.74    1.95 
  -5   6  -7   21.85    2.05 
   5  -6   7   22.95    1.71 
   5  -6   7   25.35    1.75 
   5  -6   7   20.11    2.81 
  -6   6  -7   30.12    2.07 
  -6   6  -7   29.20    2.13 
   6  -6   7   31.33    1.95 
   6  -6   7   30.28    3.83 
   6  -6   7   32.90    2.13 
  -7   6  -7   16.26    1.66 
  -7   6  -7   19.20    2.12 
   7  -6   7   15.91    1.57 
   7  -6   7   15.78    1.66 
   7  -6   7   15.88    2.90 
   8   5  -7    0.99    1.35 
   8   5  -7   -1.70    1.36 
  -8  -5   7   -0.85    1.37 
  -8  -5   7    1.51    1.36 
   7   5  -7   21.18    1.97 
   7   5  -7   18.11    1.87 
  -7  -5   7   20.79    1.98 
  -7  -5   7   16.24    1.82 
   6   5  -7   79.05    3.19 
   6   5  -7   83.38    3.19 
  -6  -5   7   78.64    3.24 
  -6  -5   7   77.85    3.14 
   5   5  -7   34.62    1.93 
   5   5  -7   35.20    2.11 
   5   5  -7   38.38    1.58 
   5   5  -7   38.80    2.05 
  -5  -5   7   35.74    2.22 
  -5  -5   7   33.03    2.04 
  -5  -5   7   38.33    2.32 
  -5  -5   7   37.56    1.29 
   4   5  -7   45.81    1.72 
   4   5  -7   42.59    1.99 
   4   5  -7   49.23    2.12 
   4   5  -7   40.40    1.99 
  -4  -5   7   42.53    2.24 
  -4  -5   7   44.07    2.15 
  -4  -5   7   47.09    1.48 
  -4  -5   7   49.55    2.39 
   3   5  -7   23.57    1.40 
   3   5  -7   21.17    1.46 
   3   5  -7   21.91    1.55 
   3   5  -7   24.08    1.76 
  -3  -5   7   24.18    1.76 
  -3  -5   7   22.01    1.64 
  -3  -5   7   23.59    2.02 
  -3  -5   7   22.41    1.13 
  -3  -5   7   25.17    1.92 
   2   5  -7    0.20    0.78 
   2   5  -7    0.27    0.21 
   2   5  -7    0.09    0.22 
   2   5  -7   -0.67    0.77 
   2   5  -7    0.07    0.50 
   2   5  -7   -0.20    0.90 
  -2  -5   7   -0.57    0.90 
  -2  -5   7    0.18    0.82 
  -2  -5   7    0.43    0.91 
  -2  -5   7    0.58    0.86 
   1   5  -7    2.61    0.96 
   1   5  -7    1.86    0.89 
   1   5  -7    2.29    0.79 
  -1  -5   7    1.43    0.90 
  -1  -5   7    2.25    1.04 
  -1  -5   7    2.99    1.32 
  -1  -5   7    1.66    0.84 
  -1  -5   7    2.55    0.99 
   0   5  -7   53.55    2.16 
   0   5  -7   51.20    1.98 
   0   5  -7   58.13    2.22 
   0  -5   7   53.56    2.06 
   0  -5   7   59.15    3.33 
   0  -5   7   53.78    2.21 
   0  -5   7   60.52    2.21 
   0  -5   7   57.76    2.41 
  -1   5  -7   47.84    1.83 
  -1   5  -7   45.04    1.73 
  -1   5  -7   49.02    2.09 
  -1   5  -7   45.66    1.99 
  -1   5  -7   45.54    2.03 
   1  -5   7   51.16    1.97 
   1  -5   7   45.29    3.16 
   1  -5   7   47.68    2.07 
  -2   5  -7   53.88    2.16 
  -2   5  -7   53.56    2.28 
  -2   5  -7   50.60    1.99 
  -2   5  -7   53.34    1.79 
  -2   5  -7   53.55    2.27 
   2  -5   7   56.12    2.12 
   2  -5   7   54.55    2.41 
   2  -5   7   54.69    2.16 
   2  -5   7   55.00    2.22 
   2  -5   7   53.85    3.50 
  -3   5  -7  127.25    3.83 
  -3   5  -7  126.68    3.57 
  -3   5  -7  125.90    3.69 
  -3   5  -7  121.99    3.03 
   3  -5   7  121.59    3.56 
   3  -5   7  130.71    3.74 
   3  -5   7  130.84    5.23 
  -4   5  -7    6.29    1.35 
  -4   5  -7    4.90    1.02 
  -4   5  -7    4.10    1.15 
   4  -5   7    4.89    1.04 
   4  -5   7    3.96    1.87 
   4  -5   7    4.98    1.18 
  -5   5  -7   -0.67    1.00 
  -5   5  -7   -1.56    1.17 
   5  -5   7   -1.89    1.71 
   5  -5   7    0.19    0.94 
   5  -5   7   -0.79    0.87 
  -6   5  -7    1.04    1.15 
  -6   5  -7    0.19    1.00 
   6  -5   7    1.25    1.00 
   6  -5   7   -0.70    1.90 
   6  -5   7    0.51    1.01 
  -7   5  -7   17.28    2.02 
  -7   5  -7   18.57    1.71 
   7  -5   7   16.75    1.67 
   7  -5   7   15.19    1.54 
   7  -5   7   11.85    2.73 
   8   4  -7   61.65    3.24 
   8   4  -7   61.77    3.01 
  -8  -4   7   55.46    2.87 
  -8  -4   7   67.74    3.05 
   7   4  -7   66.86    3.09 
   7   4  -7   69.26    2.81 
   7   4  -7   63.85    2.80 
  -7  -4   7   76.31    3.08 
  -7  -4   7   71.08    2.94 
   6   4  -7   26.13    2.02 
   6   4  -7   28.11    1.68 
   6   4  -7   27.34    2.05 
  -6  -4   7   24.22    2.01 
  -6  -4   7   29.23    1.22 
  -6  -4   7   29.73    2.07 
   5   4  -7   48.50    2.18 
   5   4  -7   45.22    2.07 
   5   4  -7   43.72    1.58 
   5   4  -7   42.91    2.13 
  -5  -4   7   45.98    1.50 
  -5  -4   7   44.60    2.23 
  -5  -4   7   47.37    2.18 
  -5  -4   7   41.78    2.23 
   4   4  -7   -1.34    0.79 
   4   4  -7    0.32    0.66 
   4   4  -7   -0.55    0.64 
   4   4  -7   -1.76    0.93 
  -4  -4   7    0.27    0.99 
  -4  -4   7   -0.17    0.78 
  -4  -4   7   -1.20    0.51 
  -4  -4   7   -0.26    0.90 
   3   4  -7   -0.71    0.79 
   3   4  -7    0.18    0.32 
   3   4  -7    0.39    0.68 
   3   4  -7   -0.36    0.65 
   3   4  -7    1.52    0.97 
  -3  -4   7   -0.32    0.87 
  -3  -4   7    1.13    0.96 
  -3  -4   7   -0.87    0.51 
  -3  -4   7   -0.38    0.75 
  -3  -4   7    0.00    0.63 
   2   4  -7   19.31    1.40 
   2   4  -7   20.70    1.10 
   2   4  -7   19.64    1.56 
   2   4  -7   19.08    1.30 
   2   4  -7   21.03    0.67 
  -2  -4   7   19.52    1.48 
  -2  -4   7   19.91    1.40 
  -2  -4   7   21.65    1.13 
  -2  -4   7   22.49    1.49 
  -2  -4   7   20.22    1.57 
   1   4  -7  161.31    4.05 
   1   4  -7  161.93    3.48 
   1   4  -7  167.93    4.13 
   1   4  -7  158.86    4.24 
  -1  -4   7  169.68    4.21 
  -1  -4   7  160.51    4.19 
  -1  -4   7  158.58    4.23 
  -1  -4   7  159.43    4.11 
  -1  -4   7  158.26    5.05 
   0   4  -7   57.72    2.15 
   0   4  -7   60.13    2.23 
   0   4  -7   58.91    2.08 
   0  -4   7   62.45    2.14 
   0  -4   7   58.56    1.99 
   0  -4   7   56.87    3.11 
  -1   4  -7   86.24    2.73 
  -1   4  -7   87.16    2.63 
  -1   4  -7   82.15    2.72 
  -1   4  -7   87.15    2.59 
   1  -4   7   84.68    2.69 
   1  -4   7   90.40    2.67 
   1  -4   7   80.27    2.74 
   1  -4   7   85.34    3.91 
  -2   4  -7   45.70    1.92 
  -2   4  -7   49.09    2.03 
  -2   4  -7   45.98    2.06 
  -2   4  -7   46.98    1.21 
  -2   4  -7   47.11    1.59 
  -2   4  -7   47.59    2.02 
   2  -4   7   46.47    1.97 
   2  -4   7   49.90    3.34 
   2  -4   7   48.97    1.96 
   2  -4   7   47.56    2.05 
  -3   4  -7    3.46    0.90 
  -3   4  -7    2.51    1.06 
  -3   4  -7    3.62    0.54 
  -3   4  -7    3.42    0.54 
  -3   4  -7    3.32    0.97 
  -3   4  -7    1.98    1.00 
   3  -4   7    3.15    0.93 
   3  -4   7    2.54    0.92 
   3  -4   7    3.97    1.01 
   3  -4   7    4.45    1.45 
  -4   4  -7    4.19    1.17 
  -4   4  -7    3.49    1.08 
  -4   4  -7    3.02    1.00 
   4  -4   7    5.14    1.94 
   4  -4   7    4.12    1.06 
   4  -4   7    6.07    1.07 
  -5   4  -7   32.82    1.91 
  -5   4  -7   31.19    1.85 
  -5   4  -7   26.14    1.82 
   5  -4   7   31.04    1.72 
   5  -4   7   32.21    3.51 
   5  -4   7   36.03    2.02 
   5  -4   7   33.30    1.90 
  -6   4  -7   30.90    2.33 
  -6   4  -7   32.97    2.09 
   6  -4   7   33.89    3.79 
   6  -4   7   31.08    1.99 
   6  -4   7   30.59    2.20 
   6  -4   7   33.89    2.11 
  -7   4  -7   31.81    2.55 
  -7   4  -7   31.19    1.94 
   7  -4   7   32.65    2.18 
   7  -4   7   30.08    2.05 
   7  -4   7   28.29    3.83 
  -8   4  -7   75.29    2.88 
  -8   4  -7   64.30    3.42 
   8  -4   7   60.36    5.03 
   8  -4   7   69.94    3.05 
   8  -4   7   70.54    2.95 
   9   3  -7   44.21    2.70 
   9   3  -7   39.72    3.08 
   9   3  -7   46.44    3.77 
   9   3  -7   45.51    3.49 
  -9  -3   7   41.83    2.60 
  -9  -3   7   40.10    2.48 
   8   3  -7    7.21    1.40 
   8   3  -7    7.14    1.45 
   8   3  -7    4.19    1.56 
  -8  -3   7    8.48    1.49 
  -8  -3   7    3.62    1.32 
  -8  -3   7    6.97    1.46 
   7   3  -7   49.78    2.39 
   7   3  -7   46.66    2.69 
   7   3  -7   51.41    2.33 
  -7  -3   7   43.61    2.28 
  -7  -3   7   53.06    1.80 
  -7  -3   7   49.89    2.48 
   6   3  -7    0.20    1.19 
   6   3  -7   -0.30    0.74 
   6   3  -7    1.21    1.09 
  -6  -3   7    0.31    0.64 
  -6  -3   7   -0.12    1.05 
  -6  -3   7   -0.47    0.94 
   5   3  -7   12.50    1.32 
   5   3  -7   11.57    1.33 
   5   3  -7   16.08    0.97 
   5   3  -7   13.29    1.46 
  -5  -3   7   14.53    1.48 
  -5  -3   7   13.17    1.42 
  -5  -3   7   12.35    1.29 
  -5  -3   7   13.86    1.05 
   4   3  -7   46.20    1.87 
   4   3  -7   46.21    2.00 
   4   3  -7   48.01    1.62 
   4   3  -7   47.65    2.08 
   4   3  -7   42.51    2.11 
  -4  -3   7   45.25    1.82 
  -4  -3   7   48.01    1.55 
  -4  -3   7   49.94    1.91 
  -4  -3   7   42.91    2.11 
   3   3  -7  144.75    3.69 
   3   3  -7  139.19    3.85 
   3   3  -7  143.25    3.56 
   3   3  -7  147.21    3.85 
   3   3  -7  140.69    3.71 
  -3  -3   7  145.47    3.88 
  -3  -3   7  147.61    3.44 
  -3  -3   7  145.19    3.81 
  -3  -3   7  145.29    3.72 
  -3  -3   7  145.74    3.78 
   2   3  -7  183.03    4.43 
   2   3  -7  171.19    4.55 
   2   3  -7  174.65    4.72 
   2   3  -7  181.53    4.30 
   2   3  -7  180.20    3.82 
   2   3  -7  186.87    4.21 
  -2  -3   7  173.00    4.37 
  -2  -3   7  189.66    4.57 
  -2  -3   7  179.60    4.41 
  -2  -3   7  182.26    4.50 
   1   3  -7   88.40    2.85 
   1   3  -7   96.31    2.79 
   1   3  -7   94.62    2.34 
  -1  -3   7   96.23    2.84 
  -1  -3   7   98.07    2.70 
  -1  -3   7   93.97    3.72 
  -1  -3   7   94.55    2.77 
  -1  -3   7   96.15    2.42 
  -1  -3   7   95.80    2.94 
   0   3  -7   48.93    2.02 
   0   3  -7   49.95    1.36 
   0   3  -7   44.87    1.72 
   0   3  -7   48.61    1.34 
   0   3  -7   48.62    1.71 
   0  -3   7   49.98    2.89 
   0  -3   7   46.59    1.91 
   0  -3   7   49.20    1.88 
   0  -3   7   50.20    1.60 
  -1   3  -7    7.20    0.94 
  -1   3  -7    5.26    0.52 
  -1   3  -7    6.77    0.88 
  -1   3  -7    5.58    1.01 
   1  -3   7    6.94    1.70 
   1  -3   7    6.72    0.36 
   1  -3   7    6.94    0.89 
   1  -3   7    6.21    0.94 
   1  -3   7    5.76    0.86 
  -2   3  -7    7.72    1.01 
  -2   3  -7    7.56    1.08 
  -2   3  -7    7.72    0.66 
  -2   3  -7    9.29    1.00 
   2  -3   7    8.67    1.89 
   2  -3   7    9.47    1.06 
   2  -3   7    8.33    1.02 
   2  -3   7    8.45    1.11 
  -3   3  -7   14.37    1.33 
  -3   3  -7   13.91    1.15 
  -3   3  -7   12.73    0.70 
  -3   3  -7   14.23    1.33 
  -3   3  -7   13.25    1.02 
   3  -3   7   12.00    1.28 
   3  -3   7   14.98    1.27 
   3  -3   7   12.04    2.06 
   3  -3   7   14.75    1.23 
  -4   3  -7   68.19    2.66 
  -4   3  -7   69.76    2.62 
  -4   3  -7   73.69    2.83 
   4  -3   7   73.90    2.56 
   4  -3   7   71.16    3.78 
   4  -3   7   72.14    2.37 
   4  -3   7   68.52    2.63 
  -5   3  -7   43.56    2.18 
  -5   3  -7   44.16    2.33 
  -5   3  -7   44.45    2.11 
   5  -3   7   40.81    3.65 
   5  -3   7   43.26    2.06 
   5  -3   7   42.16    2.06 
   5  -3   7   40.54    2.17 
  -6   3  -7   40.69    2.45 
  -6   3  -7   40.11    2.17 
  -6   3  -7   39.75    2.03 
   6  -3   7   39.37    2.26 
   6  -3   7   38.22    2.10 
   6  -3   7   40.68    3.36 
   6  -3   7   40.48    2.24 
  -7   3  -7   25.70    2.34 
  -7   3  -7   25.89    1.78 
   7  -3   7   21.92    3.08 
   7  -3   7   27.62    2.10 
   7  -3   7   28.47    2.00 
   7  -3   7   29.22    2.10 
  -8   3  -7    6.45    1.73 
  -8   3  -7    2.83    1.20 
   8  -3   7    4.28    1.26 
   8  -3   7    3.06    1.51 
   8  -3   7    2.42    2.37 
   8  -3   7    4.13    1.30 
   9   2  -7   13.14    1.62 
   9   2  -7   10.49    1.99 
   9   2  -7   15.46    1.75 
   9   2  -7   13.64    2.09 
  -9  -2   7   15.64    1.72 
   8   2  -7   10.55    1.48 
   8   2  -7    8.77    1.42 
   8   2  -7    6.45    1.63 
  -8  -2   7   10.19    1.08 
  -8  -2   7    9.12    1.46 
  -8  -2   7    9.79    1.28 
   7   2  -7   12.82    1.34 
   7   2  -7   13.81    1.76 
   7   2  -7   16.36    1.54 
  -7  -2   7   14.86    1.14 
  -7  -2   7   10.30    1.28 
  -7  -2   7   14.19    1.56 
  -7  -2   7   11.86    1.48 
   6   2  -7   33.92    2.02 
   6   2  -7   35.57    2.23 
   6   2  -7   31.60    1.68 
  -6  -2   7   34.21    1.98 
  -6  -2   7   33.18    1.90 
  -6  -2   7   35.32    1.54 
   5   2  -7   28.07    1.72 
   5   2  -7   31.50    1.21 
   5   2  -7   28.08    1.84 
   5   2  -7   31.60    1.39 
   5   2  -7   28.71    1.72 
   5   2  -7   33.00    1.96 
  -5  -2   7   31.44    1.65 
  -5  -2   7   30.50    1.41 
  -5  -2   7   29.47    1.68 
  -5  -2   7   31.19    1.84 
   4   2  -7   79.51    2.71 
   4   2  -7   76.00    2.12 
   4   2  -7   73.36    2.38 
   4   2  -7   75.02    2.52 
   4   2  -7   72.86    2.49 
  -4  -2   7   78.77    2.30 
  -4  -2   7   73.89    2.18 
  -4  -2   7   77.90    2.52 
  -4  -2   7   78.70    2.63 
   3   2  -7   19.73    0.93 
   3   2  -7   19.19    1.40 
   3   2  -7   20.57    1.35 
   3   2  -7   21.98    1.45 
   3   2  -7   19.02    1.28 
  -3  -2   7   20.70    0.83 
  -3  -2   7   20.59    1.48 
  -3  -2   7   19.69    1.10 
  -3  -2   7   18.78    1.10 
  -3  -2   7   20.14    1.39 
   2   2  -7   80.11    2.50 
   2   2  -7   82.29    2.35 
   2   2  -7   82.48    2.62 
   2   2  -7   78.19    1.94 
   2   2  -7   79.10    2.45 
  -2  -2   7   80.49    2.50 
  -2  -2   7   83.63    2.53 
  -2  -2   7   78.52    1.94 
  -2  -2   7   82.06    2.25 
  -2  -2   7   80.69    2.45 
   1   2  -7   56.00    1.73 
   1   2  -7   53.68    2.13 
   1   2  -7   56.72    1.89 
   1   2  -7   56.72    2.05 
   1   2  -7   58.28    1.44 
  -1  -2   7   55.87    1.55 
  -1  -2   7   57.14    1.85 
  -1  -2   7   55.75    2.00 
  -1  -2   7   57.21    2.92 
  -1  -2   7   56.62    1.93 
  -1  -2   7   59.87    2.01 
   0   2  -7   58.76    2.03 
   0   2  -7   54.82    2.02 
   0   2  -7   57.90    2.15 
   0   2  -7   59.48    1.74 
   0  -2   7   55.87    3.08 
   0  -2   7   59.51    2.05 
   0  -2   7   57.14    2.16 
   0  -2   7   56.98    2.07 
   0  -2   7   57.06    1.41 
  -1   2  -7    2.10    0.81 
  -1   2  -7    1.07    0.53 
  -1   2  -7    2.62    0.93 
  -1   2  -7    2.26    0.67 
   1  -2   7    1.51    1.46 
   1  -2   7    3.13    0.75 
   1  -2   7    2.39    0.85 
   1  -2   7    1.43    0.79 
   1  -2   7    2.37    0.44 
  -2   2  -7  241.52    5.70 
  -2   2  -7  241.90    5.57 
  -2   2  -7  228.11    5.44 
   2  -2   7  228.41    5.55 
   2  -2   7  239.84    7.11 
   2  -2   7  232.94    5.68 
   2  -2   7  235.76    5.59 
  -3   2  -7   75.63    2.66 
  -3   2  -7   79.80    2.57 
  -3   2  -7   76.25    2.50 
  -3   2  -7   75.84    2.36 
   3  -2   7   78.11    2.56 
   3  -2   7   82.57    2.73 
   3  -2   7   72.19    2.50 
   3  -2   7   73.95    3.93 
  -4   2  -7   61.96    2.47 
  -4   2  -7   61.88    2.31 
  -4   2  -7   59.18    2.28 
   4  -2   7   65.42    2.28 
   4  -2   7   62.05    2.48 
   4  -2   7   62.18    3.49 
   4  -2   7   63.81    2.36 
   4  -2   7   60.55    2.31 
  -5   2  -7   70.95    2.68 
  -5   2  -7   65.90    2.74 
   5  -2   7   67.20    2.55 
   5  -2   7   64.69    2.65 
   5  -2   7   67.88    2.66 
   5  -2   7   66.02    3.81 
  -6   2  -7   20.84    1.80 
  -6   2  -7   21.53    1.90 
   6  -2   7   19.78    1.57 
   6  -2   7   20.29    2.70 
   6  -2   7   21.06    1.76 
   6  -2   7   19.04    1.82 
  -7   2  -7   -0.52    1.06 
  -7   2  -7    0.45    1.35 
  -7   2  -7   -1.07    1.05 
   7  -2   7    0.88    1.08 
   7  -2   7    0.22    1.13 
   7  -2   7   -0.21    1.08 
   7  -2   7   -1.19    1.88 
  -8   2  -7    1.98    1.21 
   8  -2   7    2.96    1.55 
   8  -2   7    0.35    2.14 
   8  -2   7    2.18    1.29 
   8  -2   7    3.25    1.26 
   9   1  -7    1.73    1.55 
   9   1  -7    4.49    1.32 
   9   1  -7    3.55    1.23 
  -9  -1   7    1.42    1.27 
   8   1  -7   15.48    1.95 
   8   1  -7   20.05    1.69 
   8   1  -7   18.93    1.72 
  -8  -1   7   19.05    1.38 
  -8  -1   7   18.60    1.67 
  -8  -1   7   13.57    1.57 
   7   1  -7   48.26    2.75 
   7   1  -7   51.62    2.27 
   7   1  -7   50.61    2.36 
  -7  -1   7   52.62    1.92 
  -7  -1   7   49.58    2.31 
  -7  -1   7   51.35    1.97 
  -7  -1   7   50.36    2.36 
  -7  -1   7   48.36    2.10 
   6   1  -7  112.00    2.54 
   6   1  -7  114.00    3.79 
   6   1  -7  114.28    3.36 
   6   1  -7  105.17    3.38 
  -6  -1   7  110.60    3.09 
  -6  -1   7  110.64    2.97 
  -6  -1   7  106.88    3.37 
  -6  -1   7  110.57    3.23 
   5   1  -7  226.09    5.80 
   5   1  -7  231.57    5.45 
   5   1  -7  214.16    5.48 
   5   1  -7  225.00    5.03 
   5   1  -7  227.09    5.45 
  -5  -1   7  230.99    5.42 
  -5  -1   7  227.36    5.55 
  -5  -1   7  221.53    5.14 
  -5  -1   7  227.57    5.12 
   4   1  -7   37.98    1.65 
   4   1  -7   37.85    1.74 
   4   1  -7   36.93    1.99 
  -4  -1   7   38.33    1.81 
  -4  -1   7   35.52    1.34 
  -4  -1   7   36.71    1.66 
  -4  -1   7   36.00    1.44 
   3   1  -7   30.40    1.58 
   3   1  -7   32.76    1.53 
   3   1  -7   30.41    1.21 
   3   1  -7   31.24    1.42 
   3   1  -7   32.37    1.67 
  -3  -1   7   29.96    1.63 
  -3  -1   7   31.30    1.34 
  -3  -1   7   31.93    1.12 
  -3  -1   7   32.72    1.53 
  -3  -1   7   30.99    0.79 
   2   1  -7   17.84    1.27 
   2   1  -7   18.74    1.40 
   2   1  -7   16.25    1.30 
   2   1  -7   14.61    1.19 
  -2  -1   7   15.45    1.18 
  -2  -1   7   16.51    1.36 
  -2  -1   7   15.93    1.24 
  -2  -1   7   15.87    0.85 
   1   1  -7   42.42    1.67 
   1   1  -7   39.24    1.19 
   1   1  -7   36.26    1.74 
   1   1  -7   35.95    1.64 
  -1  -1   7   37.15    1.60 
  -1  -1   7   35.68    2.55 
  -1  -1   7   34.40    1.18 
   0   1  -7   91.17    2.76 
   0   1  -7   88.27    2.65 
   0   1  -7   91.52    2.62 
   0   1  -7   89.72    2.24 
   0  -1   7   92.06    2.78 
   0  -1   7   89.24    2.18 
   0  -1   7   90.44    2.63 
   0  -1   7   88.58    3.75 
   0  -1   7   82.24    2.61 
  -1   1  -7   74.90    2.24 
  -1   1  -7   77.68    2.53 
  -1   1  -7   74.49    2.13 
  -1   1  -7   72.99    2.29 
  -1   1  -7   72.63    2.33 
   1  -1   7   74.44    2.37 
   1  -1   7   74.62    3.65 
   1  -1   7   75.63    2.40 
   1  -1   7   79.96    2.44 
   1  -1   7   74.10    1.95 
  -2   1  -7  136.05    3.48 
  -2   1  -7  137.62    3.49 
  -2   1  -7  130.22    3.73 
  -2   1  -7  145.06    3.67 
   2  -1   7  137.84    3.78 
   2  -1   7  139.99    5.09 
   2  -1   7  130.92    3.52 
   2  -1   7  138.27    3.65 
   2  -1   7  134.57    3.19 
  -3   1  -7   36.09    1.79 
  -3   1  -7   40.94    1.05 
  -3   1  -7   40.84    1.96 
  -3   1  -7   39.77    1.79 
   3  -1   7   45.72    1.89 
   3  -1   7   37.86    3.20 
   3  -1   7   40.29    1.51 
   3  -1   7   38.53    1.80 
   3  -1   7   39.18    1.96 
  -4   1  -7   13.28    1.24 
  -4   1  -7   17.71    1.46 
  -4   1  -7   14.25    1.42 
   4  -1   7   13.76    1.30 
   4  -1   7   14.87    1.31 
   4  -1   7   12.01    2.16 
   4  -1   7   17.14    1.47 
  -5   1  -7    8.45    1.39 
  -5   1  -7    8.00    1.28 
   5  -1   7   10.04    1.28 
   5  -1   7    7.56    1.17 
   5  -1   7    7.98    2.12 
   5  -1   7    8.99    1.31 
  -6   1  -7   -0.11    0.90 
  -6   1  -7   -0.38    1.06 
   6  -1   7   -0.28    1.77 
   6  -1   7    1.53    1.12 
   6  -1   7    1.00    1.03 
   6  -1   7   -0.61    1.08 
  -7   1  -7   46.70    2.71 
  -7   1  -7   47.37    2.53 
   7  -1   7   48.26    2.45 
   7  -1   7   53.58    2.66 
   7  -1   7   38.89    2.62 
   7  -1   7   48.09    4.25 
  -8   1  -7   50.36    3.00 
   8  -1   7   50.77    4.60 
   8  -1   7   50.60    2.79 
   8  -1   7   54.33    3.06 
   8  -1   7   47.80    2.74 
   9   0  -7   39.28    2.23 
   9   0  -7   43.02    2.35 
   9   0  -7   41.49    3.12 
  -9   0   7   41.90    2.00 
  -9   0   7   42.12    2.39 
   8   0  -7   38.63    2.16 
   8   0  -7   37.38    2.07 
   8   0  -7   35.60    2.70 
  -8   0   7   35.02    2.16 
  -8   0   7   34.47    1.77 
   7   0  -7   85.80    2.89 
   7   0  -7   84.10    2.95 
   7   0  -7   85.23    3.54 
  -7   0   7   87.65    2.97 
  -7   0   7   84.25    2.63 
  -7   0   7   87.55    2.93 
   6   0  -7    0.88    0.87 
   6   0  -7    1.20    1.14 
   6   0  -7    0.94    0.90 
  -6   0   7   -0.35    0.96 
  -6   0   7   -0.12    0.73 
  -6   0   7    0.40    0.57 
  -6   0   7   -0.37    0.81 
   5   0  -7    9.29    1.13 
   5   0  -7    8.42    1.01 
   5   0  -7    7.97    0.71 
   5   0  -7    8.86    1.04 
   5   0  -7    8.05    1.26 
  -5   0   7    8.51    1.12 
  -5   0   7    8.50    0.96 
  -5   0   7    7.47    0.92 
  -5   0   7    8.34    0.92 
  -5   0   7    8.00    0.68 
   4   0  -7    0.36    0.75 
   4   0  -7    0.15    0.74 
   4   0  -7   -0.65    0.79 
  -4   0   7    0.55    0.76 
  -4   0   7   -0.01    0.66 
  -4   0   7    0.11    0.67 
  -4   0   7    0.33    0.20 
   3   0  -7   62.23    2.30 
   3   0  -7   64.37    2.22 
   3   0  -7   67.03    2.19 
   3   0  -7   61.16    2.06 
   3   0  -7   65.14    2.17 
  -3   0   7   64.37    2.00 
  -3   0   7   65.99    2.08 
  -3   0   7   64.46    2.19 
   2   0  -7   45.12    1.77 
   2   0  -7   44.40    1.70 
   2   0  -7   43.25    1.75 
   2   0  -7   44.14    1.41 
   2   0  -7   40.75    1.80 
  -2   0   7   44.96    1.57 
  -2   0   7   43.45    1.47 
  -2   0   7   43.01    1.06 
  -2   0   7   44.62    1.62 
  -2   0   7   43.36    1.79 
   1   0  -7  149.10    4.00 
   1   0  -7  160.89    3.95 
   1   0  -7  158.20    3.26 
   1   0  -7  160.71    3.61 
   1   0  -7  160.29    4.00 
   1   0  -7  160.10    3.88 
  -1   0   7  150.69    3.86 
  -1   0   7  154.23    3.63 
  -1   0   7  165.25    3.93 
  -1   0   7  157.92    4.02 
  -1   0   7  159.19    3.50 
   0   0  -7  245.42    5.25 
   0   0  -7  253.06    5.72 
   0   0  -7  244.72    5.63 
   0   0  -7  248.26    5.80 
   0   0   7  242.25    5.65 
   0   0   7  245.31    5.36 
   0   0   7  240.07    5.77 
   0   0   7  238.56    6.88 
   0   0   7  265.66    5.73 
   0   0   7  248.94    5.45 
  -1   0  -7   27.84    1.46 
  -1   0  -7   27.90    1.43 
  -1   0  -7   27.57    1.63 
  -1   0  -7   29.79    1.37 
  -1   0  -7   26.34    1.21 
   1   0   7   25.47    2.18 
   1   0   7   28.65    1.63 
   1   0   7   26.67    1.16 
   1   0   7   28.20    1.48 
   1   0   7   26.78    1.35 
   1   0   7   26.21    1.44 
  -2   0  -7   54.53    2.05 
  -2   0  -7   53.43    1.49 
  -2   0  -7   49.26    2.11 
  -2   0  -7   52.40    1.98 
  -2   0  -7   52.06    1.85 
   2   0   7   56.83    3.40 
   2   0   7   56.01    1.74 
   2   0   7   53.72    2.01 
   2   0   7   57.69    2.07 
   2   0   7   53.65    2.15 
  -3   0  -7    0.05    0.85 
  -3   0  -7    0.88    0.83 
  -3   0  -7   -0.03    0.34 
  -3   0  -7   -0.49    0.89 
   3   0   7    0.11    1.59 
   3   0   7   -0.13    0.91 
   3   0   7   -0.88    0.76 
   3   0   7   -0.14    0.80 
   3   0   7   -0.74    0.40 
  -4   0  -7   26.84    1.68 
  -4   0  -7   25.23    1.78 
  -4   0  -7   28.84    1.63 
   4   0   7   25.54    3.05 
   4   0   7   24.24    1.78 
   4   0   7   26.62    1.10 
   4   0   7   25.00    1.66 
   4   0   7   25.49    1.68 
  -5   0  -7   -0.18    0.91 
  -5   0  -7    0.55    0.85 
  -5   0  -7   -0.25    1.02 
   5   0   7    0.44    0.96 
   5   0   7    0.74    1.08 
   5   0   7    0.51    1.07 
   5   0   7   -0.97    1.66 
  -6   0  -7   84.22    3.14 
  -6   0  -7   80.29    3.19 
   6   0   7   80.76    4.62 
   6   0   7   76.49    2.91 
   6   0   7   83.10    3.28 
   6   0   7   81.52    2.98 
  -7   0  -7   48.37    2.62 
  -7   0  -7   45.21    2.68 
   7   0   7   46.88    2.61 
   7   0   7   47.47    4.15 
   7   0   7   47.54    2.76 
   7   0   7   43.78    2.17 
  -8   0  -7   22.83    2.08 
  -8   0  -7   23.02    2.25 
   8   0   7   24.59    2.13 
   8   0   7   19.59    3.09 
   8   0   7   19.26    1.85 
   8   0   7   24.24    2.28 
   9  -1  -7   47.98    2.36 
   9  -1  -7   42.96    2.24 
   9  -1  -7   41.52    3.15 
  -9   1   7   45.34    2.42 
  -9   1   7   45.67    2.16 
   8  -1  -7   41.94    2.29 
   8  -1  -7   46.15    2.28 
   8  -1  -7   44.49    2.94 
  -8   1   7   44.43    2.31 
  -8   1   7   44.50    2.02 
   7  -1  -7   18.33    1.91 
   7  -1  -7   18.42    1.49 
   7  -1  -7   18.38    1.54 
  -7   1   7   15.33    1.40 
  -7   1   7   17.35    1.33 
  -7   1   7   16.52    1.50 
  -7   1   7   19.48    1.19 
   6  -1  -7   -0.36    0.75 
   6  -1  -7    0.30    1.12 
   6  -1  -7    0.20    0.80 
  -6   1   7   -0.78    0.74 
  -6   1   7    0.19    0.51 
  -6   1   7    0.85    0.95 
  -6   1   7    0.64    0.80 
   5  -1  -7   32.44    2.14 
   5  -1  -7   31.72    0.91 
   5  -1  -7   31.52    1.56 
   5  -1  -7   29.05    1.51 
   5  -1  -7   30.44    1.63 
   5  -1  -7   33.35    1.60 
  -5   1   7   33.73    1.59 
  -5   1   7   32.55    1.43 
  -5   1   7   28.18    1.34 
  -5   1   7   30.10    1.45 
  -5   1   7   30.92    1.02 
   4  -1  -7   88.23    2.62 
   4  -1  -7   91.88    2.67 
   4  -1  -7   90.49    2.71 
   4  -1  -7   88.02    2.93 
   4  -1  -7   90.83    2.58 
  -4   1   7   91.02    2.49 
  -4   1   7   87.64    2.63 
  -4   1   7   87.69    2.53 
  -4   1   7   90.97    2.61 
   3  -1  -7  136.77    3.28 
   3  -1  -7  121.10    3.60 
   3  -1  -7  121.23    3.28 
   3  -1  -7  122.25    3.32 
   3  -1  -7  126.05    3.29 
  -3   1   7  120.73    3.28 
  -3   1   7  123.84    3.18 
  -3   1   7  128.12    3.17 
   2  -1  -7  136.79    3.50 
   2  -1  -7  134.72    3.44 
   2  -1  -7  131.57    3.39 
   2  -1  -7  131.40    3.50 
  -2   1   7  132.09    3.31 
  -2   1   7  134.34    3.34 
  -2   1   7  136.31    3.50 
  -2   1   7  133.78    3.34 
   1  -1  -7   20.68    1.18 
   1  -1  -7   19.56    1.24 
   1  -1  -7   20.52    1.30 
   1  -1  -7   18.65    1.30 
   1  -1  -7   17.04    1.12 
   1  -1  -7   18.58    0.61 
  -1   1   7   18.46    1.11 
  -1   1   7   18.19    1.17 
  -1   1   7   18.24    0.75 
  -1   1   7   18.96    1.14 
   0  -1  -7   68.23    2.08 
   0  -1  -7   68.33    2.11 
   0  -1  -7   70.02    2.26 
   0  -1  -7   70.76    2.32 
   0   1   7   65.73    1.99 
   0   1   7   64.54    2.15 
   0   1   7   65.00    3.23 
   0   1   7   68.73    2.29 
   0   1   7   68.05    1.93 
  -1  -1  -7   12.37    1.10 
  -1  -1  -7   13.91    0.94 
  -1  -1  -7   13.36    1.22 
  -1  -1  -7   11.99    1.07 
   1   1   7   13.68    1.83 
   1   1   7   12.31    1.16 
   1   1   7   13.97    1.23 
   1   1   7   12.80    1.23 
   1   1   7   14.10    1.08 
   1   1   7   11.92    0.99 
  -2  -1  -7   15.48    0.91 
  -2  -1  -7   19.11    1.42 
  -2  -1  -7   21.37    1.31 
  -2  -1  -7   20.56    1.38 
   2   1   7   20.01    1.23 
   2   1   7   22.55    1.41 
   2   1   7   20.58    1.35 
   2   1   7   20.85    0.75 
   2   1   7   20.83    1.52 
   2   1   7   21.33    2.63 
  -3  -1  -7  107.83    3.17 
  -3  -1  -7  100.15    3.25 
  -3  -1  -7  107.21    2.50 
  -3  -1  -7  102.53    3.09 
   3   1   7  109.44    3.14 
   3   1   7  106.47    3.25 
   3   1   7  109.28    4.60 
   3   1   7  108.96    2.43 
  -4  -1  -7   89.38    2.98 
  -4  -1  -7   90.48    3.12 
   4   1   7   92.96    3.11 
   4   1   7   93.73    2.86 
   4   1   7   97.84    4.51 
  -5  -1  -7   47.45    2.25 
  -5  -1  -7   49.82    2.44 
   5   1   7   48.40    2.41 
   5   1   7   52.74    2.11 
   5   1   7   50.83    3.75 
  -6  -1  -7   34.86    1.99 
   6   1   7   37.17    2.12 
   6   1   7   30.19    3.73 
   6   1   7   34.94    2.26 
   6   1   7   36.08    2.49 
  -7  -1  -7   17.81    2.06 
  -7  -1  -7   23.68    2.03 
   7   1   7   22.26    1.94 
   7   1   7   17.12    2.74 
   7   1   7   23.31    2.14 
   7   1   7   17.98    2.01 
  -8  -1  -7    6.87    1.59 
  -8  -1  -7    2.43    1.33 
   8   1   7    4.26    1.48 
   8   1   7    5.11    1.77 
   8   1   7    2.09    2.29 
   9  -2  -7    1.39    1.60 
   9  -2  -7    2.64    1.05 
   9  -2  -7    1.24    0.97 
  -9   2   7    0.41    1.14 
  -9   2   7    1.09    1.03 
   8  -2  -7    5.30    1.14 
   8  -2  -7    6.02    1.65 
   8  -2  -7    5.62    1.14 
  -8   2   7    6.66    1.24 
  -8   2   7    5.65    0.96 
   7  -2  -7    1.09    1.29 
   7  -2  -7    0.44    0.80 
   7  -2  -7   -0.45    0.81 
  -7   2   7    1.64    1.01 
  -7   2   7    0.42    0.89 
  -7   2   7    1.45    0.69 
   6  -2  -7  114.64    3.29 
   6  -2  -7  109.97    3.22 
   6  -2  -7  119.15    4.05 
  -6   2   7  118.04    3.26 
  -6   2   7  114.45    2.83 
  -6   2   7  112.11    3.31 
  -6   2   7  114.09    3.16 
   5  -2  -7   31.36    1.66 
   5  -2  -7   30.85    1.60 
   5  -2  -7   32.87    1.54 
   5  -2  -7   34.28    2.23 
  -5   2   7   31.72    1.36 
  -5   2   7   29.03    1.05 
  -5   2   7   31.36    1.55 
  -5   2   7   33.34    1.62 
  -5   2   7   32.44    1.63 
   4  -2  -7   97.76    2.69 
   4  -2  -7   98.31    2.84 
   4  -2  -7   98.16    2.78 
   4  -2  -7   99.35    3.33 
   4  -2  -7   94.15    2.74 
  -4   2   7   98.44    2.73 
  -4   2   7   95.84    2.67 
  -4   2   7  100.50    2.61 
  -4   2   7   95.69    2.75 
   3  -2  -7  200.30    4.73 
   3  -2  -7  204.06    4.76 
   3  -2  -7  201.89    4.79 
   3  -2  -7  196.47    4.76 
  -3   2   7  206.42    4.62 
  -3   2   7  207.44    4.79 
  -3   2   7  202.35    4.73 
  -3   2   7  202.89    4.59 
  -3   2   7  196.74    4.76 
   2  -2  -7    0.25    0.19 
   2  -2  -7    0.63    0.67 
   2  -2  -7    0.13    0.66 
   2  -2  -7    0.03    0.66 
   2  -2  -7   -0.93    0.59 
  -2   2   7    0.53    0.54 
  -2   2   7   -0.43    0.71 
  -2   2   7   -0.43    0.47 
  -2   2   7    0.22    0.70 
   1  -2  -7   -0.08    0.69 
   1  -2  -7    1.25    0.66 
   1  -2  -7    2.13    0.77 
   1  -2  -7    0.67    0.71 
  -1   2   7    1.15    0.47 
  -1   2   7    0.38    0.70 
  -1   2   7    0.89    0.72 
  -1   2   7    0.26    0.60 
  -1   2   7    0.42    0.33 
  -1   2   7   -0.45    0.69 
   0  -2  -7   47.57    1.77 
   0  -2  -7   47.02    1.92 
   0  -2  -7   50.34    1.86 
   0  -2  -7   46.48    1.80 
   0   2   7   46.20    1.73 
   0   2   7   46.11    1.53 
   0   2   7   50.27    1.91 
   0   2   7   47.66    1.74 
  -1  -2  -7   72.04    2.35 
  -1  -2  -7   74.24    2.46 
  -1  -2  -7   77.80    2.35 
   1   2   7   71.95    2.26 
   1   2   7   74.40    2.33 
   1   2   7   67.55    2.40 
   1   2   7   73.77    2.21 
   1   2   7   71.34    3.44 
  -2  -2  -7   38.80    1.37 
  -2  -2  -7   35.33    1.68 
  -2  -2  -7   41.02    1.80 
  -2  -2  -7   35.40    1.85 
  -2  -2  -7   34.39    1.76 
   2   2   7   37.68    1.68 
   2   2   7   38.21    2.86 
   2   2   7   39.44    1.86 
   2   2   7   34.29    1.63 
  -3  -2  -7  209.44    5.39 
  -3  -2  -7  211.01    5.30 
  -3  -2  -7  215.30    4.73 
  -3  -2  -7  218.04    5.28 
   3   2   7  216.69    6.78 
   3   2   7  216.75    5.34 
   3   2   7  210.27    5.11 
   3   2   7  220.60    5.27 
  -4  -2  -7   13.98    1.27 
  -4  -2  -7   13.13    1.30 
   4   2   7   13.47    2.19 
   4   2   7   13.42    1.46 
   4   2   7   14.08    1.23 
  -5  -2  -7   28.05    2.01 
  -5  -2  -7   25.64    1.84 
   5   2   7   23.47    3.18 
   5   2   7   24.09    1.54 
   5   2   7   24.41    1.92 
  -6  -2  -7   18.58    1.65 
   6   2   7   23.02    1.83 
   6   2   7   21.11    1.69 
   6   2   7   17.15    2.61 
  -7  -2  -7   23.48    1.87 
   7   2   7   25.86    2.25 
   7   2   7   20.03    2.89 
   7   2   7   24.19    2.27 
  -8  -2  -7   14.65    1.92 
  -8  -2  -7   18.77    2.00 
   8   2   7   12.97    3.07 
   8   2   7   19.42    2.24 
   8   2   7   18.90    2.05 
   9  -3  -7    5.55    1.14 
   9  -3  -7    5.11    1.04 
   9  -3  -7    2.95    1.70 
  -9   3   7    2.55    1.20 
  -9   3   7    8.25    1.46 
   8  -3  -7   46.34    2.09 
   8  -3  -7   43.39    3.02 
   8  -3  -7   42.00    2.04 
  -8   3   7   45.36    2.22 
  -8   3   7   43.54    2.32 
   7  -3  -7   86.10    3.69 
   7  -3  -7   82.77    2.68 
   7  -3  -7   85.17    2.66 
  -7   3   7   80.71    2.82 
  -7   3   7   86.37    2.93 
   6  -3  -7   52.33    2.01 
   6  -3  -7   55.82    2.63 
   6  -3  -7   55.94    2.05 
  -6   3   7   56.86    2.19 
  -6   3   7   53.90    2.20 
  -6   3   7   53.33    1.73 
   5  -3  -7   69.45    2.21 
   5  -3  -7   70.01    2.30 
   5  -3  -7   71.39    1.58 
   5  -3  -7   76.00    2.91 
   5  -3  -7   71.91    2.27 
  -5   3   7   74.85    2.21 
  -5   3   7   71.18    2.41 
  -5   3   7   72.38    2.39 
  -5   3   7   73.21    2.02 
   4  -3  -7   17.10    1.24 
   4  -3  -7   15.60    1.56 
   4  -3  -7   17.88    1.28 
   4  -3  -7   19.90    1.14 
   4  -3  -7   17.47    1.26 
  -4   3   7   18.35    1.17 
  -4   3   7   17.46    1.14 
  -4   3   7   20.31    1.27 
   3  -3  -7    2.36    0.70 
   3  -3  -7    2.89    0.76 
   3  -3  -7    1.95    0.68 
   3  -3  -7    1.82    0.65 
   3  -3  -7    1.87    0.42 
  -3   3   7    2.61    0.65 
  -3   3   7    2.03    0.52 
  -3   3   7    2.33    0.72 
  -3   3   7    3.34    0.95 
  -3   3   7    2.72    0.70 
   2  -3  -7    8.54    0.66 
   2  -3  -7    9.33    0.96 
   2  -3  -7    9.29    0.89 
   2  -3  -7    8.11    0.92 
   2  -3  -7    6.62    0.88 
  -2   3   7    7.55    0.93 
  -2   3   7    8.35    1.04 
  -2   3   7    8.95    0.78 
  -2   3   7    8.67    0.71 
   1  -3  -7   41.27    1.56 
   1  -3  -7   36.96    1.56 
   1  -3  -7   37.01    1.57 
   1  -3  -7   37.45    1.74 
   1  -3  -7   38.82    1.30 
  -1   3   7   37.41    1.44 
  -1   3   7   38.15    1.16 
  -1   3   7   39.77    1.57 
  -1   3   7   37.78    1.23 
  -1   3   7   36.06    1.58 
  -1   3   7   38.17    1.70 
   0  -3  -7   64.57    2.00 
   0  -3  -7   65.44    2.09 
   0  -3  -7   67.32    2.16 
   0  -3  -7   65.71    2.15 
   0  -3  -7   66.81    2.25 
   0   3   7   64.44    2.06 
   0   3   7   63.74    1.46 
   0   3   7   62.90    2.03 
   0   3   7   65.64    2.22 
   0   3   7   59.95    2.15 
  -1  -3  -7   41.88    1.73 
  -1  -3  -7   41.16    1.76 
  -1  -3  -7   42.64    1.82 
  -1  -3  -7   38.91    1.81 
   1   3   7   42.16    1.80 
   1   3   7   36.58    2.64 
   1   3   7   43.34    1.92 
   1   3   7   42.65    1.69 
   1   3   7   39.28    1.81 
  -2  -3  -7  176.41    4.66 
  -2  -3  -7  190.99    4.70 
  -2  -3  -7  186.46    4.64 
  -2  -3  -7  187.06    4.82 
   2   3   7  185.76    4.59 
   2   3   7  182.15    5.84 
   2   3   7  194.12    4.77 
   2   3   7  187.74    4.66 
  -3  -3  -7   10.26    1.35 
  -3  -3  -7   14.07    1.30 
  -3  -3  -7   13.48    1.40 
  -3  -3  -7   14.63    1.23 
   3   3   7   13.65    1.37 
   3   3   7   11.61    1.90 
   3   3   7   12.73    1.30 
   3   3   7   13.28    1.12 
  -4  -3  -7    1.69    1.09 
  -4  -3  -7    1.10    1.11 
  -4  -3  -7    1.15    0.99 
   4   3   7    1.53    0.93 
   4   3   7   -1.06    1.61 
   4   3   7    0.99    1.03 
  -5  -3  -7    1.96    1.20 
  -5  -3  -7    2.36    1.31 
  -5  -3  -7    2.05    0.88 
   5   3   7   -1.08    1.71 
   5   3   7    1.33    1.01 
   5   3   7    0.72    1.13 
  -6  -3  -7   12.23    1.64 
   6   3   7    8.60    2.32 
   6   3   7   14.72    1.52 
  -7  -3  -7   16.81    1.91 
   7   3   7   16.87    1.87 
   7   3   7    9.38    2.60 
  -8  -3  -7   45.45    2.56 
   8   3   7   44.08    2.86 
   9  -4  -7   48.65    2.23 
   9  -4  -7   51.24    3.47 
   9  -4  -7   49.70    2.15 
  -9   4   7   50.67    2.52 
  -9   4   7   48.53    2.61 
   8  -4  -7   36.17    1.82 
   8  -4  -7   34.59    1.74 
   8  -4  -7   37.20    2.95 
  -8   4   7   35.31    2.20 
  -8   4   7   36.82    2.11 
   7  -4  -7   25.62    2.51 
   7  -4  -7   25.01    1.54 
   7  -4  -7   27.48    1.58 
  -7   4   7   26.21    1.84 
  -7   4   7   25.30    1.85 
   6  -4  -7   18.75    1.85 
   6  -4  -7   19.94    1.27 
   6  -4  -7   18.19    1.29 
  -6   4   7   19.58    1.21 
  -6   4   7   16.94    1.42 
  -6   4   7   21.00    1.60 
   5  -4  -7    4.44    0.78 
   5  -4  -7    4.81    1.11 
   5  -4  -7    5.78    0.85 
   5  -4  -7    4.16    0.78 
  -5   4   7    3.86    1.02 
  -5   4   7    6.28    1.08 
   4  -4  -7   -0.51    0.55 
   4  -4  -7   -0.01    0.72 
   4  -4  -7   -0.58    0.60 
   4  -4  -7    0.02    0.34 
   4  -4  -7   -0.09    0.29 
   4  -4  -7   -0.35    0.61 
   4  -4  -7   -0.07    0.61 
   4  -4  -7   -0.06    1.08 
  -4   4   7    0.54    0.85 
  -4   4   7   -0.60    0.76 
  -4   4   7    0.47    0.57 
   3  -4  -7   79.62    2.39 
   3  -4  -7   82.18    2.41 
   3  -4  -7   83.13    1.95 
   3  -4  -7   83.90    2.19 
   3  -4  -7   86.83    2.47 
   3  -4  -7   84.39    2.42 
  -3   4   7   82.57    2.33 
  -3   4   7   83.89    2.77 
  -3   4   7   83.21    2.12 
  -3   4   7   85.48    2.37 
  -3   4   7   85.99    2.55 
   2  -4  -7  215.87    4.94 
   2  -4  -7  220.55    5.01 
   2  -4  -7  206.39    4.95 
   2  -4  -7  220.08    4.66 
   2  -4  -7  214.40    5.01 
   2  -4  -7  210.39    4.73 
  -2   4   7  213.21    5.23 
  -2   4   7  215.36    4.73 
  -2   4   7  211.68    4.95 
  -2   4   7  217.48    4.98 
   1  -4  -7  103.69    2.82 
   1  -4  -7  101.61    2.89 
   1  -4  -7  102.27    2.66 
   1  -4  -7  104.51    2.83 
   1  -4  -7  103.48    2.86 
  -1   4   7  100.73    3.03 
  -1   4   7  103.52    2.73 
  -1   4   7  101.08    2.37 
  -1   4   7  102.85    2.69 
  -1   4   7  103.23    2.87 
   0  -4  -7  110.75    3.03 
   0  -4  -7  111.28    3.02 
   0  -4  -7  110.76    3.04 
   0  -4  -7  107.97    3.10 
   0  -4  -7  108.98    2.98 
   0   4   7  112.64    2.94 
   0   4   7  106.70    2.90 
   0   4   7  108.58    3.18 
   0   4   7  106.93    3.12 
   0   4   7  111.17    2.96 
  -1  -4  -7   47.92    1.86 
  -1  -4  -7   44.43    1.89 
  -1  -4  -7   48.63    1.91 
  -1  -4  -7   47.11    2.07 
  -1  -4  -7   44.39    1.96 
   1   4   7   47.78    1.74 
   1   4   7   42.68    1.87 
   1   4   7   47.00    2.05 
   1   4   7   44.16    1.75 
  -2  -4  -7    4.32    1.06 
  -2  -4  -7    5.23    0.97 
  -2  -4  -7    3.98    0.96 
  -2  -4  -7    4.39    1.07 
   2   4   7    4.45    0.88 
   2   4   7    5.03    1.04 
   2   4   7    4.32    1.38 
   2   4   7    4.34    1.11 
  -3  -4  -7    0.11    0.71 
  -3  -4  -7    0.65    1.09 
  -3  -4  -7    0.48    0.97 
   3   4   7    0.65    0.81 
   3   4   7    0.26    1.34 
   3   4   7   -1.37    0.92 
   3   4   7    0.37    1.06 
  -4  -4  -7   43.68    2.10 
  -4  -4  -7   50.93    2.28 
  -4  -4  -7   46.31    2.60 
   4   4   7   45.78    2.29 
   4   4   7   46.49    3.26 
   4   4   7   46.14    2.30 
  -5  -4  -7   32.28    2.18 
  -5  -4  -7   30.16    2.07 
  -5  -4  -7   31.66    2.49 
   5   4   7   30.31    1.86 
   5   4   7   27.00    3.07 
  -6  -4  -7   27.79    2.28 
  -6  -4  -7   24.20    2.25 
   6   4   7   30.99    2.24 
   6   4   7   20.76    2.75 
  -7  -4  -7   44.64    3.08 
  -7  -4  -7   46.70    2.79 
   7   4   7   43.48    2.41 
   7   4   7   30.13    3.54 
   8  -5  -7   44.36    1.79 
   8  -5  -7   42.98    1.89 
   8  -5  -7   41.79    3.15 
  -8   5   7   43.49    2.34 
  -8   5   7   44.65    2.37 
   7  -5  -7    0.18    0.68 
   7  -5  -7   -0.10    1.33 
   7  -5  -7    0.19    0.71 
  -7   5   7    0.36    1.04 
  -7   5   7   -0.32    1.00 
   6  -5  -7    8.13    1.58 
   6  -5  -7    6.93    0.86 
   6  -5  -7    6.88    0.82 
  -6   5   7    6.38    1.12 
  -6   5   7    6.67    1.17 
   5  -5  -7   18.38    1.23 
   5  -5  -7   20.18    1.26 
   5  -5  -7   19.04    1.90 
   5  -5  -7   20.39    1.17 
  -5   5   7   22.21    1.50 
  -5   5   7   20.42    1.57 
   4  -5  -7   55.05    1.63 
   4  -5  -7   54.53    1.82 
   4  -5  -7   54.40    1.82 
   4  -5  -7   57.08    1.82 
  -4   5   7   54.55    2.41 
  -4   5   7   53.45    2.11 
  -4   5   7   53.07    1.94 
   3  -5  -7   57.63    1.90 
   3  -5  -7   57.54    1.90 
   3  -5  -7   57.19    1.86 
   3  -5  -7   54.64    1.70 
   3  -5  -7   59.20    1.92 
  -3   5   7   56.72    2.38 
  -3   5   7   57.52    1.89 
  -3   5   7   55.24    2.08 
  -3   5   7   57.01    1.75 
   2  -5  -7   34.02    1.46 
   2  -5  -7   34.37    1.56 
   2  -5  -7   34.99    1.67 
   2  -5  -7   36.39    1.54 
   2  -5  -7   34.19    1.43 
   2  -5  -7   35.20    1.49 
  -2   5   7   33.59    1.45 
  -2   5   7   33.84    1.91 
  -2   5   7   32.34    1.28 
  -2   5   7   35.42    1.63 
   1  -5  -7    7.79    1.02 
   1  -5  -7    7.94    0.85 
   1  -5  -7    7.90    0.86 
   1  -5  -7    7.86    0.88 
   1  -5  -7    7.23    0.88 
  -1   5   7    7.75    0.91 
  -1   5   7    6.92    1.18 
  -1   5   7    6.81    0.71 
  -1   5   7    7.12    0.78 
  -1   5   7    8.26    0.93 
   0  -5  -7    4.60    0.98 
   0  -5  -7    5.74    0.88 
   0  -5  -7    4.36    0.91 
   0  -5  -7    5.56    0.85 
   0  -5  -7    4.60    0.94 
   0   5   7    5.63    0.85 
   0   5   7    5.66    0.80 
   0   5   7    4.33    0.93 
   0   5   7    5.54    1.12 
  -1  -5  -7    3.69    0.97 
  -1  -5  -7    3.93    0.91 
  -1  -5  -7    4.28    0.92 
  -1  -5  -7    4.58    1.00 
  -1  -5  -7    3.74    0.87 
   1   5   7    5.60    0.97 
   1   5   7    4.18    0.81 
   1   5   7    4.47    0.92 
   1   5   7    3.55    0.89 
  -2  -5  -7   38.57    1.87 
  -2  -5  -7   37.78    2.14 
  -2  -5  -7   35.85    1.93 
   2   5   7   36.28    1.66 
   2   5   7   32.73    2.02 
   2   5   7   35.26    1.85 
  -3  -5  -7   84.53    3.21 
  -3  -5  -7   79.54    2.86 
  -3  -5  -7   78.71    2.92 
   3   5   7   85.56    3.73 
   3   5   7   82.98    2.58 
   3   5   7   82.34    3.02 
   3   5   7   85.71    2.94 
  -4  -5  -7   38.45    2.28 
  -4  -5  -7   44.67    2.66 
  -4  -5  -7   41.74    2.23 
   4   5   7   44.37    3.00 
   4   5   7   46.97    2.30 
   4   5   7   44.97    1.89 
   4   5   7   41.96    2.36 
  -5  -5  -7   73.16    3.39 
  -5  -5  -7   70.33    2.90 
  -5  -5  -7   70.99    3.06 
   5   5   7   68.83    3.97 
   5   5   7   69.41    3.00 
   5   5   7   63.93    2.90 
   5   5   7   75.12    2.37 
  -6  -5  -7   14.67    2.06 
  -6  -5  -7   16.34    1.67 
   6   5   7   10.39    2.68 
   6   5   7   15.56    1.65 
  -7  -5  -7    2.94    1.72 
  -7  -5  -7    6.66    1.63 
   7   5   7    7.41    1.61 
   8  -6  -7   19.25    1.30 
   8  -6  -7   16.93    2.22 
  -8   6   7   18.38    1.73 
  -8   6   7   17.94    1.78 
   7  -6  -7   23.79    2.22 
   7  -6  -7   23.23    1.30 
  -7   6   7   22.43    1.77 
  -7   6   7   26.11    1.91 
   6  -6  -7   32.91    2.66 
   6  -6  -7   29.25    1.35 
   6  -6  -7   30.59    1.24 
  -6   6   7   31.47    1.71 
  -6   6   7   29.08    1.95 
   5  -6  -7   92.46    2.54 
   5  -6  -7   89.34    2.46 
   5  -6  -7   92.68    3.73 
   5  -6  -7   92.93    2.37 
  -5   6   7   89.35    2.91 
  -5   6   7   92.95    2.98 
   4  -6  -7   28.97    1.26 
   4  -6  -7   29.21    1.34 
   4  -6  -7   31.59    1.37 
  -4   6   7   28.10    1.69 
  -4   6   7   24.80    2.00 
  -4   6   7   30.65    1.53 
   3  -6  -7   98.13    2.68 
   3  -6  -7   98.87    2.73 
   3  -6  -7  100.57    2.67 
   3  -6  -7  101.03    2.67 
  -3   6   7   98.32    2.73 
  -3   6   7  101.02    2.96 
  -3   6   7   98.11    3.26 
   2  -6  -7   57.23    1.95 
   2  -6  -7   52.72    2.00 
   2  -6  -7   57.83    1.89 
   2  -6  -7   56.22    1.94 
  -2   6   7   59.16    2.46 
  -2   6   7   57.11    2.04 
  -2   6   7   56.75    1.76 
   1  -6  -7   52.49    1.99 
   1  -6  -7   52.00    2.03 
   1  -6  -7   51.42    1.80 
   1  -6  -7   50.35    1.84 
  -1   6   7   49.86    1.81 
  -1   6   7   51.86    2.33 
  -1   6   7   50.40    1.88 
   0  -6  -7   -0.18    0.85 
   0  -6  -7   -0.61    0.79 
   0  -6  -7    0.70    0.79 
   0  -6  -7    2.18    0.95 
   0   6   7   -0.28    0.74 
   0   6   7    0.47    0.70 
   0   6   7   -0.34    0.97 
  -1  -6  -7   75.16    2.55 
  -1  -6  -7   78.26    2.73 
  -1  -6  -7   82.17    2.87 
   1   6   7   76.80    2.55 
   1   6   7   76.61    2.86 
   1   6   7   78.05    2.32 
  -2  -6  -7   48.99    2.12 
  -2  -6  -7   46.61    2.18 
  -2  -6  -7   47.05    2.43 
   2   6   7   47.71    1.80 
   2   6   7   44.42    2.06 
   2   6   7   46.40    2.34 
   2   6   7   46.26    2.07 
  -3  -6  -7   29.02    1.89 
  -3  -6  -7   28.32    2.30 
  -3  -6  -7   28.29    1.95 
   3   6   7   30.28    1.72 
   3   6   7   28.77    2.10 
   3   6   7   29.58    1.40 
   3   6   7   28.59    1.86 
  -4  -6  -7   13.44    1.81 
  -4  -6  -7   19.24    1.68 
  -4  -6  -7   15.48    1.68 
   4   6   7   18.06    1.83 
   4   6   7   19.15    1.71 
   4   6   7   19.73    1.49 
   4   6   7   21.60    2.37 
  -5  -6  -7    2.90    1.23 
  -5  -6  -7    1.87    1.54 
  -5  -6  -7    1.49    1.01 
   5   6   7    4.07    1.06 
   5   6   7    2.91    1.42 
   5   6   7    3.77    1.32 
  -6  -6  -7    1.40    1.37 
  -6  -6  -7   -1.84    1.57 
   6   6   7   -1.81    1.37 
   6   6   7    1.00    1.00 
   7  -7  -7   56.52    3.41 
   7  -7  -7   57.09    1.81 
  -7   7   7   53.65    2.59 
  -7   7   7   58.06    2.68 
   6  -7  -7   30.96    2.69 
   6  -7  -7   31.68    1.28 
  -6   7   7   30.77    1.99 
  -6   7   7   30.33    1.89 
   5  -7  -7    7.00    0.74 
   5  -7  -7    7.68    1.53 
   5  -7  -7    7.94    0.75 
  -5   7   7    6.74    1.16 
  -5   7   7    8.73    1.24 
   4  -7  -7    0.66    0.47 
   4  -7  -7   -0.49    0.55 
   4  -7  -7   -0.39    0.58 
  -4   7   7    0.45    0.89 
  -4   7   7    1.12    0.91 
  -4   7   7   -0.54    0.76 
   3  -7  -7   19.17    1.21 
   3  -7  -7   18.63    1.17 
   3  -7  -7   18.64    1.10 
   3  -7  -7   15.09    1.40 
  -3   7   7   17.69    1.36 
  -3   7   7   18.30    1.55 
  -3   7   7   16.81    1.30 
   2  -7  -7   13.96    1.15 
   2  -7  -7   13.56    1.19 
   2  -7  -7   14.55    1.23 
   2  -7  -7   11.34    1.16 
  -2   7   7   14.77    1.21 
  -2   7   7   12.31    1.33 
   1  -7  -7   61.29    2.12 
   1  -7  -7   60.41    2.17 
   1  -7  -7   62.78    2.40 
  -1   7   7   58.28    2.08 
  -1   7   7   61.70    2.43 
   0  -7  -7   41.01    2.21 
   0  -7  -7   39.56    1.87 
   0  -7  -7   37.62    1.85 
   0   7   7   40.39    2.24 
   0   7   7   42.23    1.76 
  -1  -7  -7   50.13    2.47 
  -1  -7  -7   56.18    2.17 
  -1  -7  -7   53.82    2.21 
   1   7   7   52.62    2.30 
   1   7   7   54.92    1.94 
  -2  -7  -7   43.90    2.53 
  -2  -7  -7   44.90    2.11 
  -2  -7  -7   44.49    2.17 
   2   7   7   45.52    2.42 
   2   7   7   42.83    1.70 
   2   7   7   46.35    2.18 
  -3  -7  -7   21.00    2.01 
  -3  -7  -7   22.32    1.86 
  -3  -7  -7   23.14    1.81 
   3   7   7   21.76    1.72 
   3   7   7   24.34    1.47 
   3   7   7   25.21    1.98 
  -4  -7  -7    8.08    1.44 
  -4  -7  -7    6.77    1.75 
  -4  -7  -7    9.30    1.37 
   4   7   7    8.70    1.56 
   4   7   7    5.85    1.16 
  -5  -7  -7    2.12    1.09 
  -5  -7  -7   -0.29    1.58 
  -5  -7  -7    0.29    1.21 
   5   7   7    1.49    0.98 
   5   7   7    0.54    1.13 
   6  -8  -7    4.02    1.58 
   6  -8  -7    4.10    0.87 
   6  -8  -7    4.64    0.54 
  -6   8   7    6.47    1.24 
  -6   8   7    4.15    1.20 
   5  -8  -7    1.96    0.52 
   5  -8  -7    1.77    1.32 
   5  -8  -7    1.64    0.52 
  -5   8   7    1.99    1.06 
  -5   8   7    0.83    1.05 
   4  -8  -7   13.34    0.99 
   4  -8  -7   13.10    0.96 
  -4   8   7   11.49    1.31 
  -4   8   7   13.44    1.65 
   3  -8  -7   17.05    0.98 
   3  -8  -7   15.90    1.18 
  -3   8   7   18.79    1.43 
  -3   8   7   18.04    1.78 
   2  -8  -7   83.58    2.41 
   2  -8  -7   83.12    2.47 
   2  -8  -7   79.93    2.85 
  -2   8   7   77.23    2.56 
  -2   8   7   78.02    3.12 
   1  -8  -7   51.09    2.31 
   1  -8  -7   50.02    1.95 
   1  -8  -7   51.89    2.04 
  -1   8   7   51.52    2.33 
  -1   8   7   50.81    1.95 
   0  -8  -7    3.81    0.95 
   0  -8  -7    3.47    1.25 
   0  -8  -7    4.24    0.96 
   0   8   7    6.08    1.36 
   0   8   7    5.24    0.92 
  -1  -8  -7    9.92    1.49 
  -1  -8  -7    9.25    1.23 
  -1  -8  -7   10.71    1.26 
   1   8   7   10.05    0.98 
   1   8   7   11.09    1.56 
   1   8   7   11.53    1.49 
  -2  -8  -7    2.93    1.06 
  -2  -8  -7    2.70    1.41 
  -2  -8  -7    3.36    1.11 
   2   8   7    5.14    1.25 
   2   8   7    5.34    1.41 
  -3  -8  -7    1.85    1.54 
  -3  -8  -7    1.79    1.11 
  -3  -8  -7    2.43    1.13 
   3   8   7    0.76    1.09 
   3   8   7    2.75    1.32 
  -4  -8  -7    5.78    1.85 
  -4  -8  -7   12.67    1.72 
  -4  -8  -7    8.39    1.42 
   4   8   7   11.16    1.82 
   4   8   7    8.49    1.37 
   5  -9  -7   25.52    0.87 
   5  -9  -7   28.76    2.59 
   5  -9  -7   26.93    0.89 
  -5   9   7   25.41    1.93 
   4  -9  -7   11.27    0.91 
  -4   9   7   13.65    1.39 
  -4   9   7   11.51    1.69 
   3  -9  -7   60.18    1.99 
  -3   9   7   64.21    2.50 
  -3   9   7   68.11    2.99 
   2  -9  -7    4.91    0.85 
   2  -9  -7    5.73    0.80 
  -2   9   7    6.18    1.10 
  -2   9   7    7.36    1.48 
   1  -9  -7   14.55    1.35 
   1  -9  -7   13.99    1.18 
   1  -9  -7   13.65    1.61 
  -1   9   7   17.30    1.32 
  -1   9   7   18.03    1.81 
   0  -9  -7    1.59    0.91 
   0  -9  -7    0.53    0.89 
   0  -9  -7    0.37    1.13 
   0   9   7    0.78    0.78 
   0   9   7    0.60    1.21 
  -1  -9  -7   11.12    1.34 
  -1  -9  -7   10.85    1.33 
  -1  -9  -7   10.08    1.63 
   1   9   7   13.42    1.66 
   1   9   7   10.58    1.68 
  -2  -9  -7   25.60    2.01 
  -2  -9  -7   23.34    2.23 
  -2  -9  -7   26.63    2.10 
   2   9   7   30.78    2.36 
   2   9   7   25.32    2.13 
  -3  -9  -7   37.70    3.03 
  -3  -9  -7   43.52    2.36 
  -3  -9  -7   47.18    2.63 
   3   9   7   44.82    2.47 
   3   9   7   46.22    2.79 
   3 -10  -7    0.96    0.65 
  -3  10   7    1.24    0.97 
  -3  10   7    1.12    1.40 
   2 -10  -7    1.31    0.77 
  -2  10   7    1.97    1.38 
  -2  10   7    1.82    0.92 
   1 -10  -7   12.50    1.21 
  -1  10   7   14.51    1.83 
   0 -10  -7    9.30    1.59 
   0 -10  -7   11.75    1.28 
   0 -10  -7   11.64    1.27 
   0  10   7   13.31    1.78 
  -1 -10  -7    6.68    1.33 
  -1 -10  -7    1.35    1.47 
  -1 -10  -7    4.33    1.14 
   1  10   7    4.38    1.44 
   1  10   7    4.49    1.53 
   1  10  -8   12.61    1.73 
   1  10  -8   17.58    1.82 
  -1 -10   8   16.94    1.80 
  -1 -10   8   13.19    1.58 
  -1 -10   8   15.12    2.20 
   0  10  -8   27.32    2.23 
   0  10  -8   22.58    2.02 
   0 -10   8   24.49    2.09 
   0 -10   8   21.91    2.38 
   0 -10   8   21.86    1.88 
  -1  10  -8    4.46    1.36 
  -1  10  -8    8.71    1.58 
   1 -10   8    7.51    1.36 
   1 -10   8    6.57    1.74 
   1 -10   8    6.71    1.27 
   4   9  -8   21.84    2.13 
   4   9  -8   27.65    2.04 
  -4  -9   8   18.54    2.27 
  -4  -9   8   25.65    2.21 
  -4  -9   8   24.48    2.22 
   3   9  -8   19.39    1.72 
   3   9  -8   18.37    1.94 
  -3  -9   8   18.76    1.80 
  -3  -9   8   17.50    1.84 
  -3  -9   8   17.59    2.11 
   2   9  -8   70.83    3.08 
   2   9  -8   76.00    3.09 
  -2  -9   8   75.39    3.08 
  -2  -9   8   71.80    2.98 
  -2  -9   8   79.34    3.68 
   1   9  -8    4.88    1.26 
   1   9  -8    3.34    1.30 
  -1  -9   8    4.42    1.25 
  -1  -9   8    5.15    1.24 
  -1  -9   8    5.53    1.65 
   0   9  -8   22.99    1.96 
   0   9  -8   26.69    2.14 
   0  -9   8   26.15    1.93 
   0  -9   8   22.91    2.26 
   0  -9   8   23.60    2.06 
  -1   9  -8   -1.91    1.16 
  -1   9  -8    0.08    1.00 
   1  -9   8    0.01    0.97 
   1  -9   8    0.28    0.97 
   1  -9   8   -0.02    1.40 
  -2   9  -8   10.79    1.63 
  -2   9  -8   11.13    1.30 
   2  -9   8   11.33    1.78 
   2  -9   8    8.97    1.28 
   2  -9   8   10.70    1.35 
  -3   9  -8   11.24    1.67 
   3  -9   8   12.14    1.83 
   3  -9   8    9.38    1.40 
   3  -9   8   11.58    1.41 
  -4   9  -8   23.66    2.11 
  -4   9  -8   17.50    2.10 
   4  -9   8   19.38    1.77 
   4  -9   8    9.62    3.07 
   4  -9   8   15.49    1.52 
   5   8  -8   17.68    1.87 
   5   8  -8   18.76    1.84 
  -5  -8   8   17.77    2.05 
  -5  -8   8   20.46    1.90 
  -5  -8   8   18.47    1.97 
   4   8  -8   52.99    2.30 
   4   8  -8   51.72    2.82 
   4   8  -8   58.84    2.74 
  -4  -8   8   49.60    3.18 
  -4  -8   8   53.68    2.68 
  -4  -8   8   51.85    2.78 
   3   8  -8   12.66    1.40 
   3   8  -8    7.26    1.53 
   3   8  -8    9.94    1.46 
  -3  -8   8   12.53    1.56 
  -3  -8   8    9.77    1.48 
  -3  -8   8   10.71    1.72 
   2   8  -8    0.02    1.21 
   2   8  -8   -0.27    1.01 
   2   8  -8    2.65    1.14 
  -2  -8   8    1.21    1.10 
  -2  -8   8    1.56    1.16 
  -2  -8   8    1.72    1.35 
   1   8  -8    0.97    1.10 
   1   8  -8   -0.78    1.09 
  -1  -8   8   -0.08    1.00 
  -1  -8   8   -0.24    1.27 
  -1  -8   8    0.07    1.06 
   0   8  -8   30.03    1.95 
   0   8  -8   32.34    2.11 
   0  -8   8   31.55    2.17 
   0  -8   8   34.11    2.88 
   0  -8   8   30.22    2.10 
   0  -8   8   30.76    2.47 
  -1   8  -8   19.28    1.62 
  -1   8  -8   21.28    1.81 
   1  -8   8   18.64    1.56 
   1  -8   8   14.04    2.31 
   1  -8   8   19.69    1.72 
   1  -8   8   18.77    1.99 
  -2   8  -8   36.65    2.30 
  -2   8  -8   35.25    1.77 
   2  -8   8   32.34    1.94 
   2  -8   8   33.54    2.58 
   2  -8   8   30.75    1.93 
   2  -8   8   27.32    3.35 
  -3   8  -8   34.67    2.53 
  -3   8  -8   35.13    2.34 
   3  -8   8   34.15    1.98 
   3  -8   8   33.46    2.12 
   3  -8   8   27.53    3.65 
  -4   8  -8    7.27    1.54 
  -4   8  -8   11.05    1.81 
   4  -8   8    9.75    1.37 
   4  -8   8    3.39    2.27 
  -5   8  -8   12.97    1.98 
  -5   8  -8   17.33    1.82 
   5  -8   8   13.53    1.44 
   5  -8   8    9.87    2.68 
   6   7  -8   14.96    1.84 
  -6  -7   8   14.56    1.66 
  -6  -7   8   11.81    1.75 
   5   7  -8   50.64    2.69 
  -5  -7   8   46.76    2.70 
  -5  -7   8   49.87    2.82 
  -5  -7   8   50.48    2.61 
   4   7  -8   -0.27    0.94 
   4   7  -8    0.68    1.14 
  -4  -7   8    0.62    1.22 
  -4  -7   8   -0.07    0.88 
  -4  -7   8    0.46    1.14 
   3   7  -8    0.24    1.08 
   3   7  -8   -0.38    0.88 
  -3  -7   8    0.04    1.05 
  -3  -7   8   -0.04    1.25 
  -3  -7   8   -0.02    1.04 
   2   7  -8    1.49    1.02 
   2   7  -8    1.51    1.08 
  -2  -7   8    0.62    1.05 
  -2  -7   8    0.13    1.13 
  -2  -7   8   -0.94    0.97 
   1   7  -8   32.47    1.98 
   1   7  -8   30.55    1.93 
   1   7  -8   32.08    1.98 
  -1  -7   8   30.55    1.93 
  -1  -7   8   33.17    2.35 
  -1  -7   8   39.11    2.73 
  -1  -7   8   32.99    2.04 
   0   7  -8   47.74    2.14 
   0   7  -8   54.65    2.27 
   0   7  -8   55.95    2.32 
   0  -7   8   50.62    2.48 
   0  -7   8   50.42    2.31 
   0  -7   8   57.13    3.44 
   0  -7   8   51.66    2.78 
  -1   7  -8   74.35    2.71 
  -1   7  -8   73.70    2.56 
  -1   7  -8   78.08    2.76 
   1  -7   8   76.06    3.27 
   1  -7   8   82.05    2.88 
   1  -7   8   76.72    4.32 
   1  -7   8   79.24    2.80 
  -2   7  -8   40.11    2.37 
  -2   7  -8   44.66    2.36 
  -2   7  -8   46.90    1.85 
   2  -7   8   44.26    2.19 
   2  -7   8   43.45    2.13 
   2  -7   8   40.96    3.60 
  -3   7  -8   -0.18    1.17 
  -3   7  -8    0.22    0.94 
   3  -7   8   -1.38    1.86 
   3  -7   8    0.29    1.02 
   3  -7   8   -0.47    1.04 
  -4   7  -8   12.75    1.70 
  -4   7  -8   11.08    1.53 
   4  -7   8   14.01    1.42 
   4  -7   8    9.64    2.60 
  -5   7  -8    8.22    1.71 
  -5   7  -8    8.70    1.54 
   5  -7   8    5.73    2.34 
   5  -7   8    8.00    1.36 
   5  -7   8    9.03    1.30 
  -6   7  -8   11.80    1.63 
  -6   7  -8   15.71    2.01 
   6  -7   8   10.88    1.50 
   6  -7   8    7.89    2.72 
   6  -7   8   11.30    1.44 
   7   6  -8   28.05    2.34 
  -7  -6   8   27.88    2.08 
  -7  -6   8   23.22    2.39 
   6   6  -8    8.82    1.58 
   6   6  -8    1.41    1.42 
  -6  -6   8    8.64    1.60 
  -6  -6   8    4.85    1.51 
   5   6  -8    0.04    0.79 
   5   6  -8   -2.32    1.49 
   5   6  -8   -0.38    1.15 
  -5  -6   8   -0.46    1.19 
  -5  -6   8   -0.35    0.81 
  -5  -6   8    0.51    1.22 
   4   6  -8   10.45    1.49 
   4   6  -8   12.66    1.22 
  -4  -6   8   10.31    1.53 
  -4  -6   8   11.49    1.47 
  -4  -6   8   11.15    1.55 
   3   6  -8   73.20    2.83 
   3   6  -8   64.65    2.38 
  -3  -6   8   69.64    2.84 
  -3  -6   8   67.63    2.86 
  -3  -6   8   66.02    2.05 
  -3  -6   8   68.79    2.55 
   2   6  -8   44.01    2.05 
   2   6  -8   52.25    2.33 
  -2  -6   8   45.35    2.56 
  -2  -6   8   47.86    2.24 
  -2  -6   8   45.52    2.29 
   1   6  -8   15.26    1.40 
   1   6  -8   15.32    1.45 
  -1  -6   8   19.09    2.41 
  -1  -6   8   13.69    1.54 
  -1  -6   8   15.01    1.43 
  -1  -6   8   13.76    1.46 
   0   6  -8   83.80    2.70 
   0   6  -8   84.09    2.87 
   0   6  -8   80.09    2.84 
   0  -6   8   83.75    3.90 
   0  -6   8   75.65    2.85 
   0  -6   8   84.81    3.18 
   0  -6   8   78.98    2.81 
  -1   6  -8   10.24    1.37 
  -1   6  -8   12.99    1.16 
  -1   6  -8   10.68    1.25 
   1  -6   8   11.17    1.36 
   1  -6   8    8.88    2.00 
   1  -6   8   13.81    1.36 
  -2   6  -8    0.77    1.14 
  -2   6  -8    1.06    1.06 
  -2   6  -8   -0.75    0.84 
  -2   6  -8    0.99    0.78 
   2  -6   8    1.15    0.97 
   2  -6   8    0.70    0.94 
   2  -6   8   -2.36    1.67 
  -3   6  -8    1.17    0.68 
  -3   6  -8    0.90    1.13 
  -3   6  -8   -0.34    1.09 
   3  -6   8   -1.94    1.70 
   3  -6   8    0.15    1.05 
   3  -6   8    0.65    0.94 
  -4   6  -8   30.08    2.07 
  -4   6  -8   28.00    2.21 
   4  -6   8   23.93    3.01 
   4  -6   8   30.57    1.94 
   4  -6   8   28.28    2.00 
  -5   6  -8   31.00    2.10 
  -5   6  -8   29.56    2.12 
   5  -6   8   27.25    3.78 
   5  -6   8   35.21    2.07 
   5  -6   8   35.32    2.22 
  -6   6  -8   45.50    2.48 
  -6   6  -8   46.87    2.87 
   6  -6   8   45.39    2.35 
   6  -6   8   42.53    2.33 
   6  -6   8   39.27    4.44 
   8   5  -8   11.33    1.58 
   8   5  -8   10.83    1.85 
  -8  -5   8   12.82    1.85 
   7   5  -8    1.62    1.33 
   7   5  -8    0.36    1.27 
  -7  -5   8    1.20    1.35 
  -7  -5   8   -1.02    1.18 
   6   5  -8    2.68    1.26 
   6   5  -8    5.44    1.36 
  -6  -5   8    3.86    1.31 
  -6  -5   8    6.92    1.45 
   5   5  -8    9.82    1.30 
   5   5  -8   11.66    1.02 
   5   5  -8   13.22    1.41 
  -5  -5   8   12.35    1.29 
  -5  -5   8   12.30    1.43 
  -5  -5   8   10.03    1.40 
  -5  -5   8   10.83    1.52 
   4   5  -8  125.39    3.67 
   4   5  -8  125.53    3.58 
   4   5  -8  125.36    3.82 
   4   5  -8  129.45    3.37 
  -4  -5   8  131.43    4.01 
  -4  -5   8  122.77    3.10 
  -4  -5   8  129.23    3.74 
  -4  -5   8  122.70    3.81 
   3   5  -8   45.20    2.09 
   3   5  -8   42.84    1.76 
   3   5  -8   46.56    2.29 
   3   5  -8   49.46    1.91 
  -3  -5   8   43.31    2.16 
  -3  -5   8   46.95    2.02 
  -3  -5   8   45.40    2.09 
  -3  -5   8   44.23    1.64 
   2   5  -8  106.24    3.14 
   2   5  -8  100.83    3.02 
   2   5  -8  106.43    3.35 
   2   5  -8  100.14    2.50 
  -2  -5   8  103.40    3.31 
  -2  -5   8   92.45    3.25 
  -2  -5   8  101.68    3.22 
   1   5  -8   27.19    1.70 
   1   5  -8   24.49    1.56 
   1   5  -8   23.83    1.73 
  -1  -5   8   25.79    1.81 
  -1  -5   8   23.36    2.62 
  -1  -5   8   27.55    1.84 
  -1  -5   8   25.63    1.72 
   0   5  -8    5.86    0.98 
   0   5  -8    7.30    1.16 
   0   5  -8    7.82    1.01 
   0  -5   8    5.80    1.75 
   0  -5   8    6.60    1.12 
   0  -5   8    6.29    1.21 
   0  -5   8    7.43    1.20 
  -1   5  -8    5.58    1.10 
  -1   5  -8    4.89    1.08 
  -1   5  -8    5.24    1.14 
   1  -5   8    4.93    1.13 
   1  -5   8    4.63    1.76 
  -2   5  -8   68.14    2.58 
  -2   5  -8   68.86    2.14 
  -2   5  -8   67.17    2.46 
  -2   5  -8   68.35    2.70 
   2  -5   8   69.64    2.58 
   2  -5   8   70.60    2.66 
   2  -5   8   67.53    4.10 
  -3   5  -8   27.56    1.21 
  -3   5  -8   26.38    1.90 
  -3   5  -8   26.32    1.75 
  -3   5  -8   25.81    1.88 
   3  -5   8   24.31    3.22 
   3  -5   8   26.27    1.76 
   3  -5   8   26.65    1.83 
  -4   5  -8   18.82    1.60 
  -4   5  -8   17.75    1.47 
  -4   5  -8   18.51    1.72 
   4  -5   8   14.11    2.52 
   4  -5   8   19.03    1.72 
   4  -5   8   19.05    1.67 
  -5   5  -8   55.29    2.53 
  -5   5  -8   55.97    2.55 
   5  -5   8   57.80    2.54 
   5  -5   8   53.23    4.35 
   5  -5   8   54.96    2.45 
  -6   5  -8   13.04    1.84 
  -6   5  -8   16.19    1.62 
   6  -5   8   16.35    1.59 
   6  -5   8   14.82    1.72 
   6  -5   8   12.80    2.80 
  -7   5  -8    1.95    1.20 
  -7   5  -8    3.63    1.57 
   7  -5   8   -1.45    2.25 
   7  -5   8    0.75    1.14 
   7  -5   8    2.38    1.32 
   8   4  -8   18.80    2.09 
   8   4  -8   29.24    2.35 
  -8  -4   8   22.31    2.13 
   7   4  -8   10.84    1.41 
   7   4  -8    8.70    1.58 
  -7  -4   8   10.95    1.62 
  -7  -4   8    8.96    1.46 
   6   4  -8   61.18    2.49 
   6   4  -8   62.80    2.84 
   6   4  -8   68.15    2.83 
  -6  -4   8   66.82    2.91 
  -6  -4   8   61.84    2.68 
  -6  -4   8   68.04    2.01 
   5   4  -8   66.74    2.62 
   5   4  -8   69.31    2.52 
   5   4  -8   63.73    2.71 
   5   4  -8   67.69    2.11 
  -5  -4   8   67.07    2.62 
  -5  -4   8   69.98    2.04 
  -5  -4   8   65.57    2.65 
  -5  -4   8   66.49    2.78 
   4   4  -8   23.22    1.48 
   4   4  -8   23.28    1.40 
   4   4  -8   22.98    1.65 
   4   4  -8   26.60    1.93 
  -4  -4   8   25.56    1.75 
  -4  -4   8   23.22    1.87 
  -4  -4   8   22.97    1.25 
  -4  -4   8   23.69    1.78 
   3   4  -8   11.32    1.24 
   3   4  -8   10.48    1.21 
   3   4  -8   11.89    0.85 
   3   4  -8   10.86    1.01 
   3   4  -8   11.50    1.12 
  -3  -4   8   10.63    1.14 
  -3  -4   8    9.75    1.10 
  -3  -4   8   11.64    1.42 
  -3  -4   8   11.27    0.93 
  -3  -4   8   11.03    1.39 
   2   4  -8    4.72    0.67 
   2   4  -8    4.64    0.92 
   2   4  -8    6.23    1.06 
   2   4  -8    5.07    0.39 
   2   4  -8    5.66    0.95 
  -2  -4   8    4.25    0.97 
  -2  -4   8    4.39    1.08 
  -2  -4   8    6.41    0.84 
  -2  -4   8    5.89    1.17 
  -2  -4   8    4.45    1.00 
   1   4  -8    6.35    0.96 
   1   4  -8    6.22    1.03 
   1   4  -8    6.37    1.02 
   1   4  -8    5.68    0.51 
  -1  -4   8    6.04    1.01 
  -1  -4   8    5.27    1.07 
  -1  -4   8    6.67    1.48 
  -1  -4   8    7.46    1.04 
  -1  -4   8    5.34    0.95 
   0   4  -8    1.52    0.77 
   0   4  -8    2.32    0.97 
   0   4  -8   -0.22    0.78 
   0  -4   8    1.96    1.45 
   0  -4   8    0.08    0.95 
   0  -4   8    0.20    0.82 
  -1   4  -8  193.66    5.01 
  -1   4  -8  192.91    4.83 
  -1   4  -8  195.44    4.95 
  -1   4  -8  189.19    4.83 
   1  -4   8  190.55    5.04 
   1  -4   8  204.92    4.99 
   1  -4   8  194.32    6.46 
   1  -4   8  200.21    4.94 
  -2   4  -8   70.55    2.40 
  -2   4  -8   69.51    2.50 
  -2   4  -8   68.28    1.81 
  -2   4  -8   69.52    2.58 
  -2   4  -8   67.87    2.59 
   2  -4   8   68.14    1.53 
   2  -4   8   62.67    2.57 
   2  -4   8   70.97    4.10 
   2  -4   8   75.18    2.45 
   2  -4   8   68.26    3.38 
  -3   4  -8   78.30    2.82 
  -3   4  -8   77.38    2.03 
  -3   4  -8   80.15    2.84 
  -3   4  -8   78.07    2.79 
   3  -4   8   81.81    2.88 
   3  -4   8   74.16    2.73 
   3  -4   8   77.99    4.42 
  -4   4  -8   51.16    2.31 
  -4   4  -8   53.28    2.38 
  -4   4  -8   48.72    2.43 
   4  -4   8   47.96    2.31 
   4  -4   8   51.22    4.02 
   4  -4   8   50.67    2.28 
  -5   4  -8   -0.15    0.99 
  -5   4  -8   -0.96    0.94 
  -5   4  -8    0.14    1.18 
   5  -4   8   -0.33    1.03 
   5  -4   8   -0.93    1.87 
   5  -4   8    0.05    0.98 
  -6   4  -8   -0.57    1.29 
  -6   4  -8    1.36    1.11 
   6  -4   8   -1.98    2.03 
   6  -4   8   -0.55    1.07 
   6  -4   8    1.48    1.11 
  -7   4  -8   18.49    2.04 
  -7   4  -8   18.91    1.78 
   7  -4   8   20.16    1.92 
   7  -4   8   16.67    3.09 
   7  -4   8   17.76    1.79 
   8   3  -8   24.77    2.20 
   8   3  -8   17.70    1.79 
   8   3  -8   18.03    2.05 
  -8  -3   8   21.44    1.75 
  -8  -3   8   20.78    1.75 
   7   3  -8   71.80    3.18 
   7   3  -8   63.59    2.81 
   7   3  -8   72.45    3.04 
  -7  -3   8   69.34    2.94 
  -7  -3   8   70.35    2.22 
  -7  -3   8   70.29    3.12 
   6   3  -8   29.82    1.97 
   6   3  -8   26.17    2.05 
   6   3  -8   30.79    2.15 
  -6  -3   8   28.45    2.06 
  -6  -3   8   28.86    1.42 
  -6  -3   8   27.27    1.84 
   5   3  -8   63.22    2.55 
   5   3  -8   60.13    2.50 
   5   3  -8   62.33    1.94 
   5   3  -8   62.50    2.46 
  -5  -3   8   63.09    2.63 
  -5  -3   8   64.96    2.50 
  -5  -3   8   60.70    2.34 
  -5  -3   8   60.93    1.94 
   4   3  -8   31.81    1.96 
   4   3  -8   31.32    1.62 
   4   3  -8   31.61    1.83 
   4   3  -8   31.21    1.48 
  -4  -3   8   30.30    1.94 
  -4  -3   8   30.52    1.62 
  -4  -3   8   27.75    1.78 
  -4  -3   8   31.49    1.37 
  -4  -3   8   35.45    1.41 
   3   3  -8   26.02    1.67 
   3   3  -8   25.64    1.55 
   3   3  -8   25.60    1.50 
   3   3  -8   25.59    1.38 
  -3  -3   8   24.24    1.66 
  -3  -3   8   24.00    1.45 
  -3  -3   8   23.83    1.73 
  -3  -3   8   22.77    1.26 
   2   3  -8   37.15    1.12 
   2   3  -8   39.80    2.00 
   2   3  -8   42.87    1.90 
   2   3  -8   36.84    1.55 
  -2  -3   8   40.93    2.04 
  -2  -3   8   36.58    1.70 
  -2  -3   8   39.26    1.82 
  -2  -3   8   42.40    1.91 
   1   3  -8   35.32    1.91 
   1   3  -8   39.92    1.83 
   1   3  -8   35.93    1.34 
  -1  -3   8   38.32    1.34 
  -1  -3   8   32.95    1.61 
  -1  -3   8   38.36    1.62 
  -1  -3   8   36.89    1.71 
  -1  -3   8   37.29    1.94 
  -1  -3   8   36.24    2.73 
   0   3  -8  124.12    2.94 
   0   3  -8  124.49    3.21 
   0   3  -8  122.36    3.52 
   0   3  -8  126.72    2.94 
   0   3  -8  126.03    3.50 
   0  -3   8  129.31    4.79 
   0  -3   8  127.46    3.14 
   0  -3   8  128.37    3.52 
   0  -3   8  124.72    3.53 
  -1   3  -8   48.99    1.91 
  -1   3  -8   49.85    2.02 
  -1   3  -8   51.78    2.19 
  -1   3  -8   47.36    1.50 
   1  -3   8   47.03    1.87 
   1  -3   8   47.18    1.92 
   1  -3   8   49.72    1.18 
   1  -3   8   52.90    2.23 
   1  -3   8   52.39    3.46 
  -2   3  -8   19.93    1.47 
  -2   3  -8   18.12    1.54 
  -2   3  -8   22.18    1.66 
  -2   3  -8   18.13    1.06 
   2  -3   8   19.20    1.49 
   2  -3   8   19.97    1.67 
   2  -3   8   20.26    0.89 
   2  -3   8   22.07    3.08 
   2  -3   8   19.41    1.57 
  -3   3  -8    1.15    0.97 
  -3   3  -8    0.60    0.44 
  -3   3  -8    1.12    0.99 
  -3   3  -8   -0.45    0.65 
  -3   3  -8    1.29    0.86 
   3  -3   8   -0.09    1.00 
   3  -3   8    1.44    0.97 
   3  -3   8   -1.18    1.71 
  -4   3  -8    0.55    1.04 
  -4   3  -8    1.79    1.05 
   4  -3   8    0.80    1.05 
   4  -3   8    1.62    1.87 
   4  -3   8    1.70    1.02 
  -5   3  -8    8.98    1.38 
  -5   3  -8    8.05    1.32 
  -5   3  -8    9.14    1.44 
   5  -3   8    9.06    1.43 
   5  -3   8    8.74    1.30 
   5  -3   8    6.87    2.25 
  -6   3  -8   37.80    2.16 
  -6   3  -8   42.19    2.55 
  -6   3  -8   38.57    2.43 
   6  -3   8   42.35    2.31 
   6  -3   8   39.06    2.23 
   6  -3   8   41.99    2.39 
   6  -3   8   37.93    4.07 
  -7   3  -8   27.18    2.41 
  -7   3  -8   22.73    1.87 
   7  -3   8   26.73    2.11 
   7  -3   8   27.94    2.23 
   7  -3   8   21.94    3.30 
   7  -3   8   23.12    2.58 
   9   2  -8   63.75    2.94 
   9   2  -8   67.99    3.10 
   9   2  -8   65.43    3.61 
  -9  -2   8   63.47    2.98 
   8   2  -8   32.43    2.00 
   8   2  -8   26.03    2.59 
   8   2  -8   34.28    2.19 
  -8  -2   8   31.27    2.20 
  -8  -2   8   28.39    2.18 
  -8  -2   8   30.84    1.69 
   7   2  -8    5.03    1.22 
   7   2  -8    5.67    1.30 
   7   2  -8    4.08    1.40 
  -7  -2   8    5.40    1.27 
  -7  -2   8    5.12    0.87 
  -7  -2   8    5.05    1.10 
   6   2  -8    1.24    1.12 
   6   2  -8    1.49    1.09 
   6   2  -8    2.60    1.07 
  -6  -2   8    1.54    0.81 
  -6  -2   8    1.37    1.10 
  -6  -2   8    0.57    0.83 
   5   2  -8   18.64    1.08 
   5   2  -8   17.38    1.57 
   5   2  -8   18.33    1.60 
   5   2  -8   15.94    1.53 
  -5  -2   8   15.91    1.51 
  -5  -2   8   20.45    1.23 
  -5  -2   8   17.68    1.36 
  -5  -2   8   18.28    1.51 
   4   2  -8   32.63    1.73 
   4   2  -8   35.60    1.99 
   4   2  -8   36.13    1.82 
   4   2  -8   37.55    1.88 
  -4  -2   8   35.45    1.49 
  -4  -2   8   34.98    1.74 
  -4  -2   8   34.16    1.11 
  -4  -2   8   37.46    1.50 
  -4  -2   8   36.97    1.84 
   3   2  -8  126.94    3.58 
   3   2  -8  129.89    3.54 
   3   2  -8  133.32    3.50 
   3   2  -8  129.57    3.04 
   3   2  -8  130.42    3.73 
  -3  -2   8  127.45    3.55 
  -3  -2   8  127.01    2.82 
  -3  -2   8  124.64    3.59 
  -3  -2   8  125.10    3.18 
  -3  -2   8  129.00    3.26 
   2   2  -8  133.16    3.59 
   2   2  -8  131.40    3.42 
   2   2  -8  128.79    2.98 
   2   2  -8  134.29    3.64 
   2   2  -8  128.10    3.72 
  -2  -2   8  138.79    3.65 
  -2  -2   8  132.66    3.30 
  -2  -2   8  130.07    2.93 
  -2  -2   8  130.32    3.64 
   1   2  -8   43.94    1.80 
   1   2  -8   49.16    1.96 
   1   2  -8   48.69    1.71 
   1   2  -8   45.19    2.09 
  -1  -2   8   46.52    1.78 
  -1  -2   8   46.63    1.98 
  -1  -2   8   48.42    1.71 
  -1  -2   8   48.31    2.11 
  -1  -2   8   45.84    1.40 
  -1  -2   8   51.43    3.03 
   0   2  -8   74.38    2.50 
   0   2  -8   76.69    2.13 
   0   2  -8   77.10    2.51 
   0  -2   8   78.67    3.50 
   0  -2   8   76.90    2.43 
   0  -2   8   74.81    2.65 
   0  -2   8   73.95    2.49 
   0  -2   8   75.05    1.82 
  -1   2  -8   79.32    2.31 
  -1   2  -8   79.34    2.49 
  -1   2  -8   78.77    2.73 
   1  -2   8   79.31    1.98 
   1  -2   8   81.92    2.64 
   1  -2   8   81.59    2.54 
   1  -2   8   77.57    3.97 
   1  -2   8   82.57    2.61 
  -2   2  -8   24.97    1.59 
  -2   2  -8   23.55    1.34 
  -2   2  -8   24.39    1.55 
  -2   2  -8   23.70    1.48 
   2  -2   8   21.65    1.61 
   2  -2   8   25.84    1.12 
   2  -2   8   24.01    1.38 
   2  -2   8   27.45    3.12 
   2  -2   8   24.06    1.50 
  -3   2  -8    1.78    1.05 
  -3   2  -8    2.18    0.95 
  -3   2  -8    3.20    0.97 
   3  -2   8    2.91    0.98 
   3  -2   8    5.05    0.99 
   3  -2   8    2.90    1.53 
   3  -2   8    3.61    1.04 
  -4   2  -8   43.95    2.14 
  -4   2  -8   44.87    2.27 
   4  -2   8   43.58    2.26 
   4  -2   8   42.34    3.71 
   4  -2   8   39.41    2.06 
  -5   2  -8   94.54    3.17 
  -5   2  -8   92.44    3.29 
   5  -2   8   96.11    3.21 
   5  -2   8   91.59    3.33 
   5  -2   8   93.78    5.03 
  -6   2  -8   29.01    2.15 
  -6   2  -8   28.11    2.24 
   6  -2   8   31.48    2.07 
   6  -2   8   28.80    3.16 
   6  -2   8   31.53    2.09 
   6  -2   8   33.40    2.25 
  -7   2  -8   26.37    2.13 
  -7   2  -8   30.84    2.45 
   7  -2   8   33.49    2.37 
   7  -2   8   23.55    3.33 
   7  -2   8   27.59    2.15 
   7  -2   8   32.42    2.29 
  -8   2  -8   13.80    1.79 
   8  -2   8   11.98    2.66 
   8  -2   8   15.56    1.85 
   8  -2   8   11.89    1.81 
   8  -2   8   15.20    1.77 
   9   1  -8    5.69    1.76 
   9   1  -8    7.02    1.41 
   9   1  -8    6.39    1.46 
  -9  -1   8    7.30    1.17 
  -9  -1   8    7.04    1.45 
   8   1  -8    1.56    1.10 
   8   1  -8   -1.13    1.29 
   8   1  -8   -0.72    1.08 
  -8  -1   8   -0.82    1.03 
  -8  -1   8    1.78    0.86 
  -8  -1   8    1.36    1.18 
   7   1  -8   -0.11    0.78 
   7   1  -8    0.45    1.27 
   7   1  -8    0.85    1.01 
  -7  -1   8   -1.13    1.07 
  -7  -1   8   -0.17    0.95 
  -7  -1   8    0.59    0.77 
   6   1  -8   36.23    1.97 
   6   1  -8   39.77    2.38 
   6   1  -8   36.27    1.85 
  -6  -1   8   35.87    2.00 
  -6  -1   8   38.42    1.62 
  -6  -1   8   35.93    1.71 
   5   1  -8   34.79    1.88 
   5   1  -8   38.28    2.00 
   5   1  -8   37.21    2.16 
  -5  -1   8   35.11    1.58 
  -5  -1   8   36.29    1.79 
  -5  -1   8   37.18    1.47 
  -5  -1   8   39.07    1.16 
  -5  -1   8   37.18    1.96 
   4   1  -8   63.19    2.27 
   4   1  -8   65.67    2.36 
   4   1  -8   58.31    2.22 
   4   1  -8   57.15    2.41 
  -4  -1   8   62.69    1.75 
  -4  -1   8   60.47    2.22 
  -4  -1   8   57.23    2.33 
  -4  -1   8   63.10    1.33 
  -4  -1   8   58.91    2.00 
  -4  -1   8   62.82    1.33 
   3   1  -8  178.58    4.57 
   3   1  -8  174.57    4.51 
   3   1  -8  187.59    4.67 
   3   1  -8  172.96    4.45 
  -3  -1   8  179.35    4.54 
  -3  -1   8  172.94    4.45 
  -3  -1   8  182.96    3.92 
  -3  -1   8  179.74    4.26 
   2   1  -8   -0.03    0.82 
   2   1  -8    1.78    0.81 
   2   1  -8    1.63    0.53 
   2   1  -8    0.47    0.89 
   2   1  -8    1.76    0.74 
  -2  -1   8    1.05    0.80 
  -2  -1   8    0.15    0.87 
  -2  -1   8    0.94    0.44 
   1   1  -8   35.39    1.52 
   1   1  -8   33.41    1.71 
   1   1  -8   33.28    1.61 
  -1  -1   8   36.48    1.70 
  -1  -1   8   32.11    1.19 
   0   1  -8   19.03    1.44 
   0   1  -8   20.57    1.34 
   0   1  -8   20.20    1.00 
   0   1  -8   22.65    1.24 
   0  -1   8   21.13    1.42 
   0  -1   8   19.81    0.99 
   0  -1   8   20.11    2.51 
   0  -1   8   21.73    1.49 
   0  -1   8   20.48    1.56 
  -1   1  -8   18.11    1.36 
  -1   1  -8   17.91    1.52 
  -1   1  -8   14.67    1.26 
  -1   1  -8   16.51    1.13 
  -1   1  -8   18.07    1.45 
   1  -1   8   16.00    1.16 
   1  -1   8   18.06    1.45 
   1  -1   8   14.59    1.35 
   1  -1   8   19.12    2.18 
   1  -1   8   15.51    0.95 
  -2   1  -8  114.83    3.29 
  -2   1  -8  114.76    3.44 
  -2   1  -8  109.44    3.05 
   2  -1   8  109.62    2.83 
   2  -1   8  111.66    3.27 
   2  -1   8  113.73    3.44 
   2  -1   8  114.39    3.31 
   2  -1   8  112.01    4.83 
  -3   1  -8   90.13    3.08 
  -3   1  -8   87.20    2.06 
  -3   1  -8   87.52    2.79 
  -3   1  -8   85.85    2.76 
   3  -1   8   89.81    2.90 
   3  -1   8   91.04    2.94 
   3  -1   8   89.46    2.80 
   3  -1   8   90.04    4.62 
  -4   1  -8   45.26    2.17 
  -4   1  -8   48.54    2.34 
  -4   1  -8   48.94    2.18 
   4  -1   8   50.53    2.35 
   4  -1   8   41.22    2.11 
   4  -1   8   44.78    3.84 
  -5   1  -8   30.70    2.06 
  -5   1  -8   32.72    2.13 
   5  -1   8   34.23    2.01 
   5  -1   8   26.85    3.54 
   5  -1   8   35.50    2.19 
  -6   1  -8    2.17    1.30 
  -6   1  -8    5.43    1.35 
   6  -1   8    5.84    1.28 
   6  -1   8    2.89    2.16 
   6  -1   8    4.93    1.28 
   6  -1   8    2.53    1.21 
  -7   1  -8   -0.97    1.32 
  -7   1  -8   -0.67    1.18 
   7  -1   8    1.15    1.21 
   7  -1   8    0.62    1.25 
   7  -1   8    0.13    1.15 
   7  -1   8   -2.71    2.11 
  -8   1  -8    3.06    1.62 
   8  -1   8    2.81    1.32 
   8  -1   8   -1.85    2.30 
   8  -1   8    2.20    1.39 
   8  -1   8    2.69    1.47 
   9   0  -8    0.08    1.09 
   9   0  -8    1.24    1.15 
   9   0  -8   -1.32    1.43 
  -9   0   8    0.22    0.94 
  -9   0   8    0.13    1.25 
   8   0  -8   21.90    2.21 
   8   0  -8   24.45    1.88 
   8   0  -8   26.42    1.96 
  -8   0   8   24.34    1.63 
  -8   0   8   21.26    1.82 
   7   0  -8   60.35    2.47 
   7   0  -8   63.11    3.12 
   7   0  -8   57.49    2.51 
  -7   0   8   56.38    2.51 
  -7   0   8   60.32    2.21 
  -7   0   8   61.79    2.36 
   6   0  -8   32.35    2.33 
   6   0  -8   32.69    1.90 
   6   0  -8   35.39    1.88 
  -6   0   8   36.23    1.91 
  -6   0   8   35.38    1.67 
  -6   0   8   33.02    1.71 
   5   0  -8  151.81    4.43 
   5   0  -8  151.09    4.10 
   5   0  -8  148.73    4.00 
  -5   0   8  148.97    3.98 
  -5   0   8  144.45    3.06 
  -5   0   8  147.35    4.03 
  -5   0   8  143.18    3.75 
   4   0  -8   57.01    2.13 
   4   0  -8   63.68    2.54 
   4   0  -8   61.02    2.25 
   4   0  -8   57.38    2.28 
  -4   0   8   63.62    2.29 
  -4   0   8   55.89    2.01 
  -4   0   8   60.16    2.11 
   3   0  -8    3.99    0.84 
   3   0  -8    4.45    0.94 
   3   0  -8    3.12    0.92 
   3   0  -8    3.59    0.96 
  -3   0   8    4.19    0.97 
  -3   0   8    3.53    0.82 
  -3   0   8    3.19    0.84 
   2   0  -8    1.28    0.83 
   2   0  -8    1.90    0.73 
   2   0  -8    2.02    0.79 
   2   0  -8    1.32    0.91 
  -2   0   8    1.67    0.69 
  -2   0   8    1.25    0.26 
  -2   0   8    0.84    0.30 
  -2   0   8    0.76    0.67 
  -2   0   8    0.47    0.73 
  -2   0   8    1.41    0.77 
   1   0  -8   57.31    2.11 
   1   0  -8   59.77    2.25 
   1   0  -8   57.84    2.16 
   1   0  -8   61.49    1.84 
   1   0  -8   60.41    1.38 
  -1   0   8   60.21    2.12 
  -1   0   8   60.81    1.70 
  -1   0   8   63.81    2.16 
  -1   0   8   59.08    1.82 
   0   0  -8   45.66    1.84 
   0   0  -8   41.97    1.71 
   0   0  -8   44.63    2.00 
   0   0  -8   46.12    1.36 
   0   0   8   39.76    2.94 
   0   0   8   42.46    1.85 
   0   0   8   45.14    1.49 
   0   0   8   45.71    2.00 
  -1   0  -8   44.63    1.75 
  -1   0  -8   46.63    1.62 
  -1   0  -8   44.43    2.06 
  -1   0  -8   46.60    1.82 
   1   0   8   45.35    1.87 
   1   0   8   46.64    2.86 
   1   0   8   46.69    1.95 
   1   0   8   47.33    1.64 
   1   0   8   46.70    2.00 
   1   0   8   45.99    2.06 
  -2   0  -8  151.93    3.56 
  -2   0  -8  161.56    4.10 
  -2   0  -8  159.38    3.95 
  -2   0  -8  153.97    4.12 
  -2   0  -8  153.67    4.19 
   2   0   8  149.54    4.16 
   2   0   8  160.17    4.09 
   2   0   8  149.88    4.09 
   2   0   8  159.12    5.73 
   2   0   8  156.47    3.53 
   2   0   8  162.84    3.80 
  -3   0  -8   29.10    1.92 
  -3   0  -8   27.72    1.54 
  -3   0  -8   27.49    0.98 
  -3   0  -8   26.22    1.63 
   3   0   8   25.33    1.85 
   3   0   8   28.62    1.73 
   3   0   8   27.54    1.71 
   3   0   8   29.61    1.10 
   3   0   8   29.46    3.28 
  -4   0  -8   42.30    2.12 
  -4   0  -8   44.44    2.26 
  -4   0  -8   44.06    2.12 
   4   0   8   40.60    2.09 
   4   0   8   45.27    3.80 
   4   0   8   41.98    2.26 
  -5   0  -8    2.54    1.24 
  -5   0  -8    2.67    0.97 
   5   0   8    2.11    1.12 
   5   0   8    1.88    2.04 
   5   0   8    3.69    1.23 
  -6   0  -8   32.67    2.01 
  -6   0  -8   31.42    2.30 
   6   0   8   33.72    2.03 
   6   0   8   35.14    2.14 
   6   0   8   29.13    3.65 
  -7   0  -8    0.73    1.38 
  -7   0  -8    3.06    1.42 
   7   0   8    1.02    1.29 
   7   0   8    2.65    1.05 
   7   0   8    0.47    1.25 
   7   0   8   -1.03    2.02 
  -8   0  -8   53.99    3.10 
  -8   0  -8   50.67    2.94 
   8   0   8   39.56    4.56 
   8   0   8   58.70    3.03 
   9  -1  -8   74.04    2.91 
   9  -1  -8   71.19    2.94 
   9  -1  -8   74.83    3.92 
  -9   1   8   73.54    2.84 
  -9   1   8   73.41    3.08 
   8  -1  -8   56.02    2.44 
   8  -1  -8   60.04    2.56 
   8  -1  -8   59.84    3.03 
  -8   1   8   57.94    2.40 
  -8   1   8   55.10    2.32 
   7  -1  -8   46.84    2.83 
   7  -1  -8   45.57    2.12 
   7  -1  -8   44.99    2.16 
  -7   1   8   47.91    1.88 
  -7   1   8   48.46    2.27 
   6  -1  -8   18.87    1.56 
   6  -1  -8   16.07    1.62 
   6  -1  -8   18.72    1.49 
  -6   1   8   19.42    1.47 
  -6   1   8   20.11    1.41 
  -6   1   8   19.17    1.35 
   5  -1  -8    3.73    0.96 
   5  -1  -8    3.84    0.92 
   5  -1  -8    3.78    1.21 
  -5   1   8    3.21    0.97 
  -5   1   8    4.56    0.94 
  -5   1   8    3.28    0.90 
   4  -1  -8   -0.26    0.93 
   4  -1  -8   -0.20    0.82 
   4  -1  -8    0.31    0.72 
   4  -1  -8    0.87    0.87 
   4  -1  -8    1.18    0.94 
  -4   1   8    0.50    0.79 
  -4   1   8   -0.30    0.75 
  -4   1   8    0.10    0.66 
  -4   1   8    0.83    0.81 
   3  -1  -8   36.17    1.71 
   3  -1  -8   37.53    1.64 
   3  -1  -8   35.42    1.74 
   3  -1  -8   35.19    1.69 
   3  -1  -8   33.35    1.93 
  -3   1   8   36.40    1.62 
  -3   1   8   39.53    1.75 
  -3   1   8   35.04    1.54 
   2  -1  -8   78.76    2.50 
   2  -1  -8   84.51    2.63 
   2  -1  -8   82.03    2.48 
   2  -1  -8   74.75    2.43 
  -2   1   8   74.11    2.30 
  -2   1   8   83.40    2.43 
  -2   1   8   74.97    2.42 
  -2   1   8   82.75    2.42 
   1  -1  -8  107.60    3.14 
   1  -1  -8  105.14    2.29 
   1  -1  -8  105.23    3.04 
   1  -1  -8  106.11    2.99 
  -1   1   8  108.03    2.98 
  -1   1   8  106.45    2.46 
  -1   1   8  108.47    2.86 
  -1   1   8  105.31    3.11 
   0  -1  -8  154.16    4.09 
   0  -1  -8  170.35    4.12 
   0  -1  -8  163.68    3.68 
   0  -1  -8  164.38    4.30 
   0   1   8  161.75    5.47 
   0   1   8  164.18    3.93 
   0   1   8  169.34    4.29 
   0   1   8  166.11    4.15 
  -1  -1  -8   56.12    2.13 
  -1  -1  -8   57.09    2.19 
  -1  -1  -8   55.14    2.14 
   1   1   8   56.76    2.13 
   1   1   8   59.48    1.93 
   1   1   8   56.82    1.99 
   1   1   8   61.12    3.48 
   1   1   8   60.93    2.18 
  -2  -1  -8    1.83    0.78 
  -2  -1  -8    0.83    0.94 
  -2  -1  -8    0.58    0.85 
  -2  -1  -8    1.57    0.57 
   2   1   8   -0.20    1.55 
   2   1   8    0.90    0.86 
   2   1   8    1.70    0.40 
   2   1   8    2.03    1.03 
   2   1   8    2.03    0.81 
  -3  -1  -8    6.20    1.22 
  -3  -1  -8    8.63    1.19 
   3   1   8    6.46    1.00 
   3   1   8    7.73    1.08 
   3   1   8    6.60    0.52 
   3   1   8    7.68    1.14 
   3   1   8    5.82    1.96 
  -4  -1  -8   20.33    1.88 
  -4  -1  -8   22.70    1.75 
   4   1   8   21.23    1.84 
   4   1   8   21.89    1.71 
   4   1   8   18.81    2.58 
  -5  -1  -8   29.74    2.19 
  -5  -1  -8   32.14    2.03 
  -5  -1  -8   33.96    2.25 
   5   1   8   33.41    2.01 
   5   1   8   33.67    2.21 
   5   1   8   29.74    3.63 
  -6  -1  -8   41.48    2.50 
  -6  -1  -8   38.37    2.55 
   6   1   8   43.35    2.33 
   6   1   8   35.93    4.30 
   6   1   8   39.19    2.46 
  -7  -1  -8   37.85    2.57 
  -7  -1  -8   38.89    2.71 
   7   1   8   46.68    2.73 
   7   1   8   27.73    3.62 
  -8  -1  -8   29.59    2.58 
  -8  -1  -8   38.85    2.75 
   8   1   8   32.09    2.66 
   9  -2  -8   21.87    1.97 
   9  -2  -8   21.78    1.76 
   9  -2  -8   16.15    2.25 
  -9   2   8   20.23    1.89 
  -9   2   8   21.45    1.76 
   8  -2  -8   36.83    2.95 
   8  -2  -8   38.68    2.17 
   8  -2  -8   36.80    1.96 
  -8   2   8   39.08    2.04 
  -8   2   8   34.39    2.20 
   7  -2  -8    9.48    1.73 
   7  -2  -8    7.87    1.14 
   7  -2  -8    7.44    1.09 
  -7   2   8    8.34    1.29 
  -7   2   8    8.48    1.19 
   6  -2  -8    5.71    1.43 
   6  -2  -8    4.63    0.94 
   6  -2  -8    5.03    1.00 
  -6   2   8    2.82    1.02 
  -6   2   8    3.43    0.83 
  -6   2   8    4.24    0.89 
   5  -2  -8    0.84    0.81 
   5  -2  -8    1.46    0.88 
   5  -2  -8    1.61    1.18 
  -5   2   8    1.39    0.90 
  -5   2   8    0.78    0.74 
  -5   2   8    1.26    0.87 
   4  -2  -8  103.59    2.99 
   4  -2  -8  103.61    2.94 
   4  -2  -8  100.16    3.51 
   4  -2  -8  103.44    3.06 
   4  -2  -8  103.57    3.10 
  -4   2   8  107.32    2.92 
  -4   2   8  105.17    2.90 
  -4   2   8  104.04    2.80 
  -4   2   8  110.49    3.01 
   3  -2  -8   85.19    2.58 
   3  -2  -8   87.88    2.69 
   3  -2  -8   86.76    2.71 
   3  -2  -8   90.70    2.72 
  -3   2   8   87.98    2.47 
  -3   2   8   89.85    2.45 
  -3   2   8   88.02    2.66 
  -3   2   8   86.58    2.60 
  -3   2   8   85.68    2.67 
   2  -2  -8   56.03    2.00 
   2  -2  -8   57.77    2.07 
   2  -2  -8   53.48    2.08 
   2  -2  -8   57.77    2.05 
  -2   2   8   54.37    1.87 
  -2   2   8   52.95    1.99 
  -2   2   8   59.59    2.02 
  -2   2   8   56.28    1.69 
   1  -2  -8  119.03    3.24 
   1  -2  -8  115.51    3.24 
   1  -2  -8  112.66    3.19 
   1  -2  -8  117.47    3.18 
  -1   2   8  117.51    3.16 
  -1   2   8  119.64    3.29 
  -1   2   8  112.80    3.09 
  -1   2   8  117.01    2.74 
  -1   2   8  112.51    2.63 
  -1   2   8  116.46    3.12 
   0  -2  -8   13.92    1.26 
   0  -2  -8   11.39    1.15 
   0  -2  -8   13.98    1.23 
   0   2   8   13.02    1.11 
   0   2   8   13.29    1.10 
   0   2   8   11.50    1.19 
  -1  -2  -8    2.48    0.90 
  -1  -2  -8    2.33    0.87 
  -1  -2  -8    1.06    0.94 
   1   2   8    2.37    1.49 
   1   2   8    2.60    0.84 
   1   2   8    2.39    0.77 
   1   2   8    2.23    0.82 
   1   2   8    2.73    0.85 
  -2  -2  -8   13.14    1.29 
  -2  -2  -8    9.22    1.27 
  -2  -2  -8   13.86    1.26 
   2   2   8   12.74    1.35 
   2   2   8   12.43    2.00 
   2   2   8   12.86    1.21 
   2   2   8   12.41    1.09 
  -3  -2  -8   34.36    1.34 
  -3  -2  -8   35.43    1.94 
  -3  -2  -8   31.81    2.03 
  -3  -2  -8   32.59    1.85 
   3   2   8   34.44    3.22 
   3   2   8   36.58    1.80 
   3   2   8   32.86    1.77 
   3   2   8   32.86    1.82 
  -4  -2  -8   52.78    2.55 
  -4  -2  -8   55.63    2.43 
   4   2   8   54.58    2.54 
   4   2   8   59.27    2.41 
   4   2   8   57.61    3.96 
  -5  -2  -8   75.56    2.88 
  -5  -2  -8   73.97    3.04 
   5   2   8   75.95    2.84 
   5   2   8   71.25    2.81 
   5   2   8   67.11    4.42 
  -6  -2  -8   28.31    1.98 
   6   2   8   23.01    3.13 
   6   2   8   33.35    2.06 
  -7  -2  -8   -1.28    1.30 
   7   2   8   -0.44    1.34 
   9  -3  -8    7.43    1.91 
   9  -3  -8   13.71    1.44 
   9  -3  -8   13.35    1.41 
  -9   3   8   13.56    1.57 
  -9   3   8   14.72    1.72 
   8  -3  -8    3.26    1.64 
   8  -3  -8    4.23    1.07 
   8  -3  -8    3.03    1.02 
  -8   3   8    4.42    1.24 
  -8   3   8    5.45    1.24 
   7  -3  -8   12.53    1.84 
   7  -3  -8   13.77    1.22 
   7  -3  -8   13.21    1.26 
  -7   3   8   13.38    1.45 
  -7   3   8   13.29    1.41 
   6  -3  -8   30.07    1.57 
   6  -3  -8   26.71    1.55 
   6  -3  -8   28.62    2.42 
  -6   3   8   29.53    1.76 
  -6   3   8   31.92    1.80 
   5  -3  -8  142.51    3.72 
   5  -3  -8  148.74    3.82 
   5  -3  -8  141.74    4.42 
  -5   3   8  137.21    3.81 
  -5   3   8  142.74    3.79 
  -5   3   8  143.46    3.69 
   4  -3  -8   30.94    1.50 
   4  -3  -8   33.69    2.26 
   4  -3  -8   32.61    1.68 
   4  -3  -8   32.98    1.56 
  -4   3   8   32.60    1.68 
  -4   3   8   31.51    1.52 
  -4   3   8   32.23    1.54 
   3  -3  -8  111.95    3.15 
   3  -3  -8  113.30    3.17 
   3  -3  -8  116.55    3.15 
   3  -3  -8  113.78    3.21 
   3  -3  -8  118.73    2.51 
  -3   3   8  117.26    3.00 
  -3   3   8  117.32    3.21 
  -3   3   8  120.96    3.21 
  -3   3   8  114.95    3.34 
  -3   3   8  116.30    2.97 
   2  -3  -8    4.02    0.45 
   2  -3  -8    5.71    0.91 
   2  -3  -8    4.93    0.88 
   2  -3  -8    3.25    0.87 
   2  -3  -8    4.19    0.87 
  -2   3   8    4.75    1.00 
  -2   3   8    5.20    0.93 
  -2   3   8    3.47    0.70 
  -2   3   8    5.24    0.68 
   1  -3  -8    1.51    0.73 
   1  -3  -8    2.47    0.82 
   1  -3  -8    1.30    0.83 
   1  -3  -8    2.50    0.83 
  -1   3   8    1.40    0.46 
  -1   3   8    1.51    0.80 
  -1   3   8    1.45    0.45 
  -1   3   8    1.83    0.82 
  -1   3   8    0.53    0.65 
  -1   3   8    1.15    0.70 
   0  -3  -8   10.94    1.07 
   0  -3  -8    9.48    1.09 
   0  -3  -8    7.10    1.11 
   0  -3  -8    8.85    0.86 
   0  -3  -8    9.33    1.26 
   0   3   8    9.09    1.11 
   0   3   8   10.70    1.13 
   0   3   8    9.11    0.98 
   0   3   8    8.70    0.81 
   0   3   8    9.62    0.50 
   0   3   8    8.31    1.02 
  -1  -3  -8   82.17    2.57 
  -1  -3  -8   86.76    2.68 
  -1  -3  -8   85.24    2.72 
  -1  -3  -8   80.53    2.77 
   1   3   8   80.82    2.65 
   1   3   8   84.84    2.79 
   1   3   8   82.78    2.62 
   1   3   8   80.24    3.83 
  -2  -3  -8   38.01    1.85 
  -2  -3  -8   35.95    1.91 
  -2  -3  -8   39.38    2.08 
  -2  -3  -8   39.03    2.04 
   2   3   8   36.07    1.77 
   2   3   8   34.58    1.73 
   2   3   8   34.06    1.64 
   2   3   8   35.28    2.95 
  -3  -3  -8   37.62    2.14 
  -3  -3  -8   36.78    2.02 
  -3  -3  -8   36.37    2.13 
   3   3   8   35.08    1.87 
   3   3   8   39.42    2.11 
   3   3   8   32.74    1.91 
   3   3   8   36.10    3.10 
  -4  -3  -8   97.77    3.55 
  -4  -3  -8   94.90    3.43 
  -4  -3  -8  100.85    3.33 
   4   3   8   95.11    3.21 
   4   3   8   98.34    4.71 
   4   3   8  102.25    3.45 
  -5  -3  -8   15.42    1.76 
  -5  -3  -8   15.93    1.59 
   5   3   8   10.43    2.38 
   5   3   8   14.02    1.66 
  -6  -3  -8   12.87    1.76 
   6   3   8   12.45    1.53 
   6   3   8    5.79    2.41 
  -7  -3  -8    9.00    1.73 
   7   3   8    8.74    1.71 
   7   3   8   -2.15    2.28 
   8  -4  -8   12.26    1.26 
   8  -4  -8   11.53    1.21 
   8  -4  -8   13.41    2.05 
  -8   4   8   12.19    1.55 
  -8   4   8   14.49    1.54 
   7  -4  -8   58.36    2.18 
   7  -4  -8   55.84    3.28 
   7  -4  -8   56.43    2.17 
  -7   4   8   58.72    2.48 
  -7   4   8   56.85    2.47 
   6  -4  -8   33.51    2.28 
   6  -4  -8   31.01    1.59 
   6  -4  -8   28.91    1.59 
  -6   4   8   32.85    1.84 
  -6   4   8   30.11    1.85 
   5  -4  -8   37.67    1.69 
   5  -4  -8   41.04    2.60 
   5  -4  -8   39.28    1.73 
  -5   4   8   42.59    1.94 
  -5   4   8   37.67    1.92 
   4  -4  -8   25.41    1.45 
   4  -4  -8   23.48    1.43 
   4  -4  -8   22.71    1.34 
   4  -4  -8   26.12    1.87 
  -4   4   8   27.22    1.50 
  -4   4   8   22.59    1.26 
  -4   4   8   24.54    1.62 
   3  -4  -8    0.85    0.80 
   3  -4  -8   -0.95    0.71 
   3  -4  -8    0.87    0.77 
  -3   4   8   -0.66    0.62 
  -3   4   8    0.83    0.67 
  -3   4   8    0.27    0.66 
  -3   4   8   -0.43    0.97 
  -3   4   8   -0.43    0.51 
   2  -4  -8    8.46    1.01 
   2  -4  -8    9.85    1.07 
   2  -4  -8    9.09    0.74 
   2  -4  -8   10.03    1.05 
   2  -4  -8    9.50    0.82 
   2  -4  -8    9.34    0.95 
  -2   4   8    9.28    0.77 
  -2   4   8    8.89    1.23 
  -2   4   8    9.95    1.05 
  -2   4   8    8.35    1.06 
   1  -4  -8    4.30    0.90 
   1  -4  -8    3.67    0.91 
   1  -4  -8    5.51    0.74 
   1  -4  -8    4.54    0.98 
   1  -4  -8    6.19    0.92 
  -1   4   8    4.87    0.52 
  -1   4   8    4.09    0.87 
  -1   4   8    3.64    0.75 
  -1   4   8    3.76    0.72 
  -1   4   8    3.91    1.06 
   0  -4  -8  251.89    5.89 
   0  -4  -8  252.74    6.00 
   0  -4  -8  240.65    5.84 
   0  -4  -8  244.54    5.88 
   0  -4  -8  252.54    5.75 
   0   4   8  242.21    5.94 
   0   4   8  256.85    5.96 
   0   4   8  248.85    5.74 
   0   4   8  249.99    5.75 
  -1  -4  -8   53.00    2.33 
  -1  -4  -8   59.41    2.28 
  -1  -4  -8   61.05    2.35 
  -1  -4  -8   62.29    2.39 
   1   4   8   60.94    2.36 
   1   4   8   60.23    2.31 
   1   4   8   56.62    2.07 
   1   4   8   57.73    2.12 
  -2  -4  -8   35.02    1.99 
  -2  -4  -8   31.28    2.07 
  -2  -4  -8   34.66    1.91 
   2   4   8   31.72    1.88 
   2   4   8   30.97    2.72 
   2   4   8   27.06    1.86 
  -3  -4  -8   49.14    2.30 
  -3  -4  -8   48.73    2.38 
  -3  -4  -8   49.54    2.48 
   3   4   8   50.87    2.35 
   3   4   8   45.61    2.29 
   3   4   8   48.93    3.50 
  -4  -4  -8    4.14    1.30 
  -4  -4  -8    3.85    1.33 
  -4  -4  -8    4.11    1.20 
   4   4   8    2.31    1.70 
   4   4   8    3.20    1.23 
   4   4   8    2.92    1.23 
  -5  -4  -8   -0.29    1.24 
  -5  -4  -8    0.54    1.24 
  -5  -4  -8    0.23    1.14 
   5   4   8    0.20    1.16 
   5   4   8   -1.93    1.87 
   5   4   8   -0.28    0.97 
  -6  -4  -8   19.93    2.04 
   6   4   8   25.33    2.26 
   6   4   8   17.31    2.93 
  -7  -4  -8   30.06    2.58 
   7   4   8   26.28    2.09 
   8  -5  -8   76.51    2.55 
   8  -5  -8   70.45    2.43 
   8  -5  -8   79.61    4.02 
  -8   5   8   76.27    3.00 
  -8   5   8   71.71    2.97 
   7  -5  -8   18.03    1.34 
   7  -5  -8   15.83    2.04 
   7  -5  -8   16.38    1.34 
  -7   5   8   17.91    1.61 
  -7   5   8   16.22    1.54 
   6  -5  -8   31.12    1.53 
   6  -5  -8   31.44    1.52 
   6  -5  -8   29.59    2.63 
  -6   5   8   30.72    1.93 
  -6   5   8   31.67    1.84 
   5  -5  -8    1.01    1.20 
   5  -5  -8    0.07    0.69 
   5  -5  -8    1.23    0.72 
  -5   5   8    0.24    0.94 
  -5   5   8    1.57    0.87 
   4  -5  -8   22.88    1.39 
   4  -5  -8   21.62    1.33 
   4  -5  -8   20.72    1.35 
  -4   5   8   21.38    1.58 
  -4   5   8   24.63    1.38 
  -4   5   8   20.36    1.56 
   3  -5  -8   35.38    1.65 
   3  -5  -8   39.38    1.67 
   3  -5  -8   36.80    1.66 
  -3   5   8   38.78    1.80 
  -3   5   8   36.97    2.09 
  -3   5   8   37.55    1.53 
   2  -5  -8   37.13    1.46 
   2  -5  -8   42.68    1.71 
   2  -5  -8   41.35    1.82 
   2  -5  -8   35.73    1.67 
  -2   5   8   39.85    1.79 
  -2   5   8   39.65    1.65 
  -2   5   8   38.99    1.86 
  -2   5   8   40.34    1.41 
   1  -5  -8   37.46    1.90 
   1  -5  -8   39.50    1.68 
   1  -5  -8   38.41    1.76 
   1  -5  -8   41.04    1.76 
  -1   5   8   40.95    1.75 
  -1   5   8   40.01    1.19 
  -1   5   8   36.95    2.04 
  -1   5   8   41.35    1.81 
   0  -5  -8   93.74    2.88 
   0  -5  -8   95.47    3.05 
   0  -5  -8   92.65    2.85 
   0   5   8   94.87    2.95 
   0   5   8   93.95    3.08 
   0   5   8   88.99    2.71 
  -1  -5  -8   22.35    1.80 
  -1  -5  -8   20.49    1.58 
  -1  -5  -8   22.20    1.64 
   1   5   8   23.58    1.81 
   1   5   8   22.45    1.42 
   1   5   8   21.16    1.56 
  -2  -5  -8    0.70    1.06 
  -2  -5  -8   -0.98    0.94 
  -2  -5  -8    0.39    0.96 
   2   5   8    0.02    0.86 
   2   5   8    0.01    0.82 
   2   5   8    0.46    0.94 
  -3  -5  -8    0.24    1.19 
  -3  -5  -8    2.21    1.12 
  -3  -5  -8    2.50    1.05 
   3   5   8    0.90    1.17 
   3   5   8    0.52    1.04 
   3   5   8    1.60    1.33 
  -4  -5  -8   12.46    1.74 
  -4  -5  -8   10.58    1.57 
  -4  -5  -8   11.68    1.50 
   4   5   8   10.59    2.01 
   4   5   8   11.09    1.52 
   4   5   8   12.79    1.63 
  -5  -5  -8   42.77    2.44 
  -5  -5  -8   37.64    2.50 
  -5  -5  -8   34.98    2.75 
   5   5   8   41.76    3.53 
   5   5   8   38.74    2.46 
   5   5   8   38.99    2.47 
  -6  -5  -8   32.47    2.88 
  -6  -5  -8   29.67    2.14 
   6   5   8   31.72    2.45 
   6   5   8   31.43    2.12 
   7  -6  -8    5.79    0.88 
   7  -6  -8    3.29    1.57 
  -7   6   8    2.88    1.23 
  -7   6   8    5.84    1.24 
   6  -6  -8    6.61    1.66 
   6  -6  -8    9.94    0.95 
   6  -6  -8    9.09    0.86 
  -6   6   8    9.81    1.26 
  -6   6   8   10.26    1.18 
   5  -6  -8   18.33    1.27 
   5  -6  -8   17.89    1.15 
   5  -6  -8   21.82    1.98 
  -5   6   8   19.75    1.62 
  -5   6   8   20.09    1.59 
   4  -6  -8   45.05    1.68 
   4  -6  -8   44.83    1.79 
  -4   6   8   43.53    2.05 
  -4   6   8   50.15    2.46 
  -4   6   8   45.81    1.90 
   3  -6  -8  121.18    3.22 
   3  -6  -8  125.92    3.51 
   3  -6  -8  115.59    3.17 
  -3   6   8  119.25    3.42 
  -3   6   8  118.09    3.74 
  -3   6   8  119.16    3.12 
   2  -6  -8   19.59    1.39 
   2  -6  -8   21.32    1.43 
   2  -6  -8   17.45    1.32 
  -2   6   8   18.93    1.09 
  -2   6   8   20.11    1.46 
  -2   6   8   19.53    1.54 
   1  -6  -8   31.10    1.70 
   1  -6  -8   31.62    1.75 
   1  -6  -8   31.00    1.74 
  -1   6   8   27.85    1.73 
  -1   6   8   33.27    1.64 
   0  -6  -8   20.01    1.69 
   0  -6  -8   23.11    1.52 
   0  -6  -8   23.66    1.73 
   0   6   8   22.65    1.85 
   0   6   8   22.88    1.52 
  -1  -6  -8   37.75    2.04 
  -1  -6  -8   37.59    2.27 
  -1  -6  -8   37.99    1.97 
   1   6   8   36.50    1.65 
   1   6   8   34.47    1.94 
   1   6   8   35.79    2.15 
  -2  -6  -8    5.87    1.35 
  -2  -6  -8    6.41    1.20 
  -2  -6  -8    7.56    1.36 
   2   6   8    7.22    1.27 
   2   6   8    8.64    1.41 
   2   6   8    7.47    1.03 
  -3  -6  -8   38.16    2.14 
  -3  -6  -8   37.56    2.67 
  -3  -6  -8   37.62    2.26 
   3   6   8   33.94    1.74 
   3   6   8   37.14    2.10 
   3   6   8   29.76    2.25 
  -4  -6  -8   36.94    2.66 
  -4  -6  -8   37.39    2.26 
  -4  -6  -8   35.65    2.32 
   4   6   8   37.73    2.26 
   4   6   8   36.89    2.44 
   4   6   8   36.59    1.68 
  -5  -6  -8   32.41    2.83 
  -5  -6  -8   34.22    2.45 
  -5  -6  -8   34.63    2.36 
   5   6   8   34.56    2.39 
   5   6   8   30.40    2.48 
   7  -7  -8   20.80    1.27 
   7  -7  -8   20.48    2.35 
  -7   7   8   23.22    1.82 
  -7   7   8   20.71    1.66 
   6  -7  -8   19.20    2.11 
   6  -7  -8   16.21    1.17 
  -6   7   8   14.50    1.53 
  -6   7   8   16.73    1.46 
   5  -7  -8   45.85    1.70 
   5  -7  -8   51.20    3.08 
  -5   7   8   49.86    2.09 
  -5   7   8   45.44    2.04 
   4  -7  -8   41.11    1.71 
   4  -7  -8   44.59    1.55 
  -4   7   8   44.79    1.93 
  -4   7   8   42.12    2.05 
  -4   7   8   41.99    2.48 
   3  -7  -8    0.76    0.71 
   3  -7  -8    0.74    0.75 
  -3   7   8    0.96    0.93 
  -3   7   8   -0.96    0.69 
  -3   7   8    1.94    0.99 
   2  -7  -8   21.01    1.44 
   2  -7  -8   21.98    1.41 
  -2   7   8   22.78    1.87 
  -2   7   8   23.20    1.57 
   1  -7  -8    1.75    0.96 
   1  -7  -8    1.71    0.84 
   1  -7  -8    2.65    0.94 
  -1   7   8    0.75    1.17 
  -1   7   8    1.57    0.86 
   0  -7  -8    8.52    1.10 
   0  -7  -8    7.50    1.29 
   0  -7  -8    9.05    1.15 
   0   7   8    9.46    1.04 
   0   7   8    9.90    1.46 
  -1  -7  -8   41.30    2.14 
  -1  -7  -8   36.59    2.37 
  -1  -7  -8   37.66    2.15 
   1   7   8   40.45    1.70 
   1   7   8   41.06    2.33 
  -2  -7  -8   66.69    2.66 
  -2  -7  -8   71.29    2.77 
  -2  -7  -8   65.48    3.00 
   2   7   8   63.30    2.91 
   2   7   8   67.07    2.19 
  -3  -7  -8    6.38    1.71 
  -3  -7  -8   12.69    1.48 
  -3  -7  -8   10.56    1.52 
   3   7   8   12.17    1.67 
  -4  -7  -8    9.85    1.87 
  -4  -7  -8   14.17    1.68 
  -4  -7  -8   13.86    1.65 
   4   7   8   12.41    1.78 
  -5  -7  -8    6.71    1.49 
  -5  -7  -8    3.51    1.78 
   5   7   8    8.40    1.95 
   6  -8  -8   45.44    1.56 
   6  -8  -8   50.58    3.31 
  -6   8   8   45.84    2.37 
  -6   8   8   46.98    2.41 
   5  -8  -8   27.17    1.28 
   5  -8  -8   29.07    2.69 
  -5   8   8   29.84    1.98 
   4  -8  -8    0.32    0.67 
  -4   8   8   -0.19    0.98 
  -4   8   8   -0.02    1.27 
   3  -8  -8    3.84    0.75 
   3  -8  -8    5.31    0.86 
  -3   8   8    4.76    1.39 
  -3   8   8    4.11    1.03 
   2  -8  -8   17.63    1.36 
   2  -8  -8   18.54    1.47 
  -2   8   8   20.19    1.85 
  -2   8   8   21.32    1.53 
   1  -8  -8   22.63    1.58 
   1  -8  -8   26.69    1.62 
   1  -8  -8   22.44    2.17 
  -1   8   8   27.48    2.19 
  -1   8   8   25.05    1.55 
   0  -8  -8   32.27    1.90 
   0  -8  -8   32.51    2.27 
   0  -8  -8   31.99    1.88 
   0   8   8   33.91    1.75 
   0   8   8   37.31    2.36 
  -1  -8  -8   58.23    2.57 
  -1  -8  -8   60.55    3.02 
  -1  -8  -8   62.57    2.48 
   1   8   8   58.42    2.08 
   1   8   8   65.44    2.91 
  -2  -8  -8    9.53    1.34 
  -2  -8  -8    7.42    1.71 
  -2  -8  -8    9.49    1.47 
   2   8   8   11.90    1.68 
  -3  -8  -8   12.17    1.61 
  -3  -8  -8    9.93    1.87 
  -3  -8  -8   11.71    1.58 
   3   8   8   10.39    1.73 
   4  -9  -8   14.06    1.14 
  -4   9   8   16.16    1.55 
  -4   9   8   18.54    1.80 
   3  -9  -8   23.04    1.42 
  -3   9   8   24.88    2.10 
  -3   9   8   21.88    1.71 
   2  -9  -8    9.31    1.01 
   2  -9  -8    8.37    1.05 
  -2   9   8   10.58    1.65 
  -2   9   8    9.26    1.24 
   1  -9  -8   52.74    2.22 
  -1   9   8   53.28    2.82 
  -1   9   8   53.77    2.11 
   0  -9  -8    8.02    1.22 
   0  -9  -8    6.86    1.19 
   0   9   8    6.79    1.53 
   0   9   8    9.04    1.28 
  -1  -9  -8    5.32    1.21 
  -1  -9  -8    3.76    1.56 
  -1  -9  -8    4.20    1.09 
   1   9   8    7.14    1.55 
  -2  -9  -8    3.66    1.16 
  -2  -9  -8    2.01    1.15 
  -2  -9  -8   -1.77    1.58 
   2   9   8    1.46    1.41 
   3   9  -9    6.91    1.61 
   3   9  -9    7.09    1.34 
  -3  -9   9    7.96    1.55 
  -3  -9   9    4.77    1.71 
  -3  -9   9    6.36    1.51 
   2   9  -9   26.35    2.25 
   2   9  -9   25.54    2.08 
  -2  -9   9   23.08    2.32 
  -2  -9   9   24.95    2.16 
  -2  -9   9   26.70    2.15 
   1   9  -9    9.41    1.56 
   1   9  -9    9.21    1.53 
  -1  -9   9    9.36    1.47 
  -1  -9   9    8.25    1.81 
  -1  -9   9    9.84    1.52 
   0   9  -9   68.26    2.95 
   0   9  -9   69.08    2.86 
   0  -9   9   66.90    2.85 
   0  -9   9   64.67    3.49 
   0  -9   9   64.63    2.86 
  -1   9  -9    7.02    1.26 
  -1   9  -9    5.49    1.46 
   1  -9   9    7.10    1.75 
   1  -9   9    7.61    1.32 
   1  -9   9    6.53    1.32 
  -2   9  -9    3.41    1.46 
   2  -9   9    3.97    1.51 
   2  -9   9    2.94    1.17 
   2  -9   9    3.49    1.26 
   5   8  -9   18.00    1.99 
   5   8  -9   15.23    2.01 
  -5  -8   9   12.47    2.03 
  -5  -8   9   14.22    2.11 
   4   8  -9   48.74    2.28 
   4   8  -9   44.83    2.64 
   4   8  -9   45.14    2.77 
  -4  -8   9   49.09    2.98 
  -4  -8   9   48.31    2.42 
  -4  -8   9   54.45    2.87 
   3   8  -9   18.51    1.92 
   3   8  -9   19.64    1.64 
   3   8  -9   20.98    1.92 
  -3  -8   9   20.33    2.09 
  -3  -8   9   19.08    1.80 
  -3  -8   9   21.46    1.97 
   2   8  -9   49.47    2.42 
   2   8  -9   49.59    2.63 
  -2  -8   9   48.97    2.93 
  -2  -8   9   51.27    2.56 
  -2  -8   9   48.91    2.60 
   1   8  -9   11.18    1.54 
   1   8  -9   13.03    1.55 
  -1  -8   9   11.30    1.56 
  -1  -8   9   14.45    1.59 
  -1  -8   9   12.83    1.83 
   0   8  -9    3.01    1.31 
   0   8  -9    3.73    1.18 
   0  -8   9    2.09    1.12 
   0  -8   9    3.70    1.38 
   0  -8   9    5.64    2.68 
   0  -8   9    3.62    1.22 
  -1   8  -9    2.05    1.17 
  -1   8  -9    2.40    1.27 
   1  -8   9    1.69    1.22 
   1  -8   9   -0.32    1.79 
   1  -8   9    1.97    1.13 
   1  -8   9    4.04    1.46 
  -2   8  -9   11.87    1.46 
  -2   8  -9   13.72    1.26 
   2  -8   9   13.64    1.53 
   2  -8   9   12.44    1.45 
   2  -8   9   12.33    1.79 
   2  -8   9    5.79    2.55 
  -3   8  -9   19.94    2.03 
  -3   8  -9   22.25    1.81 
   3  -8   9   12.21    2.82 
   3  -8   9   22.61    1.86 
   3  -8   9   20.17    1.86 
  -4   8  -9   32.53    2.41 
  -4   8  -9   31.79    2.52 
   4  -8   9   18.96    3.31 
   4  -8   9   29.43    2.00 
   6   7  -9   12.00    1.77 
  -6  -7   9   13.04    1.89 
  -6  -7   9    9.59    1.67 
   5   7  -9   53.40    2.82 
  -5  -7   9   53.08    2.65 
  -5  -7   9   52.32    3.04 
   4   7  -9    5.90    1.48 
   4   7  -9    7.27    1.19 
  -4  -7   9    7.78    1.53 
  -4  -7   9    6.34    1.21 
  -4  -7   9    7.27    1.52 
   3   7  -9   58.49    2.43 
   3   7  -9   55.99    2.71 
  -3  -7   9   61.25    2.73 
  -3  -7   9   60.98    2.86 
  -3  -7   9   61.91    2.94 
   2   7  -9    4.68    1.17 
   2   7  -9    3.54    1.24 
  -2  -7   9    4.49    1.26 
  -2  -7   9    3.15    1.41 
  -2  -7   9    3.41    1.27 
   1   7  -9    0.70    1.06 
   1   7  -9    0.82    1.12 
   1   7  -9    1.06    1.07 
  -1  -7   9    0.99    1.07 
  -1  -7   9    0.79    1.13 
  -1  -7   9    2.33    1.25 
   0   7  -9   18.88    1.74 
   0   7  -9   13.21    1.42 
   0   7  -9   16.29    1.63 
   0  -7   9   20.11    2.83 
   0  -7   9   16.89    1.57 
   0  -7   9   16.43    1.80 
   0  -7   9   14.61    1.67 
  -1   7  -9   32.51    1.90 
  -1   7  -9   33.00    2.20 
   1  -7   9   36.36    2.10 
   1  -7   9   35.13    2.43 
   1  -7   9   35.46    2.15 
   1  -7   9   33.34    3.28 
  -2   7  -9   27.11    1.62 
  -2   7  -9   28.29    2.13 
   2  -7   9   28.10    1.93 
   2  -7   9   26.92    1.97 
   2  -7   9   18.33    2.94 
  -3   7  -9   34.44    2.37 
  -3   7  -9   31.55    2.27 
   3  -7   9   24.56    2.13 
   3  -7   9   22.82    3.16 
   3  -7   9   30.30    2.01 
  -4   7  -9   34.46    2.37 
  -4   7  -9   32.68    2.51 
   4  -7   9   24.24    3.32 
   4  -7   9   29.77    2.02 
  -5   7  -9    1.72    1.34 
  -5   7  -9    0.58    1.41 
   5  -7   9    0.52    1.07 
   5  -7   9   -2.34    2.24 
   5  -7   9    0.51    1.19 
   7   6  -9   58.93    3.12 
  -7  -6   9   54.80    3.09 
   6   6  -9   24.99    1.96 
  -6  -6   9   31.03    2.43 
  -6  -6   9   22.20    2.03 
   5   6  -9   46.17    2.37 
   5   6  -9   45.63    2.60 
  -5  -6   9   42.16    2.62 
  -5  -6   9   46.11    2.39 
   4   6  -9    4.29    1.32 
   4   6  -9    4.01    0.97 
  -4  -6   9    4.70    1.26 
  -4  -6   9    1.64    1.16 
  -4  -6   9    2.94    1.07 
   3   6  -9    2.15    1.16 
   3   6  -9    2.58    0.97 
  -3  -6   9    1.52    0.92 
  -3  -6   9    0.10    1.14 
  -3  -6   9    2.55    1.17 
  -3  -6   9    2.23    0.80 
   2   6  -9   -0.49    1.06 
   2   6  -9   -0.68    0.95 
  -2  -6   9    1.00    1.09 
  -2  -6   9   -0.75    0.98 
  -2  -6   9    0.04    1.04 
   1   6  -9   19.07    1.70 
   1   6  -9   19.02    1.59 
  -1  -6   9   21.06    2.66 
  -1  -6   9   21.07    1.90 
  -1  -6   9   18.39    1.72 
  -1  -6   9   19.82    1.67 
   0   6  -9   52.18    2.41 
   0   6  -9   55.36    2.44 
   0  -6   9   48.48    2.44 
   0  -6   9   53.77    2.63 
   0  -6   9   53.85    2.40 
   0  -6   9   49.76    3.37 
  -1   6  -9   12.31    1.40 
  -1   6  -9   12.00    1.48 
  -1   6  -9    9.92    1.21 
   1  -6   9   12.26    1.39 
   1  -6   9    9.97    1.40 
   1  -6   9    9.15    2.13 
  -2   6  -9   90.55    3.20 
  -2   6  -9   91.72    2.70 
  -2   6  -9   93.88    3.25 
  -2   6  -9   91.52    3.21 
   2  -6   9   83.34    4.76 
   2  -6   9   89.34    3.19 
   2  -6   9   83.92    3.06 
  -3   6  -9   12.64    1.59 
  -3   6  -9   10.10    1.52 
   3  -6   9    5.97    2.54 
   3  -6   9   10.47    1.36 
   3  -6   9    9.79    1.41 
  -4   6  -9    0.07    1.24 
  -4   6  -9   -0.63    0.88 
   4  -6   9    1.41    1.09 
   4  -6   9   -3.10    2.12 
   4  -6   9   -0.29    1.01 
  -5   6  -9    0.35    1.38 
  -5   6  -9    1.03    1.19 
   5  -6   9    2.02    1.18 
   5  -6   9    0.76    1.11 
   5  -6   9   -1.99    2.27 
  -6   6  -9   15.41    1.75 
  -6   6  -9   17.21    1.99 
   6  -6   9    7.86    2.91 
   6  -6   9   14.28    1.62 
   6  -6   9   11.91    1.59 
   7   5  -9    8.66    1.65 
   7   5  -9    3.33    1.48 
  -7  -5   9   11.00    1.51 
   6   5  -9    6.91    1.50 
   6   5  -9    1.73    1.27 
  -6  -5   9    4.07    1.45 
  -6  -5   9    2.16    1.23 
   5   5  -9   -0.47    0.98 
   5   5  -9    2.61    0.85 
   5   5  -9    2.22    1.26 
  -5  -5   9   -0.24    1.03 
  -5  -5   9    1.59    1.20 
   4   5  -9   16.95    1.57 
   4   5  -9   21.90    2.01 
   4   5  -9   21.46    1.55 
  -4  -5   9   21.61    1.88 
  -4  -5   9   19.25    1.72 
  -4  -5   9   21.10    1.68 
  -4  -5   9   20.23    1.26 
   3   5  -9   16.49    1.35 
   3   5  -9   15.65    1.65 
   3   5  -9   15.92    1.40 
  -3  -5   9   19.01    1.32 
  -3  -5   9   19.47    1.77 
  -3  -5   9   17.71    1.63 
  -3  -5   9   17.16    1.53 
   2   5  -9  170.84    4.49 
   2   5  -9  179.21    4.78 
  -2  -5   9  174.98    4.76 
  -2  -5   9  169.57    4.74 
  -2  -5   9  168.37    4.71 
   1   5  -9   93.18    3.07 
   1   5  -9   99.64    3.32 
  -1  -5   9   98.40    3.35 
  -1  -5   9   95.34    3.27 
  -1  -5   9   97.80    3.23 
  -1  -5   9  100.31    4.26 
   0   5  -9   29.96    1.91 
   0   5  -9   29.81    1.97 
   0  -5   9   28.74    1.98 
   0  -5   9   25.30    2.04 
   0  -5   9   30.57    3.24 
   0  -5   9   27.52    1.87 
  -1   5  -9   21.42    1.55 
  -1   5  -9   21.24    1.79 
  -1   5  -9   21.70    1.61 
   1  -5   9   21.71    3.05 
   1  -5   9   17.58    1.62 
  -2   5  -9    1.56    0.76 
  -2   5  -9    1.52    0.92 
  -2   5  -9    1.10    1.04 
  -2   5  -9    2.16    1.08 
   2  -5   9    1.67    1.07 
   2  -5   9    1.31    1.92 
   2  -5   9    1.01    1.07 
  -3   5  -9    0.72    0.97 
  -3   5  -9    0.77    1.13 
  -3   5  -9    2.33    1.18 
   3  -5   9   -0.35    1.98 
   3  -5   9    0.39    1.06 
   3  -5   9    1.60    1.07 
  -4   5  -9   15.25    1.47 
  -4   5  -9   15.25    1.69 
   4  -5   9   10.73    2.63 
   4  -5   9   12.65    1.53 
   4  -5   9   13.65    1.58 
  -5   5  -9   59.28    2.89 
  -5   5  -9   56.63    2.67 
   5  -5   9   49.04    4.65 
   5  -5   9   53.96    2.57 
   5  -5   9   61.16    2.73 
  -6   5  -9   16.35    1.75 
  -6   5  -9   22.40    2.13 
   6  -5   9   14.66    3.12 
   6  -5   9   17.86    1.84 
   6  -5   9   20.58    1.87 
   8   4  -9    8.42    1.61 
   8   4  -9    4.17    1.64 
  -8  -4   9    9.01    1.67 
   7   4  -9    7.84    1.57 
   7   4  -9    6.16    1.49 
  -7  -4   9    8.28    1.34 
   6   4  -9   44.98    2.55 
   6   4  -9   39.77    2.36 
   6   4  -9   43.03    2.70 
  -6  -4   9   42.38    1.68 
  -6  -4   9   43.55    2.48 
  -6  -4   9   42.02    2.49 
   5   4  -9    6.19    1.39 
   5   4  -9    5.68    1.20 
   5   4  -9    8.35    0.93 
   5   4  -9    7.61    1.29 
  -5  -4   9    8.71    1.48 
  -5  -4   9    7.28    1.12 
  -5  -4   9    7.63    0.89 
   4   4  -9   67.01    2.23 
   4   4  -9   62.25    2.55 
   4   4  -9   59.40    2.35 
   4   4  -9   57.20    2.46 
  -4  -4   9   58.54    2.37 
  -4  -4   9   63.11    2.07 
  -4  -4   9   58.98    2.48 
  -4  -4   9   63.06    2.43 
   3   4  -9   18.53    1.63 
   3   4  -9   17.62    1.68 
   3   4  -9   18.20    1.55 
   3   4  -9   16.60    1.36 
  -3  -4   9   17.64    1.34 
  -3  -4   9   15.92    1.60 
  -3  -4   9   17.15    1.54 
  -3  -4   9   15.71    1.54 
   2   4  -9   39.59    1.96 
   2   4  -9   42.32    1.56 
   2   4  -9   37.59    1.88 
   2   4  -9   40.07    1.83 
  -2  -4   9   37.48    2.18 
  -2  -4   9   41.25    1.92 
  -2  -4   9   41.85    2.12 
   1   4  -9   19.55    0.94 
   1   4  -9   17.85    1.56 
   1   4  -9   22.38    1.65 
   1   4  -9   20.65    1.77 
  -1  -4   9   18.71    2.52 
  -1  -4   9   19.82    1.79 
  -1  -4   9   22.34    1.70 
  -1  -4   9   20.14    1.66 
   0   4  -9    4.21    1.17 
   0   4  -9    4.90    1.14 
   0   4  -9    4.39    1.04 
   0   4  -9    4.52    0.38 
   0  -4   9    3.46    1.61 
   0  -4   9    4.79    1.18 
  -1   4  -9    3.63    1.15 
  -1   4  -9    2.04    1.06 
  -1   4  -9    3.52    0.98 
  -1   4  -9    2.66    0.90 
   1  -4   9    0.04    1.71 
   1  -4   9    1.36    1.10 
   1  -4   9    2.42    1.04 
  -2   4  -9   13.50    1.49 
  -2   4  -9   14.73    1.49 
  -2   4  -9   14.50    1.37 
   2  -4   9   15.35    1.45 
   2  -4   9   11.39    2.38 
   2  -4   9   14.22    1.51 
  -3   4  -9   90.30    3.06 
  -3   4  -9   83.05    3.07 
  -3   4  -9   90.08    3.12 
   3  -4   9   90.21    3.19 
   3  -4   9   84.82    4.92 
   3  -4   9   88.98    3.09 
  -4   4  -9   40.66    2.31 
  -4   4  -9   40.41    2.26 
  -4   4  -9   41.08    2.22 
   4  -4   9   39.39    4.09 
   4  -4   9   37.05    2.16 
   4  -4   9   40.66    2.30 
  -5   4  -9   25.95    2.04 
  -5   4  -9   27.84    2.21 
   5  -4   9   24.54    2.24 
   5  -4   9   26.23    1.98 
   5  -4   9   21.94    3.17 
  -6   4  -9   31.23    2.35 
  -6   4  -9   29.85    2.43 
   6  -4   9   30.51    2.17 
   6  -4   9   29.76    2.26 
   6  -4   9   22.50    3.39 
  -7   4  -9    2.83    1.44 
  -7   4  -9    0.25    1.30 
   7  -4   9    0.33    1.23 
   7  -4   9   -2.99    2.34 
   7  -4   9   -0.94    1.26 
   8   3  -9    7.11    1.33 
   8   3  -9    6.18    1.65 
   8   3  -9    9.38    1.58 
  -8  -3   9    9.15    1.64 
  -8  -3   9    8.53    1.67 
   7   3  -9   42.93    2.18 
   7   3  -9   42.70    2.27 
   7   3  -9   38.16    2.59 
  -7  -3   9   43.54    1.82 
  -7  -3   9   41.16    2.22 
   6   3  -9   32.57    2.21 
   6   3  -9   31.65    1.84 
   6   3  -9   29.38    2.36 
  -6  -3   9   29.12    1.45 
  -6  -3   9   31.48    2.19 
   5   3  -9  101.60    2.82 
   5   3  -9  102.31    3.40 
   5   3  -9   96.99    3.51 
   5   3  -9  100.99    3.47 
  -5  -3   9  106.92    2.86 
  -5  -3   9  106.02    3.08 
  -5  -3   9  105.67    3.40 
   4   3  -9   50.96    2.44 
   4   3  -9   49.81    1.93 
   4   3  -9   47.54    2.24 
   4   3  -9   50.70    2.31 
  -4  -3   9   52.34    2.30 
  -4  -3   9   47.78    2.20 
  -4  -3   9   51.31    1.91 
  -4  -3   9   48.14    1.97 
   3   3  -9   35.33    1.67 
   3   3  -9   33.20    1.91 
   3   3  -9   34.04    1.72 
   3   3  -9   34.86    2.09 
  -3  -3   9   34.56    1.83 
  -3  -3   9   32.34    1.90 
  -3  -3   9   32.77    1.64 
  -3  -3   9   32.29    1.66 
   2   3  -9   78.10    1.89 
   2   3  -9   77.21    2.89 
   2   3  -9   77.13    2.72 
   2   3  -9   78.99    2.38 
  -2  -3   9   79.75    2.91 
  -2  -3   9   79.23    2.77 
  -2  -3   9   76.31    2.48 
   1   3  -9   34.74    1.40 
   1   3  -9   37.96    2.06 
   1   3  -9   35.60    1.89 
  -1  -3   9   36.51    2.06 
  -1  -3   9   36.22    2.97 
  -1  -3   9   35.55    1.74 
  -1  -3   9   32.36    1.89 
  -1  -3   9   35.25    1.38 
  -1  -3   9   35.45    1.68 
   0   3  -9   46.75    1.57 
   0   3  -9   48.05    2.08 
   0   3  -9   48.64    1.78 
   0   3  -9   45.10    2.09 
   0  -3   9   49.93    3.42 
   0  -3   9   51.64    2.15 
  -1   3  -9   17.90    1.58 
  -1   3  -9   14.90    1.01 
  -1   3  -9   16.42    1.37 
  -1   3  -9   17.64    1.51 
   1  -3   9   19.80    1.40 
   1  -3   9   16.26    1.54 
   1  -3   9   19.31    1.56 
   1  -3   9   16.83    0.63 
   1  -3   9   15.37    2.32 
  -2   3  -9  110.22    3.31 
  -2   3  -9  114.58    3.59 
  -2   3  -9  114.51    3.39 
   2  -3   9  116.50    3.51 
   2  -3   9  112.45    5.21 
   2  -3   9  110.64    2.62 
   2  -3   9  112.91    3.47 
  -3   3  -9   26.22    1.92 
  -3   3  -9   25.01    1.75 
  -3   3  -9   23.13    1.00 
   3  -3   9   28.43    3.57 
   3  -3   9   25.01    1.18 
   3  -3   9   23.34    1.83 
   3  -3   9   25.37    1.91 
  -4   3  -9   47.95    2.38 
  -4   3  -9   41.83    2.27 
   4  -3   9   44.36    4.19 
   4  -3   9   49.24    2.45 
   4  -3   9   46.79    2.31 
  -5   3  -9   -0.41    1.11 
  -5   3  -9   -1.25    1.09 
  -5   3  -9   -0.49    1.15 
   5  -3   9   -1.27    1.05 
   5  -3   9   -0.89    2.09 
   5  -3   9    1.19    1.20 
  -6   3  -9   -0.36    1.27 
  -6   3  -9    4.05    1.44 
   6  -3   9    0.33    1.17 
   6  -3   9   -0.24    1.74 
   6  -3   9    2.83    1.32 
  -7   3  -9    7.58    1.46 
  -7   3  -9   10.75    1.80 
   7  -3   9    9.00    1.65 
   7  -3   9    4.24    2.68 
   7  -3   9    8.39    1.61 
   8   2  -9    9.83    1.82 
   8   2  -9    9.57    1.59 
   8   2  -9   14.36    1.69 
  -8  -2   9   12.02    1.65 
  -8  -2   9   12.60    1.67 
  -8  -2   9   14.04    1.27 
   7   2  -9   67.80    3.21 
   7   2  -9   66.73    2.84 
   7   2  -9   74.81    2.86 
  -7  -2   9   65.99    2.89 
  -7  -2   9   68.83    2.39 
   6   2  -9   57.21    2.36 
   6   2  -9   55.86    2.75 
   6   2  -9   57.42    2.66 
  -6  -2   9   60.26    2.15 
  -6  -2   9   56.07    2.59 
   5   2  -9    4.35    1.13 
   5   2  -9    4.62    1.22 
   5   2  -9    2.68    0.77 
   5   2  -9    4.33    1.16 
  -5  -2   9    2.58    0.77 
  -5  -2   9    3.25    1.16 
  -5  -2   9    4.03    0.86 
   4   2  -9    1.33    0.90 
   4   2  -9    0.80    0.99 
   4   2  -9    2.22    1.11 
  -4  -2   9    1.35    0.78 
  -4  -2   9    1.91    1.08 
  -4  -2   9    1.10    0.64 
  -4  -2   9    0.71    0.94 
   3   2  -9    7.95    0.73 
   3   2  -9    6.38    1.24 
   3   2  -9    7.62    1.18 
   3   2  -9    5.92    1.06 
   3   2  -9    7.49    1.05 
  -3  -2   9    7.45    1.16 
  -3  -2   9    6.48    0.76 
  -3  -2   9    9.47    0.99 
  -3  -2   9    8.34    0.51 
  -3  -2   9    8.73    1.27 
   2   2  -9   48.65    2.15 
   2   2  -9   48.51    1.89 
   2   2  -9   45.72    2.03 
   2   2  -9   49.21    2.26 
  -2  -2   9   43.06    2.06 
  -2  -2   9   46.46    1.71 
  -2  -2   9   47.87    2.06 
   1   2  -9   64.29    2.46 
   1   2  -9   63.93    2.60 
   1   2  -9   66.75    2.13 
  -1  -2   9   64.79    3.65 
  -1  -2   9   66.60    2.13 
  -1  -2   9   70.94    2.65 
  -1  -2   9   61.96    2.42 
   0   2  -9  129.59    3.59 
   0   2  -9  130.73    3.19 
   0   2  -9  128.34    3.82 
   0  -2   9  132.02    3.68 
   0  -2   9  126.79    3.68 
   0  -2   9  132.72    3.74 
   0  -2   9  128.08    2.92 
   0  -2   9  128.85    5.11 
  -1   2  -9   41.03    1.69 
  -1   2  -9   44.93    2.06 
  -1   2  -9   46.45    1.78 
  -1   2  -9   41.50    2.18 
   1  -2   9   43.84    2.01 
   1  -2   9   46.09    1.39 
   1  -2   9   48.22    2.08 
   1  -2   9   46.03    2.13 
   1  -2   9   45.93    3.54 
  -2   2  -9   22.18    1.67 
  -2   2  -9   23.26    1.44 
  -2   2  -9   25.62    1.88 
  -2   2  -9   23.76    1.47 
   2  -2   9   20.90    1.71 
   2  -2   9   25.50    3.30 
   2  -2   9   22.61    1.14 
   2  -2   9   21.58    1.65 
   2  -2   9   25.25    1.87 
  -3   2  -9   37.38    1.88 
  -3   2  -9   36.49    1.94 
  -3   2  -9   35.37    2.10 
   3  -2   9   34.81    1.91 
   3  -2   9   35.19    2.03 
   3  -2   9   36.01    3.71 
   3  -2   9   36.61    1.53 
  -4   2  -9    5.35    1.34 
  -4   2  -9    5.97    1.18 
   4  -2   9    3.27    2.21 
   4  -2   9    4.44    1.08 
   4  -2   9    4.23    1.22 
  -5   2  -9   17.20    1.71 
  -5   2  -9   16.38    1.74 
   5  -2   9   13.08    2.76 
   5  -2   9   17.50    1.77 
   5  -2   9   16.36    1.48 
  -6   2  -9   11.66    1.69 
  -6   2  -9   11.49    1.67 
   6  -2   9   12.83    1.59 
   6  -2   9   10.38    2.70 
   6  -2   9   14.91    1.76 
  -7   2  -9   49.34    2.85 
  -7   2  -9   39.49    2.41 
   7  -2   9   41.10    4.73 
   7  -2   9   44.57    2.45 
   7  -2   9   47.13    2.61 
   9   1  -9   15.00    2.19 
   9   1  -9   22.61    1.97 
  -9  -1   9   20.71    1.62 
   8   1  -9   37.30    2.37 
   8   1  -9   38.11    2.29 
   8   1  -9   32.89    2.77 
  -8  -1   9   40.67    2.02 
  -8  -1   9   37.74    2.36 
   7   1  -9   17.31    1.94 
   7   1  -9   18.84    1.66 
   7   1  -9   17.34    1.66 
  -7  -1   9   15.90    1.48 
  -7  -1   9   19.44    1.74 
  -7  -1   9   16.01    1.30 
   6   1  -9    0.56    1.11 
   6   1  -9    0.18    1.00 
   6   1  -9    0.92    1.03 
  -6  -1   9    1.22    0.88 
  -6  -1   9    0.94    0.84 
   5   1  -9    1.99    0.85 
   5   1  -9    2.13    1.02 
   5   1  -9    0.42    1.01 
  -5  -1   9    2.05    0.80 
  -5  -1   9    0.73    1.04 
   4   1  -9   17.96    1.58 
   4   1  -9   16.35    1.63 
   4   1  -9   17.07    1.56 
  -4  -1   9   14.49    1.19 
  -4  -1   9   17.40    1.30 
  -4  -1   9   15.08    0.84 
  -4  -1   9   15.77    1.48 
   3   1  -9   37.31    2.04 
   3   1  -9   41.51    2.00 
   3   1  -9   42.87    1.94 
   3   1  -9   39.82    1.93 
  -3  -1   9   38.26    1.88 
  -3  -1   9   38.54    1.70 
  -3  -1   9   38.80    1.23 
  -3  -1   9   39.33    1.83 
   2   1  -9   95.86    2.47 
   2   1  -9   95.01    3.00 
   2   1  -9   94.64    2.95 
   2   1  -9   95.54    2.97 
   2   1  -9   98.09    2.93 
  -2  -1   9   95.50    2.40 
  -2  -1   9   96.85    2.96 
  -2  -1   9   94.07    3.10 
   1   1  -9  161.05    4.48 
   1   1  -9  164.88    4.37 
   1   1  -9  165.31    4.34 
  -1  -1   9  172.76    3.82 
   0   1  -9   16.76    1.45 
   0   1  -9   15.79    1.33 
   0   1  -9   15.76    0.96 
   0   1  -9   16.78    1.28 
   0  -1   9   13.75    1.40 
   0  -1   9   16.13    1.19 
   0  -1   9   16.17    1.39 
   0  -1   9   13.97    2.06 
   0  -1   9   15.16    1.00 
  -1   1  -9    5.64    1.12 
  -1   1  -9    4.94    1.14 
  -1   1  -9    6.25    0.85 
   1  -1   9    6.78    0.76 
   1  -1   9    5.00    1.08 
   1  -1   9    6.43    1.08 
   1  -1   9    4.26    0.97 
   1  -1   9    4.26    1.47 
  -2   1  -9    3.13    0.93 
  -2   1  -9    3.68    0.88 
  -2   1  -9    2.57    0.90 
   2  -1   9    3.58    1.08 
   2  -1   9    3.36    1.95 
   2  -1   9    2.94    0.83 
   2  -1   9    3.54    1.18 
   2  -1   9    2.21    0.74 
  -3   1  -9   10.16    1.44 
  -3   1  -9   11.59    1.25 
  -3   1  -9   13.25    1.24 
   3  -1   9   12.09    1.39 
   3  -1   9   12.49    1.51 
   3  -1   9   13.33    1.07 
   3  -1   9    8.82    2.30 
  -4   1  -9   23.50    2.03 
  -4   1  -9   24.62    1.79 
   4  -1   9   23.73    2.03 
   4  -1   9   25.17    1.88 
   4  -1   9   19.71    2.86 
  -5   1  -9   62.77    2.89 
  -5   1  -9   63.58    2.75 
   5  -1   9   66.13    2.57 
   5  -1   9   66.97    2.95 
   5  -1   9   62.64    4.70 
  -6   1  -9   33.14    2.08 
  -6   1  -9   32.73    2.33 
   6  -1   9   30.36    4.17 
   6  -1   9   37.12    2.48 
   6  -1   9   33.80    2.27 
  -7   1  -9   14.52    1.87 
  -7   1  -9   14.38    1.83 
   7  -1   9    8.24    2.94 
   7  -1   9   12.00    1.77 
   7  -1   9   14.25    1.72 
   9   0  -9   11.41    2.04 
   9   0  -9   13.18    1.65 
   9   0  -9   14.97    1.66 
  -9   0   9   18.48    1.55 
  -9   0   9   17.16    1.68 
   8   0  -9   -1.58    1.38 
   8   0  -9   -0.62    1.04 
   8   0  -9    0.71    1.09 
  -8   0   9   -0.15    1.18 
  -8   0   9    0.41    0.93 
   7   0  -9    1.53    1.34 
   7   0  -9    3.31    1.13 
   7   0  -9    3.82    1.18 
  -7   0   9    1.86    1.19 
  -7   0   9    3.77    1.01 
  -7   0   9    2.12    1.03 
   6   0  -9   46.97    2.69 
   6   0  -9   45.76    2.26 
   6   0  -9   45.54    2.19 
  -6   0   9   45.57    2.19 
  -6   0   9   43.72    2.21 
  -6   0   9   45.36    1.95 
   5   0  -9  161.21    4.75 
   5   0  -9  158.74    4.33 
   5   0  -9  149.91    4.38 
  -5   0   9  160.91    4.10 
  -5   0   9  167.64    4.42 
   4   0  -9   10.33    1.34 
   4   0  -9   12.40    1.29 
   4   0  -9   10.91    1.30 
  -4   0   9   12.14    1.16 
  -4   0   9   13.39    1.17 
  -4   0   9   11.02    1.28 
   3   0  -9   96.37    2.93 
   3   0  -9   84.02    2.91 
   3   0  -9   86.83    2.79 
   3   0  -9   90.70    3.09 
  -3   0   9   87.22    2.66 
  -3   0   9   85.43    2.89 
  -3   0   9   85.77    2.73 
   2   0  -9   43.25    2.08 
   2   0  -9   42.38    1.96 
   2   0  -9   41.54    1.90 
  -2   0   9   40.83    1.84 
  -2   0   9   41.17    1.08 
  -2   0   9   41.67    1.64 
  -2   0   9   40.26    1.99 
  -2   0   9   39.20    1.78 
  -2   0   9   40.32    1.09 
   1   0  -9    5.06    0.97 
   1   0  -9    4.72    1.09 
   1   0  -9    4.75    0.40 
   1   0  -9    4.43    1.00 
  -1   0   9    5.30    0.73 
  -1   0   9    3.33    1.08 
  -1   0   9    3.59    0.60 
   0   0  -9    5.26    0.94 
   0   0  -9    5.74    1.02 
   0   0  -9    4.63    1.02 
   0   0  -9    3.66    0.57 
   0   0   9    5.57    1.03 
   0   0   9    4.04    1.38 
   0   0   9    5.87    1.15 
   0   0   9    2.92    0.74 
   0   0   9    3.89    0.73 
  -1   0  -9   54.99    1.81 
  -1   0  -9   49.80    2.12 
  -1   0  -9   50.99    2.22 
  -1   0  -9   56.66    2.21 
   1   0   9   53.67    1.83 
   1   0   9   53.26    2.20 
   1   0   9   55.94    2.37 
   1   0   9   50.03    3.17 
  -2   0  -9   66.23    2.23 
  -2   0  -9   72.89    2.63 
  -2   0  -9   67.38    2.55 
   2   0   9   71.18    2.60 
   2   0   9   70.53    2.23 
   2   0   9   68.60    1.90 
   2   0   9   64.56    2.69 
   2   0   9   69.77    4.14 
  -3   0  -9   82.61    2.83 
  -3   0  -9   86.92    2.99 
  -3   0  -9   83.08    2.96 
   3   0   9   84.16    4.65 
   3   0   9   83.86    2.55 
   3   0   9   84.72    2.96 
   3   0   9   87.96    3.16 
  -4   0  -9   75.68    2.75 
  -4   0  -9   76.37    2.84 
  -4   0  -9   72.15    2.98 
   4   0   9   63.89    4.52 
   4   0   9   73.74    2.81 
   4   0   9   70.90    2.77 
  -5   0  -9   28.72    2.20 
  -5   0  -9   26.52    2.04 
   5   0   9   19.65    3.03 
   5   0   9   27.23    1.89 
   5   0   9   28.69    2.03 
  -6   0  -9    3.72    1.40 
  -6   0  -9    3.34    1.41 
   6   0   9   -1.54    2.25 
   6   0   9    1.58    1.32 
   6   0   9    2.74    1.23 
  -7   0  -9    1.83    1.43 
  -7   0  -9    3.23    1.50 
   7   0   9   -1.31    2.46 
   7   0   9    2.75    1.45 
   9  -1  -9   15.53    2.27 
   9  -1  -9   15.60    1.63 
   9  -1  -9   13.12    1.59 
  -9   1   9   14.34    1.74 
  -9   1   9   16.51    1.53 
   8  -1  -9   10.62    1.64 
   8  -1  -9    9.05    1.35 
   8  -1  -9   10.10    1.40 
  -8   1   9   13.24    1.59 
  -8   1   9    9.93    1.30 
   7  -1  -9   23.38    1.79 
   7  -1  -9   24.41    2.23 
   7  -1  -9   27.16    1.83 
  -7   1   9   24.53    1.67 
  -7   1   9   24.26    1.61 
   6  -1  -9  104.49    3.72 
   6  -1  -9  103.81    3.33 
   6  -1  -9  100.50    3.21 
  -6   1   9  100.33    3.21 
  -6   1   9  104.07    3.25 
  -6   1   9  104.27    3.10 
   5  -1  -9   57.05    2.78 
   5  -1  -9   51.60    2.19 
   5  -1  -9   54.80    2.32 
  -5   1   9   52.13    2.15 
  -5   1   9   52.71    2.10 
  -5   1   9   56.43    2.23 
   4  -1  -9   56.63    2.63 
   4  -1  -9   60.48    2.29 
   4  -1  -9   55.73    2.30 
  -4   1   9   57.18    2.27 
  -4   1   9   60.35    2.14 
  -4   1   9   58.80    2.15 
   3  -1  -9    6.32    1.00 
   3  -1  -9    5.24    1.09 
   3  -1  -9    6.04    1.15 
   3  -1  -9    6.17    1.06 
  -3   1   9    5.75    0.90 
  -3   1   9    7.15    1.08 
  -3   1   9    8.63    1.08 
   2  -1  -9   -0.26    0.76 
   2  -1  -9   -0.30    0.89 
   2  -1  -9   -0.06    0.86 
  -2   1   9   -0.25    0.68 
  -2   1   9   -0.62    0.73 
  -2   1   9    0.02    0.65 
   1  -1  -9   25.66    1.55 
   1  -1  -9   25.91    1.71 
   1  -1  -9   24.95    0.72 
   1  -1  -9   22.92    1.59 
  -1   1   9   23.71    0.99 
  -1   1   9   22.82    1.65 
  -1   1   9   23.89    1.43 
  -1   1   9   24.96    1.51 
   0  -1  -9   87.78    2.84 
   0  -1  -9   95.01    2.31 
   0  -1  -9   94.86    2.86 
   0  -1  -9   84.86    2.86 
   0   1   9   93.57    2.84 
   0   1   9   84.16    2.45 
   0   1   9   86.19    2.95 
   0   1   9   91.03    2.57 
   0   1   9   90.78    4.24 
  -1  -1  -9   18.86    1.51 
  -1  -1  -9   18.60    1.59 
  -1  -1  -9   15.93    1.50 
  -1  -1  -9   16.48    1.22 
   1   1   9   17.71    1.50 
   1   1   9   18.26    1.38 
   1   1   9   20.92    1.70 
   1   1   9   14.48    2.16 
  -2  -1  -9   41.55    1.83 
  -2  -1  -9   39.53    1.99 
  -2  -1  -9   41.78    2.24 
  -2  -1  -9   37.96    1.83 
   2   1   9   39.34    1.95 
   2   1   9   38.62    1.18 
   2   1   9   40.72    2.01 
   2   1   9   42.90    3.43 
   2   1   9   39.43    1.75 
  -3  -1  -9   42.95    2.34 
  -3  -1  -9   45.87    2.06 
  -3  -1  -9   44.93    2.24 
   3   1   9   47.89    1.97 
   3   1   9   46.33    2.38 
   3   1   9   47.20    2.20 
   3   1   9   43.18    3.68 
  -4  -1  -9   -0.05    1.07 
  -4  -1  -9    3.71    1.16 
  -4  -1  -9    1.72    0.95 
   4   1   9    1.99    1.02 
   4   1   9   -0.23    1.99 
   4   1   9    1.23    1.03 
   4   1   9    0.91    1.14 
  -5  -1  -9   12.83    1.63 
  -5  -1  -9   12.14    1.67 
   5   1   9   10.22    2.65 
   5   1   9   11.10    1.44 
   5   1   9   13.43    1.67 
  -6  -1  -9   25.34    2.17 
  -6  -1  -9   19.94    1.98 
   6   1   9   19.79    1.83 
   6   1   9   15.05    3.01 
  -7  -1  -9   12.54    1.93 
  -7  -1  -9   14.26    1.71 
   7   1   9    5.51    2.87 
   7   1   9   13.42    1.89 
   9  -2  -9   29.76    2.19 
   8  -2  -9   45.67    2.34 
   8  -2  -9   43.93    3.18 
   8  -2  -9   44.28    2.22 
  -8   2   9   45.23    2.41 
  -8   2   9   43.97    2.20 
   7  -2  -9   26.01    1.74 
   7  -2  -9   22.75    2.23 
   7  -2  -9   23.79    1.70 
  -7   2   9   21.93    1.81 
  -7   2   9   23.83    1.75 
   6  -2  -9   46.73    2.81 
   6  -2  -9   41.60    1.98 
   6  -2  -9   41.00    2.15 
  -6   2   9   45.63    2.10 
  -6   2   9   44.02    2.04 
   5  -2  -9    0.33    1.16 
   5  -2  -9   -0.19    0.85 
   5  -2  -9    1.85    0.89 
  -5   2   9    1.10    0.93 
  -5   2   9   -0.84    0.73 
  -5   2   9    1.35    0.91 
   4  -2  -9    8.23    1.10 
   4  -2  -9   10.95    1.20 
   4  -2  -9    8.61    1.39 
  -4   2   9   11.13    1.18 
  -4   2   9   10.51    1.06 
  -4   2   9    9.51    1.19 
   3  -2  -9    3.19    0.98 
   3  -2  -9    3.93    1.09 
   3  -2  -9    4.60    0.90 
   3  -2  -9    3.70    0.92 
  -3   2   9    4.32    0.96 
  -3   2   9    4.09    0.79 
  -3   2   9    3.45    0.98 
  -3   2   9    2.57    0.82 
  -3   2   9    3.70    0.94 
   2  -2  -9   50.16    2.11 
   2  -2  -9   48.45    2.02 
   2  -2  -9   43.26    1.89 
  -2   2   9   46.97    1.95 
  -2   2   9   46.56    1.83 
  -2   2   9   49.17    2.04 
  -2   2   9   48.66    1.65 
   1  -2  -9  128.93    3.72 
   1  -2  -9  123.79    3.60 
   1  -2  -9  135.99    3.61 
  -1   2   9  128.31    3.50 
  -1   2   9  131.54    3.53 
  -1   2   9  128.49    2.95 
  -1   2   9  134.82    3.08 
  -1   2   9  129.39    3.47 
  -1   2   9  133.96    3.71 
   0  -2  -9  118.51    3.54 
   0  -2  -9  113.45    3.42 
   0  -2  -9  122.94    3.41 
   0   2   9  115.38    3.48 
   0   2   9  117.52    3.24 
   0   2   9  122.01    3.35 
   0   2   9  117.42    3.01 
  -1  -2  -9  144.01    4.07 
  -1  -2  -9  157.77    4.22 
  -1  -2  -9  157.22    4.18 
   1   2   9  154.53    3.94 
   1   2   9  145.20    5.52 
   1   2   9  153.51    4.08 
   1   2   9  147.91    4.24 
  -2  -2  -9   18.28    1.38 
  -2  -2  -9   17.81    1.60 
   2   2   9   11.04    2.11 
   2   2   9   16.63    1.34 
   2   2   9   15.81    1.40 
   2   2   9   17.62    1.59 
  -3  -2  -9   -0.12    1.04 
  -3  -2  -9    1.00    1.13 
   3   2   9   -0.46    1.62 
   3   2   9    0.36    0.91 
   3   2   9   -2.18    0.86 
   3   2   9   -0.02    0.81 
  -4  -2  -9    1.55    0.89 
  -4  -2  -9    2.25    1.24 
   4   2   9    4.06    1.13 
   4   2   9    3.24    1.27 
   4   2   9    0.54    1.81 
  -5  -2  -9   26.77    2.26 
   5   2   9   27.40    1.91 
   5   2   9   22.65    3.03 
  -6  -2  -9   14.56    1.85 
   6   2   9   14.90    1.84 
   6   2   9    9.30    2.73 
  -7  -2  -9   15.57    2.04 
  -7  -2  -9   13.01    2.06 
   7   2   9   18.22    2.03 
   8  -3  -9   12.30    1.41 
   8  -3  -9   12.82    2.09 
   8  -3  -9   14.83    1.46 
  -8   3   9   12.50    1.48 
  -8   3   9   13.32    1.59 
   7  -3  -9   25.93    1.80 
   7  -3  -9   27.80    2.70 
   7  -3  -9   25.83    1.82 
  -7   3   9   25.35    1.86 
  -7   3   9   29.77    1.95 
   6  -3  -9    0.50    0.81 
   6  -3  -9    0.57    0.92 
   6  -3  -9   -1.06    1.24 
  -6   3   9    0.65    0.99 
  -6   3   9   -0.78    0.91 
   5  -3  -9   25.55    1.70 
   5  -3  -9   24.80    2.32 
   5  -3  -9   23.00    1.63 
  -5   3   9   24.28    1.68 
  -5   3   9   21.51    1.64 
   4  -3  -9   20.03    1.44 
   4  -3  -9   17.85    1.76 
   4  -3  -9   20.80    1.48 
  -4   3   9   18.82    1.43 
  -4   3   9   19.28    1.42 
  -4   3   9   17.52    1.45 
   3  -3  -9  133.64    3.71 
   3  -3  -9  137.75    4.02 
   3  -3  -9  132.16    3.83 
  -3   3   9  142.25    3.78 
  -3   3   9  140.79    3.73 
  -3   3   9  139.01    3.84 
  -3   3   9  139.73    3.45 
   2  -3  -9   20.75    1.53 
   2  -3  -9   17.91    0.84 
   2  -3  -9   20.43    1.47 
   2  -3  -9   23.29    1.51 
   2  -3  -9   18.13    1.36 
  -2   3   9   20.79    1.51 
  -2   3   9   20.48    1.55 
  -2   3   9   19.75    1.08 
  -2   3   9   18.17    1.26 
   1  -3  -9   34.47    1.86 
   1  -3  -9   33.77    1.77 
   1  -3  -9   34.71    1.71 
  -1   3   9   36.54    1.62 
  -1   3   9   34.28    1.17 
  -1   3   9   34.69    1.20 
  -1   3   9   36.31    1.58 
  -1   3   9   33.20    1.77 
  -1   3   9   35.65    1.78 
   0  -3  -9   -0.57    0.90 
   0  -3  -9    0.08    0.85 
   0  -3  -9    1.09    0.91 
   0   3   9   -0.50    0.57 
   0   3   9    0.56    0.76 
   0   3   9    0.81    0.88 
   0   3   9    1.02    0.71 
   0   3   9   -0.37    0.89 
   0   3   9    0.32    0.30 
  -1  -3  -9    0.25    0.97 
  -1  -3  -9    1.84    1.00 
   1   3   9   -0.09    0.88 
   1   3   9    0.31    0.96 
   1   3   9    0.01    0.80 
   1   3   9    0.15    1.34 
  -2  -3  -9   10.48    1.33 
  -2  -3  -9    9.50    1.37 
   2   3   9   10.68    1.41 
   2   3   9   11.66    2.02 
   2   3   9   11.15    1.30 
  -3  -3  -9   36.52    2.23 
  -3  -3  -9   35.94    2.11 
   3   3   9   32.62    3.18 
   3   3   9   34.92    2.17 
   3   3   9   32.48    1.95 
  -4  -3  -9   54.54    2.74 
  -4  -3  -9   56.17    2.60 
   4   3   9   56.26    2.46 
   4   3   9   57.45    4.27 
   4   3   9   59.23    2.76 
  -5  -3  -9   42.91    2.61 
   5   3   9   46.04    2.58 
   5   3   9   44.38    2.40 
   5   3   9   33.95    3.72 
  -6  -3  -9   47.66    2.84 
   6   3   9   47.35    2.79 
   6   3   9   34.78    4.54 
   8  -4  -9    2.53    0.99 
   8  -4  -9    0.05    1.54 
   8  -4  -9    1.98    0.96 
  -8   4   9    1.52    1.18 
  -8   4   9    1.76    1.13 
   7  -4  -9   30.76    1.82 
   7  -4  -9   31.00    1.77 
   7  -4  -9   27.67    2.78 
  -7   4   9   30.78    1.97 
  -7   4   9   31.11    2.01 
   6  -4  -9   10.29    1.18 
   6  -4  -9    9.32    1.15 
   6  -4  -9   10.07    1.75 
  -6   4   9   13.21    1.40 
  -6   4   9   10.20    1.17 
   5  -4  -9  107.85    4.04 
   5  -4  -9  107.84    3.13 
   5  -4  -9  107.10    3.07 
  -5   4   9  103.17    3.12 
  -5   4   9   99.71    3.06 
   4  -4  -9   33.48    1.80 
   4  -4  -9   35.36    1.80 
  -4   4   9   39.07    1.71 
  -4   4   9   36.18    1.60 
   3  -4  -9   47.33    2.11 
   3  -4  -9   46.41    1.94 
  -3   4   9   51.95    1.78 
  -3   4   9   49.61    2.08 
  -3   4   9   49.42    2.27 
  -3   4   9   52.59    2.00 
   2  -4  -9   64.18    2.36 
   2  -4  -9   64.19    2.29 
  -2   4   9   65.41    2.50 
  -2   4   9   66.99    2.29 
  -2   4   9   62.96    2.32 
  -2   4   9   65.46    1.86 
   1  -4  -9    1.94    0.95 
   1  -4  -9    1.25    0.88 
  -1   4   9    1.33    1.02 
  -1   4   9    0.98    0.83 
  -1   4   9    0.62    0.88 
  -1   4   9    1.99    0.46 
   0  -4  -9    2.70    1.02 
   0  -4  -9    2.84    0.84 
   0  -4  -9    2.97    0.98 
   0   4   9    2.46    0.96 
   0   4   9    3.27    0.94 
   0   4   9    2.86    0.87 
  -1  -4  -9    3.97    0.97 
  -1  -4  -9    1.80    1.07 
  -1  -4  -9    1.20    1.00 
   1   4   9    1.92    1.00 
   1   4   9    1.64    0.95 
   1   4   9    2.11    1.02 
  -2  -4  -9  112.97    3.66 
  -2  -4  -9  117.36    3.60 
  -2  -4  -9  114.58    3.64 
   2   4   9  112.10    3.52 
   2   4   9  118.57    3.66 
   2   4   9  112.72    4.81 
  -3  -4  -9   30.66    2.07 
  -3  -4  -9   28.44    2.13 
  -3  -4  -9   28.31    2.26 
   3   4   9   34.67    2.13 
   3   4   9   28.47    1.98 
   3   4   9   33.04    3.07 
  -4  -4  -9   15.35    1.73 
  -4  -4  -9   16.57    1.71 
  -4  -4  -9   17.35    1.83 
   4   4   9   15.59    1.66 
   4   4   9   13.94    2.33 
   4   4   9   17.41    1.76 
  -5  -4  -9   17.73    1.92 
  -5  -4  -9   15.66    1.75 
   5   4   9   17.81    1.88 
   5   4   9   15.98    1.81 
   5   4   9   12.10    2.56 
  -6  -4  -9    0.36    1.39 
   6   4   9    0.10    1.31 
   6   4   9   -4.19    1.83 
   6   4   9   -0.92    1.39 
   8  -5  -9   22.76    1.60 
  -8   5   9   26.40    2.04 
  -8   5   9   21.90    2.17 
   7  -5  -9   23.57    2.44 
   7  -5  -9   27.15    1.70 
   7  -5  -9   25.46    1.52 
  -7   5   9   28.35    1.92 
  -7   5   9   25.85    2.00 
   6  -5  -9   53.95    2.10 
   6  -5  -9   59.68    3.28 
   6  -5  -9   53.62    2.10 
  -6   5   9   54.50    2.44 
  -6   5   9   56.52    2.32 
   5  -5  -9   28.63    1.55 
   5  -5  -9   25.61    2.47 
   5  -5  -9   26.61    1.56 
  -5   5   9   28.86    1.75 
  -5   5   9   26.95    1.60 
   4  -5  -9    5.87    0.95 
   4  -5  -9    7.07    1.00 
  -4   5   9    6.17    0.99 
  -4   5   9    5.63    1.26 
  -4   5   9    6.86    1.16 
   3  -5  -9    4.70    0.99 
   3  -5  -9    4.58    0.89 
  -3   5   9    4.04    0.79 
  -3   5   9    5.67    1.24 
  -3   5   9    4.12    1.06 
   2  -5  -9   28.98    1.78 
   2  -5  -9   34.79    1.80 
  -2   5   9   32.69    2.04 
  -2   5   9   34.79    1.28 
  -2   5   9   33.82    1.79 
   1  -5  -9   53.40    1.94 
   1  -5  -9   59.01    2.25 
   1  -5  -9   51.94    2.13 
  -1   5   9   51.91    2.40 
  -1   5   9   55.79    2.13 
  -1   5   9   52.40    2.08 
   0  -5  -9   45.02    2.14 
   0  -5  -9   43.61    1.96 
   0  -5  -9   43.11    2.03 
   0   5   9   44.32    1.89 
   0   5   9   43.96    2.24 
   0   5   9   43.49    2.00 
  -1  -5  -9   80.71    2.91 
  -1  -5  -9   77.93    2.88 
  -1  -5  -9   78.06    2.81 
   1   5   9   80.42    2.84 
   1   5   9   77.61    2.88 
   1   5   9   81.56    2.60 
  -2  -5  -9   21.50    1.87 
  -2  -5  -9   21.94    1.80 
  -2  -5  -9   23.29    1.89 
   2   5   9   18.45    1.41 
   2   5   9   20.71    1.72 
   2   5   9   19.99    1.76 
  -3  -5  -9   65.10    2.77 
  -3  -5  -9   68.13    2.92 
  -3  -5  -9   62.61    3.04 
   3   5   9   63.93    3.69 
   3   5   9   61.16    2.74 
   3   5   9   63.62    2.77 
  -4  -5  -9    0.54    1.31 
  -4  -5  -9    0.49    1.13 
  -4  -5  -9    0.42    1.25 
   4   5   9    1.63    1.52 
   4   5   9   -1.47    1.10 
   4   5   9   -0.61    1.22 
  -5  -5  -9    1.56    1.44 
  -5  -5  -9    0.70    1.38 
  -5  -5  -9   -0.05    1.24 
   5   5   9   -0.60    1.25 
   5   5   9    0.02    1.78 
   5   5   9   -1.11    1.33 
   7  -6  -9   34.84    1.79 
   7  -6  -9   39.15    3.24 
  -7   6   9   41.81    2.35 
  -7   6   9   41.67    2.24 
   6  -6  -9    4.54    1.60 
   6  -6  -9    1.92    0.81 
   6  -6  -9    2.50    0.78 
  -6   6   9    4.14    1.09 
  -6   6   9    2.33    1.19 
   5  -6  -9    1.29    0.80 
   5  -6  -9    2.15    1.38 
   5  -6  -9    1.90    0.76 
  -5   6   9    0.11    1.00 
  -5   6   9    3.28    0.94 
   4  -6  -9    7.82    0.99 
   4  -6  -9    7.54    1.03 
  -4   6   9   10.60    1.08 
  -4   6   9    7.60    1.21 
  -4   6   9    7.04    1.48 
   3  -6  -9   16.73    1.40 
   3  -6  -9   18.92    1.46 
  -3   6   9   20.62    1.28 
  -3   6   9   16.93    1.69 
  -3   6   9   19.99    1.49 
   2  -6  -9   27.28    1.67 
   2  -6  -9   29.26    1.70 
  -2   6   9   28.00    2.06 
  -2   6   9   25.72    1.68 
   1  -6  -9   47.04    2.04 
   1  -6  -9   52.22    2.14 
  -1   6   9   50.13    2.45 
  -1   6   9   50.86    2.07 
   0  -6  -9   27.79    1.87 
   0  -6  -9   28.74    1.90 
   0  -6  -9   30.95    2.00 
   0   6   9   30.27    1.63 
   0   6   9   28.84    2.04 
  -1  -6  -9   15.05    1.46 
  -1  -6  -9   14.49    1.48 
  -1  -6  -9   14.44    1.46 
   1   6   9   15.32    1.27 
   1   6   9   16.31    1.48 
  -2  -6  -9    4.88    1.32 
  -2  -6  -9    7.89    1.33 
  -2  -6  -9    5.04    1.21 
   2   6   9    5.59    1.07 
   2   6   9    7.83    1.44 
  -3  -6  -9    1.51    1.27 
  -3  -6  -9    2.05    1.16 
  -3  -6  -9    2.05    1.25 
   3   6   9    2.03    1.26 
   3   6   9    1.16    0.99 
  -4  -6  -9   26.51    2.28 
  -4  -6  -9   28.89    2.19 
  -4  -6  -9   28.75    2.51 
   4   6   9   27.45    2.21 
   4   6   9   23.39    1.77 
  -5  -6  -9   15.09    1.91 
  -5  -6  -9   12.88    1.94 
  -5  -6  -9   15.61    1.87 
   5   6   9   11.56    1.82 
   6  -7  -9    1.35    0.73 
   6  -7  -9    2.17    1.56 
  -6   7   9    1.39    1.02 
  -6   7   9    3.49    1.23 
   5  -7  -9   19.88    2.16 
   5  -7  -9   22.11    1.42 
   5  -7  -9   25.48    1.52 
  -5   7   9   24.61    1.74 
  -5   7   9   22.37    1.74 
   4  -7  -9    8.12    1.00 
   4  -7  -9   10.06    0.99 
  -4   7   9    8.63    1.54 
  -4   7   9    8.00    1.28 
   3  -7  -9   68.32    2.36 
   3  -7  -9   74.07    2.43 
  -3   7   9   71.49    2.63 
  -3   7   9   71.57    3.05 
   2  -7  -9   70.80    2.44 
   2  -7  -9   65.48    2.44 
  -2   7   9   69.11    2.95 
  -2   7   9   66.34    2.47 
   1  -7  -9    1.51    0.98 
   1  -7  -9    1.25    0.85 
  -1   7   9    0.56    0.87 
  -1   7   9    1.86    1.26 
   0  -7  -9    8.56    1.29 
   0  -7  -9    8.15    1.24 
   0  -7  -9    5.49    1.40 
   0   7   9    9.61    1.48 
   0   7   9    8.65    1.07 
  -1  -7  -9    3.54    1.41 
  -1  -7  -9    4.77    1.15 
  -1  -7  -9    2.79    1.22 
   1   7   9    4.96    1.35 
   1   7   9    5.32    0.96 
  -2  -7  -9    6.92    1.30 
  -2  -7  -9    6.30    1.44 
  -2  -7  -9    2.99    1.48 
   2   7   9    6.06    1.04 
   2   7   9    7.62    1.50 
  -3  -7  -9    9.33    1.81 
  -3  -7  -9   10.64    1.55 
  -3  -7  -9   11.82    1.61 
   3   7   9   10.52    1.63 
  -4  -7  -9   63.65    3.28 
  -4  -7  -9   65.83    3.04 
  -4  -7  -9   61.22    3.37 
   4   7   9   66.63    3.19 
   5  -8  -9   16.29    1.25 
   5  -8  -9   14.05    2.00 
  -5   8   9   17.86    1.67 
   4  -8  -9   18.46    1.41 
  -4   8   9   16.80    1.95 
  -4   8   9   21.27    1.64 
   3  -8  -9   25.24    1.59 
   3  -8  -9   25.28    1.49 
  -3   8   9   28.94    1.86 
  -3   8   9   27.87    2.34 
   2  -8  -9    0.33    0.83 
   2  -8  -9    0.90    0.85 
  -2   8   9    0.56    1.29 
  -2   8   9    1.88    0.96 
   1  -8  -9    0.00    0.93 
   1  -8  -9   -0.32    0.93 
  -1   8   9    1.45    0.99 
  -1   8   9    1.82    1.30 
   0  -8  -9   25.27    1.91 
   0  -8  -9   22.38    1.69 
   0   8   9   25.87    1.59 
   0   8   9   27.64    2.26 
  -1  -8  -9   14.34    1.60 
  -1  -8  -9   16.56    1.62 
  -1  -8  -9   14.59    2.27 
   1   8   9   18.08    1.88 
   1   8   9   17.14    1.36 
  -2  -8  -9   20.70    2.07 
  -2  -8  -9   23.56    2.02 
  -2  -8  -9   26.49    2.02 
   2   8   9   22.47    2.07 
  -3  -8  -9   31.84    2.24 
  -3  -8  -9   28.17    2.27 
   3  -9  -9    0.34    0.89 
  -3   9   9    0.19    1.00 
  -3   9   9    0.22    1.08 
   2  -9  -9    9.19    1.07 
   2  -9  -9    9.22    1.12 
  -2   9   9    9.30    1.23 
  -2   9   9    9.46    1.42 
   1  -9  -9   36.14    1.98 
   1  -9  -9   39.53    2.04 
  -1   9   9   40.92    2.07 
  -1   9   9   38.61    2.57 
   0  -9  -9   11.66    1.42 
   0  -9  -9    9.80    1.34 
   0   9   9   10.96    1.72 
   1   9 -10    4.64    1.36 
   1   9 -10    5.50    1.46 
  -1  -9  10    4.18    1.66 
  -1  -9  10    5.00    1.47 
  -1  -9  10    4.74    1.41 
   0   9 -10   28.50    2.32 
   0   9 -10   32.51    2.41 
   0  -9  10   26.46    2.23 
   0  -9  10   27.12    2.72 
   0  -9  10   31.23    2.23 
   4   8 -10    2.32    1.56 
   4   8 -10    1.33    1.05 
  -4  -8  10   -0.08    1.43 
  -4  -8  10   -1.23    1.34 
  -4  -8  10    0.17    1.49 
   3   8 -10    5.41    1.26 
   3   8 -10    6.55    1.60 
  -3  -8  10    4.25    1.55 
  -3  -8  10    4.86    1.41 
  -3  -8  10    6.24    1.51 
   2   8 -10   52.07    2.57 
   2   8 -10   47.52    2.64 
  -2  -8  10   45.48    2.90 
  -2  -8  10   52.20    2.80 
  -2  -8  10   53.60    2.72 
   1   8 -10   13.83    1.65 
   1   8 -10   15.33    1.73 
  -1  -8  10   13.11    1.87 
  -1  -8  10   14.86    1.71 
  -1  -8  10   15.34    1.77 
   0   8 -10   22.54    1.89 
   0   8 -10   26.28    2.17 
   0  -8  10   30.73    2.78 
   0  -8  10   27.73    2.19 
   0  -8  10   23.34    2.06 
  -1   8 -10   22.13    1.98 
  -1   8 -10   22.53    1.88 
   1  -8  10   21.13    1.83 
   1  -8  10   16.99    2.06 
   1  -8  10   19.62    1.87 
   1  -8  10   14.06    2.48 
  -2   8 -10   -0.97    0.94 
   2  -8  10    1.36    1.41 
   2  -8  10    0.65    1.09 
   2  -8  10   -3.53    1.94 
   2  -8  10   -0.19    1.13 
  -3   8 -10    1.33    1.31 
   3  -8  10    0.17    1.25 
   3  -8  10    1.75    1.21 
   5   7 -10    5.52    1.58 
  -5  -7  10    2.74    1.46 
  -5  -7  10    2.67    1.51 
   4   7 -10   10.12    1.64 
   4   7 -10   13.38    1.48 
  -4  -7  10    8.98    1.59 
  -4  -7  10    9.90    1.61 
  -4  -7  10    9.99    1.47 
   3   7 -10   66.02    3.03 
   3   7 -10   66.79    2.65 
  -3  -7  10   67.57    3.10 
  -3  -7  10   67.56    2.98 
  -3  -7  10   61.34    3.00 
   2   7 -10   24.79    2.10 
   2   7 -10   30.24    2.02 
  -2  -7  10   25.34    2.48 
  -2  -7  10   31.18    2.30 
  -2  -7  10   24.84    2.13 
   1   7 -10   28.27    2.08 
   1   7 -10   27.81    2.07 
  -1  -7  10   26.45    2.28 
  -1  -7  10   26.89    2.09 
  -1  -7  10   26.91    1.89 
   0   7 -10    4.79    1.21 
   0   7 -10    9.40    1.63 
   0   7 -10    5.30    1.35 
   0  -7  10    7.04    1.47 
   0  -7  10    5.68    1.34 
   0  -7  10    7.06    1.93 
   0  -7  10    7.94    1.44 
  -1   7 -10    0.48    0.92 
  -1   7 -10    1.03    1.26 
   1  -7  10    1.19    1.17 
   1  -7  10    1.90    1.22 
   1  -7  10   -0.03    1.09 
   1  -7  10   -0.60    1.72 
  -2   7 -10    4.41    1.40 
   2  -7  10    4.43    1.24 
   2  -7  10    3.31    1.28 
  -3   7 -10   14.81    1.85 
  -3   7 -10   14.70    1.75 
   3  -7  10   16.22    1.70 
  -4   7 -10   32.36    2.44 
  -4   7 -10   33.72    2.52 
   4  -7  10   33.22    2.20 
   4  -7  10   22.46    3.59 
   6   6 -10   11.13    1.79 
  -6  -6  10    7.83    1.72 
   5   6 -10   62.77    3.02 
  -5  -6  10   64.57    3.10 
  -5  -6  10   52.00    2.84 
   4   6 -10   13.08    1.35 
   4   6 -10   12.97    1.77 
  -4  -6  10   11.22    1.50 
  -4  -6  10   13.24    1.74 
  -4  -6  10   10.78    1.53 
   3   6 -10   27.59    1.80 
   3   6 -10   26.26    2.16 
  -3  -6  10   26.52    1.56 
  -3  -6  10   24.85    2.20 
  -3  -6  10   25.73    2.20 
  -3  -6  10   25.31    2.07 
   2   6 -10   13.65    1.65 
   2   6 -10   14.36    1.47 
  -2  -6  10   16.08    1.65 
  -2  -6  10   17.44    1.78 
  -2  -6  10   14.95    1.61 
   1   6 -10   10.65    1.53 
   1   6 -10   10.98    1.43 
  -1  -6  10   11.04    1.53 
  -1  -6  10    7.87    1.33 
  -1  -6  10   10.32    1.44 
   0   6 -10    7.08    1.34 
   0   6 -10    6.26    1.34 
   0  -6  10    4.55    1.25 
   0  -6  10    5.72    1.33 
   0  -6  10    6.70    2.00 
   0  -6  10    4.66    1.24 
  -1   6 -10   39.83    2.24 
  -1   6 -10   37.77    2.31 
  -1   6 -10   35.04    1.93 
   1  -6  10   39.38    2.37 
   1  -6  10   37.12    2.27 
   1  -6  10   34.85    2.16 
   1  -6  10   35.90    3.81 
  -2   6 -10   55.37    2.65 
  -2   6 -10   50.57    2.48 
   2  -6  10   53.76    2.63 
   2  -6  10   50.21    4.62 
  -3   6 -10   13.74    1.68 
  -3   6 -10   13.76    1.75 
   3  -6  10   16.59    1.64 
   3  -6  10    8.14    2.68 
  -4   6 -10   41.23    2.49 
  -4   6 -10   35.84    2.47 
   4  -6  10   30.61    3.80 
   4  -6  10   38.46    2.37 
   4  -6  10   39.27    2.33 
  -5   6 -10    9.42    1.70 
  -5   6 -10   11.81    1.69 
   5  -6  10    7.05    1.51 
   5  -6  10    7.20    1.56 
   5  -6  10    1.37    2.79 
   7   5 -10   33.06    2.62 
  -7  -5  10   34.59    2.59 
   6   5 -10   42.49    2.67 
  -6  -5  10   37.98    2.62 
   5   5 -10   15.52    1.47 
   5   5 -10   17.25    1.71 
  -5  -5  10   16.50    1.88 
  -5  -5  10   13.73    1.71 
   4   5 -10    6.46    1.24 
   4   5 -10    6.06    1.10 
  -4  -5  10    6.07    0.95 
  -4  -5  10    6.80    1.47 
  -4  -5  10    5.27    1.21 
  -4  -5  10    3.49    1.26 
   3   5 -10    4.28    1.14 
   3   5 -10    3.47    1.27 
  -3  -5  10    2.97    1.10 
  -3  -5  10    1.21    1.25 
  -3  -5  10    4.55    1.26 
  -3  -5  10    3.83    0.96 
   2   5 -10   13.01    1.42 
   2   5 -10   15.41    1.48 
  -2  -5  10   13.97    1.40 
  -2  -5  10   13.85    1.62 
  -2  -5  10   12.92    1.50 
   1   5 -10    0.70    1.05 
   1   5 -10    3.45    1.01 
  -1  -5  10    3.32    1.04 
  -1  -5  10    4.10    1.59 
  -1  -5  10    3.30    1.18 
  -1  -5  10    2.30    1.23 
   0   5 -10   70.10    2.83 
   0   5 -10   62.72    2.66 
   0  -5  10   70.97    2.81 
   0  -5  10   69.93    4.03 
   0  -5  10   61.73    2.68 
   0  -5  10   65.55    2.86 
  -1   5 -10   57.71    2.64 
  -1   5 -10   67.30    2.77 
  -1   5 -10   60.37    2.39 
   1  -5  10   65.74    2.81 
   1  -5  10   60.54    4.09 
  -2   5 -10   17.12    1.70 
  -2   5 -10   18.76    1.72 
  -2   5 -10   14.34    1.60 
  -2   5 -10   12.44    1.09 
   2  -5  10   15.87    1.68 
   2  -5  10   17.70    1.64 
   2  -5  10   11.27    2.54 
  -3   5 -10   26.20    1.97 
  -3   5 -10   26.48    2.00 
  -3   5 -10   25.22    2.11 
   3  -5  10   24.73    1.98 
   3  -5  10   18.83    3.03 
   3  -5  10   26.27    2.10 
  -4   5 -10    2.99    1.36 
  -4   5 -10    2.93    1.30 
   4  -5  10    2.35    1.19 
   4  -5  10   -1.48    2.31 
   4  -5  10    3.04    1.27 
  -5   5 -10    4.68    1.48 
  -5   5 -10    8.46    1.61 
   5  -5  10    5.05    1.38 
   5  -5  10    6.00    1.47 
   5  -5  10   -0.17    2.60 
  -6   5 -10   12.58    1.83 
  -6   5 -10    8.50    1.67 
   6  -5  10    3.07    2.35 
   6  -5  10    8.61    1.52 
   6  -5  10    7.98    1.57 
   7   4 -10   33.47    2.49 
   7   4 -10   24.67    2.32 
  -7  -4  10   30.76    2.46 
   6   4 -10   -0.10    1.18 
   6   4 -10    0.54    0.96 
  -6  -4  10    2.06    1.36 
   5   4 -10    9.43    1.34 
   5   4 -10    6.61    1.28 
   5   4 -10    7.69    1.01 
  -5  -4  10    9.21    1.56 
  -5  -4  10    9.23    1.04 
   4   4 -10   35.75    1.92 
   4   4 -10   39.94    1.93 
   4   4 -10   35.59    1.94 
   4   4 -10   40.95    2.41 
  -4  -4  10   38.40    1.77 
  -4  -4  10   37.02    1.96 
  -4  -4  10   41.29    2.42 
  -4  -4  10   38.89    1.95 
   3   4 -10   34.92    1.70 
   3   4 -10   33.86    1.80 
   3   4 -10   30.29    2.23 
   3   4 -10   34.11    1.81 
  -3  -4  10   26.11    2.11 
  -3  -4  10   32.41    1.84 
  -3  -4  10   32.33    1.73 
  -3  -4  10   32.33    1.82 
   2   4 -10   68.43    2.12 
   2   4 -10   66.29    2.54 
   2   4 -10   64.60    2.64 
   2   4 -10   72.69    2.57 
  -2  -4  10   69.77    2.58 
  -2  -4  10   69.15    2.56 
  -2  -4  10   65.62    2.85 
   1   4 -10   68.63    2.82 
   1   4 -10   68.99    2.63 
   1   4 -10   65.76    2.40 
  -1  -4  10   66.13    2.63 
  -1  -4  10   62.34    2.46 
  -1  -4  10   64.60    2.48 
  -1  -4  10   68.65    3.85 
   0   4 -10   35.86    2.19 
   0   4 -10   31.80    2.02 
   0  -4  10   32.67    2.02 
   0  -4  10   33.28    3.21 
   0  -4  10   29.97    2.12 
  -1   4 -10   25.33    1.98 
  -1   4 -10   24.16    1.98 
  -1   4 -10   24.44    1.54 
   1  -4  10   18.30    2.51 
   1  -4  10   25.30    1.88 
  -2   4 -10   -0.08    1.12 
  -2   4 -10    0.96    0.93 
  -2   4 -10    2.13    0.93 
   2  -4  10    0.37    1.88 
   2  -4  10   -0.75    1.04 
   2  -4  10    0.66    1.11 
  -3   4 -10    2.03    1.08 
  -3   4 -10    0.87    1.15 
  -3   4 -10    2.01    1.27 
   3  -4  10    2.30    0.97 
   3  -4  10    3.37    1.16 
   3  -4  10   -1.14    2.06 
  -4   4 -10    1.64    1.19 
  -4   4 -10    0.68    1.25 
  -4   4 -10    0.28    1.12 
   4  -4  10    2.49    1.26 
   4  -4  10   -3.41    2.22 
   4  -4  10    1.79    1.17 
  -5   4 -10   31.12    2.30 
  -5   4 -10   36.25    2.41 
   5  -4  10   38.01    2.32 
   5  -4  10   33.04    2.34 
   5  -4  10   28.28    3.75 
  -6   4 -10   42.98    2.72 
  -6   4 -10   40.84    2.50 
   6  -4  10   31.27    4.04 
   6  -4  10   37.91    2.46 
   6  -4  10   41.69    2.79 
   8   3 -10    0.07    1.36 
   8   3 -10   -1.96    1.36 
  -8  -3  10   -2.56    1.52 
  -8  -3  10   -0.49    1.34 
   7   3 -10   -0.39    1.27 
   7   3 -10    0.63    1.32 
   7   3 -10   -0.22    1.16 
  -7  -3  10    0.24    0.95 
  -7  -3  10    0.48    1.29 
   6   3 -10    9.38    1.56 
   6   3 -10    9.16    1.60 
   6   3 -10   11.09    1.55 
  -6  -3  10   10.95    1.09 
  -6  -3  10   11.16    1.62 
   5   3 -10   29.66    1.57 
   5   3 -10   28.52    2.17 
   5   3 -10   30.75    2.09 
   5   3 -10   31.26    1.95 
  -5  -3  10   30.10    1.68 
  -5  -3  10   31.75    2.21 
   4   3 -10   30.01    1.60 
   4   3 -10   29.93    2.19 
   4   3 -10   30.89    1.92 
   4   3 -10   30.52    2.00 
  -4  -3  10   31.31    1.88 
  -4  -3  10   30.55    1.56 
  -4  -3  10   25.45    1.52 
  -4  -3  10   29.66    1.96 
   3   3 -10   73.17    2.52 
   3   3 -10   69.93    2.48 
   3   3 -10   71.30    2.77 
   3   3 -10   76.34    2.81 
  -3  -3  10   72.86    2.77 
  -3  -3  10   73.43    2.80 
  -3  -3  10   72.18    2.38 
  -3  -3  10   71.34    2.38 
   2   3 -10   28.71    1.53 
   2   3 -10   28.98    1.91 
   2   3 -10   26.72    2.03 
  -2  -3  10   28.82    1.58 
  -2  -3  10   29.96    1.91 
  -2  -3  10   27.40    1.77 
   1   3 -10   21.77    1.25 
   1   3 -10   20.88    1.91 
   1   3 -10   24.58    1.77 
  -1  -3  10   22.10    2.85 
  -1  -3  10   20.29    1.74 
  -1  -3  10   23.04    1.55 
  -1  -3  10   20.49    1.88 
   0   3 -10    4.02    1.09 
   0   3 -10    4.90    1.06 
   0   3 -10    4.42    0.83 
   0  -3  10    3.38    1.79 
  -1   3 -10    4.92    1.06 
  -1   3 -10    2.56    1.05 
  -1   3 -10    2.92    0.91 
   1  -3  10    3.77    1.19 
   1  -3  10    3.14    1.90 
   1  -3  10    4.23    0.96 
  -2   3 -10   70.28    2.88 
  -2   3 -10   75.37    2.51 
   2  -3  10   65.08    2.84 
   2  -3  10   68.62    4.50 
   2  -3  10   68.69    2.74 
  -3   3 -10   30.38    1.88 
  -3   3 -10   30.23    2.11 
   3  -3  10   29.76    2.04 
   3  -3  10   24.49    3.21 
   3  -3  10   28.84    2.13 
  -4   3 -10   60.08    2.60 
  -4   3 -10   58.20    2.75 
   4  -3  10   61.15    2.69 
   4  -3  10   55.79    2.53 
   4  -3  10   53.32    4.10 
  -5   3 -10   12.55    1.66 
  -5   3 -10   13.27    1.68 
   5  -3  10   13.66    1.64 
   5  -3  10   12.20    1.70 
   5  -3  10    8.89    2.85 
  -6   3 -10   16.51    1.80 
  -6   3 -10   19.48    1.99 
   6  -3  10   18.69    1.90 
   6  -3  10   18.74    1.94 
   6  -3  10   14.92    3.32 
   8   2 -10   -0.82    1.23 
   8   2 -10   -1.98    1.39 
   8   2 -10   -0.66    1.16 
  -8  -2  10   -2.81    1.28 
  -8  -2  10   -0.33    0.85 
   7   2 -10   48.71    2.55 
   7   2 -10   50.48    2.66 
   7   2 -10   39.56    2.74 
  -7  -2  10   44.84    2.04 
  -7  -2  10   50.05    2.64 
   6   2 -10   22.13    2.13 
   6   2 -10   27.54    2.14 
   6   2 -10   27.93    2.05 
  -6  -2  10   24.59    1.52 
  -6  -2  10   22.67    2.01 
   5   2 -10   56.47    2.08 
   5   2 -10   59.11    2.65 
   5   2 -10   60.26    2.73 
   5   2 -10   61.64    2.60 
  -5  -2  10   60.70    2.17 
  -5  -2  10   54.02    2.62 
   4   2 -10  103.48    3.43 
   4   2 -10  102.58    3.56 
   4   2 -10  106.73    3.39 
  -4  -2  10  103.46    3.51 
  -4  -2  10  100.35    3.04 
   3   2 -10    2.90    1.18 
   3   2 -10    0.67    0.86 
   3   2 -10    1.46    1.05 
  -3  -2  10    2.20    0.83 
  -3  -2  10    1.51    0.61 
  -3  -2  10    4.27    0.94 
  -3  -2  10    1.88    0.91 
   2   2 -10    0.75    1.02 
   2   2 -10    2.44    0.84 
   2   2 -10    2.14    1.17 
  -2  -2  10    1.68    0.67 
  -2  -2  10    3.03    1.08 
  -2  -2  10    5.81    1.26 
   1   2 -10    0.81    0.70 
   1   2 -10    0.51    1.03 
   1   2 -10   -0.32    1.08 
  -1  -2  10    2.15    1.04 
  -1  -2  10    1.89    0.72 
  -1  -2  10    0.88    1.10 
   0   2 -10   69.06    2.05 
   0   2 -10   67.66    2.62 
   0   2 -10   66.03    2.56 
   0  -2  10   67.98    1.81 
   0  -2  10   71.72    2.66 
   0  -2  10   68.81    4.02 
   0  -2  10   68.94    2.80 
  -1   2 -10    2.78    1.19 
  -1   2 -10    3.07    0.81 
  -1   2 -10    3.40    1.08 
   1  -2  10    4.22    1.22 
   1  -2  10    2.79    1.12 
   1  -2  10    4.00    0.59 
   1  -2  10    4.56    1.98 
  -2   2 -10  137.53    4.03 
  -2   2 -10  135.86    3.96 
  -2   2 -10  134.76    3.71 
   2  -2  10  138.13    3.27 
   2  -2  10  132.60    5.82 
   2  -2  10  136.55    4.04 
   2  -2  10  130.29    4.13 
  -3   2 -10   33.69    1.87 
  -3   2 -10   37.47    2.25 
   3  -2  10   35.46    2.00 
   3  -2  10   31.24    2.09 
   3  -2  10   33.92    1.53 
   3  -2  10   33.40    3.92 
  -4   2 -10    8.75    1.34 
  -4   2 -10    7.84    1.49 
   4  -2  10    8.26    1.51 
   4  -2  10    6.43    2.12 
   4  -2  10    9.66    1.08 
   4  -2  10   10.39    1.47 
  -5   2 -10   15.35    1.79 
  -5   2 -10   15.24    1.70 
   5  -2  10   12.51    1.65 
   5  -2  10   11.21    2.53 
   5  -2  10   16.26    1.65 
  -6   2 -10    1.79    1.23 
  -6   2 -10    0.39    1.30 
   6  -2  10   -5.84    2.34 
   6  -2  10   -0.82    1.28 
   6  -2  10   -1.16    1.20 
   8   1 -10   53.02    3.44 
   8   1 -10   51.69    2.67 
   8   1 -10   47.97    2.67 
  -8  -1  10   51.12    2.68 
  -8  -1  10   51.99    2.31 
   7   1 -10   46.07    2.50 
   7   1 -10   38.91    2.32 
   7   1 -10   42.99    2.84 
  -7  -1  10   42.42    1.96 
  -7  -1  10   40.39    2.37 
  -7  -1  10   42.58    2.42 
   6   1 -10   19.44    2.01 
   6   1 -10   21.89    1.88 
   6   1 -10   22.88    2.01 
  -6  -1  10   21.71    1.85 
  -6  -1  10   22.90    1.56 
   5   1 -10   63.84    2.97 
   5   1 -10   62.39    2.62 
   5   1 -10   63.25    2.74 
  -5  -1  10   63.51    2.29 
  -5  -1  10   63.49    2.69 
   4   1 -10   -0.33    0.96 
   4   1 -10    0.43    1.07 
   4   1 -10    0.92    0.97 
  -4  -1  10    0.58    0.82 
  -4  -1  10    0.44    1.05 
   3   1 -10   20.27    1.76 
   3   1 -10   17.93    1.63 
   3   1 -10   18.16    1.54 
  -3  -1  10   18.15    1.45 
  -3  -1  10   17.33    1.33 
  -3  -1  10   20.29    1.78 
  -3  -1  10   18.15    0.84 
   2   1 -10   34.61    2.09 
   2   1 -10   34.67    1.77 
   2   1 -10   36.35    2.83 
   2   1 -10   37.41    1.94 
  -2  -1  10   34.77    2.08 
  -2  -1  10   33.71    1.28 
  -2  -1  10   35.62    1.71 
   1   1 -10   76.80    2.80 
   1   1 -10   79.93    2.76 
   1   1 -10   84.21    3.00 
  -1  -1  10   78.79    2.18 
  -1  -1  10   77.69    2.30 
   0   1 -10   51.68    1.65 
   0   1 -10   51.73    2.29 
   0   1 -10   50.91    2.21 
   0  -1  10   53.60    1.70 
   0  -1  10   51.88    3.68 
   0  -1  10   48.58    2.37 
   0  -1  10   51.66    2.27 
  -1   1 -10   74.96    2.26 
  -1   1 -10   77.68    2.94 
  -1   1 -10   70.05    2.56 
   1  -1  10   72.65    2.73 
   1  -1  10   75.26    3.96 
   1  -1  10   72.96    2.13 
   1  -1  10   76.44    2.92 
  -2   1 -10   28.00    1.79 
  -2   1 -10   31.13    1.67 
  -2   1 -10   32.83    1.99 
   2  -1  10   30.61    2.96 
   2  -1  10   32.31    2.00 
   2  -1  10   26.82    2.05 
   2  -1  10   33.44    1.50 
  -3   1 -10    2.87    0.99 
  -3   1 -10    2.15    1.24 
  -3   1 -10    3.64    1.15 
   3  -1  10    2.70    1.25 
   3  -1  10    4.35    0.90 
   3  -1  10    1.05    2.13 
   3  -1  10    2.81    1.15 
  -4   1 -10    0.83    1.14 
  -4   1 -10   -1.06    1.17 
   4  -1  10   -0.62    1.07 
   4  -1  10   -1.30    0.90 
   4  -1  10   -2.12    2.07 
   4  -1  10    1.11    1.25 
  -5   1 -10   14.20    1.62 
  -5   1 -10   16.56    1.88 
   5  -1  10   11.93    2.94 
   5  -1  10   16.34    1.86 
   5  -1  10   16.50    1.75 
  -6   1 -10   19.94    1.93 
  -6   1 -10   18.99    2.05 
   6  -1  10   15.25    3.26 
   6  -1  10   18.12    2.01 
   6  -1  10   18.00    1.83 
   8   0 -10   20.94    1.89 
   8   0 -10   16.15    2.11 
   8   0 -10   21.59    1.86 
  -8   0  10   17.60    1.51 
  -8   0  10   20.00    1.71 
   7   0 -10   20.02    1.79 
   7   0 -10   19.81    2.07 
   7   0 -10   19.54    1.74 
  -7   0  10   22.46    1.62 
  -7   0  10   18.85    1.72 
   6   0 -10    9.57    1.31 
   6   0 -10    8.36    1.58 
   6   0 -10   10.11    1.43 
  -6   0  10    8.25    1.30 
  -6   0  10   10.09    1.17 
  -6   0  10    9.55    1.38 
   5   0 -10    2.53    1.05 
   5   0 -10    3.85    1.33 
   5   0 -10    1.79    1.11 
  -5   0  10    0.54    0.92 
  -5   0  10    3.49    1.12 
   4   0 -10   11.86    1.41 
   4   0 -10   10.96    1.37 
   4   0 -10   11.13    1.41 
  -4   0  10   10.95    1.20 
  -4   0  10   11.61    1.39 
   3   0 -10   95.46    3.15 
   3   0 -10   98.07    3.13 
   3   0 -10   95.48    3.26 
  -3   0  10  101.17    3.09 
  -3   0  10   98.39    3.24 
  -3   0  10   98.38    2.85 
   2   0 -10   27.76    1.82 
   2   0 -10   31.44    1.99 
  -2   0  10   30.76    1.50 
  -2   0  10   27.44    1.71 
  -2   0  10   29.07    0.87 
  -2   0  10   31.51    1.92 
  -2   0  10   32.06    1.73 
   1   0 -10   78.84    2.71 
   1   0 -10   75.39    2.65 
   1   0 -10   69.10    2.59 
  -1   0  10   74.59    2.19 
  -1   0  10   76.15    2.66 
  -1   0  10   70.70    2.08 
   0   0 -10   53.43    1.63 
   0   0 -10   53.85    2.27 
   0   0 -10   58.88    2.40 
   0   0 -10   53.64    2.26 
   0   0  10   54.43    3.67 
   0   0  10   58.05    2.16 
   0   0  10   54.81    2.26 
   0   0  10   51.60    1.98 
   0   0  10   55.49    1.88 
  -1   0 -10    2.00    0.73 
  -1   0 -10    0.93    1.04 
  -1   0 -10    2.87    1.16 
   1   0  10    2.58    1.80 
   1   0  10    2.60    0.83 
   1   0  10    3.83    0.75 
   1   0  10    1.45    1.12 
  -2   0 -10   -0.40    1.08 
  -2   0 -10    0.57    0.86 
  -2   0 -10   -1.35    0.98 
   2   0  10    0.75    0.74 
   2   0  10   -1.42    1.08 
   2   0  10    0.16    1.80 
   2   0  10    0.95    1.01 
  -3   0 -10   33.84    2.28 
  -3   0 -10   34.24    1.93 
  -3   0 -10   34.13    2.08 
   3   0  10   34.30    2.08 
   3   0  10   31.97    1.97 
   3   0  10   29.44    3.68 
   3   0  10   34.72    1.81 
  -4   0 -10   28.96    2.27 
  -4   0 -10   25.66    1.87 
   4   0  10   30.72    2.30 
   4   0  10   29.69    1.81 
   4   0  10   29.16    2.06 
   4   0  10   25.78    3.22 
  -5   0 -10   22.91    2.08 
  -5   0 -10   22.77    1.98 
   5   0  10   20.66    2.03 
   5   0  10   18.85    3.16 
   5   0  10   21.19    1.83 
  -6   0 -10   33.73    2.24 
  -6   0 -10   39.35    2.50 
   6   0  10   29.13    3.85 
   6   0  10   38.94    2.68 
   8  -1 -10    8.14    1.35 
   8  -1 -10    7.59    1.39 
   8  -1 -10    5.06    1.71 
  -8   1  10    7.53    1.40 
  -8   1  10    6.00    1.17 
   7  -1 -10    3.49    1.55 
   7  -1 -10    4.16    1.21 
   7  -1 -10    5.77    1.22 
  -7   1  10    5.24    1.16 
  -7   1  10    6.72    1.36 
   6  -1 -10   15.42    1.53 
   6  -1 -10   14.11    1.46 
   6  -1 -10   12.32    1.73 
  -6   1  10   14.64    1.38 
  -6   1  10   15.06    1.48 
   5  -1 -10   50.71    2.76 
   5  -1 -10   50.25    2.34 
   5  -1 -10   49.65    2.26 
  -5   1  10   52.56    2.28 
  -5   1  10   50.07    2.12 
  -5   1  10   48.68    2.14 
   4  -1 -10  120.72    4.01 
   4  -1 -10  120.99    3.70 
   4  -1 -10  120.45    3.63 
  -4   1  10  124.16    3.68 
  -4   1  10  121.36    3.37 
  -4   1  10  123.22    3.40 
   3  -1 -10   57.95    2.44 
   3  -1 -10   57.50    2.60 
   3  -1 -10   54.51    2.35 
  -3   1  10   60.39    2.42 
  -3   1  10   57.54    2.07 
   2  -1 -10   48.40    2.27 
   2  -1 -10   49.81    2.18 
  -2   1  10   47.77    1.88 
  -2   1  10   49.20    2.22 
  -2   1  10   49.02    1.89 
  -2   1  10   44.74    1.98 
   1  -1 -10   -0.61    0.91 
   1  -1 -10   -1.08    0.97 
  -1   1  10    1.80    0.87 
  -1   1  10    1.11    0.76 
  -1   1  10    0.94    0.98 
   0  -1 -10   -0.22    0.50 
   0  -1 -10   -0.12    0.95 
   0  -1 -10    0.22    1.03 
   0   1  10   -0.75    0.75 
   0   1  10    1.00    0.90 
   0   1  10    1.28    0.81 
   0   1  10    0.03    0.77 
  -1  -1 -10    4.47    1.22 
  -1  -1 -10    1.16    0.73 
  -1  -1 -10    2.25    1.07 
   1   1  10    1.69    0.99 
   1   1  10    2.87    1.15 
   1   1  10    3.10    1.78 
   1   1  10    2.54    0.83 
  -2  -1 -10   54.28    2.12 
  -2  -1 -10   61.98    2.70 
  -2  -1 -10   52.59    2.44 
   2   1  10   52.82    2.57 
   2   1  10   58.45    2.44 
   2   1  10   52.01    3.85 
   2   1  10   55.94    2.09 
  -3  -1 -10   51.78    2.29 
  -3  -1 -10   45.38    2.37 
  -3  -1 -10   48.52    2.35 
   3   1  10   44.53    2.54 
   3   1  10   49.89    4.02 
   3   1  10   49.89    2.08 
   3   1  10   48.23    2.35 
  -4  -1 -10   31.53    2.03 
  -4  -1 -10   36.32    2.40 
   4   1  10   35.04    2.38 
   4   1  10   32.61    2.00 
   4   1  10   30.51    3.73 
  -5  -1 -10   35.74    2.28 
  -5  -1 -10   33.10    2.45 
   5   1  10   32.79    2.21 
   5   1  10   34.44    2.17 
   5   1  10   31.03    4.11 
  -6  -1 -10    0.27    1.50 
  -6  -1 -10    3.86    1.23 
   6   1  10   -3.30    2.39 
   6   1  10    2.88    1.49 
   8  -2 -10   33.35    3.00 
   8  -2 -10   29.82    1.99 
   8  -2 -10   31.54    2.21 
  -8   2  10   30.21    2.05 
  -8   2  10   31.53    2.19 
   7  -2 -10   17.74    1.62 
   7  -2 -10   14.55    1.96 
   7  -2 -10   18.86    1.64 
  -7   2  10   18.30    1.65 
  -7   2  10   17.31    1.57 
   6  -2 -10   51.06    2.25 
   6  -2 -10   52.95    2.35 
   6  -2 -10   51.24    3.02 
  -6   2  10   46.35    2.22 
  -6   2  10   51.70    2.27 
   5  -2 -10   21.66    1.67 
   5  -2 -10   22.43    1.73 
   5  -2 -10   18.27    1.91 
  -5   2  10   22.08    1.59 
  -5   2  10   24.56    1.87 
  -5   2  10   20.28    1.53 
   4  -2 -10   28.51    1.82 
   4  -2 -10   27.16    1.73 
   4  -2 -10   27.76    2.18 
  -4   2  10   25.71    1.73 
  -4   2  10   28.72    1.56 
  -4   2  10   28.45    1.85 
   3  -2 -10   28.56    1.91 
   3  -2 -10   31.51    1.90 
  -3   2  10   30.83    1.54 
  -3   2  10   30.51    1.73 
  -3   2  10   28.84    1.52 
  -3   2  10   29.27    1.77 
   2  -2 -10   16.83    1.42 
   2  -2 -10   16.05    1.47 
  -2   2  10   15.48    1.16 
  -2   2  10   15.45    1.30 
  -2   2  10   15.78    1.35 
   1  -2 -10    6.56    1.22 
   1  -2 -10    7.71    0.59 
   1  -2 -10    7.69    1.15 
  -1   2  10    6.80    0.96 
  -1   2  10    8.10    1.07 
  -1   2  10    5.90    0.72 
  -1   2  10    6.66    1.17 
   0  -2 -10   57.39    2.51 
   0  -2 -10   57.71    1.81 
   0  -2 -10   62.21    2.47 
   0   2  10   60.41    2.29 
   0   2  10   60.39    2.52 
   0   2  10   58.35    2.47 
  -1  -2 -10   78.22    2.86 
  -1  -2 -10   74.75    2.93 
   1   2  10   81.06    2.96 
   1   2  10   72.71    2.62 
   1   2  10   79.53    3.36 
   1   2  10   76.16    4.18 
  -2  -2 -10   36.95    2.16 
  -2  -2 -10   42.06    2.38 
   2   2  10   37.70    3.42 
   2   2  10   38.04    2.29 
   2   2  10   38.04    1.88 
  -3  -2 -10   71.96    2.81 
  -3  -2 -10   71.66    2.87 
   3   2  10   66.47    2.55 
   3   2  10   69.52    4.26 
   3   2  10   67.41    2.97 
  -4  -2 -10    4.69    1.30 
  -4  -2 -10    3.88    1.37 
   4   2  10    2.16    2.08 
   4   2  10    1.82    1.10 
   4   2  10    2.43    1.33 
  -5  -2 -10   -1.11    1.29 
  -5  -2 -10   -0.71    1.30 
   5   2  10    2.98    1.42 
   5   2  10   -1.37    2.06 
   5   2  10   -0.84    1.13 
  -6  -2 -10   -0.84    1.38 
  -6  -2 -10   -2.31    1.39 
   6   2  10    0.39    1.40 
   6   2  10   -4.33    2.33 
   6   2  10   -2.97    1.26 
   8  -3 -10   58.68    2.62 
   8  -3 -10   59.97    2.51 
   8  -3 -10   57.62    3.66 
  -8   3  10   57.15    2.69 
  -8   3  10   59.04    2.66 
   7  -3 -10   35.29    1.96 
   7  -3 -10   32.54    2.89 
   7  -3 -10   37.52    2.09 
  -7   3  10   33.44    2.07 
  -7   3  10   35.98    2.14 
   6  -3 -10   15.39    1.95 
   6  -3 -10   20.65    1.75 
   6  -3 -10   19.58    1.59 
  -6   3  10   15.87    1.46 
  -6   3  10   15.88    1.49 
   5  -3 -10   12.21    1.25 
   5  -3 -10   15.71    1.44 
   5  -3 -10   14.13    1.62 
  -5   3  10   12.76    1.24 
  -5   3  10   11.77    1.21 
   4  -3 -10    0.99    1.02 
   4  -3 -10    1.51    0.90 
   4  -3 -10    2.25    1.22 
  -4   3  10    0.48    0.97 
  -4   3  10    0.39    0.78 
   3  -3 -10   22.05    1.83 
   3  -3 -10   23.09    1.63 
  -3   3  10   25.26    1.60 
  -3   3  10   21.40    1.64 
  -3   3  10   22.68    1.72 
  -3   3  10   24.95    1.38 
   2  -3 -10   28.64    1.82 
   2  -3 -10   29.04    1.75 
  -2   3  10   27.47    1.50 
  -2   3  10   27.93    1.25 
  -2   3  10   27.52    1.74 
   1  -3 -10   74.55    2.75 
   1  -3 -10   74.25    2.67 
  -1   3  10   70.13    2.64 
  -1   3  10   75.50    1.93 
  -1   3  10   71.43    2.54 
  -1   3  10   72.39    2.57 
   0  -3 -10   44.02    2.12 
   0  -3 -10   45.92    2.25 
   0   3  10   42.03    2.01 
   0   3  10   45.67    2.16 
   0   3  10   43.01    2.02 
  -1  -3 -10   24.77    1.85 
  -1  -3 -10   23.78    1.97 
   1   3  10   24.45    1.70 
   1   3  10   22.31    1.85 
  -2  -3 -10   16.53    1.54 
  -2  -3 -10   14.17    1.55 
   2   3  10   15.12    2.28 
   2   3  10   15.44    1.64 
   2   3  10   14.73    1.43 
  -3  -3 -10   -0.72    1.10 
  -3  -3 -10   -0.10    1.17 
   3   3  10   -0.10    1.68 
   3   3  10    2.14    1.26 
   3   3  10    0.49    1.06 
  -4  -3 -10    5.49    1.38 
  -4  -3 -10    6.49    1.52 
   4   3  10    4.89    1.32 
   4   3  10    4.39    2.04 
   4   3  10    5.10    1.44 
  -5  -3 -10   14.02    1.66 
   5   3  10   12.17    1.79 
   5   3  10   11.64    1.56 
   5   3  10    6.73    2.58 
  -6  -3 -10   27.53    2.42 
   6   3  10   18.61    3.15 
   6   3  10   25.23    2.31 
   6   3  10   25.23    2.10 
   7  -4 -10    1.13    0.95 
   7  -4 -10    0.80    0.99 
   7  -4 -10    1.99    1.59 
  -7   4  10    0.92    1.14 
  -7   4  10    1.06    1.10 
   6  -4 -10    1.69    0.97 
   6  -4 -10    1.58    1.14 
   6  -4 -10    2.32    0.92 
  -6   4  10    0.95    1.08 
  -6   4  10    1.69    1.01 
   5  -4 -10   50.34    2.12 
   5  -4 -10   51.44    2.23 
   5  -4 -10   51.54    3.03 
  -5   4  10   52.31    2.17 
  -5   4  10   48.58    2.30 
   4  -4 -10    7.81    1.10 
   4  -4 -10    5.87    1.04 
  -4   4  10    5.69    1.18 
  -4   4  10    5.85    1.00 
   3  -4 -10   97.72    3.16 
   3  -4 -10   93.50    3.07 
  -3   4  10  101.46    3.09 
  -3   4  10   94.60    3.20 
  -3   4  10   94.17    2.63 
   2  -4 -10   60.06    2.41 
   2  -4 -10   60.90    2.36 
  -2   4  10   63.37    2.37 
  -2   4  10   60.56    2.49 
   1  -4 -10   21.97    1.67 
   1  -4 -10   21.18    1.71 
  -1   4  10   20.79    1.74 
  -1   4  10   24.61    1.65 
  -1   4  10   23.02    1.40 
   0  -4 -10   30.70    1.97 
   0  -4 -10   31.91    1.91 
   0   4  10   29.35    1.88 
   0   4  10   28.06    1.74 
   0   4  10   30.03    1.98 
  -1  -4 -10    0.83    1.05 
  -1  -4 -10    0.35    1.06 
   1   4  10    1.87    1.06 
   1   4  10    1.46    0.99 
   1   4  10    0.30    1.05 
  -2  -4 -10   12.13    1.55 
  -2  -4 -10   11.30    1.48 
   2   4  10   10.29    1.39 
   2   4  10   11.53    1.53 
  -3  -4 -10   11.24    1.57 
  -3  -4 -10    8.01    1.45 
   3   4  10   10.24    2.15 
   3   4  10    9.41    1.50 
   3   4  10    7.69    1.34 
  -4  -4 -10   44.56    2.56 
  -4  -4 -10   45.49    2.70 
   4   4  10   46.18    3.70 
   4   4  10   44.45    2.39 
   4   4  10   45.26    2.65 
  -5  -4 -10   42.70    2.47 
   5   4  10   43.67    2.44 
   5   4  10   36.64    2.50 
   5   4  10   40.63    4.13 
   7  -5 -10    7.86    1.14 
   7  -5 -10    9.43    1.17 
   7  -5 -10    7.47    1.85 
  -7   5  10    9.38    1.44 
  -7   5  10    5.82    1.26 
   6  -5 -10   20.18    1.55 
   6  -5 -10   20.53    1.61 
   6  -5 -10   19.86    2.18 
  -6   5  10   19.30    1.69 
  -6   5  10   19.02    1.56 
   5  -5 -10   21.44    1.60 
   5  -5 -10   24.55    2.50 
   5  -5 -10   22.86    1.66 
  -5   5  10   25.58    1.58 
  -5   5  10   26.04    1.90 
   4  -5 -10   52.99    2.21 
   4  -5 -10   50.71    2.17 
  -4   5  10   54.29    2.58 
  -4   5  10   52.48    2.31 
  -4   5  10   52.63    1.94 
   3  -5 -10   34.06    1.76 
   3  -5 -10   30.60    1.73 
  -3   5  10   31.97    2.12 
  -3   5  10   35.77    1.97 
  -3   5  10   30.30    1.46 
   2  -5 -10    9.56    1.20 
   2  -5 -10   10.80    1.30 
  -2   5  10    9.93    1.24 
  -2   5  10   10.15    1.41 
   1  -5 -10    0.65    0.89 
   1  -5 -10   -0.71    0.87 
  -1   5  10    0.41    1.09 
  -1   5  10   -0.37    0.91 
   0  -5 -10   14.46    1.45 
   0  -5 -10   14.35    1.49 
   0   5  10    9.30    1.96 
   0   5  10   12.92    1.48 
   0   5  10   12.49    1.29 
  -1  -5 -10   17.04    1.66 
  -1  -5 -10   16.51    1.67 
  -1  -5 -10   14.28    1.49 
   1   5  10   15.83    1.40 
   1   5  10   15.14    1.53 
   1   5  10   16.72    1.61 
  -2  -5 -10   23.82    1.96 
  -2  -5 -10   27.22    2.08 
  -2  -5 -10   27.19    2.10 
   2   5  10   26.97    1.98 
   2   5  10   25.68    2.03 
   2   5  10   22.99    1.68 
  -3  -5 -10   48.85    2.67 
  -3  -5 -10   51.81    2.63 
  -3  -5 -10   51.93    2.64 
   3   5  10   49.50    2.57 
   3   5  10   52.58    2.64 
  -4  -5 -10    5.32    1.46 
  -4  -5 -10    5.70    1.45 
  -4  -5 -10    4.32    1.51 
   4   5  10    3.43    1.42 
   4   5  10    9.11    2.06 
   4   5  10    5.84    1.43 
  -5  -5 -10   35.63    2.69 
   5   5  10   31.21    2.50 
   5   5  10   35.03    3.67 
   5   5  10   36.46    2.63 
   6  -6 -10   25.35    1.55 
   6  -6 -10   28.69    1.74 
   6  -6 -10   28.16    2.85 
  -6   6  10   28.97    2.06 
  -6   6  10   27.27    1.82 
   5  -6 -10   43.26    3.05 
   5  -6 -10   46.90    2.07 
   5  -6 -10   45.51    1.96 
  -5   6  10   44.58    2.06 
  -5   6  10   45.84    2.30 
   4  -6 -10    2.79    0.97 
   4  -6 -10    2.05    0.93 
  -4   6  10    2.58    1.12 
  -4   6  10    1.15    1.27 
   3  -6 -10    2.84    0.97 
   3  -6 -10    3.46    0.98 
  -3   6  10    3.32    1.08 
  -3   6  10    0.79    1.21 
   2  -6 -10   -0.38    0.92 
   2  -6 -10    0.78    0.99 
  -2   6  10    1.80    1.19 
  -2   6  10   -0.63    0.89 
   1  -6 -10   53.66    2.36 
   1  -6 -10   60.06    2.48 
  -1   6  10   59.56    2.33 
  -1   6  10   60.61    2.71 
   0  -6 -10   18.91    1.64 
   0  -6 -10   18.93    1.64 
   0   6  10   20.14    1.51 
   0   6  10   15.10    1.66 
  -1  -6 -10   81.68    3.03 
  -1  -6 -10   79.12    3.09 
  -1  -6 -10   77.19    3.15 
   1   6  10   79.01    2.70 
   1   6  10   83.52    3.18 
  -2  -6 -10   23.96    2.22 
  -2  -6 -10   25.04    2.21 
  -2  -6 -10   24.36    2.05 
   2   6  10   28.11    1.84 
   2   6  10   25.11    1.99 
  -3  -6 -10    6.59    1.49 
  -3  -6 -10    6.76    1.45 
  -3  -6 -10    6.96    1.50 
   3   6  10    5.96    1.47 
   3   6  10    9.32    1.22 
  -4  -6 -10    1.82    1.47 
  -4  -6 -10    3.92    1.47 
  -4  -6 -10    3.41    1.41 
   4   6  10    3.13    1.47 
   5  -7 -10    0.78    0.82 
   5  -7 -10    1.60    0.88 
   5  -7 -10    1.88    1.45 
  -5   7  10    2.31    1.15 
   4  -7 -10    4.94    0.99 
   4  -7 -10    4.14    0.93 
  -4   7  10    6.79    1.31 
  -4   7  10    6.35    1.22 
   3  -7 -10   31.82    1.79 
  -3   7  10   33.88    1.98 
  -3   7  10   30.49    2.35 
   2  -7 -10   13.62    1.34 
   2  -7 -10   10.02    1.23 
  -2   7  10   14.53    1.38 
  -2   7  10   13.29    1.67 
   1  -7 -10   22.37    1.68 
   1  -7 -10   22.32    1.82 
  -1   7  10   22.50    1.67 
  -1   7  10   22.88    1.94 
   0  -7 -10   23.61    1.97 
   0  -7 -10   21.23    1.97 
   0   7  10   23.57    1.63 
   0   7  10   22.66    1.93 
  -1  -7 -10    9.41    1.39 
  -1  -7 -10    8.74    1.53 
   1   7  10    8.79    1.55 
   1   7  10    9.46    1.19 
  -2  -7 -10    2.02    1.20 
  -2  -7 -10    1.59    1.21 
   2   7  10    2.80    0.96 
   2   7  10    1.83    1.35 
  -3  -7 -10   -1.24    1.33 
  -3  -7 -10    1.37    1.27 
  -3  -7 -10    2.75    1.36 
   3   7  10    1.49    1.47 
   4  -8 -10   34.20    1.98 
  -4   8  10   32.61    2.55 
  -4   8  10   39.01    2.19 
   3  -8 -10   27.13    1.68 
   3  -8 -10   26.85    1.69 
  -3   8  10   26.06    1.88 
  -3   8  10   28.75    2.40 
   2  -8 -10   43.13    2.10 
   2  -8 -10   42.34    2.10 
  -2   8  10   45.77    2.67 
  -2   8  10   46.54    2.22 
   1  -8 -10   24.48    1.83 
   1  -8 -10   22.73    1.85 
  -1   8  10   25.42    1.89 
  -1   8  10   22.37    1.89 
   0  -8 -10   -0.68    0.95 
   0  -8 -10    0.12    1.08 
   0   8  10   -0.09    0.89 
   0   8  10    1.13    1.34 
  -1  -8 -10   -0.66    1.01 
  -1  -8 -10    0.40    1.24 
   1   8  10    1.22    1.30 
   1   8  10    0.34    0.94 
   2   8 -11    2.05    1.33 
   2   8 -11    0.99    1.40 
  -2  -8  11    0.16    1.31 
  -2  -8  11    3.67    1.47 
  -2  -8  11    1.54    1.42 
   1   8 -11    0.74    1.27 
   1   8 -11    0.05    1.24 
  -1  -8  11    0.46    1.33 
  -1  -8  11   -0.15    1.21 
  -1  -8  11    0.79    1.37 
   0   8 -11   42.74    2.60 
   0   8 -11   41.71    2.45 
   0  -8  11   44.45    2.58 
   0  -8  11   40.45    2.87 
   0  -8  11   40.76    2.61 
  -1   8 -11    9.21    1.71 
   1  -8  11    9.56    1.75 
   1  -8  11   10.09    1.56 
   1  -8  11    9.77    2.40 
   1  -8  11    8.15    1.54 
   4   7 -11    8.72    1.45 
   4   7 -11    9.44    1.35 
  -4  -7  11    9.56    1.55 
   3   7 -11   12.59    1.54 
   3   7 -11   15.83    1.89 
  -3  -7  11   13.82    1.81 
  -3  -7  11   14.06    1.76 
  -3  -7  11   15.72    1.97 
   2   7 -11    7.48    1.57 
   2   7 -11    9.29    1.43 
  -2  -7  11    7.92    1.62 
  -2  -7  11    4.77    1.47 
  -2  -7  11    9.37    1.59 
   1   7 -11   37.06    2.42 
   1   7 -11   37.95    2.38 
  -1  -7  11   42.47    2.83 
  -1  -7  11   41.98    2.48 
  -1  -7  11   41.39    2.62 
   0   7 -11   46.68    2.49 
   0   7 -11   50.65    2.69 
   0  -7  11   51.27    2.75 
   0  -7  11   56.30    3.79 
   0  -7  11   44.78    2.59 
   0  -7  11   52.21    3.08 
  -1   7 -11   37.03    2.77 
  -1   7 -11   36.98    2.47 
   1  -7  11   32.43    2.29 
   1  -7  11   39.74    2.68 
   1  -7  11   33.49    2.44 
  -2   7 -11    7.43    1.62 
   2  -7  11    7.61    1.51 
   2  -7  11    1.01    2.26 
   2  -7  11   10.73    1.59 
  -3   7 -11    1.17    1.31 
  -3   7 -11    0.66    1.41 
   3  -7  11   -5.74    2.30 
   3  -7  11    0.36    1.21 
   5   6 -11    7.35    1.44 
  -5  -6  11    8.63    1.76 
   4   6 -11   18.93    1.64 
   4   6 -11   19.18    2.03 
  -4  -6  11   20.99    2.11 
   3   6 -11   54.31    2.45 
   3   6 -11   63.07    2.98 
  -3  -6  11   53.83    2.75 
  -3  -6  11   58.08    2.24 
  -3  -6  11   57.46    2.73 
  -3  -6  11   61.96    2.84 
   2   6 -11   20.32    1.78 
   2   6 -11   20.72    1.98 
  -2  -6  11   18.60    1.82 
  -2  -6  11   21.33    1.99 
  -2  -6  11   21.04    1.90 
   1   6 -11    1.14    1.18 
   1   6 -11    2.48    1.27 
  -1  -6  11    2.21    1.26 
  -1  -6  11   -0.17    1.14 
  -1  -6  11    0.82    1.28 
   0   6 -11    7.66    1.49 
   0   6 -11    7.72    1.47 
   0  -6  11    5.75    1.45 
   0  -6  11    9.30    1.48 
   0  -6  11    4.89    1.28 
   0  -6  11    6.02    1.90 
  -1   6 -11    6.92    1.11 
  -1   6 -11    6.15    1.44 
  -1   6 -11    6.80    1.39 
   1  -6  11    6.12    1.44 
   1  -6  11    2.18    1.90 
   1  -6  11    8.68    1.53 
   1  -6  11    6.97    1.40 
  -2   6 -11    6.38    1.43 
  -2   6 -11    4.25    1.45 
   2  -6  11    6.89    1.43 
   2  -6  11    2.85    2.31 
  -3   6 -11    7.66    1.49 
  -3   6 -11    6.10    1.41 
   3  -6  11    8.69    1.48 
   3  -6  11    3.24    2.59 
  -4   6 -11   41.35    2.57 
  -4   6 -11   38.57    2.63 
   4  -6  11   37.33    2.50 
   4  -6  11   40.36    2.63 
   4  -6  11   27.08    3.88 
   6   5 -11   29.74    2.52 
  -6  -5  11   21.88    2.24 
   5   5 -11   26.04    2.38 
  -5  -5  11   27.30    2.39 
   4   5 -11   53.94    2.65 
   4   5 -11   58.84    2.34 
  -4  -5  11   57.34    2.19 
  -4  -5  11   63.73    3.04 
   3   5 -11   10.86    1.30 
   3   5 -11    9.50    1.63 
  -3  -5  11    9.49    1.63 
  -3  -5  11   13.55    1.64 
  -3  -5  11    9.63    1.21 
  -3  -5  11    8.39    1.30 
   2   5 -11   26.64    2.21 
   2   5 -11   30.42    1.98 
  -2  -5  11   30.55    2.33 
  -2  -5  11   28.21    2.05 
  -2  -5  11   28.96    2.14 
   1   5 -11    6.64    1.32 
   1   5 -11    5.66    1.40 
  -1  -5  11    6.73    1.40 
  -1  -5  11    6.36    1.29 
  -1  -5  11    6.01    1.42 
   0   5 -11    4.25    1.31 
   0   5 -11    4.38    1.10 
   0  -5  11    3.19    1.79 
   0  -5  11    4.05    1.22 
   0  -5  11    3.41    1.32 
   0  -5  11    4.30    1.26 
  -1   5 -11   17.92    1.75 
  -1   5 -11   16.62    1.78 
  -1   5 -11   15.74    1.42 
   1  -5  11   19.61    1.71 
   1  -5  11   14.46    2.61 
  -2   5 -11   46.57    2.54 
  -2   5 -11   43.32    2.22 
  -2   5 -11   46.80    2.53 
   2  -5  11   37.55    4.08 
   2  -5  11   42.36    2.40 
  -3   5 -11   31.18    2.34 
  -3   5 -11   37.10    2.21 
  -3   5 -11   38.76    2.98 
   3  -5  11   31.58    2.18 
   3  -5  11   27.61    3.56 
   3  -5  11   32.03    2.36 
  -4   5 -11    7.94    1.49 
  -4   5 -11    6.00    1.48 
   4  -5  11    0.08    2.65 
   4  -5  11    6.46    1.42 
   4  -5  11    4.91    1.44 
  -5   5 -11    6.91    1.53 
  -5   5 -11    8.54    1.61 
   5  -5  11    0.16    2.79 
   5  -5  11    7.49    1.59 
   5  -5  11    5.86    1.47 
   7   4 -11   17.12    2.04 
  -7  -4  11   14.25    1.97 
   6   4 -11   30.33    2.46 
  -6  -4  11   25.26    2.34 
   5   4 -11   56.45    2.90 
  -5  -4  11   52.03    2.11 
  -5  -4  11   46.21    2.47 
   4   4 -11    0.93    1.03 
   4   4 -11    2.15    1.32 
  -4  -4  11    0.23    0.83 
  -4  -4  11    1.37    1.32 
   3   4 -11   -0.45    1.05 
   3   4 -11    2.67    1.35 
  -3  -4  11   -0.62    1.22 
  -3  -4  11   -0.52    0.84 
  -3  -4  11   -0.42    1.08 
  -3  -4  11   -0.60    0.85 
   2   4 -11   40.39    2.46 
   2   4 -11   38.25    2.08 
  -2  -4  11   35.55    2.37 
  -2  -4  11   38.39    2.25 
  -2  -4  11   39.18    2.02 
   1   4 -11   33.25    2.31 
   1   4 -11   42.26    2.24 
  -1  -4  11   35.33    2.33 
  -1  -4  11   35.26    2.18 
  -1  -4  11   37.94    2.08 
   0   4 -11   25.62    2.13 
   0   4 -11   23.60    1.86 
   0  -4  11   27.04    2.14 
   0  -4  11   25.95    3.21 
   0  -4  11   22.60    1.95 
  -1   4 -11   74.33    2.91 
  -1   4 -11   79.34    2.67 
  -1   4 -11   75.54    3.07 
   1  -4  11   76.16    2.99 
   1  -4  11   77.89    4.59 
  -2   4 -11   15.66    1.43 
  -2   4 -11    9.87    1.61 
  -2   4 -11   12.45    1.63 
   2  -4  11   13.92    1.57 
   2  -4  11   11.51    2.64 
   2  -4  11   14.67    1.72 
  -3   4 -11   27.91    2.17 
  -3   4 -11   29.11    1.97 
  -3   4 -11   28.51    2.27 
   3  -4  11   25.03    2.22 
   3  -4  11   22.33    3.31 
   3  -4  11   28.35    2.14 
  -4   4 -11    4.19    1.42 
  -4   4 -11    4.28    1.40 
  -4   4 -11    4.44    1.28 
   4  -4  11   -1.09    2.35 
   4  -4  11    4.64    1.39 
   4  -4  11    4.31    1.42 
  -5   4 -11   15.10    1.85 
  -5   4 -11   14.49    1.83 
   5  -4  11   12.88    1.81 
   5  -4  11   12.53    1.69 
   5  -4  11    3.42    2.93 
   7   3 -11   35.43    2.86 
   7   3 -11   35.01    2.56 
  -7  -3  11   37.68    2.62 
   6   3 -11    0.52    1.27 
   6   3 -11    2.13    1.41 
   6   3 -11   -0.50    1.23 
  -6  -3  11    0.00    0.98 
  -6  -3  11    0.80    0.94 
   5   3 -11    2.20    1.22 
   5   3 -11    2.10    1.04 
   5   3 -11    0.71    1.11 
   5   3 -11    0.62    0.90 
  -5  -3  11    1.45    1.32 
  -5  -3  11    1.11    0.95 
   4   3 -11    1.86    1.28 
   4   3 -11    0.69    0.91 
   4   3 -11    1.20    0.99 
   4   3 -11    1.19    1.16 
  -4  -3  11    1.12    0.99 
  -4  -3  11    2.11    1.02 
   3   3 -11   45.11    2.50 
   3   3 -11   38.89    2.23 
   3   3 -11   38.76    1.93 
  -3  -3  11   41.07    2.43 
  -3  -3  11   40.34    2.34 
  -3  -3  11   38.90    2.00 
   2   3 -11   33.10    2.08 
   2   3 -11   34.82    2.28 
   2   3 -11   33.30    1.69 
  -2  -3  11   32.56    1.73 
  -2  -3  11   36.87    1.91 
  -2  -3  11   33.53    2.27 
   1   3 -11   48.49    2.34 
   1   3 -11   47.28    1.83 
   1   3 -11   47.11    2.55 
  -1  -3  11   50.73    2.40 
  -1  -3  11   46.97    2.53 
  -1  -3  11   47.30    2.05 
   0   3 -11   46.13    2.49 
   0  -3  11   43.39    3.62 
  -1   3 -11   13.31    1.18 
  -1   3 -11   13.11    1.62 
   1  -3  11   16.86    1.63 
   1  -3  11   10.51    1.36 
   1  -3  11   10.04    2.31 
  -2   3 -11   -0.62    0.95 
  -2   3 -11   -0.13    1.18 
   2  -3  11   -1.87    1.44 
   2  -3  11    0.58    1.13 
   2  -3  11   -0.30    1.17 
  -3   3 -11    0.43    0.96 
  -3   3 -11    0.17    1.21 
   3  -3  11   -0.14    1.08 
   3  -3  11   -1.18    1.63 
   3  -3  11   -0.60    1.24 
  -4   3 -11   21.65    1.93 
  -4   3 -11   23.63    2.14 
   4  -3  11   19.52    1.84 
   4  -3  11   26.36    2.24 
   4  -3  11   17.06    3.24 
  -5   3 -11   12.04    1.72 
  -5   3 -11   12.29    1.65 
   5  -3  11   10.16    1.72 
   5  -3  11    5.00    2.91 
   5  -3  11   10.04    1.59 
   7   2 -11    2.64    1.32 
   7   2 -11    2.81    1.31 
   7   2 -11    0.98    1.35 
  -7  -2  11    2.81    0.96 
  -7  -2  11    2.49    1.36 
   6   2 -11   -0.10    1.18 
   6   2 -11   -0.55    1.22 
   6   2 -11   -0.84    1.14 
  -6  -2  11   -0.97    0.88 
  -6  -2  11    0.37    0.98 
   5   2 -11   44.10    2.55 
   5   2 -11   45.86    2.40 
   5   2 -11   43.28    2.55 
  -5  -2  11   40.19    1.93 
  -5  -2  11   44.27    2.48 
   4   2 -11   23.27    1.98 
   4   2 -11   23.28    2.13 
   4   2 -11   26.26    2.01 
  -4  -2  11   21.98    1.93 
  -4  -2  11   27.73    1.66 
   3   2 -11   63.25    2.67 
   3   2 -11   57.00    2.45 
   3   2 -11   65.89    2.63 
  -3  -2  11   59.84    2.75 
  -3  -2  11   56.79    2.23 
   2   2 -11   59.39    2.42 
   2   2 -11   59.05    2.75 
   2   2 -11   62.19    2.35 
  -2  -2  11   67.10    2.85 
  -2  -2  11   61.06    2.59 
  -2  -2  11   63.01    2.06 
   1   2 -11   13.55    1.48 
   1   2 -11   13.04    1.29 
   1   2 -11   11.74    1.56 
  -1  -2  11   10.09    1.31 
  -1  -2  11   11.76    1.44 
  -1  -2  11   13.49    1.25 
   0   2 -11    0.27    0.64 
   0   2 -11    0.12    1.14 
   0   2 -11    0.36    0.79 
   0  -2  11    0.00    1.03 
   0  -2  11   -1.27    1.10 
   0  -2  11    0.63    1.70 
  -1   2 -11    2.16    0.83 
  -1   2 -11    1.94    1.24 
  -1   2 -11    1.06    1.05 
   1  -2  11    2.35    1.24 
   1  -2  11    1.58    1.08 
   1  -2  11    3.18    1.98 
  -2   2 -11   67.68    2.42 
  -2   2 -11   61.57    2.86 
   2  -2  11   62.16    2.71 
   2  -2  11   63.82    2.88 
   2  -2  11   60.23    4.37 
  -3   2 -11   17.12    1.81 
  -3   2 -11   13.76    1.40 
   3  -2  11   13.24    1.60 
   3  -2  11   14.96    1.74 
   3  -2  11    9.58    2.55 
  -4   2 -11   65.14    2.68 
  -4   2 -11   64.59    2.99 
   4  -2  11   61.61    2.64 
   4  -2  11   59.76    2.99 
   4  -2  11   52.48    4.89 
  -5   2 -11   39.39    2.64 
  -5   2 -11   42.33    2.41 
   5  -2  11   41.48    2.54 
   5  -2  11   37.39    2.64 
   5  -2  11   26.47    3.73 
  -6   2 -11    6.37    1.55 
   6  -2  11   -0.32    2.92 
   6  -2  11    7.95    1.76 
   6  -2  11    6.82    1.55 
   7   1 -11   17.54    1.77 
   7   1 -11   14.32    2.00 
   7   1 -11   14.77    1.76 
  -7  -1  11   17.54    1.47 
  -7  -1  11   15.44    1.76 
   6   1 -11   79.53    3.23 
   6   1 -11   74.35    3.32 
   6   1 -11   77.60    3.09 
  -6  -1  11   71.61    3.06 
  -6  -1  11   77.53    2.67 
   5   1 -11   54.87    2.74 
   5   1 -11   57.72    2.60 
   5   1 -11   62.43    2.80 
  -5  -1  11   53.65    2.63 
  -5  -1  11   51.84    2.21 
   4   1 -11   23.16    1.95 
   4   1 -11   26.02    2.08 
   4   1 -11   25.97    2.13 
  -4  -1  11   24.90    1.72 
  -4  -1  11   21.35    1.61 
   3   1 -11   40.83    2.36 
   3   1 -11   43.77    2.28 
   3   1 -11   36.26    2.19 
  -3  -1  11   38.17    1.92 
  -3  -1  11   44.07    2.33 
   2   1 -11    0.20    0.85 
   2   1 -11    0.06    0.86 
   2   1 -11   -1.11    0.77 
  -2  -1  11   -0.94    0.95 
  -2  -1  11    1.83    1.16 
  -2  -1  11   -0.28    1.01 
   1   1 -11   -0.62    1.01 
   1   1 -11    0.71    1.13 
  -1  -1  11   -0.19    0.60 
   0   1 -11   36.80    1.39 
   0   1 -11   39.06    2.15 
   0   1 -11   38.51    2.04 
   0  -1  11   36.56    1.49 
   0  -1  11   37.34    3.42 
   0  -1  11   37.36    2.25 
   0  -1  11   35.71    2.06 
  -1   1 -11   35.77    1.60 
  -1   1 -11   36.28    2.02 
  -1   1 -11   35.87    2.11 
   1  -1  11   30.17    1.91 
   1  -1  11   34.53    1.44 
   1  -1  11   38.95    2.14 
   1  -1  11   32.82    3.50 
  -2   1 -11   32.21    1.73 
  -2   1 -11   33.34    2.06 
  -2   1 -11   30.57    2.23 
   2  -1  11   32.26    2.11 
   2  -1  11   30.35    3.58 
   2  -1  11   32.37    2.26 
   2  -1  11   32.74    1.51 
  -3   1 -11   39.40    1.94 
  -3   1 -11   37.34    2.42 
   3  -1  11   35.58    3.99 
   3  -1  11   38.69    1.73 
   3  -1  11   36.57    2.02 
   3  -1  11   36.49    2.45 
  -4   1 -11    4.92    1.29 
  -4   1 -11    2.73    1.40 
   4  -1  11    2.80    1.12 
   4  -1  11    3.23    2.47 
   4  -1  11    4.09    1.07 
   4  -1  11    3.44    1.29 
  -5   1 -11    1.63    1.17 
  -5   1 -11    2.48    1.48 
   5  -1  11   -3.35    2.38 
   5  -1  11    0.88    1.11 
  -6   1 -11    1.63    1.55 
  -6   1 -11    0.72    1.25 
   6  -1  11    0.60    1.49 
   8   0 -11   16.68    2.07 
   8   0 -11   16.97    2.23 
   8   0 -11   17.52    1.79 
  -8   0  11   14.52    1.79 
  -8   0  11   19.13    1.62 
   7   0 -11   31.73    2.76 
   7   0 -11   37.63    2.37 
   7   0 -11   35.75    2.29 
  -7   0  11   34.07    2.22 
  -7   0  11   37.35    2.01 
   6   0 -11   10.47    1.44 
   6   0 -11    8.79    1.61 
   6   0 -11   10.27    1.53 
  -6   0  11   11.66    1.32 
  -6   0  11   11.71    1.51 
  -6   0  11   11.97    1.49 
   5   0 -11   33.52    2.41 
   5   0 -11   29.77    2.17 
   5   0 -11   37.81    2.14 
  -5   0  11   31.38    1.86 
  -5   0  11   33.50    2.12 
   4   0 -11    0.42    1.06 
   4   0 -11   -0.06    0.82 
   4   0 -11    1.01    1.16 
  -4   0  11    0.67    1.07 
  -4   0  11   -1.08    0.88 
   3   0 -11   10.96    1.23 
   3   0 -11   11.79    1.48 
   3   0 -11   11.13    1.36 
  -3   0  11   13.72    1.32 
  -3   0  11   10.66    1.46 
   2   0 -11    7.08    1.34 
   2   0 -11    7.14    1.28 
  -2   0  11    8.11    1.16 
  -2   0  11    6.47    1.00 
   1   0 -11   92.49    3.36 
   1   0 -11  101.35    3.31 
  -1   0  11   97.62    2.76 
  -1   0  11  101.02    3.43 
   0   0 -11   58.30    1.81 
   0   0 -11   61.13    2.58 
   0   0 -11   56.85    2.66 
   0   0  11   59.63    2.02 
   0   0  11   60.93    2.50 
   0   0  11   60.15    4.02 
   0   0  11   58.75    2.64 
  -1   0 -11   31.44    1.44 
  -1   0 -11   31.76    2.19 
  -1   0 -11   32.80    2.03 
   1   0  11   27.81    1.91 
   1   0  11   33.68    1.93 
   1   0  11   25.82    3.33 
   1   0  11   29.93    1.55 
  -2   0 -11   69.14    2.38 
  -2   0 -11   71.50    2.83 
  -2   0 -11   65.49    2.73 
   2   0  11   70.27    2.34 
   2   0  11   66.81    2.76 
   2   0  11   70.68    2.98 
   2   0  11   61.95    4.33 
  -3   0 -11   10.40    1.24 
  -3   0 -11    6.63    1.51 
   3   0  11    9.38    1.13 
   3   0  11    6.52    2.34 
   3   0  11    9.19    1.60 
   3   0  11    7.02    1.64 
  -4   0 -11    1.34    1.33 
  -4   0 -11    1.99    1.12 
   4   0  11    1.57    0.96 
   4   0  11    3.43    1.19 
   4   0  11   -0.34    2.21 
  -5   0 -11    5.23    1.63 
  -5   0 -11    3.29    1.27 
   5   0  11    1.36    1.18 
   5   0  11    2.45    1.18 
   5   0  11   -2.64    2.39 
  -6   0 -11   33.98    2.40 
  -6   0 -11   31.96    2.72 
   6   0  11   22.38    3.70 
   6   0  11   24.49    2.05 
   6   0  11   35.09    2.73 
   8  -1 -11   18.95    1.96 
   8  -1 -11   17.33    1.76 
   8  -1 -11   14.46    2.22 
  -8   1  11   17.12    1.62 
  -8   1  11   19.08    1.86 
   7  -1 -11   34.03    2.38 
   7  -1 -11   30.16    2.78 
   7  -1 -11   29.34    2.11 
  -7   1  11   29.41    2.11 
  -7   1  11   32.11    1.98 
   6  -1 -11   -0.79    1.00 
   6  -1 -11   -0.72    1.26 
   6  -1 -11    1.34    1.12 
  -6   1  11    0.94    1.03 
  -6   1  11   -0.48    1.01 
   5  -1 -11    2.73    1.34 
   5  -1 -11    4.19    1.18 
   5  -1 -11    6.23    1.32 
  -5   1  11    6.09    1.14 
  -5   1  11    6.11    1.00 
  -5   1  11    6.19    1.22 
   4  -1 -11    7.71    1.27 
   4  -1 -11    7.83    1.41 
   4  -1 -11    7.93    1.33 
  -4   1  11    8.44    1.39 
  -4   1  11    8.83    1.24 
  -4   1  11    6.96    1.10 
   3  -1 -11   34.59    2.10 
   3  -1 -11   35.01    2.23 
   3  -1 -11   35.98    2.07 
  -3   1  11   33.51    1.90 
  -3   1  11   32.95    2.02 
   2  -1 -11   47.99    2.41 
   2  -1 -11   42.89    2.24 
  -2   1  11   48.17    2.12 
  -2   1  11   47.56    2.01 
  -2   1  11   46.90    2.32 
   1  -1 -11   59.47    2.61 
   1  -1 -11   54.09    2.25 
  -1   1  11   58.41    2.07 
  -1   1  11   53.91    2.50 
   0  -1 -11   39.35    2.28 
   0  -1 -11   44.24    2.21 
   0   1  11   38.10    1.83 
   0   1  11   39.95    2.26 
  -1  -1 -11   -0.27    0.72 
  -1  -1 -11    1.16    1.12 
  -1  -1 -11    0.96    1.17 
   1   1  11    0.58    1.12 
   1   1  11    0.17    1.68 
   1   1  11   -0.54    0.86 
  -2  -1 -11   10.38    1.47 
  -2  -1 -11   11.64    1.20 
  -2  -1 -11   12.65    1.47 
   2   1  11    9.86    1.55 
   2   1  11   12.66    1.20 
   2   1  11    9.34    2.29 
  -3  -1 -11   16.59    1.87 
  -3  -1 -11   15.75    1.41 
  -3  -1 -11   15.02    1.66 
   3   1  11   12.97    2.59 
   3   1  11   13.63    1.74 
   3   1  11   17.65    1.42 
  -4  -1 -11   36.74    2.25 
  -4  -1 -11   33.12    2.53 
   4   1  11   36.25    2.15 
   4   1  11   33.75    2.53 
   4   1  11   30.91    3.96 
  -5  -1 -11   19.88    2.12 
  -5  -1 -11   22.24    2.04 
   5   1  11   15.31    3.13 
   5   1  11   21.54    2.20 
   5   1  11   21.14    1.80 
  -6  -1 -11   26.37    2.30 
  -6  -1 -11   28.58    2.62 
   6   1  11   16.43    3.46 
   6   1  11   26.27    2.38 
   6   1  11   23.79    2.07 
   7  -2 -11    0.17    1.05 
   7  -2 -11   -0.69    1.47 
   7  -2 -11   -1.11    0.98 
  -7   2  11    1.56    1.04 
  -7   2  11   -0.62    1.07 
   6  -2 -11   27.02    1.96 
   6  -2 -11   32.21    1.99 
   6  -2 -11   27.88    2.64 
  -6   2  11   29.06    1.90 
  -6   2  11   33.75    2.03 
   5  -2 -11   25.71    2.38 
   5  -2 -11   28.26    1.97 
   5  -2 -11   30.97    1.95 
  -5   2  11   26.88    1.72 
  -5   2  11   29.57    1.93 
   4  -2 -11   90.66    3.52 
   4  -2 -11   84.03    3.09 
   4  -2 -11   82.05    2.97 
  -4   2  11   82.79    2.76 
  -4   2  11   88.93    2.70 
  -4   2  11   86.95    3.00 
   3  -2 -11   42.69    2.15 
   3  -2 -11   42.31    2.24 
  -3   2  11   38.31    2.08 
  -3   2  11   39.43    1.97 
  -3   2  11   40.39    1.78 
  -3   2  11   41.11    2.05 
   2  -2 -11    9.25    1.32 
   2  -2 -11    7.07    1.23 
  -2   2  11    8.23    1.25 
  -2   2  11    7.95    1.15 
  -2   2  11    8.40    0.93 
   1  -2 -11   38.29    2.20 
   1  -2 -11   38.14    2.11 
  -1   2  11   36.44    1.42 
  -1   2  11   37.83    1.84 
  -1   2  11   38.15    2.12 
  -1   2  11   39.22    2.00 
   0  -2 -11    4.93    1.26 
   0  -2 -11    4.49    1.21 
   0   2  11    6.04    1.26 
   0   2  11    5.88    1.03 
  -1  -2 -11    0.44    1.15 
  -1  -2 -11    1.01    0.80 
  -1  -2 -11   -0.28    1.05 
   1   2  11   -0.76    1.10 
   1   2  11    1.36    1.72 
   1   2  11    0.37    0.89 
  -2  -2 -11   13.24    1.52 
  -2  -2 -11   14.30    1.35 
  -2  -2 -11   14.67    1.49 
   2   2  11   14.85    1.57 
   2   2  11   15.39    2.44 
   2   2  11   17.13    1.45 
  -3  -2 -11   51.49    2.62 
  -3  -2 -11   48.55    2.39 
  -3  -2 -11   56.97    2.91 
   3   2  11   56.97    2.35 
   3   2  11   51.02    2.77 
   3   2  11   55.33    4.10 
  -4  -2 -11   19.05    2.02 
  -4  -2 -11   16.84    1.82 
   4   2  11   22.88    1.93 
   4   2  11   20.03    1.76 
   4   2  11   17.39    2.89 
  -5  -2 -11   25.91    2.10 
  -5  -2 -11   23.56    2.07 
   5   2  11   22.06    1.89 
   5   2  11   20.23    3.27 
   5   2  11   27.55    2.51 
   7  -3 -11   20.32    2.38 
   7  -3 -11   24.92    2.02 
   7  -3 -11   25.52    2.04 
  -7   3  11   25.51    1.95 
  -7   3  11   23.56    1.91 
   6  -3 -11   31.75    2.14 
   6  -3 -11   36.20    2.89 
   6  -3 -11   32.88    2.11 
  -6   3  11   33.07    2.05 
  -6   3  11   33.31    1.93 
   5  -3 -11   63.55    2.71 
   5  -3 -11   63.40    3.26 
   5  -3 -11   67.15    2.67 
  -5   3  11   57.66    2.34 
  -5   3  11   62.97    2.35 
   4  -3 -11    8.04    1.26 
   4  -3 -11    7.16    1.50 
   4  -3 -11    9.49    1.25 
  -4   3  11    7.37    1.08 
  -4   3  11    7.36    1.01 
   3  -3 -11   12.66    1.45 
   3  -3 -11   16.41    1.49 
  -3   3  11   13.99    1.41 
  -3   3  11   14.87    1.14 
  -3   3  11   14.75    1.61 
  -3   3  11   15.09    1.47 
   2  -3 -11    1.28    1.10 
   2  -3 -11    0.13    1.00 
  -2   3  11   -0.85    0.90 
  -2   3  11   -0.06    0.58 
  -2   3  11   -0.58    0.94 
   1  -3 -11   19.20    1.71 
   1  -3 -11   19.97    1.83 
  -1   3  11   20.25    1.63 
  -1   3  11   21.47    1.44 
  -1   3  11   18.95    1.62 
   0  -3 -11   53.58    2.48 
   0  -3 -11   59.43    2.66 
   0   3  11   58.17    2.35 
   0   3  11   60.20    2.59 
   0   3  11   57.35    2.40 
  -1  -3 -11   63.68    2.88 
  -1  -3 -11   65.19    2.78 
   1   3  11   69.99    2.87 
   1   3  11   68.75    2.57 
  -2  -3 -11   35.31    2.25 
  -2  -3 -11   39.93    2.53 
   2   3  11   41.06    3.59 
   2   3  11   39.14    2.15 
   2   3  11   41.26    2.11 
  -3  -3 -11   20.70    1.85 
  -3  -3 -11   19.62    1.88 
   3   3  11   17.91    2.60 
   3   3  11   21.71    1.72 
   3   3  11   19.99    1.97 
  -4  -3 -11    7.45    1.37 
   4   3  11    5.18    1.25 
   4   3  11    4.99    2.31 
   4   3  11    6.60    1.46 
  -5  -3 -11    0.98    1.45 
   5   3  11   -2.58    2.21 
   5   3  11    3.32    1.54 
   5   3  11   -0.36    1.28 
   7  -4 -11   25.94    1.92 
   7  -4 -11   23.36    2.47 
   7  -4 -11   26.19    1.93 
  -7   4  11   29.50    2.15 
  -7   4  11   30.09    2.02 
   6  -4 -11   23.43    1.72 
   6  -4 -11   19.52    2.24 
   6  -4 -11   25.88    1.85 
  -6   4  11   24.65    1.77 
  -6   4  11   23.18    1.81 
   5  -4 -11    2.80    1.46 
   5  -4 -11   -0.15    1.01 
   5  -4 -11    2.03    1.08 
  -5   4  11    2.47    1.15 
  -5   4  11    2.29    1.04 
   4  -4 -11    0.28    0.99 
   4  -4 -11    0.57    1.05 
  -4   4  11    2.78    0.89 
  -4   4  11   -0.41    0.77 
   3  -4 -11   31.95    1.90 
   3  -4 -11   33.05    1.98 
  -3   4  11   36.00    2.12 
  -3   4  11   34.05    1.99 
   2  -4 -11   12.87    1.43 
   2  -4 -11   15.04    1.43 
  -2   4  11   12.58    1.45 
  -2   4  11   14.82    1.43 
   1  -4 -11   26.95    1.87 
   1  -4 -11   26.93    2.12 
  -1   4  11   23.85    1.88 
  -1   4  11   28.85    1.90 
  -1   4  11   26.32    1.78 
   0  -4 -11   75.72    2.95 
   0  -4 -11   69.07    2.80 
   0   4  11   73.94    2.74 
   0   4  11   73.89    2.68 
   0   4  11   70.72    2.91 
  -1  -4 -11   12.99    1.53 
  -1  -4 -11   10.40    1.55 
   1   4  11   10.94    1.43 
   1   4  11   10.76    1.49 
   1   4  11   11.05    1.37 
  -2  -4 -11    9.31    1.60 
  -2  -4 -11    9.15    1.49 
   2   4  11   11.83    1.51 
   2   4  11   11.91    1.63 
  -3  -4 -11    2.87    1.34 
  -3  -4 -11    2.70    1.37 
   3   4  11    3.65    1.81 
   3   4  11    2.20    1.37 
   3   4  11    2.64    1.22 
  -4  -4 -11   23.26    2.11 
  -4  -4 -11   23.16    1.99 
   4   4  11   19.30    1.86 
   4   4  11   19.62    2.05 
   4   4  11   20.96    2.86 
   6  -5 -11    2.22    1.61 
   6  -5 -11    2.37    1.00 
   6  -5 -11    0.36    1.01 
  -6   5  11    2.87    1.21 
  -6   5  11    1.12    1.02 
   5  -5 -11    9.00    1.74 
   5  -5 -11    9.85    1.29 
   5  -5 -11   10.22    1.29 
  -5   5  11   10.19    1.42 
  -5   5  11    9.29    1.14 
   4  -5 -11   25.54    1.83 
   4  -5 -11   24.30    1.70 
  -4   5  11   28.26    1.96 
  -4   5  11   25.24    2.03 
   3  -5 -11   22.79    1.85 
   3  -5 -11   24.09    1.69 
  -3   5  11   20.44    1.83 
  -3   5  11   18.94    1.64 
   2  -5 -11   43.88    2.18 
   2  -5 -11   41.92    2.10 
  -2   5  11   40.89    2.14 
  -2   5  11   44.68    2.35 
   1  -5 -11   17.76    1.56 
   1  -5 -11   16.09    1.65 
  -1   5  11   15.78    1.33 
  -1   5  11   16.07    1.64 
   0  -5 -11   17.88    1.62 
   0  -5 -11   15.53    1.61 
   0   5  11   18.76    1.68 
   0   5  11   16.11    1.50 
  -1  -5 -11    0.26    1.12 
  -1  -5 -11   -0.97    1.17 
   1   5  11   -0.95    0.97 
   1   5  11    1.15    1.12 
  -2  -5 -11    3.29    1.38 
  -2  -5 -11    4.08    1.30 
   2   5  11    1.64    1.25 
   2   5  11    4.13    1.14 
  -3  -5 -11   13.48    1.70 
  -3  -5 -11   13.12    1.58 
   3   5  11   14.17    2.80 
   3   5  11   11.34    1.64 
  -4  -5 -11   10.78    1.73 
  -4  -5 -11   10.07    1.82 
   4   5  11   12.68    2.07 
   4   5  11   15.65    1.82 
   5  -6 -11   40.17    1.98 
   5  -6 -11   41.06    2.09 
   5  -6 -11   40.36    3.09 
  -5   6  11   41.84    2.32 
   4  -6 -11   29.95    1.83 
   4  -6 -11   27.60    1.88 
  -4   6  11   30.40    2.37 
  -4   6  11   30.76    2.06 
   3  -6 -11   54.37    2.36 
   3  -6 -11   53.33    2.38 
  -3   6  11   55.12    2.75 
  -3   6  11   53.80    2.45 
   2  -6 -11    5.61    1.24 
   2  -6 -11    5.48    1.11 
  -2   6  11    7.87    1.30 
  -2   6  11    7.74    1.42 
   1  -6 -11    0.28    1.02 
   1  -6 -11    0.82    1.02 
  -1   6  11   -0.05    0.97 
  -1   6  11    1.10    1.21 
   0  -6 -11   -0.77    1.02 
   0  -6 -11   -2.31    0.98 
   0   6  11   -0.74    1.19 
   0   6  11   -1.43    0.92 
  -1  -6 -11   41.53    2.47 
  -1  -6 -11   43.27    2.40 
   1   6  11   39.25    2.41 
   1   6  11   41.89    2.09 
  -2  -6 -11   12.27    1.71 
  -2  -6 -11   10.69    1.57 
   2   6  11   11.51    1.65 
   2   6  11   11.94    1.44 
  -3  -6 -11   34.95    2.54 
  -3  -6 -11   32.87    2.41 
   3   6  11   32.47    2.46 
   3   6  11   31.06    2.10 
   4  -7 -11    2.17    1.02 
   4  -7 -11    1.65    0.93 
  -4   7  11    3.11    1.19 
  -4   7  11    0.54    1.39 
   3  -7 -11    0.03    0.98 
   3  -7 -11   -0.40    0.90 
  -3   7  11    1.36    1.33 
  -3   7  11    1.71    1.15 
   2  -7 -11   -0.40    0.97 
   2  -7 -11   -0.80    0.96 
  -2   7  11    0.34    1.26 
  -2   7  11    0.32    1.03 
   1  -7 -11   18.84    1.67 
   1  -7 -11   24.35    1.83 
  -1   7  11   22.75    1.99 
  -1   7  11   26.74    1.85 
   0  -7 -11   16.38    1.63 
   0  -7 -11   17.35    1.68 
   0   7  11   20.28    1.95 
   0   7  11   18.55    1.61 
  -1  -7 -11   23.31    2.13 
  -1  -7 -11   19.99    1.84 
   1   7  11   24.19    1.74 
   1   7  11   22.34    1.87 
   3   7 -12   15.08    1.94 
   2   7 -12   -0.40    1.34 
   2   7 -12    1.45    1.24 
  -2  -7  12    0.89    1.42 
  -2  -7  12    0.42    1.18 
  -2  -7  12    1.61    1.38 
   1   7 -12    7.31    1.50 
  -1  -7  12    9.29    1.49 
  -1  -7  12    9.23    1.58 
  -1  -7  12    8.24    1.57 
   0   7 -12    9.54    1.65 
   0   7 -12    7.60    1.46 
   0  -7  12   12.30    1.73 
   0  -7  12   13.49    2.38 
   0  -7  12   13.69    1.83 
   0  -7  12   13.73    1.78 
  -1   7 -12   27.34    2.26 
   1  -7  12   28.37    2.41 
   1  -7  12   28.17    3.63 
   1  -7  12   35.94    2.61 
   1  -7  12   30.76    2.32 
   4   6 -12   -0.61    1.11 
   4   6 -12    1.68    1.49 
  -4  -6  12    1.10    1.12 
   3   6 -12   10.36    1.74 
   3   6 -12    8.50    1.41 
  -3  -6  12   10.48    1.81 
   2   6 -12   22.65    2.13 
   2   6 -12   26.83    2.08 
  -2  -6  12   20.48    1.99 
  -2  -6  12   25.23    2.22 
  -2  -6  12   21.42    1.96 
   1   6 -12   25.78    2.24 
   1   6 -12   25.57    2.16 
  -1  -6  12   26.64    2.40 
  -1  -6  12   25.52    2.19 
  -1  -6  12   29.62    2.20 
   0   6 -12   35.21    2.50 
   0   6 -12   32.72    2.38 
   0  -6  12   38.76    2.60 
   0  -6  12   32.87    2.34 
   0  -6  12   39.20    3.57 
   0  -6  12   36.10    2.42 
  -1   6 -12    9.04    1.63 
   1  -6  12    6.79    1.58 
   1  -6  12    7.87    1.54 
   1  -6  12    7.16    1.41 
   1  -6  12    7.95    2.23 
  -2   6 -12   10.97    1.55 
  -2   6 -12   12.67    1.81 
   2  -6  12    9.09    2.68 
   2  -6  12   13.46    1.83 
  -3   6 -12    1.45    1.27 
  -3   6 -12   -0.30    1.55 
   3  -6  12   -3.42    2.46 
   3  -6  12   -1.12    1.29 
   5   5 -12    7.25    1.43 
  -5  -5  12    7.78    1.50 
   4   5 -12   23.62    2.23 
   4   5 -12   24.54    1.82 
  -4  -5  12   26.77    2.09 
  -4  -5  12   27.27    1.63 
   3   5 -12   14.99    1.63 
   3   5 -12   14.87    1.90 
  -3  -5  12   15.83    1.40 
  -3  -5  12   17.27    1.98 
   2   5 -12   80.95    3.17 
   2   5 -12   76.06    3.15 
  -2  -5  12   81.63    3.47 
  -2  -5  12   83.40    3.64 
  -2  -5  12   76.49    4.36 
   1   5 -12    5.01    1.39 
   1   5 -12    7.12    1.58 
  -1  -5  12    6.62    1.26 
  -1  -5  12    5.22    1.41 
  -1  -5  12    5.26    1.52 
   0   5 -12    5.31    1.40 
   0   5 -12    3.00    1.34 
   0  -5  12    4.28    1.43 
   0  -5  12    4.35    2.05 
   0  -5  12    4.84    1.24 
   0  -5  12    4.34    1.38 
  -1   5 -12   -0.16    1.20 
  -1   5 -12   -0.54    1.27 
   1  -5  12   -1.91    1.17 
   1  -5  12    0.06    1.91 
  -2   5 -12   12.84    1.53 
  -2   5 -12   10.43    1.45 
  -2   5 -12   10.21    1.70 
   2  -5  12   13.49    1.70 
   2  -5  12    7.89    2.65 
  -3   5 -12   10.41    1.57 
  -3   5 -12    6.68    1.55 
   3  -5  12   11.20    1.65 
   3  -5  12    7.70    1.60 
   3  -5  12    3.56    2.74 
  -4   5 -12   19.78    1.99 
   4  -5  12   11.76    3.36 
   4  -5  12   17.86    1.91 
   6   4 -12   40.37    2.79 
  -6  -4  12   39.99    2.78 
   5   4 -12   12.80    1.65 
  -5  -4  12   16.02    1.34 
  -5  -4  12   17.65    2.00 
   4   4 -12   22.24    2.12 
   4   4 -12   20.29    1.67 
  -4  -4  12   21.61    2.12 
  -4  -4  12   21.57    1.58 
   3   4 -12   24.07    1.88 
   3   4 -12   25.21    2.30 
  -3  -4  12   24.28    1.69 
  -3  -4  12   23.73    1.94 
   2   4 -12    6.78    1.34 
   2   4 -12    4.06    1.45 
  -2  -4  12    6.46    1.29 
   1   4 -12    1.89    1.25 
   1   4 -12    4.52    1.40 
  -1  -4  12    3.46    1.28 
  -1  -4  12    2.46    1.08 
  -1  -4  12    1.64    0.96 
   0   4 -12    4.76    1.43 
   0   4 -12    9.06    1.37 
   0  -4  12   10.07    1.63 
   0  -4  12    8.99    2.07 
   0  -4  12    8.66    1.50 
   0  -4  12    9.33    1.27 
  -1   4 -12   21.28    1.98 
  -1   4 -12   17.36    1.85 
   1  -4  12   16.06    2.61 
  -2   4 -12   20.46    1.98 
  -2   4 -12   23.20    1.83 
  -2   4 -12   21.55    2.00 
   2  -4  12   19.83    1.73 
   2  -4  12   23.57    2.13 
   2  -4  12   17.77    3.00 
  -3   4 -12   35.24    2.25 
  -3   4 -12   38.58    2.46 
  -3   4 -12   33.46    2.50 
   3  -4  12   36.54    2.54 
   3  -4  12   24.92    3.52 
   3  -4  12   35.29    2.40 
  -4   4 -12   13.81    1.63 
  -4   4 -12    9.37    1.70 
   4  -4  12    4.85    3.02 
   4  -4  12   12.35    1.81 
   4  -4  12   12.81    1.71 
   6   3 -12   20.12    2.15 
  -6  -3  12   22.70    1.76 
  -6  -3  12   22.64    2.16 
   5   3 -12   43.40    2.70 
  -5  -3  12   40.85    2.63 
  -5  -3  12   41.14    1.97 
   4   3 -12    3.96    1.23 
   4   3 -12    5.85    1.28 
  -4  -3  12    6.09    1.11 
  -4  -3  12    5.83    1.53 
   3   3 -12    0.97    1.01 
  -3  -3  12   -0.94    1.18 
  -3  -3  12    0.14    0.96 
   2   3 -12    0.28    1.24 
  -2  -3  12    0.21    1.24 
   1   3 -12   47.54    2.64 
  -1  -3  12   45.87    2.05 
  -1  -3  12   50.56    2.51 
  -1  -3  12   47.37    2.67 
   0   3 -12   39.78    2.46 
   0  -3  12   39.22    3.71 
  -1   3 -12   35.76    2.42 
   1  -3  12   38.56    2.23 
   1  -3  12   39.77    3.93 
   1  -3  12   39.48    2.33 
  -2   3 -12   34.66    1.94 
  -2   3 -12   35.58    2.44 
   2  -3  12   36.26    2.48 
   2  -3  12   35.85    2.33 
   2  -3  12   29.43    3.87 
  -3   3 -12    9.12    1.42 
  -3   3 -12    8.88    1.40 
   3  -3  12    6.34    2.66 
   3  -3  12    9.04    1.53 
   3  -3  12    9.04    1.60 
  -4   3 -12    1.73    1.41 
  -4   3 -12    4.01    1.25 
   4  -3  12    3.10    1.33 
   4  -3  12   -1.40    2.40 
   4  -3  12    2.41    1.43 
  -5   3 -12    4.02    1.40 
   5  -3  12    4.95    1.47 
   7   2 -12   18.77    2.10 
   7   2 -12   22.53    2.10 
  -7  -2  12   23.86    1.71 
   6   2 -12    3.51    1.54 
   6   2 -12    4.21    1.42 
   6   2 -12    6.05    1.55 
  -6  -2  12    6.93    1.21 
  -6  -2  12    6.19    1.52 
   5   2 -12    5.01    1.47 
   5   2 -12    1.60    1.14 
   5   2 -12    3.13    1.34 
  -5  -2  12    2.33    1.03 
  -5  -2  12    2.91    1.38 
   4   2 -12    0.81    0.99 
   4   2 -12    2.26    1.25 
   4   2 -12    0.82    1.23 
  -4  -2  12    1.61    1.01 
  -4  -2  12    1.99    1.02 
   3   2 -12   32.19    2.19 
   3   2 -12   35.35    2.06 
   3   2 -12   33.53    2.38 
  -3  -2  12   32.17    1.90 
  -3  -2  12   37.41    2.40 
   2   2 -12   34.62    1.91 
   2   2 -12   37.43    2.23 
   2   2 -12   32.18    2.33 
  -2  -2  12   37.27    2.40 
   1   2 -12   27.24    1.64 
   1   2 -12   29.42    2.26 
   1   2 -12   29.20    2.09 
  -1  -2  12   24.42    2.17 
   0   2 -12   35.01    2.38 
   0  -2  12   36.21    3.56 
  -1   2 -12   15.17    1.58 
   1  -2  12   15.30    1.76 
   1  -2  12   15.25    1.65 
   1  -2  12   15.02    2.61 
  -2   2 -12    1.16    0.94 
  -2   2 -12    3.30    1.36 
   2  -2  12    1.03    1.33 
   2  -2  12    3.11    1.26 
   2  -2  12    2.29    1.73 
  -3   2 -12    2.23    1.35 
  -3   2 -12    3.63    1.07 
   3  -2  12    2.82    1.29 
   3  -2  12    1.38    1.36 
   3  -2  12   -1.90    2.12 
  -4   2 -12   23.93    1.98 
  -4   2 -12   30.37    2.04 
   4  -2  12   21.07    3.09 
   4  -2  12   23.92    2.18 
  -5   2 -12   21.27    2.19 
  -5   2 -12   26.32    2.39 
   5  -2  12   14.00    3.46 
   5  -2  12   20.86    2.19 
   7   1 -12    0.21    1.23 
   7   1 -12    1.33    1.40 
   7   1 -12   -0.80    1.40 
  -7  -1  12    0.93    1.02 
  -7  -1  12   -0.47    1.31 
   6   1 -12    8.46    1.71 
   6   1 -12    7.37    1.53 
   6   1 -12    7.63    1.48 
  -6  -1  12    9.23    1.27 
  -6  -1  12    7.31    1.53 
   5   1 -12   10.19    1.43 
   5   1 -12   10.80    1.65 
   5   1 -12   12.44    1.60 
  -5  -1  12   11.26    1.68 
  -5  -1  12   11.57    1.32 
   4   1 -12   33.96    2.24 
   4   1 -12   36.56    2.44 
   4   1 -12   37.05    2.39 
  -4  -1  12   31.61    2.28 
  -4  -1  12   36.99    1.97 
   3   1 -12   55.84    2.65 
   3   1 -12   52.95    2.59 
   3   1 -12   53.63    2.75 
  -3  -1  12   56.48    2.72 
  -3  -1  12   52.30    2.29 
   2   1 -12   47.22    2.42 
   2   1 -12   42.00    2.18 
   2   1 -12   39.58    2.44 
  -2  -1  12   38.81    2.14 
  -2  -1  12   41.96    2.09 
   1   1 -12   37.55    2.13 
   1   1 -12   40.74    2.30 
   0   1 -12   -0.02    0.91 
   0   1 -12    1.17    1.11 
   0  -1  12    0.03    1.19 
   0  -1  12    1.84    1.75 
  -1   1 -12   -0.05    1.11 
  -1   1 -12    1.55    1.26 
   1  -1  12   -1.27    1.76 
   1  -1  12    0.53    1.23 
  -2   1 -12   25.26    1.60 
  -2   1 -12   25.01    2.22 
   2  -1  12   24.57    2.22 
   2  -1  12   21.10    2.95 
  -3   1 -12   26.50    1.89 
  -3   1 -12   26.69    2.35 
   3  -1  12   19.62    3.12 
   3  -1  12   27.74    2.36 
  -4   1 -12   10.05    1.79 
  -4   1 -12   14.40    1.62 
   4  -1  12   14.08    1.69 
   4  -1  12   11.91    2.94 
  -5   1 -12   32.16    2.36 
  -5   1 -12   32.38    2.65 
   5  -1  12   28.80    2.47 
   5  -1  12   22.33    3.76 
   7   0 -12    8.16    1.79 
   7   0 -12    9.56    1.58 
   7   0 -12    9.13    1.58 
  -7   0  12    9.35    1.34 
  -7   0  12    8.68    1.55 
   6   0 -12   42.73    2.88 
   6   0 -12   45.39    2.49 
   6   0 -12   45.06    2.62 
  -6   0  12   46.90    2.23 
  -6   0  12   43.98    2.36 
   5   0 -12   75.55    3.07 
   5   0 -12   67.89    3.22 
   5   0 -12   72.34    3.14 
  -5   0  12   71.22    2.75 
  -5   0  12   73.51    2.73 
  -5   0  12   75.99    3.06 
   4   0 -12    9.14    1.54 
   4   0 -12    9.38    1.53 
   4   0 -12    6.95    1.37 
  -4   0  12   11.03    1.56 
  -4   0  12    5.74    1.23 
   3   0 -12   15.39    1.64 
   3   0 -12   15.01    1.61 
   3   0 -12   14.85    1.66 
  -3   0  12   14.02    1.29 
  -3   0  12   14.93    1.68 
   2   0 -12    0.37    1.10 
   2   0 -12   -0.42    1.11 
  -2   0  12   -0.69    1.04 
  -2   0  12   -0.39    1.14 
   1   0 -12   11.12    1.50 
   1   0 -12   12.90    1.62 
  -1   0  12   13.91    1.13 
   0   0 -12    2.71    1.27 
   0   0 -12    0.99    0.90 
   0   0  12    2.52    1.26 
   0   0  12    2.52    0.83 
  -1   0 -12   49.67    2.43 
  -1   0 -12   45.52    2.47 
   1   0  12   50.97    3.62 
   1   0  12   52.94    2.70 
   1   0  12   53.75    1.99 
  -2   0 -12   41.02    2.29 
  -2   0 -12   47.44    2.34 
   2   0  12   42.67    4.05 
   2   0  12   44.01    2.59 
   2   0  12   45.33    1.94 
  -3   0 -12   35.69    2.01 
  -3   0 -12   34.50    2.55 
   3   0  12   35.18    2.55 
   3   0  12   32.24    3.98 
   3   0  12   37.25    1.90 
  -4   0 -12   35.29    2.25 
  -4   0 -12   33.86    2.66 
   4   0  12   31.22    4.33 
   4   0  12   35.33    2.66 
   4   0  12   41.64    2.53 
  -5   0 -12    0.83    1.54 
  -5   0 -12    2.12    1.25 
   5   0  12    3.00    1.63 
   7  -1 -12   28.54    2.19 
   7  -1 -12   29.53    2.27 
   7  -1 -12   25.77    2.50 
  -7   1  12   29.15    2.13 
  -7   1  12   30.38    2.04 
   6  -1 -12   18.92    1.81 
   6  -1 -12   19.91    2.13 
   6  -1 -12   17.39    1.74 
  -6   1  12   22.12    1.73 
  -6   1  12   16.72    1.65 
   5  -1 -12   11.59    1.52 
   5  -1 -12   11.72    1.59 
   5  -1 -12   12.52    1.74 
  -5   1  12   12.79    1.48 
  -5   1  12   10.87    1.33 
   4  -1 -12   14.82    1.66 
   4  -1 -12   11.95    1.51 
   4  -1 -12   12.96    1.62 
  -4   1  12   11.92    1.36 
  -4   1  12   11.57    1.49 
  -4   1  12   13.04    1.27 
   3  -1 -12    1.57    1.19 
   3  -1 -12    2.31    1.16 
   3  -1 -12    3.25    1.26 
  -3   1  12    2.34    1.18 
  -3   1  12    1.94    1.12 
   2  -1 -12   12.40    1.58 
   2  -1 -12   12.76    1.51 
  -2   1  12   10.68    1.39 
  -2   1  12   10.55    1.46 
  -2   1  12   12.21    1.25 
   1  -1 -12   36.00    2.18 
   1  -1 -12   36.07    2.30 
  -1   1  12   35.66    1.83 
  -1   1  12   32.28    2.05 
  -1   1  12   35.34    2.23 
   0  -1 -12   68.76    2.89 
   0  -1 -12   72.14    3.06 
   0   1  12   74.58    3.02 
   0   1  12   69.76    2.47 
  -1  -1 -12   16.99    1.63 
  -1  -1 -12   19.18    1.76 
   1   1  12   15.75    2.49 
   1   1  12   16.82    1.32 
   1   1  12   18.13    1.67 
  -2  -1 -12    6.25    1.42 
  -2  -1 -12    6.44    1.29 
   2   1  12    5.14    2.18 
   2   1  12    8.81    1.59 
   2   1  12    7.89    1.18 
  -3  -1 -12    3.40    1.49 
  -3  -1 -12    4.16    1.05 
   3   1  12    2.79    2.17 
   3   1  12    3.36    1.45 
   3   1  12    3.69    1.10 
  -4  -1 -12    1.43    1.13 
  -4  -1 -12    0.48    1.48 
   4   1  12   -0.04    1.45 
   4   1  12    0.03    2.23 
   4   1  12    0.84    1.15 
  -5  -1 -12    2.98    1.35 
  -5  -1 -12    4.25    1.36 
   5   1  12    2.85    1.31 
   5   1  12    3.46    1.28 
   5   1  12   -1.04    2.47 
   7  -2 -12    5.22    1.34 
   7  -2 -12    5.87    1.32 
   7  -2 -12    3.74    1.76 
  -7   2  12    6.28    1.33 
  -7   2  12    5.55    1.29 
   6  -2 -12    4.73    1.25 
   6  -2 -12    3.29    1.22 
   6  -2 -12    3.97    1.57 
  -6   2  12    4.54    1.21 
  -6   2  12    4.04    1.02 
   5  -2 -12    6.87    1.29 
   5  -2 -12    5.42    1.48 
   5  -2 -12    6.06    1.36 
  -5   2  12    5.44    1.26 
  -5   2  12    3.76    1.09 
   4  -2 -12   18.00    1.75 
   4  -2 -12   20.69    1.79 
   4  -2 -12   19.31    1.91 
  -4   2  12   17.88    1.62 
  -4   2  12   18.83    1.47 
   3  -2 -12   39.08    2.30 
   3  -2 -12   38.67    2.19 
  -3   2  12   37.16    1.66 
  -3   2  12   39.07    2.19 
  -3   2  12   37.30    2.11 
   2  -2 -12   37.37    2.15 
   2  -2 -12   39.18    2.31 
  -2   2  12   35.38    2.12 
  -2   2  12   39.28    1.94 
  -2   2  12   33.54    2.05 
  -2   2  12   34.42    1.56 
   1  -2 -12   46.53    2.51 
   1  -2 -12   51.72    2.46 
  -1   2  12   52.12    2.49 
  -1   2  12   48.60    2.32 
  -1   2  12   54.65    2.30 
   0  -2 -12   17.77    1.67 
   0  -2 -12   15.17    1.71 
   0   2  12   17.02    1.41 
   0   2  12   16.81    1.75 
  -1  -2 -12   27.76    2.12 
  -1  -2 -12   28.45    2.27 
   1   2  12   33.00    2.26 
   1   2  12   30.47    1.79 
  -2  -2 -12    4.06    1.36 
  -2  -2 -12    0.76    1.29 
   2   2  12    2.89    1.36 
   2   2  12    3.63    1.20 
   2   2  12    3.39    1.97 
  -3  -2 -12    3.15    1.51 
  -3  -2 -12    0.94    1.30 
   3   2  12    2.40    1.18 
   3   2  12    2.70    2.05 
   3   2  12    1.57    1.44 
  -4  -2 -12   20.95    1.89 
  -4  -2 -12   18.29    2.12 
   4   2  12   17.86    1.68 
   4   2  12   21.82    2.22 
   4   2  12   19.49    3.05 
   6  -3 -12   16.67    1.61 
   6  -3 -12   13.36    1.64 
   6  -3 -12   13.76    2.01 
  -6   3  12   14.26    1.54 
  -6   3  12   16.67    1.64 
   5  -3 -12   27.71    2.17 
   5  -3 -12   38.42    2.77 
   5  -3 -12   35.33    2.16 
  -5   3  12   33.31    2.15 
   4  -3 -12   13.85    1.80 
   4  -3 -12   13.58    1.53 
   4  -3 -12   14.18    1.50 
  -4   3  12   13.40    1.26 
  -4   3  12   14.44    1.54 
   3  -3 -12   85.10    3.09 
   3  -3 -12   81.34    3.17 
  -3   3  12   86.29    3.04 
  -3   3  12   92.24    3.21 
  -3   3  12   88.66    3.08 
   2  -3 -12    2.22    1.18 
   2  -3 -12    1.56    1.09 
  -2   3  12    3.85    1.10 
  -2   3  12    1.16    0.85 
   1  -3 -12    9.00    1.38 
   1  -3 -12   10.36    1.49 
  -1   3  12    7.42    1.32 
  -1   3  12   10.38    1.30 
  -1   3  12   10.43    1.43 
   0  -3 -12    2.62    1.27 
   0  -3 -12    2.22    1.14 
   0   3  12    1.96    1.20 
   0   3  12    1.07    1.01 
   0   3  12    0.03    0.83 
  -1  -3 -12   12.10    1.57 
  -1  -3 -12   12.06    1.66 
   1   3  12   13.83    1.43 
   1   3  12   12.94    1.63 
  -2  -3 -12   12.03    1.77 
  -2  -3 -12   12.05    1.67 
   2   3  12   12.20    1.41 
   2   3  12   12.93    1.70 
  -3  -3 -12   23.00    2.22 
  -3  -3 -12   20.94    2.03 
   3   3  12   30.52    3.47 
   3   3  12   29.46    2.04 
   3   3  12   23.70    2.21 
  -4  -3 -12   34.12    2.75 
  -4  -3 -12   25.34    2.23 
   4   3  12   32.15    2.21 
   4   3  12   31.08    2.65 
   4   3  12   34.00    4.18 
   6  -4 -12   14.11    2.13 
   6  -4 -12   10.93    1.46 
   6  -4 -12   12.09    1.50 
  -6   4  12   16.25    1.65 
  -6   4  12   15.00    1.46 
   5  -4 -12   35.37    2.90 
   5  -4 -12   38.67    2.28 
   5  -4 -12   35.07    2.25 
  -5   4  12   35.70    2.21 
  -5   4  12   37.26    1.95 
   4  -4 -12   26.09    2.08 
   4  -4 -12   25.85    2.05 
   4  -4 -12   28.57    2.56 
  -4   4  12   28.10    2.04 
   3  -4 -12    1.29    1.03 
   3  -4 -12    1.52    1.23 
  -3   4  12    1.81    1.08 
  -3   4  12    3.16    1.22 
   2  -4 -12    1.20    1.07 
   2  -4 -12    2.95    1.18 
  -2   4  12    2.31    1.16 
  -2   4  12    1.92    1.13 
   1  -4 -12   11.84    1.44 
   1  -4 -12   10.20    1.48 
  -1   4  12   12.11    1.42 
  -1   4  12   11.78    1.29 
   0  -4 -12   35.48    2.23 
   0  -4 -12   35.56    2.32 
   0   4  12   32.70    2.07 
   0   4  12   32.55    2.04 
  -1  -4 -12   23.11    1.96 
  -1  -4 -12   24.06    2.21 
   1   4  12   27.31    1.97 
   1   4  12   24.92    2.03 
   1   4  12   23.67    1.88 
  -2  -4 -12   33.42    2.43 
  -2  -4 -12   39.71    2.67 
   2   4  12   41.84    2.32 
   2   4  12   43.80    2.59 
  -3  -4 -12   22.29    2.22 
  -3  -4 -12   26.77    2.31 
   3   4  12   25.76    2.12 
   3   4  12   20.60    2.14 
   5  -5 -12    1.41    1.08 
   5  -5 -12    2.93    1.61 
   5  -5 -12    1.65    1.05 
  -5   5  12    1.47    0.96 
   4  -5 -12    0.25    1.09 
   4  -5 -12   -0.56    1.05 
  -4   5  12    1.94    1.19 
  -4   5  12   -0.10    1.23 
   3  -5 -12    4.90    1.17 
   3  -5 -12    4.09    1.17 
  -3   5  12    7.40    1.47 
  -3   5  12    4.87    1.27 
   2  -5 -12   25.23    2.11 
   2  -5 -12   25.88    1.90 
  -2   5  12   25.81    1.91 
  -2   5  12   25.02    2.04 
   1  -5 -12   16.56    1.65 
   1  -5 -12   16.77    1.62 
  -1   5  12   17.08    1.71 
  -1   5  12   17.21    1.58 
   0  -5 -12   46.10    2.65 
   0  -5 -12   47.71    2.57 
   0   5  12   42.38    2.21 
   0   5  12   50.85    2.54 
  -1  -5 -12    7.92    1.52 
  -1  -5 -12    7.23    1.46 
   1   5  12    9.87    1.41 
   1   5  12   10.02    1.52 
  -2  -5 -12    1.34    1.36 
  -2  -5 -12    0.32    1.29 
   2   5  12    2.31    1.30 
   2   5  12   -3.18    1.02 
  -3  -5 -12    2.61    1.46 
   3   5  12    4.13    1.45 
   3   5  12    4.86    1.30 
   4  -6 -12   24.46    1.79 
   4  -6 -12   26.49    1.90 
  -4   6  12   25.26    2.17 
  -4   6  12   27.14    1.81 
   3  -6 -12   35.19    2.16 
   3  -6 -12   39.96    2.11 
  -3   6  12   38.37    2.21 
  -3   6  12   38.65    2.24 
   2  -6 -12   16.40    1.59 
   2  -6 -12   16.03    1.54 
  -2   6  12   15.30    1.58 
  -2   6  12   18.87    1.85 
   1  -6 -12   27.03    2.01 
   1  -6 -12   28.07    2.07 
  -1   6  12   28.84    2.11 
  -1   6  12   31.29    2.26 
   0  -6 -12   20.12    1.94 
   0  -6 -12   16.82    1.81 
   0   6  12   17.91    1.61 
   0   6  12   17.62    1.79 
  -1  -6 -12    0.56    1.32 
  -1  -6 -12   -0.86    1.20 
   1   6  12    0.47    1.27 
   1   6  12   -0.37    1.06 
   2   6 -13    1.06    1.22 
   2   6 -13    2.41    1.50 
  -2  -6  13    0.06    1.47 
   1   6 -13   17.39    2.04 
   1   6 -13   14.71    1.83 
  -1  -6  13   16.88    2.02 
   0   6 -13   23.30    2.15 
   0   6 -13   22.02    2.28 
   0  -6  13   24.29    2.09 
   0  -6  13   26.61    2.37 
   0  -6  13   38.28    3.92 
   0  -6  13   23.59    2.15 
  -1   6 -13   24.42    2.44 
   1  -6  13   26.47    2.29 
   1  -6  13   21.96    3.17 
   4   5 -13    5.24    1.63 
   4   5 -13    5.58    1.40 
  -4  -5  13    4.93    1.67 
   3   5 -13    4.60    1.61 
   3   5 -13    5.58    1.37 
  -3  -5  13    7.16    1.67 
  -3  -5  13    4.55    1.13 
   2   5 -13   37.49    2.68 
   2   5 -13   33.66    2.31 
  -2  -5  13   34.86    2.67 
   1   5 -13    8.33    1.71 
   1   5 -13    5.96    1.51 
  -1  -5  13    6.20    1.63 
   0   5 -13   24.51    2.21 
   0   5 -13   25.85    2.14 
   0  -5  13   32.96    3.60 
   0  -5  13   24.26    3.03 
   0  -5  13   22.31    2.18 
   0  -5  13   34.07    3.30 
  -1   5 -13   12.02    1.82 
  -1   5 -13   10.49    1.78 
   1  -5  13   11.70    1.71 
   1  -5  13   13.27    2.65 
   1  -5  13   12.81    1.83 
  -2   5 -13    3.52    1.56 
   2  -5  13    5.02    2.57 
   5   4 -13    1.73    1.55 
  -5  -4  13    1.34    1.47 
  -5  -4  13    1.10    1.07 
   4   4 -13   32.97    2.65 
   4   4 -13   28.08    1.99 
  -4  -4  13   36.05    2.65 
  -4  -4  13   28.44    1.84 
   3   4 -13   14.18    1.57 
   3   4 -13   15.11    1.72 
  -3  -4  13   13.34    1.45 
  -3  -4  13   14.22    1.92 
   2   4 -13   39.45    2.70 
   2   4 -13   40.52    2.42 
  -2  -4  13   37.71    2.36 
   1   4 -13   30.92    2.46 
   1   4 -13   27.32    2.14 
  -1  -4  13   30.52    2.50 
   0   4 -13    1.40    1.40 
   0   4 -13   -2.46    1.24 
   0  -4  13    4.42    1.99 
   0  -4  13   -0.72    1.28 
  -1   4 -13    1.04    1.40 
  -1   4 -13    1.91    1.48 
   1  -4  13    2.59    2.04 
  -2   4 -13    4.59    1.59 
  -2   4 -13    8.71    1.68 
   2  -4  13    9.32    1.62 
   2  -4  13    5.81    2.51 
   2  -4  13    9.95    1.78 
  -3   4 -13   12.67    1.81 
  -3   4 -13   11.40    1.86 
   3  -4  13   12.47    1.82 
   3  -4  13   14.21    1.85 
   3  -4  13    9.21    2.86 
   5   3 -13   70.44    3.41 
  -5  -3  13   66.19    2.68 
  -5  -3  13   64.46    3.30 
   4   3 -13   19.56    2.08 
   4   3 -13   16.79    1.70 
  -4  -3  13   18.10    2.04 
  -4  -3  13   21.60    1.69 
   3   3 -13   31.36    2.50 
  -3  -3  13   26.27    2.02 
  -3  -3  13   25.10    2.01 
   2   3 -13   12.32    1.58 
  -2  -3  13   12.51    1.57 
   1   3 -13    1.10    1.34 
  -1  -3  13   -0.87    1.25 
   0   3 -13    2.36    1.43 
   0  -3  13    4.44    1.68 
   0  -3  13    3.22    1.47 
  -1   3 -13    8.88    1.63 
   1  -3  13    8.22    2.37 
   1  -3  13    8.05    1.42 
  -2   3 -13   50.97    2.84 
   2  -3  13   50.37    2.61 
   2  -3  13   46.80    4.43 
  -3   3 -13   15.42    1.96 
   3  -3  13   19.11    2.08 
   3  -3  13   14.94    3.18 
   6   2 -13   13.06    2.17 
  -6  -2  13   14.65    1.97 
  -6  -2  13   14.86    1.50 
   5   2 -13   18.24    1.84 
   5   2 -13   14.59    2.28 
   5   2 -13   10.89    1.86 
  -5  -2  13   19.87    1.60 
  -5  -2  13   15.99    1.91 
   4   2 -13    8.85    1.70 
   4   2 -13    7.90    1.53 
   4   2 -13    8.51    1.38 
  -4  -2  13    8.06    1.62 
  -4  -2  13    7.83    1.29 
   3   2 -13    5.32    1.51 
  -3  -2  13    4.67    1.21 
  -3  -2  13    3.78    1.44 
   2   2 -13    0.47    1.30 
  -2  -2  13    0.75    1.28 
  -2  -2  13    0.74    1.11 
   1   2 -13   32.79    2.46 
  -1  -2  13   31.14    2.38 
   0   2 -13   40.11    2.62 
   0  -2  13   46.69    4.03 
  -1   2 -13   10.67    1.49 
   1  -2  13   11.41    2.47 
   1  -2  13   14.90    1.85 
  -2   2 -13   35.49    2.55 
   2  -2  13   34.59    3.51 
   2  -2  13   41.29    2.68 
  -3   2 -13   14.55    1.92 
   3  -2  13   11.67    2.98 
   3  -2  13   14.18    1.91 
  -4   2 -13    0.59    1.47 
   4  -2  13    0.43    1.12 
   4  -2  13   -3.65    2.54 
   6   1 -13    7.88    1.55 
   6   1 -13    5.76    1.63 
   6   1 -13    7.46    1.59 
  -6  -1  13    7.77    1.31 
  -6  -1  13    5.42    1.44 
   5   1 -13    4.59    1.39 
   5   1 -13    7.74    1.61 
   5   1 -13    2.72    1.46 
  -5  -1  13    4.49    1.17 
  -5  -1  13    4.86    1.43 
   4   1 -13    5.16    1.49 
   4   1 -13    3.33    1.32 
   4   1 -13    4.63    1.38 
  -4  -1  13    5.88    1.50 
  -4  -1  13    4.05    1.18 
   3   1 -13   11.11    1.45 
   3   1 -13   15.10    1.82 
   3   1 -13   13.87    1.69 
  -3  -1  13   13.50    1.47 
  -3  -1  13   14.78    1.77 
   2   1 -13   42.26    2.60 
   2   1 -13   36.26    2.13 
   2   1 -13   33.27    2.31 
  -2  -1  13   39.68    2.51 
  -2  -1  13   35.11    2.11 
   1   1 -13   50.57    2.59 
   1   1 -13   46.63    2.72 
  -1  -1  13   48.24    2.68 
   0   1 -13   11.68    1.51 
   0  -1  13   14.47    1.84 
  -1   1 -13   17.31    1.95 
   1  -1  13   19.28    1.80 
   1  -1  13   17.63    2.70 
  -2   1 -13    1.80    1.41 
   2  -1  13   -0.12    1.92 
   2  -1  13   -0.37    1.31 
  -3   1 -13    5.66    1.63 
   3  -1  13    4.42    1.56 
   3  -1  13    2.55    2.37 
  -4   1 -13   10.30    1.87 
   4  -1  13    6.77    2.87 
   4  -1  13   10.00    1.59 
   6   0 -13   26.34    2.23 
   6   0 -13   22.82    2.10 
   6   0 -13   17.09    2.06 
  -6   0  13   27.17    1.99 
  -6   0  13   21.60    1.89 
   5   0 -13    9.48    1.56 
   5   0 -13   10.16    1.67 
   5   0 -13   10.33    1.64 
  -5   0  13    8.48    1.38 
  -5   0  13   10.73    1.40 
   4   0 -13   17.24    1.87 
   4   0 -13   15.76    1.76 
   4   0 -13   17.02    1.84 
  -4   0  13   17.72    1.64 
  -4   0  13   18.45    1.89 
   3   0 -13   54.46    2.69 
   3   0 -13   51.94    2.77 
   3   0 -13   55.69    2.66 
  -3   0  13   54.60    2.77 
  -3   0  13   48.96    2.39 
   2   0 -13   24.59    2.10 
   2   0 -13   22.09    2.02 
  -2   0  13   21.55    1.76 
  -2   0  13   23.07    1.77 
   1   0 -13   12.22    1.72 
   1   0 -13   13.20    1.63 
  -1   0  13   14.91    1.50 
   0   0 -13    4.15    1.18 
   0   0 -13    4.24    1.32 
   0   0  13    5.18    1.44 
  -1   0 -13    5.34    1.52 
   1   0  13    4.83    1.46 
   1   0  13    6.08    2.17 
  -2   0 -13    5.17    1.54 
   2   0  13    3.37    2.16 
   2   0  13    3.41    1.21 
  -3   0 -13   25.59    2.30 
   3   0  13   23.84    2.28 
   3   0  13   29.23    4.01 
  -4   0 -13    8.58    1.83 
   4   0  13    7.43    2.79 
   4   0  13    8.72    1.82 
   6  -1 -13   31.62    2.26 
   6  -1 -13   28.49    2.75 
   6  -1 -13   26.75    2.28 
  -6   1  13   26.36    1.97 
  -6   1  13   26.38    2.06 
   5  -1 -13   46.43    2.67 
   5  -1 -13   42.45    2.53 
   5  -1 -13   45.87    2.93 
  -5   1  13   46.96    2.35 
  -5   1  13   46.40    2.23 
   4  -1 -13   27.98    2.18 
   4  -1 -13   32.05    2.41 
   4  -1 -13   27.47    2.27 
  -4   1  13   31.17    1.81 
  -4   1  13   29.82    1.99 
   3  -1 -13    6.44    1.45 
   3  -1 -13    8.06    1.45 
   3  -1 -13    6.13    1.33 
  -3   1  13    7.05    1.42 
  -3   1  13    5.60    1.03 
  -3   1  13    7.55    1.35 
   2  -1 -13    3.43    1.33 
   2  -1 -13    5.14    1.32 
  -2   1  13    4.58    1.04 
  -2   1  13    3.83    1.03 
  -2   1  13    4.91    1.35 
   1  -1 -13    5.23    1.36 
   1  -1 -13    5.53    1.42 
  -1   1  13    7.35    1.36 
  -1   1  13    7.95    1.14 
   0  -1 -13    8.96    1.47 
   0  -1 -13   10.49    1.63 
   0   1  13    9.25    1.56 
   0   1  13   10.06    1.19 
  -1  -1 -13   11.88    1.73 
  -1  -1 -13   13.43    1.66 
   1   1  13   13.20    1.77 
   1   1  13   13.22    1.33 
  -2  -1 -13   64.19    3.14 
   2   1  13   54.80    2.99 
   2   1  13   60.42    2.45 
   2   1  13   64.03    4.56 
  -3  -1 -13   29.60    2.59 
   3   1  13   27.07    2.13 
   3   1  13   29.77    3.95 
  -4  -1 -13    5.19    1.73 
   4   1  13    4.82    2.61 
   4   1  13    8.12    1.78 
   6  -2 -13   23.71    2.42 
   6  -2 -13   27.01    2.33 
  -6   2  13   30.16    2.19 
  -6   2  13   28.17    2.14 
   5  -2 -13    2.07    1.29 
   5  -2 -13    1.19    1.34 
   5  -2 -13    3.37    1.38 
  -5   2  13    0.10    1.07 
  -5   2  13   -0.73    1.14 
   4  -2 -13    4.66    1.40 
   4  -2 -13    4.29    1.34 
   4  -2 -13    5.21    1.32 
  -4   2  13    2.68    1.03 
  -4   2  13    5.18    1.31 
   3  -2 -13   -0.31    1.11 
   3  -2 -13    1.03    1.19 
  -3   2  13   -2.54    1.06 
   2  -2 -13   26.32    2.21 
   2  -2 -13   26.25    2.06 
  -2   2  13   24.42    2.01 
  -2   2  13   27.04    1.75 
  -2   2  13   20.23    1.59 
   1  -2 -13   33.44    2.37 
   1  -2 -13   31.52    2.23 
  -1   2  13   35.90    1.90 
  -1   2  13   32.71    2.16 
  -1   2  13   32.01    2.25 
   0  -2 -13   32.43    2.42 
   0  -2 -13   34.42    2.28 
   0   2  13   33.30    2.21 
   0   2  13   33.75    2.31 
   0   2  13   36.94    1.91 
  -1  -2 -13   35.08    2.50 
  -1  -2 -13   33.31    2.36 
   1   2  13   39.52    2.09 
   1   2  13   33.96    2.46 
  -2  -2 -13    4.30    1.78 
  -2  -2 -13    2.92    1.48 
   2   2  13    4.76    1.52 
   2   2  13    7.70    2.14 
   2   2  13    4.81    1.14 
  -3  -2 -13    3.28    1.29 
   3   2  13    3.32    1.54 
   3   2  13    4.73    1.19 
   3   2  13    4.07    2.17 
   5  -3 -13    3.90    1.40 
   5  -3 -13    3.47    1.34 
   5  -3 -13    2.15    1.45 
  -5   3  13    3.54    2.02 
  -5   3  13    4.06    1.09 
   4  -3 -13    4.35    1.46 
   4  -3 -13    3.11    1.21 
   4  -3 -13    5.99    1.36 
  -4   3  13    3.48    1.27 
   3  -3 -13   39.34    2.42 
   3  -3 -13   38.72    2.48 
  -3   3  13   40.01    2.28 
  -3   3  13   41.50    2.22 
   2  -3 -13   10.84    1.51 
   2  -3 -13    8.48    1.53 
  -2   3  13    8.74    1.37 
  -2   3  13    7.14    1.37 
   1  -3 -13   30.27    2.28 
   1  -3 -13   34.75    2.26 
  -1   3  13   33.56    2.00 
  -1   3  13   30.69    2.10 
   0  -3 -13    5.63    1.30 
   0  -3 -13    5.49    1.47 
   0   3  13    7.38    1.26 
   0   3  13    6.60    1.43 
   0   3  13    6.63    1.39 
  -1  -3 -13   11.88    1.75 
  -1  -3 -13   12.92    1.66 
   1   3  13   14.73    1.50 
   1   3  13   11.44    1.72 
  -2  -3 -13   -0.86    1.28 
  -2  -3 -13   -1.23    0.98 
   2   3  13   -0.30    1.05 
   2   3  13    2.21    1.40 
  -3  -3 -13   14.21    2.02 
   3   3  13   14.76    1.69 
   3   3  13   14.45    1.98 
   5  -4 -13   47.77    2.62 
   5  -4 -13   47.84    2.65 
   5  -4 -13   50.93    3.30 
  -5   4  13   54.80    3.05 
   4  -4 -13   12.27    1.62 
   4  -4 -13   11.44    1.81 
   4  -4 -13   10.05    1.46 
  -4   4  13   13.27    1.56 
   3  -4 -13   55.33    2.58 
   3  -4 -13   50.65    2.60 
  -3   4  13   51.18    2.57 
  -3   4  13   50.29    2.54 
   2  -4 -13   36.37    2.41 
   2  -4 -13   36.30    2.32 
  -2   4  13   36.56    2.20 
  -2   4  13   34.82    2.23 
   1  -4 -13    0.15    1.26 
   1  -4 -13   -0.50    1.12 
  -1   4  13   -0.91    1.11 
  -1   4  13   -0.93    1.11 
   0  -4 -13    0.76    1.24 
   0  -4 -13    1.14    1.25 
   0   4  13    3.26    1.21 
   0   4  13    2.53    1.24 
  -1  -4 -13    1.90    1.38 
  -1  -4 -13    3.47    1.41 
   1   4  13    3.87    1.25 
   1   4  13   -0.41    1.21 
  -2  -4 -13   26.27    2.26 
  -2  -4 -13   27.65    2.13 
   2   4  13   26.14    2.03 
   2   4  13   29.29    2.12 
   4  -5 -13   11.53    1.51 
   4  -5 -13    9.52    1.52 
   3  -5 -13    1.66    1.12 
   3  -5 -13    2.22    1.16 
  -3   5  13    3.92    1.23 
  -3   5  13    2.06    1.31 
   2  -5 -13    2.25    1.26 
   2  -5 -13   -0.07    1.24 
  -2   5  13    1.43    1.25 
  -2   5  13    1.93    0.95 
   1  -5 -13   12.31    1.64 
   1  -5 -13   11.00    1.52 
  -1   5  13   12.07    1.50 
  -1   5  13   11.88    1.58 
   0  -5 -13   10.92    1.59 
   0  -5 -13   10.72    1.67 
   0   5  13   10.74    1.50 
   0   5  13   14.30    1.64 
  -1  -5 -13   16.86    2.17 
  -1  -5 -13   17.98    1.91 
   1   5  13   19.99    1.87 
   1   5  13   20.22    1.74 
   3   4 -14    3.03    1.34 
   3   4 -14    6.98    1.48 
  -3  -4  14    9.16    1.78 
  -3  -4  14    7.13    1.29 
   2   4 -14   25.03    2.35 
   2   4 -14   21.39    1.97 
  -2  -4  14   26.46    2.40 
   1   4 -14   12.08    1.79 
   1   4 -14   13.61    1.92 
  -1  -4  14   13.37    1.95 
   0   4 -14   18.66    1.82 
   0   4 -14   16.62    2.01 
   0  -4  14   12.12    1.93 
  -1   4 -14   19.43    2.11 
  -1   4 -14   14.51    2.00 
   1  -4  14   20.39    2.20 
   1  -4  14   20.47    3.06 
   4   3 -14    4.71    1.48 
   4   3 -14    8.40    1.81 
  -4  -3  14    6.66    1.46 
  -4  -3  14    6.76    1.30 
   3   3 -14   48.99    3.00 
  -3  -3  14   49.99    2.97 
  -3  -3  14   45.99    2.36 
   2   3 -14   10.38    1.79 
  -2  -3  14    7.79    1.73 
  -2  -3  14    9.26    1.47 
   1   3 -14   30.94    2.55 
  -1  -3  14   28.81    2.56 
   0   3 -14   12.25    1.92 
   0  -3  14   12.71    1.88 
  -1   3 -14    0.05    1.42 
   1  -3  14    4.10    2.08 
  -2   3 -14    8.98    1.51 
   2  -3  14    7.71    2.60 
   2  -3  14    9.56    1.83 
   4   2 -14   28.74    2.60 
  -4  -2  14   30.14    2.53 
  -4  -2  14   26.63    1.97 
   3   2 -14   10.64    1.79 
  -3  -2  14    8.93    1.41 
  -3  -2  14    7.08    1.66 
   2   2 -14    9.09    1.67 
  -2  -2  14    7.13    1.42 
  -2  -2  14    9.07    1.72 
   1   2 -14    1.99    1.48 
  -1  -2  14    0.43    1.34 
   0   2 -14    8.39    1.72 
  -1   2 -14    6.43    1.65 
   1  -2  14   10.10    2.46 
   1  -2  14    6.85    1.66 
  -2   2 -14   50.62    3.00 
   2  -2  14   49.43    3.01 
   2  -2  14   46.12    4.53 
   5   1 -14   19.08    2.28 
   5   1 -14   19.40    2.03 
  -5  -1  14   21.95    1.81 
   4   1 -14    3.72    1.52 
   4   1 -14    4.04    1.43 
   4   1 -14    4.04    1.52 
  -4  -1  14    2.45    1.46 
  -4  -1  14    4.40    1.27 
   3   1 -14   -0.44    1.43 
   3   1 -14    1.09    1.36 
  -3  -1  14   -0.32    1.29 
  -3  -1  14   -1.09    1.10 
   2   1 -14    2.65    1.42 
  -2  -1  14    0.07    1.20 
  -2  -1  14    2.57    1.16 
   1   1 -14    4.35    1.58 
  -1  -1  14    6.15    1.55 
   0   1 -14   22.90    2.17 
  -1   1 -14   27.28    2.43 
   1  -1  14   28.88    3.83 
   1  -1  14   24.71    2.25 
  -2   1 -14   15.12    2.02 
   2  -1  14   17.14    2.07 
   2  -1  14   15.99    2.57 
   5   0 -14   14.95    1.88 
   5   0 -14   18.32    1.93 
  -5   0  14   17.84    1.72 
  -5   0  14   13.92    1.62 
   4   0 -14    6.58    1.41 
   4   0 -14    5.13    1.54 
   4   0 -14    4.08    1.42 
  -4   0  14    8.50    1.43 
   3   0 -14   25.98    2.11 
   3   0 -14   23.66    2.05 
   3   0 -14   24.77    2.18 
  -3   0  14   24.92    1.95 
  -3   0  14   21.54    1.80 
   2   0 -14   15.99    1.93 
   2   0 -14   14.13    1.77 
  -2   0  14   14.35    1.59 
  -2   0  14   13.27    1.80 
   1   0 -14   61.83    3.11 
   1   0 -14   59.30    2.89 
  -1   0  14   56.06    2.73 
   0   0 -14   15.22    1.93 
   0   0  14   17.49    1.79 
  -1   0 -14    6.12    1.60 
   1   0  14    5.97    1.60 
  -2   0 -14    5.96    1.68 
   2   0  14    6.19    2.27 
   2   0  14    0.12    1.42 
   5  -1 -14   20.09    2.21 
   5  -1 -14   25.91    2.28 
  -5   1  14   23.05    1.89 
  -5   1  14   24.66    1.87 
   4  -1 -14   30.25    2.43 
   4  -1 -14   32.49    2.39 
   4  -1 -14   31.14    2.50 
  -4   1  14   27.51    1.82 
  -4   1  14   28.11    1.80 
   3  -1 -14   26.66    2.26 
   3  -1 -14   26.54    2.21 
   3  -1 -14   23.78    2.12 
  -3   1  14   26.17    1.95 
   2  -1 -14   16.74    1.75 
   2  -1 -14   14.72    1.76 
  -2   1  14   16.48    1.83 
  -2   1  14   15.98    1.69 
   1  -1 -14    7.03    1.52 
   1  -1 -14    9.07    1.58 
  -1   1  14    7.66    1.42 
   0  -1 -14    3.73    1.41 
   0  -1 -14    4.51    1.53 
   0   1  14    5.80    1.52 
  -1  -1 -14    0.44    1.41 
   1   1  14    1.81    1.41 
  -2  -1 -14   21.89    2.23 
   2   1  14   20.44    2.20 
   2   1  14   33.29    3.94 
   4  -2 -14   38.17    2.75 
   4  -2 -14   32.18    2.36 
   4  -2 -14   33.04    2.46 
  -4   2  14   35.51    2.34 
   3  -2 -14    8.62    1.54 
   3  -2 -14    4.57    1.41 
   3  -2 -14    7.93    1.51 
  -3   2  14    6.02    1.34 
   2  -2 -14    2.34    1.28 
   2  -2 -14    0.28    1.27 
  -2   2  14    0.49    1.06 
  -2   2  14   -0.23    1.18 
   1  -2 -14    0.97    1.34 
   1  -2 -14    0.40    1.24 
  -1   2  14    0.68    0.94 
  -1   2  14   -1.66    1.11 
   0  -2 -14   18.89    1.95 
   0  -2 -14   21.89    2.08 
   0   2  14   23.56    1.71 
   0   2  14   19.68    2.02 
   0   2  14   20.58    1.88 
  -1  -2 -14    9.00    1.89 
  -1  -2 -14   10.69    1.59 
   1   2  14   11.31    1.43 
   1   2  14    8.57    1.67 
  -2  -2 -14   15.53    2.06 
   2   2  14   14.20    1.98 
   4  -3 -14    3.44    1.49 
   4  -3 -14    2.87    1.30 
   4  -3 -14    1.46    1.39 
   3  -3 -14    0.89    1.21 
   3  -3 -14    2.54    1.33 
  -3   3  14    4.34    1.35 
  -3   3  14    3.05    1.19 
   2  -3 -14    2.68    1.40 
   2  -3 -14    3.35    1.32 
  -2   3  14    2.77    1.15 
  -2   3  14    4.69    1.37 
   1  -3 -14   24.08    2.15 
   1  -3 -14   27.90    2.22 
  -1   3  14   25.00    1.98 
  -1   3  14   26.10    2.06 
   0  -3 -14   28.70    2.31 
   0  -3 -14   26.82    2.37 
   0   3  14   30.10    1.99 
   0   3  14   25.43    2.04 
  -1  -3 -14   19.23    1.99 
  -1  -3 -14   21.35    2.19 
   1   3  14   17.19    1.82 
   1   3  14   25.66    1.93 
   2  -4 -14   12.10    1.81 
   2  -4 -14   13.18    1.66 
  -2   4  14   15.38    1.64 
  -2   4  14   15.45    1.69 
   1  -4 -14   12.05    1.66 
   1  -4 -14   15.57    1.84 
  -1   4  14   14.60    1.69 
  -1   4  14   17.31    1.79 
   1   2 -15    7.03    1.75 
  -1  -2  15    3.89    1.63 
   2   1 -15    7.83    1.70 
  -2  -1  15    8.22    1.73 
  -2  -1  15    7.85    1.53 
   1   1 -15   -0.69    1.44 
  -1  -1  15   -3.02    0.88 
  -1  -1  15    0.69    1.39 
   0   1 -15    6.60    1.73 
   2   0 -15   -0.57    1.44 
  -2   0  15    2.46    1.48 
  -2   0  15    2.55    1.35 
   1   0 -15   24.16    2.28 
  -1   0  15   20.76    1.99 
  -1   0  15   23.15    2.22 
   0   0 -15   16.94    2.10 
   2  -1 -15   10.17    1.68 
   1  -1 -15   34.65    3.07 
   0   0   0    0.00    0.00 
;
_shelx_hkl_checksum              10346
loop_
_space_group_symop_operation_xyz
'x, y, z'
'-x, -y, -z'
loop_
_atom_site_label
_atom_site_type_symbol
_atom_site_fract_x
_atom_site_fract_y
_atom_site_fract_z
_atom_site_U_iso_or_equiv
_atom_site_adp_type
_atom_site_occupancy
_atom_site_site_symmetry_order
_atom_site_calc_flag
_atom_site_refinement_flags_posn
_atom_site_refinement_flags_adp
I1 I 0.56822(2) 0.63491(2) 0.86295(2) 0.01466(3) Uani 1 1 d . .
S1 S 0.11887(5) 0.94444(4) 0.83275(4) 0.01863(9) Uani 1 1 d . .
N1 N 0.13733(15) 0.47487(13) 0.83078(11) 0.0126(3) Uani 1 1 d . .
N2 N -0.02282(16) 0.43815(14) 0.84780(11) 0.0153(3) Uani 1 1 d . .
N3 N -0.08629(16) 0.55816(14) 0.88514(11) 0.0155(3) Uani 1 1 d . .
C1 C 0.32522(18) 0.71466(16) 0.84165(13) 0.0134(3) Uani 1 1 d . .
C2 C 0.17733(18) 0.62050(16) 0.85649(13) 0.0126(3) Uani 1 1 d . .
C3 C 0.03274(18) 0.67038(16) 0.89141(13) 0.0135(3) Uani 1 1 d . .
C4 C 0.0155(2) 0.82565(16) 0.92931(15) 0.0176(3) Uani 1 1 d . .
H4A H 0.0686 0.8439 1.0099 0.021 Uiso 1 1 calc R U
H4B H -0.1045 0.8456 0.9256 0.021 Uiso 1 1 calc R U
C5 C 0.31001(18) 0.85999(16) 0.82547(14) 0.0143(3) Uani 1 1 d . .
C6 C 0.44356(19) 0.96505(16) 0.79276(14) 0.0161(3) Uani 1 1 d . .
C7 C 0.5108(2) 0.94149(19) 0.68966(16) 0.0248(4) Uani 1 1 d . .
H7A H 0.4722 0.8576 0.6412 0.030 Uiso 1 1 calc R U
C8 C 0.6341(3) 1.0401(2) 0.65750(18) 0.0331(4) Uani 1 1 d . .
H8A H 0.6790 1.0241 0.5868 0.040 Uiso 1 1 calc R U
C9 C 0.6918(2) 1.16238(19) 0.72868(18) 0.0299(4) Uani 1 1 d . .
H9A H 0.7766 1.2294 0.7068 0.036 Uiso 1 1 calc R U
C10 C 0.6260(2) 1.18645(18) 0.83088(16) 0.0235(4) Uani 1 1 d . .
H10A H 0.6664 1.2696 0.8797 0.028 Uiso 1 1 calc R U
C11 C 0.5007(2) 1.08927(17) 0.86265(15) 0.0185(3) Uani 1 1 d . .
H11A H 0.4538 1.1075 0.9322 0.022 Uiso 1 1 calc R U
C12 C 0.22992(19) 0.35897(16) 0.78144(14) 0.0155(3) Uani 1 1 d . .
H12A H 0.1953 0.2630 0.8121 0.019 Uiso 1 1 calc R U
H12B H 0.3514 0.3792 0.8063 0.019 Uiso 1 1 calc R U
C13 C 0.2001(2) 0.34897(17) 0.65138(14) 0.0177(3) Uani 1 1 d . .
C14 C 0.2697(3) 0.4545(2) 0.58503(18) 0.0384(5) Uani 1 1 d . .
H14A H 0.3378 0.5354 0.6219 0.046 Uiso 1 1 calc R U
C15 C 0.2414(3) 0.4437(3) 0.46566(19) 0.0477(6) Uani 1 1 d . .
H15A H 0.2894 0.5173 0.4212 0.057 Uiso 1 1 calc R U
C16 C 0.1440(3) 0.3268(2) 0.41131(18) 0.0398(5) Uani 1 1 d . .
H16A H 0.1257 0.3189 0.3293 0.048 Uiso 1 1 calc R U
C17 C 0.0731(3) 0.2211(2) 0.47583(18) 0.0398(5) Uani 1 1 d . .
H17A H 0.0046 0.1407 0.4384 0.048 Uiso 1 1 calc R U
C18 C 0.1017(2) 0.2320(2) 0.59544(16) 0.0276(4) Uani 1 1 d . .
H18A H 0.0532 0.1584 0.6396 0.033 Uiso 1 1 calc R U
loop_
_atom_site_aniso_label
_atom_site_aniso_U_11
_atom_site_aniso_U_22
_atom_site_aniso_U_33
_atom_site_aniso_U_23
_atom_site_aniso_U_13
_atom_site_aniso_U_12
I1 0.01002(5) 0.01498(5) 0.01925(6) 0.00030(4) 0.00309(4) 0.00055(3)
S1 0.01596(19) 0.01262(18) 0.0283(2) 0.00190(16) 0.00517(16) 0.00324(14)
N1 0.0124(6) 0.0112(6) 0.0143(7) 0.0007(5) 0.0029(5) -0.0013(5)
N2 0.0125(6) 0.0170(6) 0.0162(7) 0.0018(5) 0.0021(5) -0.0021(5)
N3 0.0120(6) 0.0176(6) 0.0167(7) 0.0017(5) 0.0017(5) -0.0007(5)
C1 0.0096(7) 0.0149(7) 0.0156(8) -0.0014(6) 0.0023(6) 0.0009(5)
C2 0.0124(7) 0.0118(7) 0.0131(8) 0.0009(6) 0.0010(6) -0.0005(5)
C3 0.0124(7) 0.0153(7) 0.0127(8) 0.0017(6) 0.0016(6) 0.0005(6)
C4 0.0146(7) 0.0156(7) 0.0235(9) -0.0015(6) 0.0065(7) 0.0019(6)
C5 0.0125(7) 0.0150(7) 0.0152(8) -0.0024(6) 0.0014(6) 0.0007(6)
C6 0.0139(7) 0.0135(7) 0.0211(9) 0.0027(6) 0.0021(6) 0.0005(6)
C7 0.0306(10) 0.0197(8) 0.0241(10) -0.0018(7) 0.0077(8) -0.0060(7)
C8 0.0374(11) 0.0315(10) 0.0328(11) 0.0025(8) 0.0189(9) -0.0067(8)
C9 0.0243(9) 0.0224(9) 0.0434(12) 0.0071(8) 0.0095(8) -0.0076(7)
C10 0.0198(8) 0.0145(8) 0.0345(11) 0.0009(7) -0.0020(7) -0.0021(6)
C11 0.0183(8) 0.0138(7) 0.0233(9) 0.0005(6) 0.0011(7) 0.0025(6)
C12 0.0166(7) 0.0108(7) 0.0193(8) 0.0002(6) 0.0021(6) 0.0016(6)
C13 0.0192(8) 0.0162(7) 0.0185(8) -0.0013(6) 0.0047(7) 0.0046(6)
C14 0.0558(14) 0.0323(10) 0.0249(11) -0.0005(8) 0.0067(10) -0.0175(10)
C15 0.0720(17) 0.0468(13) 0.0244(11) 0.0085(10) 0.0129(11) -0.0127(12)
C16 0.0508(13) 0.0515(13) 0.0169(10) -0.0016(9) 0.0025(9) 0.0058(11)
C17 0.0491(13) 0.0416(12) 0.0255(11) -0.0101(9) -0.0006(9) -0.0073(10)
C18 0.0343(10) 0.0260(9) 0.0213(9) -0.0022(7) 0.0027(8) -0.0050(8)
loop_
_atom_type_symbol
_atom_type_description
_atom_type_scat_dispersion_real
_atom_type_scat_dispersion_imag
_atom_type_scat_source
C C 0.0033 0.0016 'International Tables Vol C Tables 4.2.6.8 and 6.1.1.4'
H H 0.0000 0.0000 'International Tables Vol C Tables 4.2.6.8 and 6.1.1.4'
N N 0.0061 0.0033 'International Tables Vol C Tables 4.2.6.8 and 6.1.1.4'
S S 0.1246 0.1234 'International Tables Vol C Tables 4.2.6.8 and 6.1.1.4'
I I -0.4742 1.8119 'International Tables Vol C Tables 4.2.6.8 and 6.1.1.4'
loop_
_geom_angle_atom_site_label_1
_geom_angle_atom_site_label_2
_geom_angle_atom_site_label_3
_geom_angle
C5 S1 C4 102.05(7)
N2 N1 C2 110.75(12)
N2 N1 C12 116.84(12)
C2 N1 C12 132.22(13)
N3 N2 N1 107.45(12)
N2 N3 C3 108.51(12)
C5 C1 C2 119.41(13)
C5 C1 I1 118.79(11)
C2 C1 I1 121.46(10)
N1 C2 C3 103.70(13)
N1 C2 C1 131.68(13)
C3 C2 C1 124.30(13)
N3 C3 C2 109.58(13)
N3 C3 C4 126.75(13)
C2 C3 C4 123.66(14)
C3 C4 S1 107.64(11)
C3 C4 H4A 110.2
S1 C4 H4A 110.2
C3 C4 H4B 110.2
S1 C4 H4B 110.2
H4A C4 H4B 108.5
C1 C5 C6 125.36(13)
C1 C5 S1 122.55(12)
C6 C5 S1 111.98(11)
C7 C6 C11 119.21(15)
C7 C6 C5 119.79(14)
C11 C6 C5 120.99(14)
C8 C7 C6 120.25(16)
C8 C7 H7A 119.9
C6 C7 H7A 119.9
C7 C8 C9 120.02(18)
C7 C8 H8A 120.0
C9 C8 H8A 120.0
C10 C9 C8 120.11(16)
C10 C9 H9A 119.9
C8 C9 H9A 119.9
C9 C10 C11 120.11(16)
C9 C10 H10A 119.9
C11 C10 H10A 119.9
C10 C11 C6 120.28(16)
C10 C11 H11A 119.9
C6 C11 H11A 119.9
N1 C12 C13 112.56(12)
N1 C12 H12A 109.1
C13 C12 H12A 109.1
N1 C12 H12B 109.1
C13 C12 H12B 109.1
H12A C12 H12B 107.8
C14 C13 C18 118.43(17)
C14 C13 C12 121.51(15)
C18 C13 C12 120.07(15)
C15 C14 C13 120.84(19)
C15 C14 H14A 119.6
C13 C14 H14A 119.6
C16 C15 C14 120.1(2)
C16 C15 H15A 119.9
C14 C15 H15A 119.9
C15 C16 C17 119.90(19)
C15 C16 H16A 120.0
C17 C16 H16A 120.0
C16 C17 C18 119.89(19)
C16 C17 H17A 120.1
C18 C17 H17A 120.1
C13 C18 C17 120.82(18)
C13 C18 H18A 119.6
C17 C18 H18A 119.6
loop_
_geom_bond_atom_site_label_1
_geom_bond_atom_site_label_2
_geom_bond_distance
I1 C1 2.1171(14)
S1 C5 1.7715(15)
S1 C4 1.8197(16)
N1 N2 1.3501(17)
N1 C2 1.3607(19)
N1 C12 1.4716(18)
N2 N3 1.3190(18)
N3 C3 1.3501(19)
C1 C5 1.353(2)
C1 C2 1.453(2)
C2 C3 1.376(2)
C3 C4 1.489(2)
C4 H4A 0.9900
C4 H4B 0.9900
C5 C6 1.485(2)
C6 C7 1.393(2)
C6 C11 1.395(2)
C7 C8 1.389(2)
C7 H7A 0.9500
C8 C9 1.390(3)
C8 H8A 0.9500
C9 C10 1.378(3)
C9 H9A 0.9500
C10 C11 1.391(2)
C10 H10A 0.9500
C11 H11A 0.9500
C12 C13 1.506(2)
C12 H12A 0.9900
C12 H12B 0.9900
C13 C14 1.384(2)
C13 C18 1.384(2)
C14 C15 1.383(3)
C14 H14A 0.9500
C15 C16 1.373(3)
C15 H15A 0.9500
C16 C17 1.377(3)
C16 H16A 0.9500
C17 C18 1.386(3)
C17 H17A 0.9500
C18 H18A 0.9500
loop_
_geom_torsion_atom_site_label_1
_geom_torsion_atom_site_label_2
_geom_torsion_atom_site_label_3
_geom_torsion_atom_site_label_4
_geom_torsion
C2 N1 N2 N3 -0.51(17)
C12 N1 N2 N3 -176.10(12)
N1 N2 N3 C3 0.18(17)
N2 N1 C2 C3 0.61(17)
C12 N1 C2 C3 175.29(15)
N2 N1 C2 C1 -172.96(16)
C12 N1 C2 C1 1.7(3)
C5 C1 C2 N1 151.05(17)
I1 C1 C2 N1 -35.8(2)
C5 C1 C2 C3 -21.4(2)
I1 C1 C2 C3 151.80(13)
N2 N3 C3 C2 0.20(18)
N2 N3 C3 C4 -179.99(15)
N1 C2 C3 N3 -0.49(17)
C1 C2 C3 N3 173.70(14)
N1 C2 C3 C4 179.69(14)
C1 C2 C3 C4 -6.1(3)
N3 C3 C4 S1 -138.66(14)
C2 C3 C4 S1 41.13(19)
C5 S1 C4 C3 -45.71(12)
C2 C1 C5 C6 -170.84(15)
I1 C1 C5 C6 15.8(2)
C2 C1 C5 S1 5.1(2)
I1 C1 C5 S1 -168.31(8)
C4 S1 C5 C1 26.97(16)
C4 S1 C5 C6 -156.63(12)
C1 C5 C6 C7 59.7(2)
S1 C5 C6 C7 -116.54(15)
C1 C5 C6 C11 -121.63(18)
S1 C5 C6 C11 62.10(18)
C11 C6 C7 C8 0.4(3)
C5 C6 C7 C8 179.11(17)
C6 C7 C8 C9 0.5(3)
C7 C8 C9 C10 -0.4(3)
C8 C9 C10 C11 -0.6(3)
C9 C10 C11 C6 1.5(3)
C7 C6 C11 C10 -1.5(2)
C5 C6 C11 C10 179.90(15)
N2 N1 C12 C13 85.38(16)
C2 N1 C12 C13 -89.0(2)
N1 C12 C13 C14 73.1(2)
N1 C12 C13 C18 -107.18(17)
C18 C13 C14 C15 0.1(3)
C12 C13 C14 C15 179.90(19)
C13 C14 C15 C16 -0.4(4)
C14 C15 C16 C17 0.7(4)
C15 C16 C17 C18 -0.7(3)
C14 C13 C18 C17 -0.2(3)
C12 C13 C18 C17 -179.96(17)
C16 C17 C18 C13 0.5(3)
