#------------------------------------------------------------------------------
#$Date: 2016-04-09 04:51:56 +0300 (Sat, 09 Apr 2016) $
#$Revision: 182000 $
#$URL: svn://www.crystallography.net/cod/cif/1/54/30/1543065.cif $
#------------------------------------------------------------------------------
#
# This file is available in the Crystallography Open Database (COD),
# http://www.crystallography.net/. The original data for this entry
# were provided by IUCr Journals, http://journals.iucr.org/.
#
# The file may be used within the scientific community so long as
# proper attribution is given to the journal article from which the
# data were obtained.
#
data_1543065
loop_
_publ_author_name
'Fang, Xiaoqin'
'Wang, Yifeng'
_publ_section_title
;
 (1<i>R</i>,2<i>R</i>)-8-Bromo-1-[(<i>E</i>)-2-(4-bromophenyl)ethenyl]-2-nitro-1,2-dihydronaphtho[2,1-<i>b</i>]furan
;
_journal_coeditor_code           PK4003
_journal_issue                   4
_journal_name_full               IUCrData
_journal_page_first              x160515
_journal_paper_doi               10.1107/S2414314616005150
_journal_volume                  1
_journal_year                    2016
_chemical_formula_iupac          'C20 H13 Br2 N O3'
_chemical_formula_moiety         'C20 H13 Br2 N O3'
_chemical_formula_sum            'C20 H13 Br2 N O3'
_chemical_formula_weight         475.13
_chemical_name_systematic
(1<i>R</i>,2<i>R</i>)-8-Bromo-1-[(<i>E</i>)-2-(4-bromophenyl)ethenyl]-2-nitro-1,2-dihydronaphtho[2,1-<i>b</i>]furan
_space_group_crystal_system      monoclinic
_space_group_IT_number           4
_space_group_name_Hall           'P 2yb'
_space_group_name_H-M_alt        'P 1 21 1'
_symmetry_space_group_name_Hall  'P 2yb'
_symmetry_space_group_name_H-M   'P 1 21 1'
_atom_sites_solution_hydrogens   geom
_audit_creation_method           SHELXL-2013
_cell_angle_alpha                90
_cell_angle_beta                 90.968(4)
_cell_angle_gamma                90
_cell_formula_units_Z            2
_cell_length_a                   9.4796(15)
_cell_length_b                   7.1550(12)
_cell_length_c                   13.651(2)
_cell_measurement_reflns_used    1587
_cell_measurement_temperature    293(2)
_cell_measurement_theta_max      41.988
_cell_measurement_theta_min      4.297
_cell_volume                     925.8(3)
_computing_cell_refinement
;
SAINT (Bruker, 2013)
;
_computing_data_collection
;
SMART (Bruker, 2013)
;
_computing_data_reduction
;
SAINT (Bruker, 2013)
;
_computing_molecular_graphics
;
SHELXTL (Sheldrick, 2008)
;
_computing_publication_material
;
SHELXTL (Sheldrick, 2008)
;
_computing_structure_refinement
;
SHELXL-2013 (Sheldrick, 2015)
;
_computing_structure_solution
;
SHELXTL (Sheldrick, 2008)
;
_diffrn_ambient_temperature      293(2)
_diffrn_measured_fraction_theta_full 0.999
_diffrn_measured_fraction_theta_max 0.999
_diffrn_measurement_device_type  'CCD area detector'
_diffrn_measurement_method       '\f and \w scans'
_diffrn_radiation_type           MoK\a
_diffrn_radiation_wavelength     0.71073
_diffrn_reflns_av_R_equivalents  0.0318
_diffrn_reflns_limit_h_max       10
_diffrn_reflns_limit_h_min       -11
_diffrn_reflns_limit_k_max       8
_diffrn_reflns_limit_k_min       -8
_diffrn_reflns_limit_l_max       14
_diffrn_reflns_limit_l_min       -16
_diffrn_reflns_number            5364
_diffrn_reflns_theta_full        25.242
_diffrn_reflns_theta_max         25.500
_diffrn_reflns_theta_min         2.149
_exptl_absorpt_coefficient_mu    4.398
_exptl_absorpt_correction_T_max  0.7456
_exptl_absorpt_correction_T_min  0.3083
_exptl_absorpt_correction_type   multi-scan
_exptl_absorpt_process_details
;
(SADABS; Krause <i>et al.</i>,  2015)
;
_exptl_crystal_colour            colorless
_exptl_crystal_density_diffrn    1.704
_exptl_crystal_description       prismatic
_exptl_crystal_F_000             468
_exptl_crystal_size_max          0.200
_exptl_crystal_size_mid          0.140
_exptl_crystal_size_min          0.100
_refine_diff_density_max         0.460
_refine_diff_density_min         -0.328
_refine_ls_abs_structure_details
;
Flack <i>x</i> determined using 998 quotients
[(<i>I</i>^+^)-(<i>I</i>^-^)]/[(<i>I</i>^+^)+(<i>I</i>^-^)]
(Parsons <i>et al.</i>,  2013)
;
_refine_ls_abs_structure_Flack   0.020(14)
_refine_ls_extinction_method     none
_refine_ls_goodness_of_fit_ref   0.972
_refine_ls_hydrogen_treatment    constr
_refine_ls_matrix_type           full
_refine_ls_number_parameters     235
_refine_ls_number_reflns         3269
_refine_ls_number_restraints     1
_refine_ls_restrained_S_all      0.972
_refine_ls_R_factor_all          0.0518
_refine_ls_R_factor_gt           0.0411
_refine_ls_shift/su_max          0.000
_refine_ls_shift/su_mean         0.000
_refine_ls_structure_factor_coef Fsqd
_refine_ls_weighting_details
'w=1/[\s^2^(Fo^2^)+(0.0287P)^2^] where P=(Fo^2^+2Fc^2^)/3'
_refine_ls_weighting_scheme      calc
_refine_ls_wR_factor_gt          0.0885
_refine_ls_wR_factor_ref         0.0934
_reflns_number_gt                2731
_reflns_number_total             3269
_reflns_threshold_expression     'I > 2\s(I)'
_cod_data_source_file            pk4003sup1.cif
_cod_data_source_block           I
_cod_database_code               1543065
_shelx_space_group_comment
;
The symmetry employed for this shelxl refinement is uniquely defined
by the following loop, which should always be used as a source of
symmetry information in preference to the above space-group names.
They are only intended as comments.
;
_shelx_estimated_absorpt_t_min   0.473
_shelx_estimated_absorpt_t_max   0.668
_shelx_hkl_file
;
   0   1   0   -0.70    0.09
   0   2   0  689.96   49.95
   0   3   0   -0.14    0.18
   0   4   0  200.98   14.71
   0   5   0    0.15    0.34
   0   6   0    0.46    0.48
   0  -7   0   -0.17    0.54
   0   7   0   -0.52    0.44
   0  -8   0   21.73    2.01
  -1  -9   0    0.30    0.86
  -1  -8   0    1.21    0.85
   1   7   0    7.19    0.93
  -1  -7   0    6.48    0.98
   1   6   0   12.40    1.22
  -1  -6   0   11.66    1.19
   1   5   0   35.90    3.08
  -1  -5   0   46.15    2.89
   1   3   0   21.20    1.65
   1   2   0  191.63   13.44
  -1  -2   0  177.96   11.94
  -1  -1   0   76.66    4.96
  -1   0   0    3.84    0.30
  -1   0   0    4.00    0.32
  -1   1   0  118.28    7.78
  -1   1   0  123.34    8.80
  -1   2   0  183.96   13.41
  -1   3   0   23.04    1.85
  -1   4   0   13.26    1.20
  -1   5   0   49.60    3.88
  -1   6   0   12.77    1.34
   1  -7   0    7.78    1.03
  -1   7   0    8.82    1.11
   1  -8   0    1.25    0.76
  -1   8   0    0.83    0.69
  -2  -9   0    2.86    1.03
  -2  -8   0    0.64    0.85
  -2  -7   0   14.50    1.44
   2   6   0    0.15    0.39
  -2  -6   0    0.62    0.53
   2   5   0   62.41    4.73
  -2  -5   0   63.65    4.33
   2   4   0   28.76    2.13
  -2  -4   0   25.31    1.99
   2   3   0  322.59   22.47
  -2  -3   0  296.26   19.97
   2   2   0    8.42    0.65
  -2  -2   0    7.64    0.67
  -2  -1   0   90.15    5.85
  -2   0   0   72.64    4.75
  -2   0   0   73.45    5.34
  -2   1   0   90.57    6.63
  -2   1   0   90.26    5.87
  -2   2   0    8.86    0.70
  -2   2   0    7.75    0.76
  -2   3   0  294.54   21.46
  -2   4   0   24.38    2.04
  -2   5   0   60.36    4.69
  -2   6   0    0.56    0.53
   2  -7   0   15.83    1.42
  -2   7   0   14.23    1.59
  -2   8   0    2.27    0.82
  -3  -9   0   -1.08    0.85
  -3  -8   0    0.51    0.84
  -3  -7   0    1.72    0.67
  -3  -6   0   43.57    3.14
   3   5   0    1.65    0.36
  -3  -5   0    1.10    0.50
   3   4   0   14.04    1.15
  -3  -4   0   14.66    1.18
   3   3   0    5.29    0.46
  -3  -3   0    4.58    0.55
  -3  -2   0  361.50   23.24
   3   1   0    5.65    0.43
  -3  -1   0    4.22    0.46
  -3   0   0    6.54    0.57
  -3   0   0    7.13    0.61
  -3   1   0    6.84    0.64
  -3   1   0    6.16    0.56
  -3   2   0  353.43   22.86
  -3   2   0  356.98   25.83
  -3   3   0    4.90    0.60
  -3   3   0    4.61    0.62
  -3   4   0   12.87    1.26
  -3   5   0    2.72    0.67
  -3   6   0   43.56    3.56
  -3   7   0    1.67    0.74
  -3   8   0    0.94    0.78
   3  -9   0    0.23    0.88
  -4  -9   0    1.21    1.02
  -4  -8   0    3.84    1.04
  -4  -7   0    5.77    0.93
  -4  -6   0    3.23    0.70
  -4  -5   0   15.34    1.33
  -4  -4   0   49.17    3.38
  -4  -3   0   33.74    2.36
  -4  -2   0   15.94    1.21
   4   1   0   94.87    6.78
  -4  -1   0   90.84    6.09
  -4   0   0   85.16    5.63
  -4   0   0   80.62    6.12
  -4   0   0   83.60    5.46
  -4   1   0   97.53    7.44
  -4   1   0  108.43    6.78
  -4   1   0   94.42    6.59
  -4   2   0   14.27    1.19
  -4   2   0   15.52    1.33
  -4   3   0   31.40    2.28
  -4   3   0   31.44    2.54
   4  -4   0   49.13    3.24
  -4   4   0   43.79    3.73
  -4   5   0   12.66    1.39
  -4   6   0    3.60    0.86
  -4   7   0    4.78    1.00
  -4   8   0    2.88    0.99
   4  -9   0    1.10    1.00
  -5  -8   0    1.60    0.97
  -5  -7   0   15.25    1.48
  -5  -7   0   16.50    1.74
  -5  -6   0    4.22    0.74
  -5  -5   0   59.92    4.14
  -5  -4   0    7.74    0.81
  -5  -3   0  118.90    7.82
  -5  -2   0    0.50    0.30
   5   1   0  172.30   12.64
  -5  -1   0  175.85   11.29
  -5   0   0   12.07    0.96
  -5   0   0   11.65    0.91
  -5   1   0  176.69   12.94
  -5   1   0  166.32   11.47
  -5   1   0  185.13   11.85
  -5   2   0    1.74    0.43
  -5   2   0    1.29    0.42
  -5   3   0  126.51    8.46
  -5   3   0  129.59    9.54
  -5   4   0    8.41    0.99
  -5   4   0    8.50    1.04
  -5   5   0   52.95    4.25
  -5   6   0    3.48    0.89
  -5   7   0   16.38    1.85
  -5   8   0    0.59    0.75
  -6  -8   0    0.46    1.00
  -6  -7   0    0.39    0.66
  -6  -7   0    0.37    0.83
  -6  -6   0    0.40    0.74
  -6  -6   0    0.48    0.58
  -6  -5   0    6.43    0.86
  -6  -4   0    9.44    0.98
  -6  -3   0    5.16    0.68
  -6  -2   0    1.93    0.46
   6   1   0    9.09    0.75
  -6  -1   0    8.05    0.78
  -6  -1   0    7.25    0.80
  -6   0   0   90.95    6.18
  -6   0   0   90.93    6.03
  -6   1   0    7.19    0.61
  -6   1   0    7.71    0.81
  -6   1   0    8.64    0.85
  -6   2   0    2.02    0.51
  -6   2   0    1.74    0.51
  -6   3   0    5.12    0.75
  -6   3   0    3.52    0.71
  -6   4   0   11.72    1.26
  -6   4   0   12.14    1.34
  -6   5   0    5.36    0.96
  -6   6   0    0.86    0.70
  -6   7   0    0.39    0.80
  -6   8   0    1.56    0.92
  -7  -7   0    0.30    0.77
  -7  -7   0    1.36    0.78
  -7  -6   0   10.68    1.34
  -7  -6   0    9.63    1.16
  -7  -5   0    6.27    0.90
  -7  -5   0    8.89    1.09
  -7  -4   0    4.73    0.74
  -7  -4   0    5.23    0.83
  -7  -3   0   17.81    1.53
  -7  -3   0   20.22    1.61
  -7  -2   0   80.51    5.33
  -7  -2   0   77.94    5.51
   7   1   0    7.54    0.72
  -7  -1   0    6.91    0.81
   7   0   0    0.44    0.34
  -7   0   0    0.35    0.38
  -7   0   0    0.40    0.31
   7  -1   0    7.90    0.84
  -7   1   0    6.54    0.83
  -7   2   0   67.46    5.49
  -7   2   0   77.30    4.95
  -7   3   0   18.54    1.78
  -7   3   0   19.15    1.67
  -7   4   0    4.08    0.87
  -7   4   0    4.64    0.86
  -7   5   0    6.34    1.10
  -7   5   0    8.20    1.19
  -7   6   0   13.07    1.66
  -7   7   0    1.27    0.85
  -8  -7   0    1.97    1.00
  -8  -6   0    1.43    0.69
  -8  -6   0   -0.07    0.77
  -8  -5   0    3.84    0.90
  -8  -5   0    3.54    0.79
  -8  -4   0    1.07    0.65
  -8  -4   0    0.70    0.57
  -8  -3   0   21.06    1.72
  -8  -3   0   18.88    1.68
  -8  -2   0    2.29    0.57
  -8  -2   0    3.70    0.70
  -8  -1   0   12.94    1.09
   8   0   0    1.71    0.48
  -8   0   0    2.22    0.60
   8  -1   0   24.97    2.19
  -8   1   0   27.96    2.07
   8  -2   0    2.10    0.59
  -8   2   0    2.68    0.70
  -8   3   0   19.05    1.69
  -8   3   0   17.55    1.75
  -8   4   0    1.43    0.75
  -8   4   0    1.91    0.75
  -8   5   0    4.15    1.01
  -8   5   0    4.58    1.06
  -8   6   0    1.43    0.84
   8  -7   0    3.57    1.20
  -9  -6   0    7.68    1.22
  -9  -6   0    6.59    1.09
  -9  -5   0    2.47    0.86
  -9  -5   0    3.56    0.83
  -9  -4   0    0.31    0.60
  -9  -4   0    1.36    0.63
  -9  -3   0    4.12    0.82
  -9  -3   0    4.48    0.79
  -9  -2   0    7.59    0.87
  -9  -2   0    6.51    0.93
  -9  -1   0    3.69    0.74
  -9   0   0    0.87    0.53
   9  -1   0    4.25    0.72
  -9   1   0    3.67    0.77
   9  -2   0    7.25    1.00
  -9   2   0    8.22    1.13
   9  -3   0    7.08    1.03
  -9   3   0    5.79    1.07
   9  -4   0    1.58    0.75
  -9   4   0    0.31    0.72
   9  -5   0    2.18    0.88
  -9   5   0    1.30    0.91
   9  -6   0    7.27    1.30
 -10  -5   0    0.96    0.79
 -10  -5   0    2.58    0.81
 -10  -4   0    8.66    1.08
 -10  -4   0    6.25    1.08
 -10  -3   0    1.90    0.67
 -10  -3   0    1.39    0.72
 -10  -2   0    1.20    0.65
 -10  -1   0    2.00    0.72
 -10   0   0   11.71    1.30
 -10   1   0    2.40    0.78
  10  -2   0    0.52    0.61
 -10   2   0   -0.38    0.67
  10  -3   0    2.10    0.77
 -10   3   0    1.91    0.90
  10  -4   0    5.45    1.12
 -10   4   0    7.14    1.26
  10  -5   0    2.10    0.99
 -10   5   0    1.10    1.07
 -11  -4   0    0.77    0.80
 -11  -3   0    1.19    0.76
 -11  -2   0    2.48    0.84
 -11  -1   0    3.48    0.88
 -11   0   0    0.18    0.69
 -11   1   0    2.32    0.92
 -11   2   0    3.01    0.96
  11  -3   0    0.89    0.78
 -11   3   0    2.99    1.03
  11  -4   0   -0.65    0.75
 -11   4   0    0.86    0.91
 -12  -2   0    0.32    0.77
 -12  -1   0    0.77    0.88
 -12   0   0    1.06    0.81
 -12   1   0    0.59    0.90
 -12   2   0    1.73    0.99
 -12   2  -1    2.77    1.16
 -12   1  -1   -0.18    0.87
 -12   0  -1    0.11    0.83
 -12  -1  -1    0.71    0.75
 -12  -2  -1    2.16    0.89
 -11   4  -1    1.72    0.98
  11  -4   1    0.74    0.85
 -11   3  -1    3.73    1.11
  11  -3   1    3.92    1.00
 -11   2  -1    0.52    0.86
 -11   1  -1    2.50    0.93
 -11   0  -1    0.12    0.75
 -11  -1  -1    2.95    0.91
 -11  -2  -1    3.00    0.87
 -11  -3  -1    4.73    0.98
 -11  -4  -1    1.94    0.83
 -10   5  -1    4.70    1.25
  10  -5   1    3.68    1.10
 -10   4  -1    0.16    0.79
  10  -4   1    0.77    0.76
 -10   3  -1    3.34    1.00
  10  -3   1    3.02    0.82
 -10   2  -1    8.46    1.28
  10  -2   1   10.91    1.25
 -10   1  -1    6.15    0.99
 -10   0  -1   -0.24    0.57
 -10  -1  -1    6.36    0.98
 -10  -2  -1    9.70    1.20
 -10  -3  -1    2.79    0.81
 -10  -3  -1    4.36    0.80
 -10  -4  -1    1.25    0.75
 -10  -4  -1    0.87    0.71
 -10  -5  -1    5.57    1.01
 -10  -5  -1    5.07    1.07
  -9   6  -1   -0.13    0.81
  -9   5  -1    1.06    0.88
  -9   5  -1    1.35    0.88
  -9   4  -1    6.80    1.18
  -9   4  -1    9.77    1.26
  -9   3  -1    1.85    0.80
  -9   3  -1    0.66    0.58
  -9   2  -1    1.84    0.65
  -9   2  -1    3.86    0.85
  -9   1  -1    2.15    0.70
   9  -1   1    2.46    0.64
  -9   0  -1   26.08    2.12
  -9  -1  -1    2.01    0.64
  -9  -2  -1    1.44    0.66
  -9  -2  -1    1.82    0.59
  -9  -3  -1    1.48    0.68
  -9  -3  -1    2.00    0.67
  -9  -4  -1    6.46    1.00
  -9  -4  -1    6.93    1.00
  -9  -5  -1    1.56    0.81
  -9  -5  -1    1.69    0.79
  -9  -6  -1    1.77    0.83
  -9  -6  -1    0.45    0.88
  -8   7  -1    2.68    1.04
  -8   6  -1    2.07    1.00
  -8   5  -1   16.39    1.83
  -8   5  -1   16.12    1.80
  -8   4  -1   10.23    1.29
  -8   4  -1    9.89    1.30
  -8   3  -1   11.44    1.25
  -8   3  -1    9.91    1.25
  -8   2  -1    6.37    0.91
  -8   2  -1    5.81    0.90
  -8   1  -1   14.62    1.39
  -8   1  -1   15.01    1.36
  -8   0  -1    8.11    0.98
   8   0   1   10.49    0.99
  -8  -1  -1   11.66    1.11
  -8  -1  -1   15.52    1.29
  -8  -2  -1    6.34    0.79
  -8  -2  -1    6.29    0.83
  -8  -3  -1    7.67    0.95
  -8  -4  -1    9.80    1.12
  -8  -5  -1   16.44    1.53
  -8  -5  -1   16.06    1.63
  -8  -6  -1    3.04    0.82
  -8  -6  -1    1.54    0.85
  -8  -7  -1    3.38    1.12
  -8  -7  -1    4.11    0.96
  -7   7  -1    5.76    1.28
  -7   6  -1    0.71    0.80
  -7   5  -1    0.94    0.71
  -7   5  -1    0.41    0.65
  -7   4  -1   15.14    1.56
  -7   4  -1   17.43    1.73
  -7   3  -1   34.54    2.60
  -7   3  -1   34.25    2.88
  -7   2  -1    6.13    0.83
  -7   2  -1    7.45    0.90
  -7   1  -1   19.32    1.69
  -7   1  -1   19.53    1.55
  -7   0  -1   23.75    1.73
  -7   0  -1   23.19    1.79
  -7  -1  -1   20.91    1.76
   7   1   1   23.32    1.79
  -7  -2  -1    6.44    0.78
  -7  -3  -1   32.43    2.40
  -7  -4  -1   15.56    1.38
  -7  -5  -1    0.64    0.60
  -7  -6  -1    1.00    0.70
  -7  -7  -1    4.54    1.10
  -7  -7  -1    4.27    0.98
  -6   8  -1    2.86    1.08
  -6   7  -1    0.64    0.82
  -6   6  -1   10.70    1.44
  -6   5  -1    6.30    1.04
  -6   5  -1    5.58    0.98
  -6   4  -1    8.08    0.97
  -6   4  -1    5.20    0.95
  -6   3  -1   15.80    1.34
  -6   3  -1   14.24    1.48
  -6   2  -1  100.84    7.34
  -6   2  -1   94.48    6.51
  -6   1  -1   17.55    1.18
  -6   1  -1   15.49    1.44
  -6   1  -1   14.61    1.29
  -6   0  -1   16.29    1.32
  -6   0  -1   14.12    1.25
  -6  -1  -1   17.72    1.39
   6   1   1   17.88    1.41
  -6  -2  -1  103.87    6.88
  -6  -3  -1   16.11    1.35
  -6  -4  -1    8.68    0.95
  -6  -5  -1    5.01    0.79
  -6  -6  -1   10.25    1.18
  -6  -7  -1    1.49    0.76
  -6  -8  -1    1.26    1.03
  -5   8  -1    3.43    1.06
  -5   7  -1    4.91    1.04
  -5   6  -1    1.87    0.74
  -5   5  -1   20.06    1.91
  -5   4  -1    9.19    1.05
  -5   4  -1    9.57    1.11
  -5   3  -1   44.88    3.55
  -5   3  -1   45.09    3.17
  -5   2  -1    8.71    0.85
  -5   2  -1    8.61    0.92
  -5   1  -1  123.76    8.37
  -5   1  -1  125.87    9.43
  -5   1  -1  133.00    8.60
  -5   0  -1   16.48    1.33
  -5   0  -1   15.44    1.23
  -5  -1  -1  120.92    8.46
   5   1   1  137.10    9.45
  -5  -2  -1    6.54    0.69
  -5  -3  -1   47.00    3.26
  -5  -4  -1   11.81    1.09
  -5  -5  -1   22.63    1.81
  -5  -6  -1    3.95    0.76
  -5  -7  -1    6.96    1.03
  -5  -8  -1    5.72    1.23
  -4   9  -1    4.16    1.20
  -4   8  -1   -1.01    0.70
  -4   7  -1    3.65    0.94
  -4   6  -1    7.79    1.14
  -4   5  -1   53.02    4.22
  -4   4  -1    7.78    1.01
  -4   4  -1    9.74    0.98
   4  -4   1    9.11    0.69
  -4   3  -1   91.09    6.68
  -4   3  -1   86.60    5.91
  -4   2  -1   40.33    2.78
  -4   2  -1   40.63    3.14
  -4   1  -1  196.24   14.05
  -4   1  -1  188.27   12.44
  -4   0  -1  178.20   12.97
  -4   0  -1  177.94   11.52
  -4  -1  -1  220.89   14.50
  -4  -1  -1  227.69   16.28
  -4  -2  -1   32.13    2.24
  -4  -3  -1   87.32    5.79
  -4  -4  -1    9.59    0.94
  -4  -5  -1   55.63    3.90
  -4  -6  -1    8.30    1.03
  -4  -7  -1    3.10    0.85
  -4  -8  -1   -0.27    0.75
  -4  -9  -1    1.67    1.06
  -3   9  -1   -0.70    0.75
  -3   8  -1   11.48    1.48
  -3   7  -1    5.96    1.08
  -3   6  -1    1.69    0.65
  -3   5  -1    1.26    0.56
   3  -5   1    2.00    0.40
  -3   4  -1   60.54    4.79
   3  -4   1   63.61    4.27
  -3   3  -1   45.63    3.11
  -3   3  -1   45.12    3.51
   3  -3   1   45.20    3.08
  -3   2  -1    4.94    0.51
  -3   2  -1    4.58    0.56
  -3   1  -1   51.43    3.44
  -3   1  -1   52.49    3.89
  -3   0  -1  732.38   49.19
  -3   0  -1  803.81   55.58
  -3  -1  -1   44.44    3.07
  -3  -1  -1   47.06    3.37
  -3  -2  -1    6.04    0.59
  -3  -3  -1   48.08    3.29
  -3  -4  -1   65.11    4.32
  -3  -4  -1   62.31    4.65
  -3  -5  -1    1.90    0.56
  -3  -6  -1    1.73    0.63
  -3  -7  -1    5.42    0.92
  -3  -8  -1   13.47    1.50
  -3  -9  -1    0.16    0.94
  -2   9  -1    1.32    0.87
  -2   8  -1    3.15    0.92
  -2   7  -1    5.59    1.00
  -2   6  -1   18.10    1.65
   2  -6   1   14.85    1.34
  -2   5  -1   27.21    2.30
   2  -5   1   27.08    2.01
  -2   4  -1   20.53    1.62
   2  -4   1   16.18    1.32
  -2   3  -1   75.15    5.92
   2  -3   1   82.48    5.38
  -2   2  -1  108.89    6.88
  -2   2  -1  113.84    7.80
   2  -2   1   96.89    7.10
  -2   1  -1  158.29   10.53
  -2   1  -1  168.91   11.93
  -2   0  -1   23.34    1.60
  -2   0  -1   24.38    1.79
  -2  -1  -1  160.04   10.34
  -2  -2  -1   99.07    7.20
  -2  -2  -1   99.16    6.48
  -2  -3  -1   86.86    6.51
  -2  -3  -1   92.73    5.92
  -2  -4  -1   14.54    1.32
   2   4   1   16.87    1.31
  -2  -5  -1   28.85    2.19
   2   5   1   28.59    2.25
  -2  -6  -1   17.15    1.54
  -2  -6  -1   16.04    1.42
  -2  -7  -1    6.89    1.04
  -2  -8  -1    2.39    0.89
  -2  -9  -1   -0.04    0.88
  -1   8  -1    0.76    0.65
  -1   7  -1    9.05    1.24
   1  -7   1   11.81    1.15
  -1   6  -1    4.26    0.76
   1  -6   1    3.33    0.62
  -1   5  -1   55.33    4.52
   1  -5   1   61.63    4.13
  -1   4  -1   43.06    3.36
  -1   3  -1  313.30   22.80
  -1   2  -1  164.01   12.36
   1  -2   1  174.26   11.38
   1  -1   1  120.90    8.12
  -1   0  -1    1.31    0.17
  -1   0  -1    1.03    0.17
  -1  -1  -1  128.80    8.27
  -1  -1  -1  126.97    9.29
  -1  -2  -1  168.19   10.82
   1   2   1  165.94   12.13
  -1  -3  -1  298.93   19.94
   1   3   1  318.04   22.42
  -1  -4  -1   43.91    3.09
  -1  -6  -1    2.74    0.70
   1   6   1    3.20    0.55
  -1  -7  -1   11.02    1.27
  -1  -8  -1    1.49    0.75
  -1  -9  -1    1.05    0.89
   0   8  -1    1.22    0.68
   0  -8   1    1.99    0.78
   0   7  -1    3.57    0.77
   0  -7   1    3.10    0.78
   0  -7   1    4.07    0.77
   0   6  -1   68.35    5.39
   0  -6   1   72.12    4.99
   0   5  -1    2.52    0.54
   0   4  -1   25.41    2.05
   0   3  -1   16.78    1.39
   0   2  -1  920.83   66.62
   0   1  -1   43.36    3.47
   0  -1   1   51.15    3.21
   0   0  -1   -0.14    0.04
   0  -1  -1   50.52    3.69
   0   2   1  891.88   64.52
   0   3   1   17.68    1.43
   0   4   1   22.62    1.84
   0   5   1    1.95    0.46
   0   6   1   69.00    5.29
   0  -7  -1    2.65    0.75
   0   7   1    2.98    0.67
   0  -8  -1    1.21    0.73
   0  -9  -1    0.47    0.83
  -1  -9   1    0.30    0.87
  -1  -8   1    9.79    1.29
   1   7  -1    2.38    0.64
  -1  -7   1    3.12    0.73
  -1  -7   1    4.13    0.82
   1   6  -1   40.02    3.01
  -1  -6   1   36.27    2.81
  -1  -6   1   34.70    2.69
   1   5  -1   13.53    1.36
  -1  -5   1   17.38    1.29
   1   4  -1  144.34   10.30
  -1  -4   1  135.71    9.15
  -1  -2   1  144.45    9.32
   1   1  -1  166.10   13.47
  -1  -1   1  192.70   12.48
  -1  -1   1  198.43   11.93
   1   0  -1  378.89   26.04
  -1   0   1  320.48   24.07
  -1   0   1  380.47   23.05
  -1   1   1  156.24   10.09
  -1   1   1  156.61   11.38
  -1   2   1  145.95   10.66
  -1   3   1   94.16    6.97
  -1   4   1  152.73   11.24
  -1   5   1   12.63    1.24
  -1   6   1   35.67    2.92
  -1   7   1    3.15    0.73
   1  -8  -1    9.96    1.32
  -2  -9   1    2.67    1.01
  -2  -8   1    1.14    0.82
  -2  -7   1   10.22    1.27
  -2  -7   1   11.86    1.20
   2   6  -1    0.74    0.45
  -2  -6   1    0.26    0.56
  -2  -6   1    1.43    0.53
   2   5  -1   27.20    2.12
  -2  -5   1   24.96    1.96
   2   4  -1   16.69    1.43
  -2  -4   1   18.86    1.36
   2   3  -1  288.14   21.50
  -2  -3   1  304.78   19.07
   2   2  -1   13.44    1.06
  -2  -2   1   13.53    0.98
  -2  -1   1  257.96   16.44
  -2  -1   1  254.11   17.18
   2   0  -1    9.24    0.77
  -2   0   1   10.38    0.71
  -2   1   1  226.17   16.44
  -2   1   1  226.14   14.56
  -2   2   1   12.09    1.01
  -2   2   1   11.09    0.91
  -2   3   1  267.70   19.52
  -2   4   1   14.43    1.32
  -2   5   1   23.19    2.00
  -2   6   1    1.40    0.60
  -2   7   1   10.68    1.31
   2  -8  -1    1.70    0.85
   2  -9  -1    2.17    1.00
  -3  -9   1    0.73    0.93
  -3  -8   1    4.95    1.07
  -3  -7   1    1.79    0.66
  -3  -7   1    1.96    0.75
  -3  -6   1    1.54    0.53
  -3  -6   1    1.88    0.68
   3   5  -1   12.21    1.11
  -3  -5   1   13.18    1.11
   3   4  -1   70.99    5.25
  -3  -4   1   71.09    4.74
   3   3  -1   13.63    1.15
  -3  -3   1   16.49    1.12
   3   2  -1    6.93    0.64
  -3  -2   1    9.89    0.68
   3   1  -1   27.07    2.01
  -3  -1   1   26.27    1.82
  -3  -1   1   26.88    1.90
   3   0  -1  347.23   27.08
  -3   0   1  401.60   24.01
  -3   1   1   25.99    1.66
  -3   1   1   26.18    1.85
  -3   1   1   20.47    1.64
  -3   2   1    6.57    0.69
  -3   2   1    6.60    0.63
  -3   3   1   12.18    1.14
  -3   3   1   12.44    1.05
  -3   4   1   65.14    4.99
  -3   5   1   12.19    1.28
  -3   6   1    1.00    0.60
  -3   7   1    1.82    0.74
   3  -8  -1    3.02    0.96
   3  -9  -1    2.10    0.99
  -4  -9   1    0.03    0.94
  -4  -8   1    2.02    0.92
  -4  -7   1    1.86    0.88
  -4  -6   1   18.97    1.78
  -4  -6   1   20.38    1.64
  -4  -5   1    4.73    0.75
  -4  -5   1    3.58    0.60
   4   4  -1   10.82    0.90
  -4  -4   1   10.34    0.93
   4   3  -1   55.71    3.97
  -4  -3   1   51.69    3.64
   4   2  -1  234.71   15.86
  -4  -2   1  211.16   14.73
  -4  -2   1  207.88   14.09
   4   1  -1   37.09    2.73
  -4  -1   1   37.09    2.58
  -4  -1   1   35.70    2.49
  -4   0   1   58.63    3.82
  -4   0   1   52.56    3.70
   4  -1  -1   38.10    2.80
  -4   1   1   33.38    2.49
  -4   1   1   37.59    2.51
  -4   2   1  209.69   15.69
  -4   2   1  219.49   13.91
  -4   3   1   50.27    3.88
  -4   3   1   49.92    3.48
  -4   4   1    9.71    1.09
  -4   5   1    3.90    0.78
  -4   6   1   22.59    2.10
  -4   7   1    3.93    0.93
   4  -8  -1    2.88    1.01
   4  -9  -1    0.12    0.91
  -5  -8   1    1.02    0.89
  -5  -7   1    7.02    1.20
  -5  -6   1    4.23    0.72
  -5  -6   1    3.76    0.89
  -5  -5   1   37.18    2.63
  -5  -5   1   35.62    2.80
  -5  -4   1    3.24    0.54
  -5  -4   1    2.45    0.58
  -5  -3   1   70.75    4.76
  -5  -3   1   72.01    5.00
  -5  -2   1   11.60    1.05
  -5  -2   1   12.95    1.03
   5   1  -1  100.34    7.37
  -5  -1   1  101.76    6.87
  -5  -1   1  100.15    6.61
  -5   0   1   16.17    1.15
  -5   0   1   13.95    1.16
   5  -1  -1   96.92    7.50
  -5   1   1  109.20    6.86
  -5   1   1   96.93    6.68
  -5   2   1    8.84    0.95
  -5   2   1    9.51    0.91
  -5   3   1   72.10    4.84
  -5   3   1   70.15    5.42
  -5   4   1    2.54    0.67
  -5   4   1    3.26    0.65
  -5   5   1   37.40    3.14
  -5   6   1    2.02    0.72
  -5   7   1    7.90    1.22
   5  -8  -1   -0.17    0.83
  -6  -8   1    2.58    1.05
  -6  -7   1   10.85    1.41
  -6  -6   1    5.35    1.00
  -6  -6   1    6.06    0.87
  -6  -5   1   15.91    1.40
  -6  -5   1   17.16    1.60
  -6  -4   1    3.91    0.74
  -6  -4   1    4.31    0.63
  -6  -3   1   45.81    2.96
  -6  -3   1   38.72    3.08
   6   2  -1   17.94    1.77
  -6  -2   1   26.43    1.69
  -6  -2   1   23.18    1.71
   6   1  -1   11.93    0.98
  -6  -1   1   12.01    0.97
  -6  -1   1    9.85    0.97
  -6   0   1   10.01    0.94
  -6   0   1   11.21    0.89
   6  -1  -1   10.67    1.07
  -6   1   1   12.74    0.92
  -6   1   1   10.47    1.02
   6  -2  -1   23.17    1.92
  -6   2   1   22.31    1.77
  -6   3   1   54.78    3.76
  -6   3   1   52.60    4.20
  -6   4   1    4.36    0.80
  -6   4   1    4.04    0.79
  -6   5   1   13.59    1.51
  -6   6   1    4.39    0.95
   6  -7  -1    9.87    1.44
   6  -8  -1    3.22    1.17
  -7  -7   1    2.69    0.97
  -7  -6   1    0.50    0.68
  -7  -6   1    1.37    0.63
  -7  -5   1    1.09    0.54
  -7  -5   1    1.15    0.70
  -7  -4   1   39.58    2.98
  -7  -4   1   38.79    2.80
  -7  -3   1    4.47    0.71
  -7  -3   1    5.32    0.69
  -7  -2   1    0.98    0.45
  -7  -2   1    1.03    0.45
   7   1  -1    6.20    0.69
  -7  -1   1    7.28    0.73
  -7  -1   1    8.23    0.82
  -7   0   1   81.44    5.50
  -7   0   1   82.28    5.61
   7  -1  -1    7.56    0.80
  -7   1   1    5.42    0.75
   7  -2  -1    1.63    0.50
  -7   2   1    0.99    0.53
   7  -3  -1    4.56    0.75
  -7   3   1    5.16    0.82
   7  -4  -1   38.57    3.24
  -7   4   1   41.91    3.00
  -7   4   1   37.83    3.23
   7  -5  -1    2.26    0.79
   7  -6  -1    1.69    0.87
   7  -7  -1    1.55    1.01
  -8  -7   1    0.11    0.91
  -8  -6   1    0.69    0.80
  -8  -6   1    0.63    0.66
  -8  -5   1    1.72    0.75
  -8  -5   1    2.47    0.70
  -8  -4   1    9.29    1.02
  -8  -4   1    8.02    1.04
  -8  -3   1    8.08    0.97
  -8  -3   1    9.69    1.02
  -8  -2   1    0.50    0.46
  -8  -2   1    0.59    0.47
  -8  -1   1   14.10    1.29
   8   0  -1    1.53    0.46
  -8   0   1    1.25    0.51
   8  -1  -1   14.13    1.30
  -8   1   1   12.03    1.24
   8  -2  -1    0.91    0.54
  -8   2   1    1.06    0.56
   8  -3  -1    8.32    1.06
  -8   3   1    7.92    1.09
   8  -4  -1    7.34    1.09
  -8   4   1    6.81    1.10
   8  -5  -1    2.03    0.79
  -8   5   1    4.15    1.04
   8  -6  -1    1.07    0.87
   8  -7  -1    0.78    1.00
  -9  -6   1   -0.06    0.80
  -9  -6   1    0.42    0.70
  -9  -5   1    7.11    1.09
  -9  -5   1    7.14    1.02
  -9  -4   1    6.13    0.93
  -9  -4   1    5.31    0.90
  -9  -3   1    7.56    0.95
  -9  -3   1    6.48    0.93
  -9  -2   1   -0.01    0.54
  -9  -2   1   -0.31    0.50
  -9  -1   1   19.37    1.70
  -9   0   1    9.29    1.10
   9  -1  -1   18.38    1.74
  -9   1   1   19.89    1.69
   9  -2  -1    0.11    0.55
  -9   2   1    0.24    0.60
   9  -3  -1    7.30    1.08
  -9   3   1    8.41    1.20
   9  -4  -1    5.32    1.02
  -9   4   1    5.46    1.08
   9  -5  -1    8.11    1.30
  -9   5   1    7.64    1.39
   9  -6  -1    0.67    0.90
 -10  -5   1    0.11    0.70
 -10  -5   1   -0.75    0.74
 -10  -4   1    0.10    0.65
 -10  -4   1    0.27    0.70
 -10  -3   1    1.27    0.65
 -10  -3   1    1.07    0.70
 -10  -2   1    6.72    1.00
 -10  -1   1    0.06    0.57
 -10   0   1    1.85    0.72
 -10   1   1   -0.53    0.66
  10  -2  -1    9.24    1.20
 -10   2   1    8.62    1.23
  10  -3  -1    0.71    0.69
 -10   3   1    0.80    0.78
  10  -4  -1    0.38    0.74
 -10   4   1   -0.37    0.81
  10  -5  -1    0.32    0.82
 -10   5   1    0.68    0.99
 -11  -4   1    0.40    0.72
 -11  -3   1    1.01    0.73
 -11  -2   1    2.63    0.87
 -11  -1   1    2.96    0.89
 -11   0   1    2.57    0.85
 -11   1   1    2.13    0.91
 -11   2   1    1.07    0.87
  11  -3  -1   -0.13    0.74
 -11   3   1    0.40    0.86
  11  -4  -1    0.52    0.85
 -11   4   1    0.37    0.95
 -12  -2   1   -0.80    0.67
 -12  -1   1    2.51    0.88
 -12   0   1    0.23    0.83
 -12   1   1    3.16    1.08
 -12   2   1    0.02    0.94
 -12   2  -2    1.74    1.08
 -12   1  -2    0.39    0.85
 -12   0  -2    5.04    1.13
 -12  -1  -2    0.06    0.81
 -12  -2  -2    2.31    0.90
 -11   4  -2    2.53    1.12
  11  -4   2    2.97    0.99
 -11   3  -2    2.04    1.01
  11  -3   2    1.58    0.85
 -11   2  -2    2.06    0.94
 -11   1  -2    0.85    0.82
 -11   0  -2    4.09    0.96
 -11  -1  -2    0.54    0.76
 -11  -2  -2    1.09    0.82
 -11  -3  -2    0.90    0.80
 -11  -4  -2    3.20    0.96
 -10   5  -2    0.60    0.89
 -10   5  -2    0.46    0.96
 -10   4  -2    0.82    0.84
 -10   4  -2    2.07    0.94
 -10   3  -2    7.66    1.23
 -10   3  -2   10.40    1.38
 -10   2  -2    0.43    0.65
 -10   2  -2    1.21    0.79
 -10   1  -2    9.16    1.19
 -10   0  -2    5.15    0.97
 -10  -1  -2    8.24    1.13
 -10  -2  -2    0.71    0.67
 -10  -3  -2   11.03    1.33
 -10  -4  -2    1.62    0.80
 -10  -4  -2    0.82    0.70
 -10  -5  -2    0.84    0.83
 -10  -5  -2    0.29    0.79
  -9   6  -2    3.02    1.13
  -9   6  -2    3.11    1.16
  -9   5  -2    5.53    1.17
  -9   5  -2    5.13    1.19
  -9   4  -2    2.48    0.86
  -9   4  -2    1.93    0.87
  -9   3  -2    2.04    0.76
  -9   3  -2    2.48    0.85
  -9   2  -2    9.47    1.16
  -9   2  -2    8.90    1.15
  -9   1  -2    4.65    0.80
  -9   1  -2    5.30    0.89
  -9   0  -2    2.74    0.72
  -9  -1  -2    3.76    0.80
  -9  -2  -2    9.29    1.11
  -9  -3  -2    2.78    0.77
  -9  -4  -2    1.74    0.77
  -9  -5  -2    5.03    0.96
  -9  -6  -2    1.75    0.90
  -9  -6  -2    1.35    0.94
  -8   7  -2    3.38    1.15
  -8   6  -2    4.38    1.12
  -8   5  -2    5.43    1.14
  -8   5  -2    3.97    1.03
  -8   4  -2   -0.35    0.63
  -8   4  -2    1.28    0.72
  -8   3  -2    2.40    0.75
  -8   3  -2    1.36    0.70
  -8   2  -2   27.78    2.41
  -8   2  -2   28.24    2.20
  -8   1  -2   15.56    1.42
  -8   1  -2   15.71    1.47
  -8   0  -2    6.02    0.74
  -8   0  -2    4.27    0.75
  -8  -1  -2   18.39    1.60
  -8  -2  -2   27.53    2.17
  -8  -3  -2    2.99    0.69
  -8  -4  -2    1.07    0.62
  -8  -5  -2    4.05    0.87
  -8  -6  -2    6.49    1.09
  -8  -7  -2    2.85    0.95
  -8  -7  -2    2.58    1.09
  -7   7  -2    1.16    0.95
  -7   6  -2    2.13    0.93
  -7   5  -2   22.23    2.23
  -7   5  -2   23.34    2.09
  -7   4  -2    2.10    0.76
  -7   4  -2    3.45    0.77
  -7   3  -2   15.10    1.43
  -7   3  -2   15.25    1.56
  -7   2  -2    5.70    0.77
  -7   2  -2    5.27    0.81
  -7   1  -2   34.79    2.63
  -7   1  -2   37.70    2.92
  -7   0  -2   22.18    1.80
  -7   0  -2   20.47    1.70
  -7  -1  -2   40.68    2.91
  -7  -2  -2    2.94    0.62
  -7  -3  -2   14.16    1.29
  -7  -4  -2    4.23    0.78
  -7  -5  -2   21.96    1.90
  -7  -6  -2    0.69    0.74
  -7  -7  -2    1.45    0.85
  -6   8  -2    1.04    0.94
  -6   7  -2    4.71    1.12
  -6   6  -2    1.04    0.73
  -6   5  -2    4.58    0.93
  -6   5  -2    4.46    0.93
  -6   4  -2   37.06    2.74
  -6   4  -2   35.90    3.04
  -6   3  -2   45.48    3.40
  -6   3  -2   50.62    3.84
  -6   2  -2    4.06    0.68
  -6   2  -2    4.71    0.64
  -6   1  -2   49.67    3.89
  -6   1  -2   51.86    3.49
  -6   0  -2   36.97    2.92
  -6   0  -2   38.96    2.67
  -6  -1  -2   50.27    3.43
  -6  -1  -2   49.47    3.72
  -6  -2  -2    3.59    0.58
  -6  -3  -2   56.42    3.92
  -6  -4  -2   35.88    2.66
  -6  -5  -2    3.99    0.78
  -6  -6  -2    2.81    0.79
  -6  -7  -2    4.07    0.93
  -6  -8  -2    4.06    1.04
  -5   8  -2    2.54    1.02
  -5   7  -2    2.65    0.92
  -5   6  -2   13.30    1.56
  -5   5  -2    5.16    0.91
  -5   4  -2   37.41    2.70
  -5   4  -2   35.50    3.01
  -5   3  -2   28.98    2.43
  -5   3  -2   29.77    2.18
  -5   2  -2   17.24    1.52
  -5   2  -2   16.60    1.32
  -5   1  -2   29.88    2.35
  -5   1  -2   29.26    2.10
  -5   0  -2    6.16    0.59
  -5   0  -2    4.05    0.56
  -5  -1  -2   34.45    2.58
  -5  -1  -2   34.06    2.40
  -5  -2  -2   14.56    1.21
  -5  -3  -2   30.63    2.25
  -5  -4  -2   34.77    2.54
  -5  -5  -2    4.82    0.80
  -5  -6  -2   12.30    1.33
  -5  -7  -2    2.46    0.85
  -5  -8  -2    2.88    0.95
  -4   8  -2    0.43    0.83
  -4   7  -2    6.85    1.20
  -4   6  -2   13.40    1.54
  -4   5  -2   18.12    1.74
  -4   4  -2   21.42    1.69
  -4   4  -2   20.58    1.87
  -4   3  -2  155.26    9.90
  -4   3  -2  147.06   11.17
  -4   2  -2   92.59    7.04
  -4   2  -2   96.70    6.24
  -4   1  -2  233.53   15.06
  -4   1  -2  232.93   17.01
  -4   0  -2    5.79    0.58
  -4   0  -2    6.18    0.59
  -4  -1  -2  226.29   16.25
  -4  -1  -2  221.45   14.49
  -4  -2  -2  118.24    7.76
  -4  -3  -2  144.14    9.45
  -4  -4  -2   22.32    1.78
  -4  -5  -2   17.65    1.57
  -4  -6  -2   12.30    1.31
  -4  -7  -2    7.30    1.12
  -4  -8  -2    1.49    0.87
  -3   9  -2    3.14    1.05
  -3   8  -2    1.01    0.81
  -3   7  -2    6.09    1.10
  -3   6  -2   19.86    1.92
  -3   5  -2   25.86    2.15
   3  -5   2   22.78    1.76
  -3   4  -2    4.74    0.72
   3  -4   2    4.84    0.48
  -3   3  -2   58.20    3.67
  -3   3  -2   57.79    4.16
   3  -3   2   49.58    3.67
  -3   2  -2   86.90    5.70
  -3   2  -2   86.78    6.46
  -3   1  -2  208.51   15.18
  -3   1  -2  208.13   13.43
  -3   0  -2   28.59    2.14
  -3   0  -2   27.88    1.93
  -3  -1  -2  209.35   14.03
  -3  -1  -2  224.66   15.76
  -3  -2  -2   96.86    6.38
  -3  -3  -2   50.16    3.71
  -3  -3  -2   51.24    3.47
  -3  -4  -2    4.06    0.64
  -3  -4  -2    4.77    0.46
  -3  -5  -2   25.24    2.03
  -3  -6  -2   17.91    1.66
  -3  -7  -2    4.89    0.96
  -3  -8  -2    0.82    0.75
  -2   9  -2   -0.04    0.75
  -2   8  -2    6.34    1.17
  -2   7  -2    5.49    1.01
  -2   6  -2   12.25    1.42
   2  -6   2   14.13    1.20
  -2   5  -2   10.05    1.22
   2  -5   2   12.65    1.01
  -2   4  -2   58.54    4.88
   2  -4   2   68.46    4.42
  -2   3  -2   22.97    1.46
  -2   3  -2   23.80    1.70
   2  -3   2   16.17    1.40
  -2   2  -2  122.75    9.36
  -2   2  -2  122.61    8.25
   2  -2   2  135.63    8.57
  -2   1  -2  263.72   18.64
  -2   1  -2  248.65   16.46
  -2   0  -2  323.09   20.71
  -2   0  -2  322.14   23.38
  -2  -1  -2  269.77   17.51
  -2  -1  -2  273.69   19.72
  -2  -2  -2  139.26   10.26
  -2  -2  -2  143.74    9.21
  -2  -3  -2   16.19    1.29
  -2  -3  -2   16.11    1.25
  -2  -4  -2   64.28    4.67
  -2  -4  -2   60.94    4.33
  -2  -5  -2   14.89    1.26
  -2  -5  -2   14.69    1.38
  -2  -6  -2   14.90    1.47
  -2  -7  -2    3.87    0.89
  -2  -8  -2    5.71    1.11
  -1   8  -2    6.66    1.14
  -1   7  -2    9.26    1.15
   1  -7   2    6.25    0.93
  -1   6  -2    1.23    0.58
   1  -6   2    1.55    0.49
  -1   5  -2   23.69    2.04
   1  -5   2   23.66    1.81
  -1   4  -2  136.67   10.26
   1  -4   2  140.72    9.41
  -1   3  -2   80.33    5.95
   1  -3   2   79.29    5.43
  -1   2  -2   40.38    2.77
  -1   2  -2   39.78    3.18
   1  -2   2   45.43    2.88
  -1   1  -2  191.07   12.30
  -1   1  -2  186.77   13.94
   1  -1   2  196.67   12.86
  -1   0  -2  285.38   18.37
  -1   0  -2  287.35   20.76
  -1  -1  -2  203.42   12.99
  -1  -1  -2  199.46   14.62
  -1  -2  -2   43.61    3.08
  -1  -2  -2   46.58    3.35
  -1  -3  -2   83.59    6.02
  -1  -3  -2   79.64    5.47
  -1  -4  -2  143.99   10.23
  -1  -4  -2  134.09    9.22
  -1  -5  -2   23.99    1.86
  -1  -5  -2   20.69    1.83
  -1  -6  -2    1.67    0.49
  -1  -6  -2    1.78    0.66
  -1  -7  -2    7.01    1.08
  -1  -8  -2    5.12    1.04
   0   8  -2    4.40    0.94
   0  -8   2    4.73    0.92
   0   7  -2    8.09    1.03
   0  -7   2    6.01    0.91
   0   6  -2    6.27    0.86
   0  -6   2    5.24    0.74
   0  -6   2    5.08    0.76
   0   5  -2   15.94    1.49
   0  -5   2   16.80    1.36
   0   4  -2  111.55    8.67
   0  -4   2  122.51    7.99
   0   3  -2   43.48    3.30
   0  -3   2   43.06    3.02
   0   2  -2   20.38    1.42
   0  -2   2   15.67    1.27
   0   1  -2    9.25    0.79
   0   0  -2  134.16    9.79
   0  -1  -2   15.74    1.22
   0  -2  -2   17.10    1.33
   0  -3  -2   43.85    3.30
   0  -4  -2  123.62    9.09
   0  -5  -2   15.23    1.35
   0  -6  -2    5.52    0.78
   0  -7  -2    3.25    0.87
   0  -7  -2    5.11    0.80
   0  -8  -2    2.83    0.93
  -1  -9   2    0.15    0.88
  -1  -8   2   11.58    1.37
   1   7  -2    3.59    0.77
  -1  -7   2    4.64    0.82
   1   6  -2   57.16    4.68
  -1  -6   2   61.02    4.36
  -1  -6   2   64.34    4.19
   1   5  -2   58.33    4.53
  -1  -5   2   59.24    4.21
  -1  -5   2   60.32    4.03
   1   4  -2  205.39   14.41
  -1  -4   2  188.02   13.32
  -1  -4   2  197.19   12.75
  -1  -3   2    9.37    0.85
  -1  -3   2   10.69    0.79
   1   2  -2  482.53   33.49
  -1  -2   2  439.97   30.96
  -1  -2   2  464.05   29.60
   1   1  -2  635.88   45.71
  -1  -1   2  633.44   42.23
  -1  -1   2  622.42   40.41
   1   0  -2  289.45   20.78
  -1   0   2  284.89   18.38
  -1   0   2  285.63   19.21
   1  -1  -2  638.21   46.22
   1  -2  -2  450.57   32.65
   1  -3  -2    9.51    0.87
  -1   4   2  188.95   13.85
  -1   5   2   54.68    4.21
   1  -6  -2   68.93    5.29
   1  -7  -2    4.01    0.82
   1  -8  -2   11.23    1.39
   1  -9  -2    0.40    0.83
  -2  -9   2    0.18    0.91
  -2  -8   2   -0.77    0.69
  -2  -7   2    3.57    0.82
   2   6  -2   15.97    1.58
  -2  -6   2   19.23    1.47
  -2  -6   2   18.27    1.59
   2   5  -2    6.13    0.80
  -2  -5   2    8.14    0.90
  -2  -5   2    9.48    0.81
   2   4  -2    8.93    0.81
  -2  -4   2    6.64    0.79
  -2  -4   2    7.47    0.70
  -2  -3   2   14.43    1.05
  -2  -3   2   13.98    1.14
   2   2  -2  111.47    7.94
  -2  -2   2  103.50    7.36
  -2  -2   2  110.27    7.02
  -2  -1   2  232.85   14.60
  -2  -1   2  221.73   15.27
   2   0  -2   20.20    1.58
  -2   0   2   20.99    1.46
  -2   0   2   21.48    1.42
   2  -1  -2  217.11   15.30
  -2   1   2  203.58   13.56
   2  -2  -2  106.57    7.83
   2  -3  -2   13.30    1.16
  -2   4   2    6.44    0.76
  -2   5   2    4.00    0.67
   2  -6  -2   17.79    1.70
   2  -7  -2    3.13    0.83
   2  -8  -2   -0.26    0.69
   2  -9  -2   -0.23    0.77
  -3  -9   2   -0.33    0.90
  -3  -8   2    1.68    0.87
  -3  -7   2   13.95    1.45
  -3  -6   2   15.43    1.49
  -3  -6   2   15.64    1.33
   3   5  -2   13.96    1.27
  -3  -5   2   14.55    1.34
  -3  -5   2   15.00    1.20
   3   4  -2   18.33    1.50
  -3  -4   2   18.59    1.36
  -3  -4   2   18.10    1.50
   3   3  -2   89.23    6.14
  -3  -3   2   79.06    5.75
  -3  -3   2   80.79    5.46
   3   2  -2   93.24    6.40
  -3  -2   2   86.29    5.65
  -3  -2   2   80.64    5.93
   3   1  -2   92.25    6.47
  -3  -1   2   84.76    5.72
  -3  -1   2   86.77    5.98
   3   0  -2   87.97    6.44
  -3   0   2   87.99    5.73
   3  -1  -2   82.91    6.33
  -3   1   2   89.19    5.64
   3  -2  -2   80.55    6.02
  -3   2   2   81.94    5.38
   3  -3  -2   78.26    6.00
  -3   3   2   82.48    6.02
  -3   4   2   18.50    1.64
  -3   5   2   13.74    1.38
   3  -6  -2   15.84    1.61
   3  -7  -2   14.41    1.59
   3  -8  -2    0.10    0.70
   3  -9  -2    1.86    0.92
  -4  -9   2    0.78    0.96
  -4  -8   2    4.55    1.05
  -4  -7   2    1.94    0.76
  -4  -6   2    5.39    0.87
  -4  -6   2    5.70    0.72
  -4  -5   2    8.12    0.99
  -4  -5   2    8.66    0.85
   4   4  -2   61.59    4.35
  -4  -4   2   60.30    3.94
  -4  -4   2   52.13    4.15
   4   3  -2   35.15    2.77
  -4  -3   2   38.45    2.70
  -4  -3   2   38.29    2.53
   4   2  -2   24.53    1.98
  -4  -2   2   25.74    1.85
  -4  -2   2   24.57    1.74
   4   1  -2   89.27    6.30
  -4  -1   2   85.56    5.85
  -4  -1   2   82.01    5.60
   4   0  -2  109.83    8.03
  -4   0   2  109.32    7.14
   4  -1  -2   83.21    6.15
  -4   1   2   84.90    5.48
  -4   1   2   81.29    5.64
   4  -2  -2   23.90    1.98
  -4   2   2   25.45    1.80
   4  -3  -2   37.41    2.77
  -4   3   2   31.86    2.51
  -4   4   2   53.78    4.19
   4  -5  -2    9.73    1.19
  -4   5   2   11.93    1.23
   4  -6  -2    5.82    0.98
   4  -7  -2    1.99    0.80
   4  -8  -2    4.86    1.15
   4  -9  -2    2.17    1.04
  -5  -8   2    1.35    0.90
  -5  -7   2    5.35    1.01
  -5  -6   2    3.63    0.67
  -5  -6   2    3.21    0.82
  -5  -5   2    0.68    0.54
  -5  -5   2    1.21    0.46
  -5  -4   2   26.51    1.99
  -5  -4   2   24.02    1.83
   5   3  -2   67.22    4.87
  -5  -3   2   65.17    4.65
  -5  -3   2   65.69    4.42
   5   2  -2    8.19    1.03
  -5  -2   2   13.76    0.98
  -5  -2   2   13.67    1.03
   5   1  -2   58.60    4.75
  -5  -1   2   65.46    4.27
  -5  -1   2   68.88    4.44
   5   0  -2   48.67    3.67
  -5   0   2   50.75    3.38
  -5   0   2   46.84    3.30
   5  -1  -2   66.52    4.52
  -5   1   2   54.73    4.02
  -5   1   2   58.44    4.10
   5  -2  -2   13.08    1.17
  -5   2   2   11.59    1.08
   5  -3  -2   68.84    5.13
  -5   3   2   65.20    4.59
   5  -4  -2   26.04    2.25
   5  -5  -2    1.11    0.62
   5  -6  -2    2.75    0.82
   5  -7  -2    5.47    1.16
   5  -8  -2    2.54    0.97
  -6  -8   2    1.19    0.92
  -6  -7   2    2.25    0.88
  -6  -6   2   15.45    1.55
  -6  -6   2   13.96    1.33
  -6  -5   2   41.67    3.20
  -6  -5   2   43.02    3.00
  -6  -4   2    5.66    0.71
  -6  -4   2    6.00    0.83
  -6  -3   2   32.85    2.34
  -6  -3   2   32.83    2.47
   6   2  -2   33.61    2.74
  -6  -2   2   35.46    2.56
  -6  -2   2   35.09    2.46
   6   1  -2   86.59    6.19
  -6  -1   2   78.60    5.54
  -6  -1   2   84.99    5.76
   6   0  -2   24.85    2.05
  -6   0   2   26.07    1.89
  -6   0   2   26.78    1.87
   6  -1  -2   81.99    6.27
  -6   1   2   83.97    5.62
  -6   1   2   85.51    5.72
   6  -2  -2   32.23    2.54
  -6   2   2   30.51    2.31
   6  -3  -2   34.91    2.75
  -6   3   2   31.83    2.48
   6  -4  -2    6.68    0.92
  -6   4   2    4.39    0.85
   6  -5  -2   42.18    3.51
   6  -6  -2   17.92    1.89
   6  -7  -2    3.78    1.10
   6  -8  -2    0.65    0.99
  -7  -7   2    1.83    0.91
  -7  -6   2    5.32    0.99
  -7  -5   2    2.58    0.63
  -7  -5   2    2.72    0.77
  -7  -4   2    3.39    0.72
  -7  -4   2    2.98    0.62
  -7  -3   2    5.18    0.75
  -7  -3   2    5.82    0.74
  -7  -2   2   17.15    1.48
  -7  -2   2   18.43    1.46
   7   1  -2   15.94    1.45
  -7  -1   2   18.70    1.40
  -7  -1   2   17.61    1.41
   7   0  -2    2.82    0.49
  -7   0   2    5.27    0.53
  -7   0   2    3.98    0.63
   7  -1  -2   19.18    1.58
  -7   1   2   16.00    1.48
   7  -2  -2   19.42    1.95
  -7   2   2   29.35    1.91
   7  -3  -2    5.33    0.77
  -7   3   2    2.39    0.68
   7  -4  -2    3.76    0.84
  -7   4   2    3.88    0.86
   7  -5  -2    3.85    0.89
   7  -6  -2    6.24    1.16
   7  -7  -2    2.00    0.97
  -8  -7   2    1.63    0.97
  -8  -6   2    7.50    1.17
  -8  -5   2    8.59    1.02
  -8  -5   2    8.83    1.14
  -8  -4   2    7.21    0.90
  -8  -4   2    6.29    0.94
  -8  -3   2    1.61    0.58
  -8  -3   2    2.49    0.66
  -8  -2   2   21.06    1.73
  -8  -2   2   21.89    1.76
  -8  -1   2   11.36    1.15
  -8  -1   2   19.05    1.36
  -8   0   2    5.64    0.80
   8  -1  -2   17.39    1.60
  -8   1   2   17.54    1.55
   8  -2  -2   21.83    1.90
  -8   2   2   19.59    1.80
   8  -3  -2    2.68    0.69
  -8   3   2    2.61    0.72
   8  -4  -2    6.11    1.04
  -8   4   2    9.66    1.22
   8  -5  -2    7.81    1.21
   8  -6  -2    8.68    1.39
   8  -7  -2    0.22    0.89
  -9  -6   2    0.50    0.84
  -9  -5   2    0.35    0.77
  -9  -5   2   -0.87    0.61
  -9  -4   2    4.44    0.82
  -9  -4   2    3.61    0.84
  -9  -3   2   10.95    1.25
  -9  -3   2   15.80    1.38
  -9  -2   2    1.62    0.61
  -9  -2   2    2.60    0.62
  -9  -1   2    6.66    0.91
  -9   0   2   -0.05    0.53
   9  -1  -2    9.04    1.06
  -9   1   2    9.32    1.13
   9  -2  -2    3.41    0.75
  -9   2   2    3.09    0.82
   9  -3  -2   13.73    1.49
  -9   3   2   11.71    1.42
   9  -4  -2    4.32    0.95
  -9   4   2    5.08    1.08
   9  -5  -2    0.57    0.79
  -9   5   2    0.44    0.83
   9  -6  -2   -0.40    0.78
 -10  -5   2    1.23    0.86
 -10  -5   2    0.75    0.75
 -10  -4   2    4.23    0.88
 -10  -4   2    5.15    0.97
 -10  -3   2    0.20    0.62
 -10  -3   2   -0.46    0.65
 -10  -2   2    0.01    0.62
 -10  -1   2    6.62    1.01
 -10   0   2    1.64    0.72
 -10   1   2    5.43    0.99
  10  -2  -2    0.46    0.61
 -10   2   2   -0.14    0.68
  10  -3  -2    0.80    0.71
 -10   3   2    0.49    0.82
  10  -4  -2    2.54    0.96
 -10   4   2    4.50    1.09
  10  -5  -2    2.05    0.99
 -10   5   2    2.21    1.04
 -11  -4   2    3.53    0.90
 -11  -3   2    1.12    0.72
 -11  -2   2    4.12    0.92
 -11  -1   2    1.50    0.78
 -11   0   2    4.24    1.02
 -11   1   2    3.28    0.99
 -11   2   2    0.81    0.86
  11  -3  -2    0.33    0.74
 -11   3   2    0.36    0.87
  11  -4  -2    3.61    1.06
 -11   4   2    5.86    1.30
 -12  -2   2   -0.43    0.72
 -12  -1   2    1.27    0.86
 -12   0   2   -0.72    0.78
 -12   1   2    1.87    0.98
 -12   2   2   -0.95    0.77
 -12   2  -3   -0.05    0.98
 -12   1  -3    1.10    0.94
 -12   0  -3    3.08    0.98
 -12  -1  -3    1.55    0.88
 -12  -2  -3   -0.23    0.82
 -11   4  -3    0.55    0.86
 -11   4  -3    0.68    1.05
 -11   3  -3    0.25    0.93
 -11   2  -3    8.98    1.40
 -11   1  -3    0.76    0.77
 -11   0  -3    3.37    0.97
 -11  -1  -3    1.54    0.82
 -11  -2  -3    8.16    1.25
 -11  -3  -3    0.70    0.80
 -11  -4  -3    1.81    0.93
 -10   5  -3    4.83    1.29
 -10   5  -3    4.51    1.10
 -10   4  -3    0.90    0.81
 -10   4  -3    1.68    1.02
 -10   3  -3    3.32    0.91
 -10   3  -3    1.05    0.90
 -10   2  -3    0.62    0.71
 -10   2  -3    0.11    0.63
 -10   1  -3    7.04    1.08
 -10   0  -3    7.88    1.12
 -10  -1  -3    6.24    1.02
 -10  -2  -3    0.10    0.68
 -10  -3  -3    2.21    0.83
 -10  -4  -3    2.41    0.90
 -10  -5  -3    4.71    1.08
  -9   6  -3    0.08    0.79
  -9   6  -3    1.15    1.09
  -9   5  -3    2.19    0.96
  -9   5  -3    2.59    0.98
  -9   4  -3    2.54    0.93
  -9   4  -3    1.34    0.84
  -9   3  -3   11.67    1.43
  -9   3  -3   11.91    1.46
  -9   2  -3    1.89    0.68
  -9   2  -3    1.95    0.73
  -9   1  -3   10.90    1.18
  -9   1  -3   10.03    1.16
  -9   0  -3    0.91    0.60
  -9  -1  -3   10.95    1.20
  -9  -2  -3    0.42    0.64
  -9  -3  -3   11.21    1.29
  -9  -4  -3    1.35    0.76
  -9  -5  -3    3.22    0.96
  -9  -6  -3    0.41    0.83
  -8   7  -3   -0.30    0.88
  -8   6  -3   -0.12    0.83
  -8   5  -3    3.56    1.01
  -8   5  -3    3.56    1.03
  -8   4  -3   16.09    1.82
  -8   4  -3   19.89    1.80
  -8   3  -3   15.14    1.59
  -8   3  -3   14.10    1.51
  -8   2  -3    7.54    0.96
  -8   2  -3    6.13    0.95
  -8   1  -3    6.21    0.87
  -8   1  -3    6.92    0.92
  -8   0  -3   45.54    3.53
  -8   0  -3   44.96    3.25
  -8  -1  -3    9.29    1.07
  -8  -2  -3    5.08    0.83
  -8  -3  -3   10.75    1.20
  -8  -4  -3   15.87    1.52
  -8  -5  -3    2.11    0.83
  -8  -6  -3    0.32    0.72
  -8  -7  -3    0.49    0.87
  -7   7  -3    6.30    1.30
  -7   6  -3   12.77    1.69
  -7   5  -3    3.63    0.95
  -7   5  -3    3.51    0.95
  -7   4  -3    1.95    0.71
  -7   4  -3    2.06    0.77
  -7   3  -3   17.13    1.70
  -7   3  -3   17.40    1.57
  -7   2  -3   30.67    2.28
  -7   2  -3   29.14    2.50
  -7   1  -3    6.85    0.84
  -7   1  -3    7.25    0.86
  -7   0  -3    1.02    0.50
  -7   0  -3    0.69    0.39
  -7  -1  -3    7.01    0.82
  -7  -2  -3   33.91    2.53
  -7  -3  -3   19.20    1.61
  -7  -4  -3    2.06    0.71
  -7  -5  -3    3.22    0.86
  -7  -6  -3    9.58    1.27
  -7  -7  -3    7.15    1.20
  -6   8  -3    0.50    0.87
  -6   7  -3    4.41    1.12
  -6   6  -3    4.19    1.04
  -6   5  -3   15.96    1.74
  -6   5  -3   17.68    1.67
  -6   4  -3    7.36    0.95
  -6   4  -3    7.42    1.05
  -6   3  -3   31.19    2.59
  -6   3  -3   29.67    2.33
  -6   2  -3   15.67    1.51
  -6   2  -3   17.15    1.40
  -6   1  -3   66.53    5.11
  -6   1  -3   68.40    4.56
  -6   0  -3    0.49    0.32
  -6   0  -3    0.11    0.35
  -6  -1  -3   68.35    4.82
  -6  -1  -3   74.11    5.32
  -6  -2  -3   15.00    1.29
  -6  -3  -3   27.95    2.14
  -6  -4  -3    6.93    0.92
  -6  -5  -3   15.90    1.52
  -6  -6  -3    3.04    0.84
  -6  -7  -3    3.18    0.87
  -6  -8  -3    0.16    0.81
  -5   8  -3    1.09    0.92
  -5   7  -3    1.82    0.87
  -5   6  -3   13.75    1.62
  -5   5  -3    7.07    1.09
  -5   5  -3    7.67    0.98
  -5   4  -3   15.53    1.61
  -5   4  -3   16.83    1.43
  -5   3  -3   13.26    1.31
  -5   3  -3   12.66    1.18
  -5   2  -3  118.65    7.52
  -5   2  -3  109.45    8.47
  -5   1  -3   48.76    3.32
  -5   1  -3   48.51    3.73
  -5   0  -3   35.92    2.80
  -5   0  -3   37.22    2.56
  -5  -1  -3   46.32    3.41
  -5  -1  -3   44.38    3.14
  -5  -2  -3  116.27    7.69
  -5  -3  -3    6.74    0.80
  -5  -4  -3   16.14    1.41
  -5  -5  -3    6.47    0.96
  -5  -6  -3   13.87    1.50
  -5  -7  -3    1.77    0.83
  -5  -8  -3    1.03    0.91
  -4   8  -3    5.24    1.19
  -4   7  -3    1.13    0.76
  -4   6  -3    2.18    0.77
  -4   5  -3   10.56    1.25
  -4   4  -3   71.80    4.90
  -4   4  -3   71.99    5.52
  -4   3  -3   14.41    1.44
  -4   3  -3   16.96    1.29
  -4   2  -3    0.83    0.35
  -4   2  -3    1.35    0.32
  -4   1  -3   33.92    2.69
  -4   1  -3   35.40    2.39
  -4   0  -3  207.66   13.74
  -4   0  -3  217.26   15.49
  -4  -1  -3   30.27    2.16
  -4  -1  -3   30.79    2.31
  -4  -2  -3    0.69    0.16
  -4  -2  -3    0.99    0.37
  -4  -3  -3   14.24    1.23
  -4  -4  -3   81.63    5.57
  -4  -5  -3   15.64    1.49
  -4  -6  -3    4.30    0.91
  -4  -7  -3    3.33    0.89
  -4  -8  -3    7.28    1.24
  -3   9  -3    2.21    1.04
  -3   8  -3    1.53    0.89
  -3   7  -3   15.25    1.72
  -3   6  -3    2.03    0.74
  -3   5  -3   47.45    3.72
   3  -5   3   45.30    3.23
  -3   4  -3   35.96    2.96
   3  -4   3   36.93    2.56
  -3   3  -3  129.67    9.72
  -3   3  -3  135.46    8.57
   3  -3   3  128.53    8.83
  -3   2  -3   84.10    6.27
  -3   2  -3   83.72    5.50
  -3   1  -3  174.61   11.14
  -3   1  -3  170.03   12.61
  -3   0  -3   17.80    1.41
  -3   0  -3   17.68    1.28
  -3  -1  -3  166.15   10.80
  -3  -1  -3  166.91   12.11
  -3  -2  -3   98.21    6.61
  -3  -2  -3  101.39    7.31
  -3  -3  -3  135.98   10.10
  -3  -3  -3  141.89    9.12
  -3  -4  -3   38.56    2.88
  -3  -4  -3   37.57    2.79
  -3  -5  -3   47.18    3.45
  -3  -6  -3    2.59    0.80
  -3  -7  -3   10.13    1.33
  -3  -8  -3    0.33    0.79
  -3  -9  -3    2.18    1.02
  -2   9  -3   -0.10    0.87
  -2   8  -3    4.82    1.02
  -2   7  -3    6.96    1.09
  -2   6  -3   16.04    1.66
   2  -6   3   16.08    1.37
  -2   5  -3   20.12    1.69
   2  -5   3   15.91    1.36
  -2   4  -3   47.06    3.56
   2  -4   3   43.60    3.13
  -2   3  -3   17.04    1.24
  -2   3  -3   15.06    1.44
   2  -3   3   17.42    1.23
  -2   2  -3   22.04    1.70
  -2   2  -3   21.74    1.44
   2  -2   3   18.84    1.46
  -2   1  -3  308.39   20.12
  -2   1  -3  246.56   17.74
  -2   0  -3  157.81    9.87
  -2   0  -3  147.76   11.13
  -2  -1  -3  302.44   19.74
  -2  -1  -3  310.81   22.26
  -2  -2  -3   19.60    1.51
  -2  -2  -3   18.97    1.45
  -2  -3  -3   19.27    1.46
  -2  -3  -3   17.51    1.47
  -2  -4  -3   45.84    3.51
  -2  -4  -3   49.23    3.37
  -2  -5  -3   19.10    1.57
  -2  -5  -3   16.84    1.45
  -2  -6  -3   17.34    1.65
  -2  -7  -3    5.39    1.00
  -2  -8  -3    6.84    1.22
  -2  -9  -3    0.11    0.88
  -1   8  -3    1.02    0.73
  -1   7  -3    1.79    0.71
   1  -7   3    1.68    0.66
  -1   6  -3   62.69    4.87
   1  -6   3   61.67    4.41
  -1   5  -3   11.93    1.21
   1  -5   3   10.17    0.98
  -1   4  -3    0.59    0.39
   1  -4   3   -0.06    0.30
  -1   3  -3    3.86    0.61
   1  -3   3    6.69    0.54
  -1   2  -3  258.75   18.88
  -1   2  -3  261.23   16.64
   1  -2   3  257.67   17.40
  -1   1  -3  358.44   25.77
  -1   1  -3  357.92   22.75
   1  -1   3  349.12   23.81
  -1   0  -3  203.32   13.13
  -1   0  -3  204.88   14.87
  -1  -1  -3  375.54   23.86
  -1  -1  -3  367.02   26.92
  -1  -2  -3  268.10   17.36
  -1  -2  -3  268.69   19.48
  -1  -3  -3    6.75    0.78
  -1  -3  -3    7.58    0.68
  -1  -4  -3   -0.23    0.39
  -1  -4  -3    0.02    0.25
  -1  -5  -3    9.86    0.95
  -1  -5  -3   10.39    1.14
  -1  -6  -3   56.37    4.28
  -1  -6  -3   54.94    4.04
  -1  -7  -3    1.46    0.77
  -1  -8  -3    1.29    0.83
  -1  -9  -3   -0.40    0.81
   0   8  -3    0.84    0.67
   0  -8   3    1.64    0.82
   0   7  -3    5.80    0.98
   0  -7   3    6.00    0.90
   0   6  -3    0.93    0.51
   0  -6   3    1.45    0.44
   0  -6   3    0.88    0.52
   0   5  -3   14.83    1.44
   0  -5   3   15.67    1.29
   0   4  -3   63.91    4.93
   0  -4   3   66.16    4.53
   0   3  -3  110.19    8.17
   0  -3   3  110.87    7.52
   0   2  -3   24.12    2.01
   0  -2   3   27.15    1.83
   0   1  -3  633.78   42.38
   0  -1   3  536.80   39.11
   0   0  -3    9.60    0.87
   0  -1  -3  543.34   39.36
   0  -2  -3   28.09    2.14
   0  -3  -3  113.50    8.33
   0  -4  -3   67.99    5.09
   0  -5  -3   15.14    1.35
   0  -6  -3    0.14    0.42
   0  -7  -3    4.47    0.98
   0  -7  -3    5.19    0.83
   0  -8  -3    1.65    0.84
   0  -9  -3   -0.36    0.79
  -1  -9   3    1.96    0.99
  -1  -8   3    6.14    1.05
   1   7  -3    7.51    1.08
  -1  -7   3   11.95    1.18
   1   6  -3   26.88    2.24
  -1  -6   3   24.96    2.06
   1   5  -3   12.20    1.00
  -1  -5   3    7.35    0.84
  -1  -5   3    5.65    0.71
   1   4  -3   99.62    7.28
  -1  -4   3   91.86    6.71
  -1  -4   3  101.38    6.38
   1   3  -3  205.56   16.00
  -1  -3   3  229.52   14.10
  -1  -3   3  222.30   14.80
   1   2  -3   48.71    3.55
  -1  -2   3   46.80    3.05
  -1  -2   3   46.01    3.26
   1   1  -3  366.41   28.15
  -1  -1   3  394.92   25.98
  -1  -1   3  400.49   24.84
   1   0  -3    0.60    0.22
  -1   0   3    0.69    0.22
   1  -1  -3  382.34   27.72
   1  -2  -3   41.74    3.14
   1  -3  -3  215.27   15.70
   1  -4  -3   94.19    7.00
   1  -5  -3    5.90    0.75
   1  -6  -3   24.69    2.13
   1  -7  -3   10.88    1.26
   1  -8  -3    6.95    1.08
   1  -9  -3    1.25    0.91
  -2  -9   3    0.96    0.97
  -2  -8   3   11.54    1.40
  -2  -7   3    0.14    0.59
  -2  -6   3    7.84    0.97
  -2  -5   3   27.40    2.02
  -2  -5   3   30.12    2.21
  -2  -4   3  104.10    7.54
  -2  -4   3  115.27    7.17
  -2  -3   3   45.54    2.98
  -2  -3   3   44.46    3.19
   2   2  -3   16.28    1.66
  -2  -2   3   24.20    1.43
  -2  -2   3   21.94    1.56
   2   1  -3   25.26    2.24
  -2  -1   3   28.76    2.01
  -2  -1   3   30.29    1.89
   2   0  -3  501.18   36.20
  -2   0   3  498.18   32.02
  -2   0   3  499.77   33.46
   2  -1  -3   29.52    2.23
  -2   1   3   28.91    2.01
   2  -2  -3   25.53    2.00
   2  -3  -3   44.57    3.41
   2  -4  -3  106.92    7.95
   2  -5  -3   21.28    1.84
   2  -6  -3    9.95    1.17
   2  -7  -3   -0.57    0.57
   2  -8  -3   12.85    1.53
   2  -9  -3    0.25    0.85
  -3  -9   3    1.32    0.99
  -3  -8   3   -0.45    0.76
  -3  -7   3    2.34    0.80
  -3  -6   3    8.66    1.02
   3   5  -3   61.11    4.53
  -3  -5   3   59.65    4.00
  -3  -5   3   57.97    4.27
   3   4  -3   15.57    1.39
  -3  -4   3   16.49    1.37
  -3  -4   3   17.66    1.24
   3   3  -3   38.86    2.69
  -3  -3   3   32.36    2.35
  -3  -3   3   34.04    2.55
   3   2  -3  138.56    9.89
  -3  -2   3  132.32    9.12
  -3  -2   3  132.38    8.67
   3   1  -3   22.28    1.93
  -3  -1   3   25.36    1.77
  -3  -1   3   25.56    1.68
   3   0  -3   26.06    1.96
  -3   0   3   23.94    1.74
  -3   0   3   25.93    1.80
   3  -1  -3   24.28    2.07
  -3   1   3   30.07    1.89
   3  -2  -3  129.41    9.99
  -3   2   3  143.45    8.90
   3  -3  -3   31.91    2.52
   3  -4  -3   13.99    1.30
   3  -5  -3   63.88    4.94
   3  -6  -3    8.34    1.10
   3  -7  -3    2.69    0.83
   3  -8  -3    1.23    0.83
   3  -9  -3    1.26    0.92
  -4  -8   3    3.44    1.01
  -4  -7   3   10.91    1.33
  -4  -6   3    7.88    1.05
  -4  -5   3   24.41    1.92
  -4  -5   3   22.23    1.71
   4   4  -3    4.23    0.51
  -4  -4   3    4.06    0.50
  -4  -4   3    3.34    0.64
   4   3  -3   26.77    2.19
  -4  -3   3   29.49    1.97
  -4  -3   3   28.55    2.13
   4   2  -3   24.65    1.89
  -4  -2   3   21.87    1.59
  -4  -2   3   21.51    1.70
  -4  -1   3  129.79    8.37
  -4  -1   3  128.14    8.74
   4   0  -3    3.46    0.42
  -4   0   3    3.42    0.42
  -4   0   3    2.74    0.37
   4  -1  -3  126.73    8.73
  -4   1   3  110.59    8.06
  -4   1   3  118.45    7.76
   4  -2  -3   22.62    2.02
  -4   2   3   28.91    1.88
   4  -3  -3   27.04    2.21
   4  -4  -3    3.44    0.66
   4  -5  -3   24.93    2.20
   4  -6  -3    7.82    1.14
   4  -7  -3   11.49    1.48
   4  -8  -3    3.33    1.05
  -5  -8   3    0.31    0.87
  -5  -7   3    0.93    0.77
  -5  -6   3   13.13    1.41
  -5  -5   3    5.20    0.85
  -5  -5   3    5.83    0.66
  -5  -4   3    6.25    0.80
  -5  -4   3    6.42    0.67
   5   3  -3   15.32    1.30
  -5  -3   3   14.27    1.29
  -5  -3   3   15.79    1.19
   5   2  -3  104.78    9.21
  -5  -2   3  133.52    8.54
  -5  -2   3  135.63    8.14
   5   1  -3   15.69    1.39
  -5  -1   3   18.07    1.28
  -5  -1   3   16.73    1.31
   5   0  -3   38.98    3.04
  -5   0   3   40.84    2.75
   5  -1  -3   18.71    1.37
  -5   1   3   13.57    1.22
  -5   1   3   14.79    1.23
   5  -2  -3  130.17    9.29
  -5   2   3  120.29    8.25
   5  -3  -3   14.14    1.30
  -5   3   3   12.67    1.26
   5  -4  -3    4.29    0.76
   5  -5  -3    4.90    0.86
   5  -6  -3   14.09    1.58
   5  -7  -3    1.60    0.82
   5  -8  -3   -0.02    0.85
  -6  -8   3    5.05    1.18
  -6  -7   3    6.15    1.14
  -6  -6   3   -0.85    0.60
  -6  -5   3    0.63    0.63
  -6  -5   3    0.75    0.48
  -6  -4   3   54.00    3.86
  -6  -4   3   51.86    3.61
  -6  -3   3   36.89    2.51
  -6  -3   3   33.92    2.65
   6   2  -3   17.54    1.74
  -6  -2   3   22.29    1.62
  -6  -2   3   19.56    1.50
   6   1  -3   33.19    2.40
  -6  -1   3   29.03    2.21
  -6  -1   3   28.39    2.16
   6   0  -3   24.31    1.95
  -6   0   3   24.38    1.81
   6  -1  -3   28.80    2.42
  -6   1   3   31.86    2.22
  -6   1   3   30.92    2.25
   6  -2  -3   19.84    1.74
  -6   2   3   19.84    1.60
   6  -3  -3   31.00    2.56
  -6   3   3   30.95    2.36
   6  -4  -3   57.36    4.59
  -6   4   3   59.61    4.17
   6  -5  -3    0.78    0.62
   6  -6  -3    0.36    0.72
   6  -7  -3    7.53    1.29
   6  -8  -3    2.97    1.09
  -7  -7   3    2.50    0.98
  -7  -6   3    1.82    0.83
  -7  -5   3    3.78    0.86
  -7  -5   3    4.64    0.72
  -7  -4   3   -0.18    0.47
  -7  -4   3    0.29    0.60
  -7  -3   3   13.85    1.24
  -7  -3   3   11.04    1.10
  -7  -2   3    9.41    0.95
  -7  -2   3    9.91    1.02
   7   1  -3   39.75    3.29
  -7  -1   3   44.17    3.07
  -7  -1   3   44.47    3.00
   7   0  -3    0.57    0.37
  -7   0   3    0.53    0.35
  -7   0   3    0.81    0.42
   7  -1  -3   47.17    3.39
  -7   1   3   40.53    3.07
  -7   1   3   41.35    3.06
   7  -2  -3    9.34    1.03
  -7   2   3    8.49    1.02
   7  -3  -3   12.51    1.30
  -7   3   3   11.21    1.25
   7  -4  -3    0.48    0.56
  -7   4   3    1.69    0.71
   7  -5  -3    4.06    0.93
   7  -6  -3    1.60    0.82
   7  -7  -3    0.43    0.83
  -8  -7   3    2.62    1.09
  -8  -6   3    0.94    0.82
  -8  -5   3    2.33    0.81
  -8  -5   3    2.11    0.68
  -8  -4   3   10.02    1.07
  -8  -4   3   10.49    1.20
  -8  -3   3    7.97    0.90
  -8  -3   3    6.82    0.94
  -8  -2   3    5.43    0.77
  -8  -2   3    4.79    0.72
  -8  -1   3   11.02    1.00
  -8  -1   3    9.08    1.04
   8   0  -3   25.33    2.21
  -8   0   3   27.08    2.09
  -8   0   3   28.85    2.04
   8  -1  -3   10.78    1.11
  -8   1   3    9.54    1.09
   8  -2  -3    3.52    0.70
  -8   2   3    3.19    0.78
   8  -3  -3    8.91    1.14
  -8   3   3    8.37    1.10
   8  -4  -3   10.60    1.34
  -8   4   3   11.34    1.38
   8  -5  -3    2.91    0.93
   8  -6  -3    1.85    0.91
   8  -7  -3    1.73    1.09
  -9  -6   3    3.75    1.06
  -9  -5   3    6.51    1.12
  -9  -4   3   -0.43    0.64
  -9  -4   3    0.06    0.56
  -9  -3   3    0.29    0.54
  -9  -3   3    0.10    0.61
  -9  -2   3    6.59    0.91
  -9  -2   3    7.05    0.90
  -9  -1   3    1.21    0.60
  -9   0   3    0.12    0.52
   9  -1  -3    1.20    0.59
  -9   1   3    0.96    0.62
   9  -2  -3    7.89    1.04
  -9   2   3    6.95    1.08
   9  -3  -3   -0.39    0.57
  -9   3   3   -0.66    0.58
   9  -4  -3    0.58    0.66
  -9   4   3   -0.99    0.67
   9  -5  -3    5.65    1.17
   9  -6  -3    2.74    1.11
 -10  -5   3    1.54    0.89
 -10  -4   3    1.71    0.74
 -10  -4   3   -0.20    0.69
 -10  -3   3    7.33    1.03
 -10  -3   3    6.53    1.00
 -10  -2   3    1.94    0.73
 -10  -1   3    2.36    0.75
 -10   0   3   -0.10    0.65
 -10   1   3    1.89    0.80
  10  -2  -3    1.54    0.75
 -10   2   3    3.68    0.95
  10  -3  -3    7.24    1.13
 -10   3   3    8.00    1.24
  10  -4  -3    0.28    0.71
 -10   4   3    1.15    0.92
  10  -5  -3    1.20    0.96
 -10   5   3    3.14    1.11
 -11  -4   3    0.94    0.76
 -11  -3   3    0.83    0.72
 -11  -2   3    3.03    0.86
 -11  -1   3    1.62    0.82
 -11   0   3    0.60    0.78
 -11   1   3    0.86    0.79
 -11   2   3    2.33    0.95
  11  -3  -3    0.51    0.80
 -11   3   3    0.87    0.92
  11  -4  -3    0.40    0.86
 -11   4   3    0.29    0.99
 -12  -2   3   -0.38    0.77
 -12  -1   3    1.40    0.85
 -12   0   3   -0.24    0.84
 -12   1   3    0.45    0.91
 -12   2   3   -0.46    0.85
 -12   1  -4    3.75    1.17
 -12   0  -4   -0.26    0.82
 -12  -1  -4    2.49    1.02
 -11   4  -4    4.13    1.31
 -11   4  -4    3.18    1.05
 -11   3  -4    1.88    1.07
 -11   2  -4    0.82    0.91
 -11   1  -4    0.78    0.80
 -11   0  -4    6.37    1.18
 -11  -1  -4    0.63    0.80
 -11  -2  -4    0.84    0.87
 -11  -3  -4    1.52    0.87
 -11  -4  -4    3.69    1.05
 -10   5  -4    0.55    1.01
 -10   5  -4    0.53    0.85
 -10   4  -4    1.77    0.99
 -10   4  -4    1.39    0.87
 -10   3  -4    2.22    0.96
 -10   3  -4    2.06    0.87
 -10   2  -4    8.85    1.28
 -10   2  -4    9.14    1.23
 -10   1  -4    0.46    0.71
 -10   0  -4    0.82    0.70
 -10  -1  -4    1.21    0.74
 -10  -2  -4    8.09    1.20
 -10  -3  -4    1.28    0.82
 -10  -4  -4    2.72    0.95
 -10  -5  -4    0.43    0.84
  -9   6  -4    1.34    0.95
  -9   5  -4    6.44    1.30
  -9   5  -4    5.36    1.21
  -9   4  -4    1.48    0.75
  -9   4  -4    2.58    0.96
  -9   3  -4    7.98    1.28
  -9   3  -4   13.20    1.47
  -9   2  -4    1.04    0.66
  -9   2  -4    2.58    0.80
  -9   1  -4   31.00    2.46
  -9   1  -4   30.61    2.63
  -9   0  -4    0.02    0.58
  -9  -1  -4   28.35    2.30
  -9  -2  -4    1.54    0.69
  -9  -3  -4    9.57    1.19
  -9  -4  -4    1.48    0.80
  -9  -5  -4    7.12    1.17
  -9  -6  -4    1.12    0.82
  -8   7  -4    1.63    1.08
  -8   6  -4    2.82    0.96
  -8   5  -4    2.08    0.94
  -8   5  -4    2.88    0.97
  -8   4  -4    1.04    0.68
  -8   4  -4    0.93    0.75
  -8   3  -4   14.29    1.40
  -8   3  -4   10.59    1.37
  -8   2  -4   14.05    1.47
  -8   2  -4   14.12    1.40
  -8   1  -4    6.70    0.90
  -8   1  -4    6.48    0.88
  -8   0  -4   -0.22    0.51
  -8  -1  -4    6.35    0.87
  -8  -2  -4   14.59    1.42
  -8  -3  -4   13.30    1.35
  -8  -4  -4   -0.61    0.61
  -8  -5  -4    1.76    0.86
  -8  -6  -4    1.82    0.88
  -8  -7  -4    1.20    0.93
  -7   7  -4    1.10    0.96
  -7   6  -4    2.98    1.01
  -7   5  -4   10.49    1.31
  -7   5  -4    8.12    1.30
  -7   4  -4   31.63    2.81
  -7   4  -4   32.27    2.55
  -7   3  -4   13.55    1.29
  -7   3  -4   10.84    1.31
  -7   2  -4    8.53    1.09
  -7   2  -4   10.09    1.06
  -7   1  -4    2.02    0.60
  -7   1  -4    2.80    0.58
  -7   0  -4   72.41    5.67
  -7   0  -4   79.33    5.16
  -7  -1  -4    1.88    0.55
  -7  -2  -4    6.36    0.85
  -7  -3  -4   10.55    1.16
  -7  -4  -4   30.23    2.40
  -7  -5  -4    7.27    1.12
  -7  -6  -4    1.65    0.89
  -7  -7  -4    0.67    0.88
  -6   8  -4    0.01    0.90
  -6   7  -4    5.77    1.25
  -6   6  -4    6.68    1.21
  -6   5  -4   13.38    1.42
  -6   5  -4   12.76    1.53
  -6   4  -4    5.43    0.97
  -6   4  -4    6.26    0.88
  -6   3  -4   50.20    3.97
  -6   3  -4   49.86    3.55
  -6   2  -4   13.02    1.28
  -6   2  -4   12.66    1.17
  -6   1  -4   40.06    2.76
  -6   1  -4   37.43    3.04
  -6   0  -4    0.51    0.33
  -6   0  -4    0.34    0.38
  -6  -1  -4   40.63    3.15
  -6  -1  -4   42.75    2.96
  -6  -2  -4    9.09    0.98
  -6  -3  -4   57.51    4.03
  -6  -4  -4    5.46    0.89
  -6  -5  -4   14.40    1.46
  -6  -6  -4    5.84    1.02
  -6  -7  -4    4.15    1.03
  -6  -8  -4    0.48    0.91
  -5   8  -4    1.88    0.96
  -5   7  -4    6.33    1.24
  -5   6  -4    1.08    0.70
  -5   5  -4   12.95    1.43
  -5   5  -4   10.01    1.21
  -5   4  -4   16.04    1.40
  -5   4  -4   15.88    1.61
  -5   3  -4   27.43    2.29
  -5   3  -4   26.29    2.07
  -5   2  -4    5.61    0.75
  -5   2  -4    4.94    0.63
  -5   1  -4   66.75    5.15
  -5   1  -4   69.96    4.59
  -5   0  -4  191.11   11.93
  -5   0  -4  176.03   13.39
  -5  -1  -4   67.68    4.97
  -5  -1  -4   65.86    4.52
  -5  -2  -4    5.44    0.71
  -5  -2  -4    5.39    0.53
  -5  -3  -4   27.33    2.07
  -5  -4  -4   16.29    1.48
  -5  -5  -4   15.56    1.55
  -5  -6  -4    2.46    0.87
  -5  -7  -4    6.21    1.18
  -5  -8  -4    1.17    0.98
  -4   8  -4    0.40    0.84
  -4   7  -4   -0.04    0.68
  -4   6  -4   34.29    2.99
  -4   5  -4    2.21    0.72
  -4   4  -4    5.50    0.92
  -4   4  -4    8.39    0.84
  -4   3  -4    9.08    0.90
  -4   3  -4    9.51    1.05
  -4   2  -4  215.62   15.56
  -4   2  -4  208.58   13.72
  -4   1  -4   13.96    1.18
  -4   1  -4   16.68    1.34
  -4   0  -4    0.40    0.25
  -4   0  -4    1.16    0.34
  -4  -1  -4   12.63    1.09
  -4  -1  -4   14.51    1.12
  -4  -2  -4  209.78   13.56
  -4  -2  -4  207.05   15.13
  -4  -3  -4   11.41    1.15
  -4  -3  -4   12.08    0.98
  -4  -4  -4    5.92    0.85
  -4  -5  -4    1.23    0.65
  -4  -6  -4   30.97    2.54
  -4  -7  -4   -0.52    0.74
  -4  -8  -4    1.38    0.86
  -3   9  -4    4.95    1.27
  -3   8  -4    3.94    1.06
  -3   7  -4   10.09    1.39
  -3   6  -4    4.23    0.86
  -3   5  -4   25.95    2.24
   3  -5   4   24.14    1.84
  -3   4  -4   65.77    5.73
  -3   4  -4   73.50    5.03
   3  -4   4   83.08    5.15
  -3   3  -4   72.41    5.44
  -3   3  -4   92.77    6.27
   3  -3   4   84.40    5.63
  -3   2  -4    0.34    0.20
  -3   2  -4    0.91    0.35
  -3   1  -4   61.68    3.99
  -3   1  -4   58.83    4.53
  -3   0  -4    8.08    0.77
  -3   0  -4    8.41    0.72
  -3  -1  -4   54.58    3.69
  -3  -1  -4   55.02    4.09
  -3  -2  -4    0.91    0.37
  -3  -2  -4    1.25    0.29
  -3  -3  -4   88.64    6.63
  -3  -3  -4   91.37    6.04
  -3  -4  -4   91.50    6.29
  -3  -4  -4   93.24    6.83
  -3  -5  -4   27.11    2.21
  -3  -6  -4    3.63    0.91
  -3  -7  -4    8.95    1.31
  -3  -8  -4    3.29    1.04
  -3  -9  -4    2.06    1.03
  -2   9  -4    4.49    1.18
  -2   8  -4    0.09    0.68
  -2   7  -4   11.58    1.44
  -2   6  -4    2.77    0.75
   2  -6   4    5.18    0.66
  -2   5  -4   40.31    3.25
   2  -5   4   39.55    2.85
  -2   4  -4    9.96    1.12
   2  -4   4   10.39    0.88
  -2   3  -4   62.95    4.81
  -2   3  -4   64.69    4.17
   2  -3   4   61.66    4.32
  -2   2  -4  109.20    8.17
  -2   2  -4  112.84    7.16
   2  -2   4  108.91    7.49
  -2   1  -4  210.41   15.36
  -2   0  -4   28.46    1.94
  -2   0  -4   28.30    2.21
  -2  -1  -4  213.60   13.94
  -2  -1  -4  217.53   15.73
  -2  -2  -4  113.01    7.45
  -2  -2  -4  112.67    8.30
  -2  -3  -4   64.53    4.74
  -2  -3  -4   62.83    4.38
  -2  -4  -4   11.26    1.20
  -2  -4  -4   12.67    1.08
  -2  -5  -4   38.86    3.10
  -2  -5  -4   44.05    3.09
  -2  -6  -4    5.02    0.97
  -2  -7  -4    8.50    1.29
  -2  -8  -4   -0.57    0.73
  -2  -9  -4    4.98    1.25
  -1   9  -4    0.45    0.87
  -1   8  -4    6.71    1.16
  -1   7  -4    4.29    0.90
   1  -7   4    2.52    0.71
  -1   6  -4    0.01    0.52
   1  -6   4    0.77    0.54
  -1   5  -4    2.59    0.64
   1  -5   4    2.84    0.50
  -1   4  -4  108.01    8.07
   1  -4   4  107.63    7.35
  -1   3  -4    3.36    0.54
   1  -3   4    4.34    0.46
  -1   2  -4   23.19    1.45
  -1   2  -4   19.87    1.74
   1  -2   4   20.32    1.55
  -1   1  -4  136.87    8.38
  -1   1  -4  132.34    9.56
   1  -1   4  120.46    8.81
  -1   0  -4  991.44   63.75
  -1   0  -4 1000.00   72.09
  -1  -1  -4  128.68    9.46
  -1  -1  -4  128.74    8.39
  -1  -2  -4   20.64    1.62
  -1  -2  -4   20.22    1.56
  -1  -3  -4    5.15    0.71
  -1  -3  -4    4.22    0.50
  -1  -4  -4  102.60    6.97
  -1  -4  -4  103.61    7.62
  -1  -5  -4    2.63    0.73
  -1  -5  -4    2.98    0.50
  -1  -6  -4    1.09    0.45
  -1  -6  -4    1.00    0.66
  -1  -7  -4    2.69    0.83
  -1  -8  -4    6.26    1.20
  -1  -9  -4   -0.04    0.91
   0   8  -4    1.66    0.76
   0  -8   4    3.08    0.89
   0   7  -4    9.34    1.18
   0  -7   4    8.08    1.07
   0   6  -4   15.07    1.62
   0  -6   4   19.34    1.52
   0   5  -4   46.46    3.65
   0  -5   4   45.86    3.32
   0  -5   4   45.80    3.12
   0   4  -4    3.72    0.63
   0  -4   4    3.67    0.55
   0  -4   4    4.49    0.44
   0   3  -4   47.45    3.69
   0  -3   4   48.66    3.36
   0   2  -4  151.94   11.14
   0  -2   4  151.57   10.25
   0   1  -4  117.30    8.84
   0   1  -4  121.69    7.70
   0   0  -4   19.88    1.65
   0  -1  -4   85.36    6.30
   0  -2  -4  157.92   11.53
   0  -3  -4   49.56    3.73
   0  -4  -4    3.93    0.53
   0  -5  -4   46.40    3.59
   0  -6  -4   14.38    1.38
   0  -7  -4    5.85    1.12
   0  -7  -4    8.86    1.02
   0  -8  -4    2.44    0.87
   0  -9  -4   -0.18    0.84
  -1  -9   4    3.02    0.99
  -1  -8   4    3.14    0.90
   1   7  -4    7.62    1.04
  -1  -7   4    6.80    1.02
   1   6  -4    3.68    0.71
  -1  -6   4    4.08    0.73
   1   5  -4   40.56    3.28
  -1  -5   4   43.50    2.81
  -1  -5   4   39.62    3.03
   1   4  -4    8.00    0.89
  -1  -4   4    8.73    0.86
  -1  -4   4    8.58    0.67
   1   3  -4  151.11   11.02
  -1  -3   4  151.36    9.63
  -1  -3   4  146.78   10.16
   1   2  -4    5.98    0.66
  -1  -2   4    6.02    0.57
   1   1  -4  120.12    9.42
  -1  -1   4  134.01    8.63
   1   0  -4   10.35    0.91
  -1   0   4    8.79    0.82
   1  -1  -4  142.93   10.46
   1  -2  -4    6.11    0.61
   1  -3  -4  134.85    9.90
   1  -4  -4    8.00    0.85
   1  -5  -4   40.03    3.16
   1  -6  -4    4.88    0.78
   1  -7  -4    5.94    0.91
   1  -8  -4    1.62    0.76
   1  -9  -4    2.63    1.07
  -2  -9   4    0.32    0.91
  -2  -8   4    4.70    1.04
  -2  -7   4   10.77    1.28
   2   6  -4   38.74    3.09
  -2  -6   4   37.37    2.91
   2   5  -4    7.38    0.95
  -2  -5   4    9.70    1.00
  -2  -5   4    9.90    0.79
   2   4  -4   10.18    1.07
  -2  -4   4   11.76    0.86
  -2  -4   4   12.34    1.05
   2   3  -4   33.89    2.36
  -2  -3   4   28.48    2.17
  -2  -3   4   27.71    1.96
   2   2  -4  507.58   37.87
  -2  -2   4  540.47   33.39
  -2  -2   4  515.34   34.96
   2   1  -4   41.34    3.26
  -2  -1   4   42.97    2.74
  -2  -1   4   40.25    2.90
   2   0  -4   61.03    4.69
  -2   0   4   63.02    4.13
  -2   0   4   64.42    4.34
   2  -1  -4   39.98    3.03
   2  -2  -4  525.73   38.12
   2  -3  -4   26.03    2.09
   2  -4  -4    8.79    0.92
   2  -5  -4   10.97    1.17
   2  -6  -4   39.45    3.23
   2  -7  -4   13.19    1.48
   2  -8  -4    4.82    1.00
  -3  -9   4    0.24    0.95
  -3  -8   4    3.51    1.01
  -3  -7   4    1.72    0.80
  -3  -6   4    0.40    0.63
   3   5  -4    2.78    0.56
  -3  -5   4    3.04    0.70
  -3  -5   4    3.91    0.48
   3   4  -4   72.65    5.25
  -3  -4   4   71.23    4.58
  -3  -4   4   64.47    4.90
   3   3  -4   10.88    1.24
  -3  -3   4   17.48    1.09
  -3  -3   4   16.66    1.26
   3   2  -4   19.45    1.93
  -3  -2   4   25.55    1.78
  -3  -2   4   25.11    1.62
   3   1  -4    2.59    0.48
  -3  -1   4    2.43    0.38
  -3  -1   4    2.05    0.28
   3   0  -4  104.77    7.77
  -3   0   4  106.47    7.17
  -3   0   4  105.18    6.87
   3  -1  -4    2.78    0.39
  -3   1   4    1.96    0.37
   3  -2  -4   23.36    1.88
   3  -3  -4   16.04    1.40
   3  -4  -4   71.02    5.40
   3  -5  -4    3.76    0.69
   3  -6  -4    0.83    0.56
   3  -7  -4    1.90    0.80
   3  -8  -4    2.87    0.96
   3  -9  -4    1.32    0.93
  -4  -8   4    0.01    0.86
  -4  -7   4    7.85    1.14
  -4  -6   4    3.35    0.82
  -4  -5   4   34.50    2.68
   4   4  -4   -0.15    0.31
  -4  -4   4    0.37    0.30
  -4  -4   4    0.32    0.49
   4   3  -4   53.67    3.60
  -4  -3   4   45.05    3.10
  -4  -3   4   40.82    3.32
   4   2  -4   12.21    1.31
  -4  -2   4   14.51    1.04
  -4  -2   4   14.17    1.14
   4   1  -4  147.30   10.65
  -4  -1   4  144.39    9.80
  -4  -1   4  142.55    9.37
   4   0  -4    3.25    0.49
  -4   0   4    3.92    0.46
  -4   0   4    3.35    0.43
   4  -1  -4  140.95   10.28
  -4   1   4  138.95    9.13
   4  -2  -4   11.81    1.15
  -4   2   4   15.00    1.16
   4  -3  -4   44.86    3.50
   4  -4  -4    0.03    0.40
   4  -5  -4   34.59    2.89
   4  -6  -4    1.95    0.74
   4  -7  -4    9.26    1.34
   4  -8  -4    0.00    0.80
  -5  -8   4    4.65    1.09
  -5  -7   4    0.66    0.81
  -5  -6   4   -0.36    0.67
  -5  -5   4    6.55    0.96
  -5  -4   4   33.95    2.67
  -5  -4   4   35.79    2.45
   5   3  -4    2.63    0.52
  -5  -3   4    1.55    0.51
  -5  -3   4    1.81    0.41
   5   2  -4    2.57    0.58
  -5  -2   4    1.49    0.45
  -5  -2   4    1.76    0.36
   5   1  -4   16.98    1.58
  -5  -1   4   20.18    1.47
  -5  -1   4   20.41    1.43
   5   0  -4   85.77    6.48
  -5   0   4   88.66    5.97
  -5   0   4   86.94    5.77
   5  -1  -4   19.25    1.71
  -5   1   4   22.35    1.64
  -5   1   4   20.53    1.57
   5  -2  -4    1.13    0.43
  -5   2   4    2.42    0.51
   5  -3  -4    1.86    0.54
  -5   3   4    0.99    0.48
   5  -4  -4   34.40    2.84
   5  -5  -4    8.71    1.12
   5  -6  -4   -0.71    0.59
   5  -7  -4    1.30    0.88
   5  -8  -4    3.11    1.10
  -6  -8   4   -0.06    0.93
  -6  -7   4    1.17    0.92
  -6  -6   4   13.31    1.48
  -6  -5   4   14.51    1.47
  -6  -4   4    0.90    0.59
  -6  -4   4    0.66    0.41
  -6  -3   4    0.21    0.50
  -6  -3   4   -0.07    0.34
   6   2  -4   79.90    6.26
  -6  -2   4   82.91    5.71
  -6  -2   4   83.00    5.46
  -6  -1   4    3.91    0.55
  -6  -1   4    4.24    0.57
   6   0  -4    1.46    0.43
  -6   0   4    1.04    0.42
  -6   0   4    0.75    0.33
   6  -1  -4    4.16    0.56
  -6   1   4    2.27    0.53
  -6   1   4    2.39    0.53
   6  -2  -4   66.41    5.58
  -6   2   4   83.68    5.07
   6  -3  -4    0.19    0.48
  -6   3   4    0.97    0.55
   6  -4  -4    0.97    0.60
   6  -5  -4   12.35    1.43
   6  -6  -4   12.37    1.54
   6  -7  -4    0.77    0.91
   6  -8  -4   -0.04    0.87
  -7  -7   4    2.16    1.02
  -7  -6   4    2.23    0.89
  -7  -5   4   13.82    1.47
  -7  -4   4    5.28    0.71
  -7  -4   4    4.64    0.86
  -7  -3   4   36.08    2.62
  -7  -3   4   32.09    2.43
  -7  -2   4   13.36    1.17
  -7  -2   4   12.45    1.20
   7   1  -4   48.09    3.46
  -7  -1   4   41.68    3.16
  -7  -1   4   42.61    3.09
   7   0  -4   28.95    2.32
  -7   0   4   27.57    2.13
   7  -1  -4   42.96    3.44
  -7   1   4   45.01    3.15
  -7   1   4   43.77    3.17
   7  -2  -4   14.14    1.39
  -7   2   4   14.16    1.34
   7  -3  -4   32.99    2.66
  -7   3   4   29.37    2.43
   7  -4  -4    3.66    0.84
  -7   4   4    4.46    0.88
   7  -5  -4   11.97    1.44
   7  -6  -4    2.87    0.99
   7  -7  -4    3.96    1.11
  -8  -7   4    3.34    1.06
  -8  -6   4    1.55    0.91
  -8  -5   4    4.58    0.99
  -8  -4   4    1.54    0.71
  -8  -4   4    0.80    0.55
  -8  -3   4    1.12    0.54
  -8  -3   4    1.92    0.65
  -8  -2   4    0.45    0.48
  -8  -2   4    0.03    0.50
   8   1  -4   15.03    1.27
  -8  -1   4    9.29    1.10
  -8  -1   4   11.77    1.12
   8   0  -4    2.59    0.60
  -8   0   4    1.84    0.55
  -8   0   4    2.52    0.63
   8  -1  -4   10.19    1.21
  -8   1   4   14.81    1.30
   8  -2  -4    0.16    0.52
  -8   2   4    0.72    0.59
   8  -3  -4    1.12    0.61
  -8   3   4    0.24    0.61
   8  -4  -4    0.98    0.69
  -8   4   4    2.56    0.83
   8  -5  -4    4.53    1.03
   8  -6  -4    0.90    0.83
   8  -7  -4    4.38    1.22
  -9  -6   4   -1.48    0.78
  -9  -5   4    1.76    0.86
  -9  -4   4    4.93    0.87
  -9  -4   4    7.28    1.05
  -9  -3   4    0.84    0.66
  -9  -3   4    2.12    0.66
  -9  -2   4    2.57    0.71
  -9  -2   4    2.38    0.68
  -9  -1   4    0.57    0.58
   9   0  -4   35.12    2.85
  -9   0   4   33.57    2.64
   9  -1  -4    0.55    0.55
  -9   1   4    1.72    0.71
   9  -2  -4    1.68    0.68
  -9   2   4    1.17    0.74
   9  -3  -4    2.01    0.76
  -9   3   4    0.83    0.73
   9  -4  -4    4.92    1.00
  -9   4   4    6.29    1.21
   9  -5  -4    0.73    0.80
   9  -6  -4   -0.27    0.80
 -10  -5   4    1.43    0.87
 -10  -4   4    0.44    0.69
 -10  -4   4   -0.21    0.75
 -10  -3   4    1.24    0.65
 -10  -3   4    2.80    0.77
 -10  -2   4    1.90    0.75
 -10  -1   4    6.12    1.00
 -10   0   4    1.27    0.76
  10  -1  -4    6.19    0.97
 -10   1   4    3.49    0.94
  10  -2  -4    1.93    0.78
 -10   2   4    2.07    0.88
  10  -3  -4    2.70    0.86
 -10   3   4    2.56    0.91
  10  -4  -4    0.37    0.77
 -10   4   4    1.59    1.00
  10  -5  -4    0.98    0.88
 -11  -3   4    2.14    0.83
 -11  -2   4    0.75    0.69
 -11  -1   4    0.64    0.79
 -11   0   4    2.58    0.91
 -11   1   4    1.85    0.85
 -11   2   4    1.13    0.86
  11  -3  -4    2.05    0.92
 -11   3   4    2.32    1.00
  11  -4  -4    0.64    0.87
 -11   4   4    0.92    1.08
 -12  -2   4    1.99    0.93
 -12  -1   4    1.97    0.92
 -12   0   4    0.41    0.86
 -12   1   4    1.47    0.97
 -12   2   4    3.29    1.07
 -12   1  -5    3.23    1.13
 -12   0  -5    0.99    0.97
 -12  -1  -5    3.26    1.06
 -11   3  -5    2.59    1.21
 -11   2  -5    3.05    1.07
 -11   1  -5    2.29    0.98
 -11   0  -5    2.13    0.87
 -11  -1  -5    3.63    0.97
 -11  -2  -5    1.71    0.88
 -11  -3  -5    0.71    0.91
 -10   5  -5    0.86    1.15
 -10   5  -5    0.85    0.96
 -10   4  -5    7.20    1.36
 -10   4  -5   11.17    1.55
 -10   3  -5    2.48    0.92
 -10   3  -5    3.39    1.04
 -10   2  -5    4.73    1.01
 -10   1  -5    0.03    0.72
 -10   0  -5   14.05    1.51
 -10  -1  -5    0.53    0.69
 -10  -2  -5    3.27    0.90
 -10  -3  -5    1.94    0.85
 -10  -4  -5    7.05    1.17
 -10  -5  -5   -0.17    0.78
  -9   6  -5    2.91    1.13
  -9   5  -5    5.39    1.23
  -9   5  -5    4.91    1.22
  -9   4  -5    4.96    1.08
  -9   4  -5    3.17    1.00
  -9   3  -5    6.85    1.18
  -9   3  -5    6.80    1.15
  -9   2  -5    2.00    0.75
  -9   2  -5    0.63    0.73
  -9   1  -5   11.91    1.32
  -9   0  -5    6.21    0.99
  -9  -1  -5    9.67    1.19
  -9  -2  -5    2.29    0.74
  -9  -3  -5    4.51    0.96
  -9  -4  -5    2.54    0.83
  -9  -5  -5    3.45    1.03
  -9  -6  -5    3.21    1.11
  -8   6  -5    1.90    1.01
  -8   5  -5    3.76    1.01
  -8   5  -5    2.52    0.91
  -8   4  -5    0.29    0.64
  -8   4  -5    0.66    0.75
  -8   3  -5   19.19    1.97
  -8   3  -5   21.13    1.87
  -8   2  -5    7.86    1.08
  -8   2  -5    8.14    1.07
  -8   1  -5   14.05    1.34
  -8   1  -5   12.82    1.38
  -8   0  -5    9.23    1.11
  -8  -1  -5   10.87    1.20
  -8  -2  -5    6.61    0.96
  -8  -3  -5   18.72    1.71
  -8  -4  -5    1.34    0.72
  -8  -5  -5    3.74    0.99
  -8  -6  -5    1.00    0.91
  -7   7  -5    0.23    0.84
  -7   6  -5    8.86    1.42
  -7   5  -5    1.75    0.84
  -7   5  -5    2.21    0.79
  -7   4  -5    1.26    0.68
  -7   4  -5   -0.11    0.59
  -7   3  -5    4.40    0.81
  -7   3  -5    4.21    0.83
  -7   2  -5   58.75    4.09
  -7   2  -5   58.21    4.57
  -7   1  -5    6.28    0.85
  -7   1  -5    7.32    0.87
  -7   0  -5    1.92    0.58
  -7   0  -5    1.53    0.47
  -7  -1  -5    8.43    0.96
  -7  -2  -5   59.86    4.20
  -7  -3  -5    3.01    0.78
  -7  -4  -5    0.47    0.74
  -7  -5  -5    4.32    0.97
  -7  -6  -5    9.83    1.41
  -7  -7  -5    1.63    0.99
  -6   7  -5    1.35    0.92
  -6   6  -5    3.54    1.03
  -6   5  -5    9.02    1.18
  -6   5  -5   10.11    1.36
  -6   4  -5   26.06    2.42
  -6   4  -5   27.61    2.18
  -6   3  -5   15.83    1.60
  -6   3  -5   15.77    1.43
  -6   2  -5   30.25    2.02
  -6   2  -5   22.33    2.18
  -6   1  -5   14.80    1.25
  -6   1  -5   12.49    1.29
  -6   0  -5   42.46    3.17
  -6   0  -5   38.30    2.89
  -6  -1  -5   10.98    1.06
  -6  -1  -5   10.68    1.01
  -6  -2  -5   27.02    2.09
  -6  -3  -5   20.48    1.73
  -6  -4  -5   27.15    2.19
  -6  -5  -5   12.44    1.40
  -6  -6  -5    4.41    1.01
  -6  -7  -5    1.83    0.91
  -5   8  -5    0.07    0.82
  -5   7  -5    5.67    1.16
  -5   6  -5    0.65    0.68
  -5   5  -5   18.00    1.76
  -5   5  -5   25.86    2.12
  -5   4  -5    8.79    0.95
  -5   4  -5    6.63    1.03
  -5   3  -5   30.67    2.52
  -5   3  -5   28.97    2.21
  -5   2  -5   20.06    1.61
  -5   2  -5   21.72    1.83
  -5   1  -5   52.16    3.40
  -5   1  -5   46.39    3.79
  -5   0  -5   65.71    4.23
  -5   0  -5   59.45    4.70
  -5  -1  -5   48.40    3.41
  -5  -1  -5   49.45    3.70
  -5  -2  -5   18.47    1.63
  -5  -2  -5   21.28    1.62
  -5  -3  -5   34.42    2.57
  -5  -4  -5   11.72    1.29
  -5  -5  -5   26.04    2.25
  -5  -6  -5    2.72    0.98
  -5  -7  -5    8.02    1.39
  -5  -8  -5   -0.24    0.90
  -4   8  -5    3.09    1.08
  -4   7  -5    3.50    0.99
  -4   6  -5    0.03    0.64
  -4   5  -5    1.93    0.68
  -4   4  -5   50.53    3.83
  -4   4  -5   44.57    3.29
  -4   3  -5    9.14    0.84
  -4   2  -5    5.55    0.60
  -4   2  -5    5.04    0.73
  -4   1  -5    6.55    0.78
  -4   1  -5    8.43    0.73
  -4   0  -5  370.65   27.12
  -4   0  -5  375.48   24.04
  -4  -1  -5    8.94    0.87
  -4  -1  -5    8.77    0.85
  -4  -2  -5    5.47    0.57
  -4  -2  -5    4.44    0.67
  -4  -3  -5   17.96    1.70
  -4  -3  -5   23.19    1.73
  -4  -4  -5   49.02    3.55
  -4  -5  -5    2.78    0.79
  -4  -6  -5    1.09    0.80
  -4  -7  -5    4.59    1.10
  -4  -8  -5    4.39    1.18
  -3   8  -5    1.03    0.86
  -3   7  -5    4.35    1.03
  -3   6  -5   16.69    1.75
  -3   5  -5    7.63    1.07
   3  -5   5    7.37    0.75
  -3   4  -5   15.74    1.30
  -3   4  -5   15.29    1.57
   3  -4   5   17.20    1.29
  -3   3  -5   33.51    2.82
  -3   3  -5   32.67    2.41
   3  -3   5   37.43    2.50
  -3   2  -5  102.59    7.22
  -3   2  -5  120.86    8.27
  -3   1  -5   26.66    1.88
  -3   1  -5   26.94    2.16
  -3   0  -5   22.80    1.63
  -3   0  -5   22.14    1.81
  -3  -1  -5   23.80    1.74
  -3  -1  -5   23.56    1.90
  -3  -2  -5  118.56    7.93
  -3  -2  -5  121.15    8.84
  -3  -3  -5   43.02    3.30
  -3  -3  -5   42.20    3.08
  -3  -4  -5   18.29    1.55
  -3  -4  -5   18.89    1.64
  -3  -5  -5    8.21    1.15
  -3  -6  -5   17.63    1.82
  -3  -7  -5    5.82    1.16
  -3  -8  -5    2.70    1.05
  -2   9  -5    1.64    0.96
  -2   8  -5   -0.32    0.70
  -2   7  -5   10.84    1.41
  -2   6  -5    8.12    1.09
   2  -6   5    5.03    0.74
  -2   5  -5   44.09    3.64
   2  -5   5   45.57    3.21
  -2   4  -5   11.28    1.20
   2  -4   5   11.22    0.96
  -2   3  -5  168.18   10.97
  -2   3  -5  170.05   12.52
   2  -3   5  170.89   11.47
  -2   2  -5   24.51    1.91
  -2   2  -5   24.70    1.57
   2  -2   5   18.82    1.67
  -2   1  -5   54.30    3.54
  -2   1  -5   52.63    4.06
  -2   0  -5   96.45    6.28
  -2   0  -5   95.25    7.12
  -2  -1  -5   48.35    3.72
  -2  -1  -5   48.94    3.31
  -2  -2  -5   21.80    1.79
  -2  -2  -5   21.03    1.66
  -2  -3  -5  177.76   12.73
  -2  -3  -5  169.15   11.44
  -2  -4  -5   12.20    1.29
  -2  -4  -5   12.49    1.12
  -2  -5  -5   45.93    3.47
  -2  -5  -5   47.17    3.60
  -2  -6  -5    5.34    1.02
  -2  -7  -5   12.52    1.55
  -2  -8  -5   -0.35    0.82
  -2  -9  -5    3.90    1.24
  -1   9  -5    1.64    0.97
  -1   8  -5    1.56    0.83
  -1   7  -5    4.82    0.99
   1  -7   5    5.93    0.88
  -1   6  -5   16.63    1.62
   1  -6   5   14.16    1.34
  -1   5  -5   13.58    1.46
   1  -5   5   15.28    1.25
  -1   4  -5    5.59    0.80
   1  -4   5    5.57    0.62
  -1   3  -5   39.02    3.34
   1  -3   5   45.96    3.02
  -1   2  -5  159.74   12.77
  -1   2  -5  181.66   11.19
   1  -2   5  179.38   11.77
  -1   1  -5  118.68    8.95
  -1   1  -5  122.96    7.82
  -1   0  -5    0.35    0.28
  -1   0  -5    0.27    0.21
  -1  -1  -5  111.86    8.19
  -1  -1  -5  108.82    7.24
  -1  -2  -5  192.57   12.34
  -1  -2  -5  185.95   13.81
  -1  -3  -5   48.59    3.62
  -1  -3  -5   45.88    3.37
  -1  -4  -5    6.62    0.93
  -1  -4  -5    6.54    0.74
  -1  -5  -5   14.91    1.49
  -1  -5  -5   14.34    1.31
  -1  -6  -5   13.15    1.28
  -1  -6  -5   13.32    1.52
  -1  -7  -5    6.31    1.14
  -1  -8  -5    2.25    0.99
  -1  -9  -5    0.19    0.92
   0   8  -5    9.06    1.30
   0  -8   5    6.72    1.08
   0   7  -5    1.97    0.73
   0  -7   5    1.65    0.67
   0   6  -5    6.56    0.95
   0  -6   5    4.95    0.79
   0   5  -5   26.47    2.49
   0  -5   5   32.98    2.27
   0   4  -5   75.34    5.74
   0  -4   5   77.34    4.90
   0  -4   5   73.25    5.23
   0   3  -5   22.02    1.85
   0  -3   5   21.27    1.62
   0   2  -5   13.06    1.38
   0  -2   5   18.25    1.24
   0   1  -5  159.07   12.17
   0   1  -5  167.30   10.63
   0  -1   5  168.51   11.19
   0   0  -5  301.70   22.02
   0  -1  -5  173.73   12.73
   0  -2  -5   19.26    1.58
   0  -3  -5   24.30    1.95
   0  -4  -5   75.67    5.67
   0  -5  -5   30.94    2.50
   0  -6  -5    6.10    0.83
   0  -7  -5    1.63    0.63
   0  -7  -5    1.32    0.84
   0  -8  -5    4.82    1.17
   0  -9  -5    1.67    0.99
  -1  -9   5   -0.34    0.85
  -1  -8   5    1.78    0.82
   1   7  -5    9.88    1.28
  -1  -7   5   11.57    1.25
   1   6  -5    2.57    0.65
  -1  -6   5    1.86    0.65
   1   5  -5   25.76    2.44
  -1  -5   5   33.39    2.28
  -1  -4   5   21.49    1.73
  -1  -4   5   22.79    1.50
   1   3  -5   99.59    7.08
  -1  -3   5   90.41    6.48
   1   2  -5   14.72    1.42
  -1  -2   5   16.33    1.22
   1   1  -5  126.11    9.89
  -1  -1   5  139.58    9.05
   1   0  -5   10.93    1.08
   1  -1  -5  142.00   10.42
   1  -2  -5   15.85    1.34
   1  -3  -5   90.87    6.75
   1  -4  -5   22.50    1.87
   1  -5  -5   30.56    2.49
   1  -6  -5    2.22    0.62
   1  -7  -5   11.61    1.31
   1  -8  -5    2.06    0.78
   1  -9  -5    0.36    0.91
  -2  -9   5    2.97    1.03
  -2  -8   5    5.29    1.06
  -2  -7   5    3.10    0.86
   2   6  -5    0.82    0.48
  -2  -6   5    1.12    0.65
   2   5  -5   17.29    1.66
  -2  -5   5   19.89    1.61
   2   4  -5   72.99    5.45
  -2  -4   5   68.35    5.02
  -2  -4   5   73.34    4.67
   2   3  -5   18.87    1.75
  -2  -3   5   21.47    1.38
  -2  -3   5   20.32    1.60
   2   2  -5   21.40    2.00
  -2  -2   5   24.02    1.56
  -2  -2   5   23.83    1.74
   2   1  -5   88.80    6.47
  -2  -1   5   85.50    5.55
  -2  -1   5   83.04    5.84
   2   0  -5  263.64   19.34
  -2   0   5  266.43   17.87
   2  -1  -5   88.83    6.60
   2  -2  -5   25.10    2.01
   2  -3  -5   19.52    1.64
   2  -4  -5   66.19    5.03
   2  -5  -5   14.25    1.38
   2  -6  -5    0.46    0.56
   2  -7  -5    2.89    0.79
   2  -8  -5    7.88    1.20
  -3  -8   5    2.11    0.96
  -3  -7   5    3.27    0.89
  -3  -6   5   19.66    1.79
  -3  -5   5    2.75    0.67
   3   4  -5    4.49    0.69
  -3  -4   5    5.61    0.77
  -3  -4   5    6.79    0.54
   3   3  -5   16.62    1.57
  -3  -3   5   19.35    1.25
  -3  -3   5   16.29    1.44
   3   2  -5  158.75   12.89
  -3  -2   5  178.12   11.84
  -3  -2   5  184.26   11.25
   3   1  -5   66.21    4.60
  -3  -1   5   58.64    3.91
  -3  -1   5   55.56    4.11
   3   0  -5   15.32    1.28
  -3   0   5   14.07    1.17
  -3   0   5   14.13    1.09
   3  -1  -5   58.35    4.41
   3  -2  -5  175.86   12.90
   3  -3  -5   16.80    1.48
   3  -4  -5    6.13    0.78
   3  -5  -5    2.20    0.60
   3  -6  -5   16.45    1.66
   3  -7  -5    3.75    0.88
   3  -8  -5    1.99    0.88
  -4  -8   5    1.35    0.93
  -4  -7   5    4.79    1.03
  -4  -6   5    7.47    1.09
  -4  -5   5   11.18    1.20
   4   4  -5   16.72    1.34
  -4  -4   5   13.48    1.07
  -4  -4   5   12.02    1.26
   4   3  -5   23.65    2.49
  -4  -3   5   34.28    2.35
  -4  -3   5   33.93    2.12
   4   2  -5    5.59    0.73
  -4  -2   5    2.38    0.36
  -4  -2   5    1.61    0.45
   4   1  -5   70.35    4.99
  -4  -1   5   61.25    4.50
  -4  -1   5   64.90    4.31
   4   0  -5    0.50    0.31
  -4   0   5    0.03    0.30
  -4   0   5   -0.05    0.25
   4  -1  -5   67.43    4.99
  -4   1   5   64.83    4.44
   4  -2  -5    1.41    0.40
   4  -3  -5   28.33    2.33
   4  -4  -5   13.89    1.35
   4  -5  -5   12.23    1.34
   4  -6  -5    8.53    1.18
   4  -7  -5    2.26    0.84
   4  -8  -5    0.75    0.85
  -5  -8   5    0.57    0.95
  -5  -7   5    8.45    1.29
  -5  -6   5   11.56    1.34
  -5  -5   5   13.76    1.41
  -5  -4   5    6.99    0.95
  -5  -4   5    7.97    0.74
   5   3  -5   30.19    2.30
  -5  -3   5   24.50    2.04
  -5  -3   5   25.34    1.87
  -5  -2   5   40.05    2.97
  -5  -2   5   41.86    2.80
   5   1  -5   14.24    1.21
  -5  -1   5   11.23    1.03
  -5  -1   5   11.10    0.99
   5   0  -5   12.28    1.20
  -5   0   5   13.48    1.11
  -5   0   5   13.36    1.09
   5  -1  -5   10.82    1.13
  -5   1   5   13.31    1.05
   5  -2  -5   40.29    3.07
  -5   2   5   36.86    2.77
   5  -3  -5   24.41    2.09
   5  -4  -5    6.22    0.88
   5  -5  -5   11.44    1.30
   5  -6  -5   11.29    1.41
   5  -7  -5    8.32    1.30
   5  -8  -5    0.14    0.86
  -6  -8   5    1.54    1.03
  -6  -7   5    1.13    0.91
  -6  -6   5   -0.22    0.76
  -6  -5   5    2.36    0.74
  -6  -4   5   21.93    1.68
  -6  -4   5   23.08    1.88
  -6  -3   5    0.39    0.38
  -6  -3   5    0.44    0.52
   6   2  -5    4.80    0.88
  -6  -2   5    6.15    0.66
  -6  -2   5    5.27    0.71
   6   1  -5    6.40    0.82
  -6  -1   5    6.75    0.74
  -6  -1   5    7.04    0.78
   6   0  -5   88.58    6.73
  -6   0   5   90.53    6.18
  -6   0   5   89.89    5.99
   6  -1  -5    6.61    0.81
  -6   1   5    6.05    0.78
  -6   1   5    7.16    0.85
   6  -2  -5    5.40    0.76
  -6   2   5    5.60    0.81
   6  -3  -5    0.04    0.46
  -6   3   5    1.25    0.60
   6  -4  -5   20.29    1.90
   6  -5  -5    2.25    0.78
   6  -6  -5    1.47    0.82
   6  -7  -5    0.95    0.84
   6  -8  -5    2.03    0.98
  -7  -7   5    2.63    1.03
  -7  -6   5    2.69    0.92
  -7  -5   5    7.38    1.09
  -7  -4   5   13.80    1.20
  -7  -4   5   13.03    1.37
  -7  -3   5   16.10    1.32
  -7  -3   5   13.80    1.38
   7   2  -5   12.11    1.40
  -7  -2   5   12.24    1.12
  -7  -2   5   12.82    1.18
  -7  -1   5   26.76    2.07
  -7  -1   5   28.71    2.12
   7   0  -5    4.90    0.75
  -7   0   5    4.23    0.69
  -7   0   5    4.31    0.63
   7  -1  -5   27.68    2.25
  -7   1   5   25.20    2.03
  -7   1   5   26.23    2.10
   7  -2  -5   11.72    1.17
  -7   2   5    8.17    1.08
   7  -3  -5   13.79    1.47
  -7   3   5   15.54    1.49
   7  -4  -5   11.11    1.30
   7  -5  -5    5.52    1.02
   7  -6  -5    1.51    0.86
   7  -7  -5    1.84    0.98
  -8  -6   5    0.83    0.86
  -8  -5   5    6.18    1.06
  -8  -4   5    3.05    0.81
  -8  -3   5   16.11    1.47
  -8  -3   5   13.86    1.31
  -8  -2   5    7.23    0.91
  -8  -2   5    7.92    0.91
   8   1  -5    1.19    0.43
  -8  -1   5    1.03    0.49
  -8  -1   5    0.76    0.54
   8   0  -5    6.17    0.82
  -8   0   5    3.31    0.58
  -8   0   5    7.32    0.89
   8  -1  -5    0.57    0.53
  -8   1   5    2.46    0.71
   8  -2  -5    6.18    0.91
  -8   2   5    6.97    0.97
   8  -3  -5   12.93    1.52
  -8   3   5   17.95    1.64
   8  -4  -5    3.14    0.83
   8  -5  -5    5.81    1.13
   8  -6  -5   -0.16    0.84
  -9  -6   5    2.49    1.00
  -9  -5   5    0.30    0.82
  -9  -4   5    0.41    0.69
  -9  -3   5    0.29    0.57
  -9  -3   5    1.33    0.68
  -9  -2   5   15.33    1.42
  -9  -2   5   14.25    1.39
  -9  -1   5    0.98    0.66
  -9  -1   5    3.10    0.68
   9   0  -5    1.17    0.65
  -9   0   5    0.33    0.61
   9  -1  -5    1.46    0.66
  -9   1   5    1.64    0.70
   9  -2  -5   13.46    1.50
  -9   2   5   14.06    1.48
   9  -3  -5    0.87    0.67
  -9   3   5   -0.01    0.71
   9  -4  -5   -0.15    0.70
  -9   4   5    1.48    0.85
   9  -5  -5    0.77    0.85
   9  -6  -5    2.60    1.09
 -10  -5   5    0.32    0.83
 -10  -4   5    1.03    0.80
 -10  -3   5    0.12    0.68
 -10  -3   5    0.97    0.71
 -10  -2   5    0.48    0.66
 -10  -1   5    2.00    0.78
 -10   0   5    6.55    1.09
  10  -1  -5    2.25    0.82
 -10   1   5    1.88    0.87
  10  -2  -5    0.43    0.68
 -10   2   5    0.84    0.76
  10  -3  -5    0.51    0.75
 -10   3   5    1.42    0.88
  10  -4  -5    2.29    0.94
 -10   4   5    1.22    0.91
  10  -5  -5    1.01    0.94
 -11  -3   5    2.90    0.88
 -11  -2   5    1.45    0.85
 -11  -1   5   -0.55    0.77
 -11   0   5   -0.67    0.76
 -11   1   5    1.52    0.88
 -11   2   5    1.93    0.95
  11  -3  -5    3.33    1.00
 -11   3   5    2.07    0.99
  11  -4  -5    0.82    0.96
 -12  -1   5   -0.72    0.83
 -12   0   5    1.13    0.92
 -12   1   5    0.03    0.90
 -11   3  -6    5.76    1.46
 -11   2  -6   -0.47    0.88
 -11   1  -6    5.24    1.15
 -11   0  -6    2.59    0.96
 -11  -1  -6    3.43    1.01
 -11  -2  -6   -0.01    0.80
 -11  -3  -6    4.48    1.09
 -10   4  -6    0.32    1.00
 -10   4  -6    1.31    0.93
 -10   3  -6    2.36    0.98
 -10   3  -6    1.56    0.90
 -10   2  -6    7.34    1.20
 -10   1  -6    6.70    1.19
 -10   0  -6    3.72    0.95
 -10  -1  -6    4.63    1.04
 -10  -2  -6    9.40    1.30
 -10  -3  -6    1.24    0.86
 -10  -4  -6    0.18    0.77
  -9   5  -6    0.79    0.91
  -9   4  -6    2.72    1.01
  -9   4  -6    3.71    1.04
  -9   3  -6    2.00    0.88
  -9   3  -6    2.34    0.87
  -9   2  -6    8.92    1.26
  -9   2  -6    9.59    1.27
  -9   1  -6    1.79    0.76
  -9   0  -6    7.26    1.06
  -9  -1  -6    2.97    0.84
  -9  -2  -6    8.97    1.20
  -9  -3  -6    1.83    0.77
  -9  -4  -6    2.59    0.92
  -9  -5  -6    3.05    1.02
  -8   6  -6   -0.25    0.87
  -8   5  -6   11.52    1.57
  -8   4  -6    5.18    1.07
  -8   4  -6    5.57    1.12
  -8   3  -6    9.65    1.34
  -8   3  -6   12.17    1.34
  -8   2  -6   -0.11    0.54
  -8   2  -6    0.04    0.61
  -8   1  -6   20.90    1.88
  -8   1  -6   20.42    1.76
  -8   0  -6   14.72    1.47
  -8  -1  -6   23.29    1.93
  -8  -2  -6    0.75    0.60
  -8  -3  -6    8.80    1.16
  -8  -4  -6    7.17    1.15
  -8  -5  -6   14.58    1.68
  -8  -6  -6    0.58    0.99
  -7   7  -6    2.74    1.11
  -7   6  -6   -0.35    0.83
  -7   5  -6    0.54    0.80
  -7   4  -6    8.08    1.12
  -7   4  -6    7.69    1.18
  -7   3  -6   15.35    1.46
  -7   3  -6   14.57    1.58
  -7   2  -6   10.51    1.16
  -7   2  -6   11.21    1.26
  -7   1  -6    7.30    0.98
  -7   1  -6    9.16    1.02
  -7   0  -6   11.09    1.16
  -7   0  -6   11.10    1.15
  -7  -1  -6    8.29    0.98
  -7  -2  -6   10.03    1.11
  -7  -3  -6   17.53    1.65
  -7  -4  -6    8.15    1.19
  -7  -5  -6    1.22    0.88
  -7  -6  -6    0.18    0.80
  -7  -7  -6    2.53    1.09
  -6   7  -6    1.05    0.93
  -6   6  -6   11.37    1.60
  -6   5  -6    1.55    0.75
  -6   4  -6   39.20    3.21
  -6   4  -6   35.81    2.81
  -6   3  -6   13.71    1.45
  -6   3  -6   12.53    1.25
  -6   2  -6   26.92    2.09
  -6   2  -6   27.15    2.33
  -6   1  -6   19.47    1.55
  -6   1  -6   17.28    1.64
  -6   0  -6   21.17    1.81
  -6   0  -6   24.22    1.94
  -6  -1  -6   27.77    2.13
  -6  -1  -6   27.59    2.24
  -6  -2  -6   22.87    1.89
  -6  -3  -6   10.56    1.18
  -6  -4  -6   41.01    3.11
  -6  -5  -6    0.88    0.76
  -6  -6  -6   10.23    1.42
  -6  -7  -6    2.40    0.99
  -5   8  -6    0.87    0.98
  -5   7  -6    2.89    1.00
  -5   6  -6    7.01    1.22
  -5   5  -6    9.58    1.30
  -5   4  -6   -0.09    0.22
  -5   4  -6    0.94    0.61
  -5   3  -6   49.27    3.85
  -5   3  -6   46.19    3.34
  -5   2  -6   60.27    4.70
  -5   2  -6   60.81    4.13
  -5   1  -6   40.21    2.59
  -5   1  -6   32.20    2.86
  -5   0  -6    1.37    0.48
  -5   0  -6    1.65    0.43
  -5  -1  -6   35.91    2.80
  -5  -1  -6   35.95    2.62
  -5  -2  -6   63.11    4.55
  -5  -2  -6   56.85    4.18
  -5  -3  -6   47.89    3.46
  -5  -4  -6    1.42    0.71
  -5  -5  -6   10.29    1.37
  -5  -6  -6    8.59    1.36
  -5  -7  -6    2.24    1.05
  -5  -8  -6    0.55    1.02
  -4   8  -6   -0.43    0.84
  -4   7  -6    3.53    1.04
  -4   6  -6    4.16    0.96
  -4   5  -6   18.42    1.87
  -4   4  -6    5.25    0.88
  -4   4  -6    5.11    0.68
  -4   3  -6   16.27    1.55
  -4   3  -6   15.39    1.29
  -4   2  -6   35.35    2.45
  -4   2  -6   34.36    2.82
  -4   1  -6  105.78    8.16
  -4   1  -6  113.10    7.20
  -4   0  -6   22.02    1.82
  -4   0  -6   21.14    1.63
  -4  -1  -6  111.54    8.14
  -4  -1  -6  108.39    7.28
  -4  -2  -6   36.48    2.64
  -4  -2  -6   35.99    2.82
  -4  -3  -6   19.17    1.65
  -4  -3  -6   19.47    1.65
  -4  -4  -6    6.97    1.04
  -4  -5  -6   20.39    1.93
  -4  -6  -6    6.91    1.21
  -4  -7  -6    3.10    1.07
  -4  -8  -6   -0.12    0.85
  -3   8  -6    1.41    0.92
  -3   7  -6    1.77    0.79
  -3   6  -6    5.39    1.05
  -3   5  -6    5.63    0.93
   3  -5   6    4.95    0.66
  -3   4  -6   27.07    2.32
  -3   4  -6   25.11    1.89
   3  -4   6   26.17    1.95
  -3   3  -6   15.99    1.48
  -3   3  -6   16.03    1.20
   3  -3   6   13.47    1.24
  -3   2  -6   65.68    4.47
  -3   2  -6   70.07    5.17
  -3   1  -6   84.71    5.54
  -3   1  -6   83.60    6.32
  -3   0  -6  245.43   15.81
  -3   0  -6  243.47   17.87
  -3  -1  -6   91.18    6.64
  -3  -1  -6   86.07    5.91
  -3  -2  -6   75.75    5.59
  -3  -2  -6   71.95    5.01
  -3  -3  -6   15.39    1.43
  -3  -3  -6   16.23    1.44
  -3  -4  -6   29.39    2.43
  -3  -4  -6   29.68    2.39
  -3  -5  -6    5.42    1.03
  -3  -6  -6    4.90    1.06
  -3  -7  -6    3.10    1.06
  -3  -8  -6    0.62    0.92
  -2   8  -6    2.90    1.01
  -2   7  -6    6.50    1.15
  -2   6  -6    0.98    0.62
   2  -6   6    0.67    0.52
  -2   5  -6   23.44    2.19
   2  -5   6   24.78    1.87
  -2   4  -6   41.71    3.37
   2  -4   6   41.15    2.96
  -2   3  -6   14.82    1.38
  -2   3  -6   13.42    1.05
   2  -3   6   14.73    1.16
  -2   2  -6    4.96    0.70
  -2   2  -6    4.94    0.48
   2  -2   6    6.26    0.66
  -2   1  -6   75.16    4.80
  -2   1  -6   70.56    5.52
  -2   0  -6   68.81    5.28
  -2   0  -6   70.28    4.63
  -2  -1  -6   50.04    3.46
  -2  -1  -6   51.44    3.93
  -2  -2  -6    6.09    0.77
  -2  -2  -6    5.88    0.75
  -2  -3  -6   17.72    1.50
  -2  -3  -6   15.35    1.42
  -2  -4  -6   43.37    3.35
  -2  -4  -6   42.69    3.20
  -2  -5  -6   23.59    2.18
  -2  -5  -6   26.25    2.12
  -2  -6  -6    1.17    0.81
  -2  -7  -6    4.13    1.11
  -2  -8  -6    3.23    1.09
  -1   8  -6    1.65    0.83
  -1   7  -6   10.36    1.41
   1  -7   6   11.42    1.21
  -1   6  -6    2.63    0.75
   1  -6   6    1.88    0.62
  -1   5  -6   22.01    2.12
   1  -5   6   25.49    1.89
  -1   4  -6   27.65    2.48
   1  -4   6   31.51    2.21
  -1   3  -6   65.24    5.05
   1  -3   6   66.25    4.57
  -1   2  -6   19.13    1.61
  -1   2  -6   20.47    1.24
   1  -2   6   13.89    1.39
  -1   1  -6   92.63    6.96
  -1   1  -6   92.41    6.01
  -1   0  -6   62.64    4.16
  -1  -1  -6   86.12    5.74
  -1  -1  -6   86.57    6.51
  -1  -2  -6   13.24    1.23
  -1  -2  -6   14.56    1.28
  -1  -3  -6   73.45    4.87
  -1  -3  -6   67.95    5.26
  -1  -4  -6   38.87    2.87
  -1  -4  -6   37.02    2.96
  -1  -5  -6   26.83    2.20
  -1  -5  -6   24.44    2.09
  -1  -6  -6    2.24    0.62
  -1  -6  -6    1.99    0.85
  -1  -7  -6   11.05    1.51
  -1  -8  -6    1.26    0.95
   0   8  -6    1.81    0.80
   0  -8   6    2.10    0.82
   0   7  -6    4.62    0.96
   0  -7   6    4.57    0.85
   0   6  -6   17.85    1.74
   0  -6   6   16.02    1.48
   0   5  -6   28.55    2.33
   0  -5   6   24.63    2.02
   0   4  -6    7.19    0.95
   0  -4   6    7.66    0.79
   0   3  -6   52.81    4.04
   0  -3   6   50.79    3.63
   0   2  -6  238.29   17.07
   0  -2   6  227.01   15.67
   0   1  -6  103.60    6.93
   0   1  -6   99.15    8.02
   0  -1   6  119.48    7.38
   0   0  -6   32.57    2.65
   0  -1  -6  127.87    9.48
   0  -2  -6  231.67   16.93
   0  -3  -6   57.24    4.37
   0  -4  -6    8.54    0.92
   0  -5  -6   27.10    2.25
   0  -6  -6   15.77    1.53
   0  -7  -6    5.39    0.90
   0  -7  -6    4.83    1.14
   0  -8  -6    0.55    0.88
   0  -9  -6    0.15    0.93
  -1  -8   6    1.07    0.84
   1   7  -6    2.18    0.75
  -1  -7   6    1.26    0.70
   1   6  -6   20.38    1.93
  -1  -6   6   21.29    1.79
   1   5  -6    7.39    0.94
  -1  -5   6    7.47    0.88
   1   4  -6   11.37    1.12
  -1  -4   6    8.15    0.91
   1   3  -6    9.20    0.99
  -1  -3   6    8.63    0.84
   1   2  -6  100.98    7.06
  -1  -2   6   87.08    6.36
   1   1  -6   44.86    3.82
  -1  -1   6   51.73    3.45
   1   0  -6   15.32    1.43
   1  -1  -6   51.60    3.95
   1  -2  -6   91.41    6.82
   1  -3  -6    8.36    0.90
   1  -4  -6    7.81    0.89
   1  -5  -6    7.14    0.88
   1  -6  -6   21.57    1.94
   1  -7  -6    1.63    0.72
   1  -9  -6    1.37    1.01
  -2  -8   6    1.03    0.83
  -2  -7   6    8.87    1.17
   2   6  -6    8.23    1.01
  -2  -6   6    5.89    0.96
   2   5  -6   13.46    1.33
  -2  -5   6   11.76    1.22
   2   4  -6   19.70    1.89
  -2  -4   6   23.32    1.74
   2   3  -6   57.17    4.14
  -2  -3   6   48.84    3.70
   2   2  -6   66.38    4.92
  -2  -2   6   63.36    4.09
  -2  -2   6   60.07    4.37
   2   1  -6   30.46    2.39
  -2  -1   6   26.08    2.03
   2   0  -6   60.55    4.72
  -2   0   6   63.04    4.37
   2  -1  -6   26.05    2.10
   2  -2  -6   64.45    4.88
   2  -3  -6   48.96    3.78
   2  -4  -6   19.00    1.69
   2  -5  -6   10.00    1.11
   2  -6  -6    9.70    1.17
   2  -7  -6    8.85    1.20
   2  -8  -6    2.02    0.85
  -3  -8   6    3.25    1.01
  -3  -7   6    3.27    0.90
  -3  -6   6    2.25    0.71
   3   5  -6    3.79    0.69
  -3  -5   6    2.62    0.70
   3   4  -6   45.34    3.44
  -3  -4   6   40.73    3.15
   3   3  -6   38.18    3.06
  -3  -3   6   34.80    2.72
  -3  -3   6   38.43    2.47
   3   2  -6    7.42    0.95
  -3  -2   6    5.85    0.68
  -3  -2   6    6.07    0.53
   3   1  -6  152.75   11.62
  -3  -1   6  158.06   10.11
  -3  -1   6  157.30   10.61
   3   0  -6  137.67   10.30
  -3   0   6  134.68    9.06
  -3   0   6  146.03    9.52
   3  -1  -6  165.15   12.15
   3  -2  -6    7.01    0.81
   3  -3  -6   38.67    3.06
   3  -4  -6   45.07    3.57
   3  -5  -6    2.66    0.65
   3  -6  -6    1.82    0.71
   3  -7  -6    1.31    0.77
   3  -8  -6    2.68    0.95
  -4  -8   6    3.37    1.07
  -4  -7   6    4.45    1.01
  -4  -6   6    9.13    1.19
   4   5  -6    1.81    0.58
  -4  -5   6    1.82    0.65
   4   3  -6   38.82    3.58
  -4  -3   6   45.79    3.25
  -4  -3   6   46.97    2.98
   4   2  -6    1.74    0.67
  -4  -2   6    4.06    0.58
  -4  -2   6    4.74    0.46
   4   1  -6   17.74    1.56
  -4  -1   6   14.08    1.27
  -4  -1   6   15.10    1.17
   4   0  -6    5.34    0.70
  -4   0   6    6.45    0.68
  -4   0   6    4.19    0.56
   4  -1  -6   13.20    1.30
  -4   1   6   14.58    1.15
   4  -2  -6    3.21    0.57
   4  -3  -6   44.48    3.50
   4  -4  -6   22.04    1.96
   4  -5  -6    1.12    0.62
   4  -6  -6    7.06    1.08
   4  -7  -6    3.61    0.93
   4  -8  -6    4.65    1.14
  -5  -8   6   -0.15    0.89
  -5  -7   6   -0.29    0.78
  -5  -6   6    5.49    1.03
  -5  -5   6   14.56    1.44
   5   4  -6   12.69    1.26
  -5  -4   6   10.86    1.18
  -5  -3   6   12.66    1.18
  -5  -3   6   11.62    0.99
   5   2  -6   25.28    2.40
  -5  -2   6   24.98    2.04
  -5  -2   6   29.31    1.93
   5   1  -6   51.21    3.88
  -5  -1   6   48.03    3.49
  -5  -1   6   47.89    3.33
   5   0  -6    4.89    0.68
  -5   0   6    3.51    0.58
  -5   0   6    3.79    0.55
   5  -1  -6   46.67    3.62
  -5   1   6   45.91    3.23
   5  -2  -6   26.58    2.04
  -5   2   6   20.86    1.82
   5  -3  -6   11.01    1.17
   5  -4  -6    9.59    1.12
   5  -5  -6   15.23    1.58
   5  -6  -6    5.36    1.00
   5  -7  -6    0.84    0.81
   5  -8  -6    0.32    0.87
  -6  -7   6    2.91    1.00
  -6  -6   6    4.50    1.00
  -6  -5   6    1.55    0.70
  -6  -4   6   -0.04    0.58
   6   3  -6    9.73    1.32
  -6  -3   6   11.70    1.02
  -6  -3   6   12.48    1.17
  -6  -2   6    9.30    0.90
  -6  -2   6    9.39    0.98
   6   1  -6    7.91    1.01
  -6  -1   6    8.32    0.86
  -6  -1   6    9.25    0.89
   6   0  -6    0.54    0.43
  -6   0   6    0.07    0.45
  -6   0   6   -0.09    0.38
   6  -1  -6    8.61    1.01
  -6   1   6    8.86    0.93
   6  -2  -6    8.41    1.04
  -6   2   6   10.38    1.09
   6  -3  -6   12.51    1.34
   6  -4  -6   -0.11    0.54
   6  -5  -6    2.36    0.76
   6  -6  -6    6.38    1.15
   6  -7  -6    1.52    0.85
  -7  -7   6    0.06    0.90
  -7  -6   6    4.00    1.00
  -7  -5   6    5.40    0.95
  -7  -4   6    3.17    0.79
  -7  -3   6    1.10    0.56
  -7  -3   6    1.28    0.52
   7   2  -6    5.09    0.99
  -7  -2   6    2.89    0.63
  -7  -2   6    5.43    0.77
   7   1  -6   36.24    2.89
  -7  -1   6   34.32    2.57
  -7  -1   6   33.68    2.54
   7   0  -6   15.69    1.61
  -7   0   6   17.60    1.49
  -7   0   6   20.12    1.54
   7  -1  -6   34.71    2.88
  -7   1   6   35.11    2.60
   7  -2  -6    3.88    0.75
  -7   2   6    3.64    0.77
   7  -3  -6    0.79    0.63
  -7   3   6    1.67    0.67
   7  -4  -6    2.88    0.81
   7  -5  -6    6.81    1.15
   7  -6  -6    4.17    1.01
   7  -7  -6    0.79    0.96
  -8  -6   6    0.11    0.83
  -8  -5   6    0.98    0.77
  -8  -4   6   10.34    1.20
  -8  -3   6    7.94    1.05
  -8  -3   6    9.33    0.98
  -8  -2   6    3.53    0.69
  -8  -2   6    2.99    0.72
   8   1  -6    3.41    0.75
  -8  -1   6    3.43    0.70
  -8  -1   6    3.63    0.73
   8   0  -6    8.44    1.07
  -8   0   6    9.42    1.06
  -8   0   6    9.57    1.01
   8  -1  -6    3.61    0.78
  -8   1   6    3.40    0.76
   8  -2  -6    3.42    0.76
  -8   2   6    2.88    0.76
   8  -3  -6    7.58    1.14
  -8   3   6   12.18    1.30
   8  -4  -6   12.89    1.50
   8  -5  -6    0.72    0.74
   8  -6  -6    1.22    0.96
  -9  -5   6    1.41    0.89
  -9  -4   6    2.48    0.86
  -9  -3   6    1.65    0.67
  -9  -3   6    1.79    0.73
  -9  -2   6    1.80    0.72
  -9  -2   6    2.97    0.72
  -9  -1   6    0.98    0.65
  -9  -1   6    2.46    0.72
   9   0  -6    1.95    0.70
  -9   0   6    1.75    0.76
   9  -1  -6    1.91    0.76
  -9   1   6    2.34    0.77
   9  -2  -6    2.67    0.78
  -9   2   6    1.34    0.81
   9  -3  -6    2.02    0.76
  -9   3   6    1.42    0.83
   9  -4  -6    1.74    0.87
   9  -5  -6   -0.09    0.81
 -10  -4   6    3.00    0.93
 -10  -3   6    0.51    0.73
 -10  -2   6    2.42    0.83
 -10  -1   6    2.04    0.81
 -10   0   6   -0.41    0.68
  10  -1  -6    0.93    0.79
 -10   1   6    0.61    0.76
  10  -2  -6    2.37    0.85
 -10   2   6    1.54    0.86
  10  -3  -6    1.28    0.81
 -10   3   6    1.53    0.90
  10  -4  -6    2.67    1.00
  10  -5  -6    1.22    1.02
 -11  -2   6    1.03    0.81
 -11  -1   6    2.06    0.91
 -11   0   6    2.25    0.93
 -11   1   6    1.83    0.92
  11  -2  -6    1.59    0.94
 -11   2   6    0.88    0.93
  11  -3  -6    0.56    0.89
 -11   3   6    0.68    0.96
 -12   0   6   -0.59    0.84
 -11   2  -7   -0.54    0.88
 -11   1  -7    1.27    0.96
 -11   0  -7    1.29    0.98
 -11  -1  -7    0.76    0.93
 -11  -2  -7    0.06    0.96
 -10   4  -7    1.78    1.00
 -10   3  -7    6.56    1.34
 -10   3  -7    7.00    1.26
 -10   2  -7    0.19    0.85
 -10   1  -7    9.54    1.37
 -10   0  -7    1.22    0.82
 -10  -1  -7    6.93    1.21
 -10  -2  -7    0.44    0.75
 -10  -3  -7    5.78    1.17
 -10  -4  -7    2.65    0.99
  -9   5  -7    1.58    0.99
  -9   4  -7    6.31    1.21
  -9   3  -7    3.70    1.03
  -9   3  -7    5.03    1.07
  -9   2  -7    7.30    1.19
  -9   2  -7    9.62    1.25
  -9   1  -7    1.54    0.79
  -9   0  -7   12.85    1.45
  -9  -1  -7    1.86    0.79
  -9  -2  -7    5.83    1.03
  -9  -3  -7    3.75    1.02
  -9  -4  -7    6.35    1.21
  -9  -5  -7    1.48    1.00
  -8   6  -7    1.03    1.01
  -8   5  -7   -1.10    0.80
  -8   4  -7    0.88    0.82
  -8   3  -7    5.26    1.01
  -8   3  -7    6.06    1.02
  -8   2  -7   19.24    1.99
  -8   2  -7   21.99    1.86
  -8   1  -7    2.46    0.77
  -8   1  -7    1.22    0.61
  -8   0  -7    2.02    0.74
  -8  -1  -7    1.70    0.72
  -8  -2  -7   20.91    1.84
  -8  -3  -7    5.03    0.97
  -8  -4  -7    1.36    0.86
  -8  -5  -7    0.09    0.86
  -8  -6  -7    4.90    1.34
  -7   7  -7    2.81    1.07
  -7   6  -7    0.56    0.91
  -7   5  -7    7.14    1.29
  -7   4  -7    7.12    1.20
  -7   3  -7    7.76    1.12
  -7   3  -7    6.02    0.96
  -7   2  -7    2.05    0.70
  -7   2  -7    1.98    0.65
  -7   1  -7   38.25    2.95
  -7   1  -7   41.59    3.28
  -7   0  -7   12.98    1.33
  -7   0  -7   13.88    1.31
  -7  -1  -7   39.87    2.97
  -7  -2  -7    0.83    0.58
  -7  -3  -7    6.23    1.05
  -7  -4  -7    9.31    1.30
  -7  -5  -7    4.83    1.14
  -7  -6  -7    0.25    0.92
  -6   7  -7   -0.02    0.88
  -6   6  -7    9.73    1.48
  -6   5  -7    7.41    1.23
  -6   4  -7    7.34    1.16
  -6   3  -7    0.32    0.53
  -6   3  -7    0.73    0.51
  -6   2  -7   29.16    2.39
  -6   2  -7   34.74    2.73
  -6   1  -7   40.52    3.41
  -6   1  -7   44.68    3.08
  -6   0  -7    7.84    0.93
  -6   0  -7    7.39    0.91
  -6  -1  -7   31.64    2.53
  -6  -1  -7   31.17    2.39
  -6  -2  -7   33.80    2.60
  -6  -3  -7    0.00    0.55
  -6  -4  -7    6.82    1.07
  -6  -5  -7    3.41    1.00
  -6  -6  -7    8.44    1.42
  -6  -7  -7    1.49    1.07
  -5   7  -7    0.93    0.85
  -5   6  -7    2.82    0.89
  -5   5  -7    4.60    1.02
  -5   4  -7   49.89    4.09
  -5   3  -7   -0.01    0.21
  -5   3  -7    1.66    0.61
  -5   2  -7   16.94    1.63
  -5   2  -7   16.04    1.39
  -5   1  -7   11.18    1.21
  -5   1  -7   13.00    1.13
  -5   0  -7  105.33    8.17
  -5   0  -7  114.07    7.29
  -5  -1  -7    7.94    0.96
  -5  -1  -7   10.01    0.99
  -5  -2  -7   15.59    1.36
  -5  -2  -7   14.76    1.39
  -5  -3  -7    1.73    0.69
  -5  -4  -7   59.80    4.33
  -5  -5  -7    3.12    1.02
  -5  -6  -7    1.35    0.96
  -5  -7  -7    1.37    1.03
  -4   8  -7    1.09    0.96
  -4   7  -7    6.15    1.25
  -4   6  -7    1.91    0.85
  -4   5  -7   11.29    1.44
  -4   4  -7    8.75    1.18
  -4   3  -7   59.61    4.32
  -4   3  -7   49.91    3.68
  -4   1  -7   71.71    4.71
  -4   1  -7   68.37    5.35
  -4   0  -7    1.59    0.47
  -4   0  -7    1.19    0.41
  -4  -1  -7   61.32    4.56
  -4  -1  -7   57.81    4.08
  -4  -2  -7   43.53    3.11
  -4  -2  -7   33.96    2.83
  -4  -3  -7   56.85    4.33
  -4  -3  -7   55.06    4.00
  -4  -4  -7    8.38    1.14
  -4  -5  -7   13.32    1.52
  -4  -6  -7    0.96    0.85
  -4  -7  -7    5.83    1.29
  -4  -8  -7    0.29    0.99
  -3   8  -7    1.04    0.93
  -3   7  -7    2.43    0.87
  -3   6  -7    6.21    1.14
  -3   5  -7   32.85    2.76
   3  -5   7   29.40    2.31
  -3   4  -7   12.82    1.41
   3  -4   7   11.25    1.10
  -3   3  -7   20.51    1.91
  -3   3  -7   21.13    1.55
  -3   2  -7    9.62    0.83
  -3   2  -7    9.41    1.06
  -3   1  -7   64.86    4.97
  -3   0  -7   16.17    1.29
  -3   0  -7   16.48    1.49
  -3  -1  -7   81.87    6.26
  -3  -1  -7   83.95    5.57
  -3  -2  -7    9.87    1.02
  -3  -2  -7   10.28    1.08
  -3  -3  -7   22.51    2.01
  -3  -3  -7   24.40    1.93
  -3  -4  -7   10.50    1.31
  -3  -4  -7   13.23    1.30
  -3  -5  -7   33.74    2.76
  -3  -6  -7    4.60    1.09
  -3  -7  -7    6.78    1.39
  -3  -8  -7    1.57    1.08
  -2   8  -7    1.71    0.92
  -2   7  -7    2.62    0.91
  -2   6  -7   18.17    1.96
   2  -6   7   19.27    1.65
  -2   5  -7    2.50    0.81
   2  -5   7    4.88    0.67
  -2   4  -7    4.04    0.76
   2  -4   7    2.39    0.52
  -2   3  -7    9.32    0.73
  -2   3  -7    8.47    1.04
   2  -3   7    7.24    0.85
  -2   2  -7  104.39    6.83
  -2   2  -7  106.10    7.90
  -2   1  -7   32.01    2.22
  -2   1  -7   32.06    2.63
  -2   0  -7    9.27    0.83
  -2   0  -7    8.52    1.01
  -2  -1  -7   31.22    2.40
  -2  -1  -7   36.42    2.77
  -2  -2  -7  107.58    8.00
  -2  -2  -7  105.39    7.13
  -2  -3  -7    7.78    1.00
  -2  -3  -7    8.05    0.96
  -2  -4  -7    3.28    0.78
  -2  -4  -7    1.73    0.55
  -2  -5  -7    4.17    0.73
  -2  -5  -7    3.94    0.99
  -2  -6  -7   20.18    2.03
  -2  -7  -7    1.51    1.00
  -2  -8  -7    2.19    1.13
  -1   8  -7    2.60    0.94
  -1   7  -7    5.44    1.08
   1  -7   7    3.68    0.85
  -1   6  -7    4.25    0.92
   1  -6   7    4.96    0.78
  -1   5  -7   13.64    1.55
   1  -5   7   14.74    1.27
  -1   4  -7   18.05    1.77
   1  -4   7   19.51    1.53
  -1   3  -7   50.58    4.01
   1  -3   7   50.55    3.59
  -1   2  -7   23.14    1.92
  -1   2  -7   20.93    1.45
   1  -2   7   21.77    1.70
  -1   1  -7  229.81   14.79
  -1   1  -7  229.50   16.91
  -1   0  -7   43.66    3.48
  -1  -1  -7  246.33   16.01
  -1  -1  -7  247.22   18.12
  -1  -2  -7   22.57    1.78
  -1  -2  -7   22.94    1.99
  -1  -3  -7   58.83    4.14
  -1  -3  -7   58.24    4.49
  -1  -4  -7   19.86    1.80
  -1  -4  -7   18.99    1.70
  -1  -5  -7   16.98    1.58
  -1  -5  -7   16.61    1.73
  -1  -6  -7    2.14    0.89
  -1  -6  -7    4.41    0.81
  -1  -7  -7    2.85    0.99
  -1  -8  -7    2.11    1.03
   0   8  -7    1.87    0.86
   0  -8   7    1.40    0.84
   0   7  -7   10.84    1.41
   0  -7   7   10.08    1.21
   0   6  -7    2.63    0.82
   0  -6   7    2.66    0.70
   0   5  -7    8.03    1.08
   0  -5   7    7.69    0.91
   0   4  -7   28.82    2.40
   0  -4   7   26.46    2.08
   0   3  -7   61.03    4.90
   0  -3   7   65.01    4.42
   0   2  -7   10.62    1.16
   0  -2   7   10.90    0.99
   0   1  -7  141.41   11.37
   0   1  -7  153.53    9.88
   0  -1   7  163.20   10.48
   0   0  -7    1.98    0.52
   0   0  -7    1.01    0.28
   0  -1  -7  173.42   12.82
   0  -2  -7   11.12    1.11
   0  -3  -7   68.10    5.17
   0  -4  -7   29.02    2.41
   0  -5  -7    9.33    1.09
   0  -6  -7    3.97    0.78
   0  -7  -7   11.63    1.57
   0  -7  -7    9.97    1.26
   0  -8  -7    1.16    0.97
  -1  -8   7    5.68    1.08
   1   7  -7    1.62    0.74
  -1  -7   7    1.29    0.72
   1   6  -7    3.62    0.86
  -1  -6   7    4.56    0.81
   1   5  -7    5.79    0.92
  -1  -5   7    5.93    0.79
   1   4  -7   78.43    5.97
  -1  -4   7   76.34    5.41
   1   3  -7   44.19    3.59
  -1  -3   7   44.94    3.20
   1   2  -7    3.38    0.69
  -1  -2   7    2.06    0.44
   1   1  -7    9.82    1.22
  -1  -1   7   12.46    1.04
   1   0  -7  153.24   11.41
   1  -1  -7   12.91    1.26
   1  -2  -7    2.22    0.50
   1  -3  -7   49.33    3.85
   1  -4  -7   75.97    5.78
   1  -5  -7    5.02    0.81
   1  -6  -7    3.74    0.78
   1  -7  -7   -0.30    0.62
  -2  -8   7    0.82    0.84
  -2  -7   7    0.77    0.77
   2   6  -7   14.82    1.65
  -2  -6   7   17.75    1.57
   2   5  -7   15.11    1.56
  -2  -5   7   14.71    1.39
   2   4  -7    1.46    0.57
  -2  -4   7    1.63    0.56
   2   3  -7    4.76    0.86
  -2  -3   7    6.24    0.72
   2   2  -7   83.06    6.35
  -2  -2   7   81.57    5.69
   2   1  -7   33.16    2.97
  -2  -1   7   37.73    2.63
   2   0  -7    8.42    1.02
   2  -1  -7   35.94    2.86
   2  -2  -7   74.88    5.67
   2  -3  -7    5.72    0.78
   2  -4  -7    1.47    0.56
   2  -5  -7   16.13    1.57
   2  -6  -7   14.46    1.50
   2  -7  -7    0.59    0.70
   2  -8  -7    1.31    0.85
  -3  -8   7    1.38    0.91
  -3  -7   7    6.65    1.11
   3   6  -7    3.63    0.81
  -3  -6   7    4.35    0.87
   3   5  -7   23.89    2.11
  -3  -5   7   21.96    1.92
   3   4  -7    0.59    0.48
  -3  -4   7    0.11    0.51
   3   3  -7   24.87    2.47
  -3  -3   7   31.18    2.19
   3   2  -7   14.84    1.49
  -3  -2   7   12.64    0.96
  -3  -2   7   12.27    1.12
   3   1  -7   71.74    5.49
  -3  -1   7   69.38    4.92
   3   0  -7    5.71    0.81
  -3   0   7    7.21    0.83
   3  -1  -7   71.60    5.44
   3  -2  -7   14.28    1.35
   3  -3  -7   31.71    2.62
   3  -4  -7    0.15    0.50
   3  -5  -7   22.02    2.02
   3  -6  -7    5.21    0.96
   3  -7  -7    5.85    1.07
   3  -8  -7    1.22    0.88
  -4  -8   7    0.58    0.91
  -4  -7   7    0.70    0.82
  -4  -6   7    9.24    1.21
   4   5  -7    5.87    0.90
  -4  -5   7    4.26    0.85
   4   4  -7   10.84    1.16
  -4  -4   7    6.93    0.97
   4   3  -7   18.78    1.79
  -4  -3   7   15.76    1.47
   4   2  -7   49.65    3.36
  -4  -2   7   34.00    2.80
  -4  -2   7   37.53    2.61
   4   1  -7   39.57    3.18
  -4  -1   7   37.42    2.77
  -4  -1   7   37.39    2.60
   4   0  -7    4.19    0.71
  -4   0   7    4.40    0.57
  -4   0   7    4.40    0.67
   4  -1  -7   34.51    2.78
   4  -2  -7   38.12    3.06
   4  -3  -7   17.52    1.62
   4  -4  -7    5.47    0.85
   4  -5  -7    4.89    0.90
   4  -6  -7    8.94    1.21
   4  -7  -7    0.34    0.75
   4  -8  -7    1.07    0.91
  -5  -7   7    1.60    0.90
  -5  -6   7    0.06    0.67
  -5  -5   7    1.31    0.66
   5   3  -7   16.29    1.82
  -5  -3   7   18.68    1.53
   5   2  -7    3.98    0.83
  -5  -2   7    1.94    0.42
  -5  -2   7    0.98    0.51
   5   1  -7    5.74    0.92
  -5  -1   7    5.10    0.62
  -5  -1   7    6.66    0.77
   5   0  -7   28.95    2.32
  -5   0   7   26.41    2.10
  -5   0   7   26.12    1.99
   5  -1  -7    4.42    0.75
  -5   1   7    5.94    0.72
   5  -2  -7    2.23    0.62
   5  -3  -7   18.83    1.74
   5  -4  -7   23.21    2.09
   5  -5  -7    2.77    0.76
   5  -6  -7    0.74    0.72
   5  -7  -7    1.85    0.90
  -6  -7   7    0.76    0.85
  -6  -6   7    1.30    0.84
  -6  -5   7    4.82    0.95
  -6  -4   7    3.93    0.77
  -6  -3   7    8.71    1.00
   6   2  -7    0.46    0.68
  -6  -2   7    0.16    0.49
  -6  -2   7    0.16    0.41
   6   1  -7   34.18    2.94
  -6  -1   7   36.52    2.63
  -6  -1   7   34.33    2.51
   6   0  -7    2.47    0.62
  -6   0   7    3.01    0.65
  -6   0   7    2.07    0.54
   6  -1  -7   37.12    2.90
  -6   1   7   32.79    2.56
   6  -2  -7    0.35    0.54
   6  -3  -7    9.17    1.14
   6  -4  -7    3.47    0.83
   6  -5  -7    3.64    0.87
   6  -6  -7    1.52    0.88
   6  -7  -7    1.33    0.94
  -7  -7   7    1.80    1.02
  -7  -6   7    1.98    0.90
  -7  -5   7    2.92    0.86
  -7  -4   7    3.99    0.86
  -7  -3   7    3.99    0.80
   7   2  -7    5.81    1.06
  -7  -2   7    4.99    0.80
  -7  -2   7    5.66    0.77
  -7  -1   7   17.99    1.53
  -7  -1   7   16.75    1.50
   7   0  -7    3.83    0.73
  -7   0   7    4.10    0.71
  -7   0   7    4.15    0.73
   7  -1  -7   18.84    1.76
  -7   1   7   17.31    1.60
   7  -2  -7    4.23    0.87
  -7   2   7    5.45    0.91
   7  -3  -7    3.98    0.86
   7  -4  -7    3.97    0.93
   7  -5  -7    0.75    0.81
   7  -6  -7    2.35    0.99
   7  -7  -7    0.90    0.94
  -8  -6   7    6.66    1.21
  -8  -5   7    3.21    0.92
  -8  -4   7    0.12    0.69
  -8  -3   7   -0.41    0.64
  -8  -2   7    7.60    1.02
  -8  -2   7    8.06    1.00
   8   1  -7    0.91    0.64
  -8  -1   7    0.71    0.59
  -8  -1   7   -0.08    0.53
   8   0  -7    1.23    0.59
  -8   0   7    0.50    0.58
  -8   0   7    2.14    0.64
   8  -1  -7    1.09    0.65
  -8   1   7    0.34    0.62
   8  -2  -7    9.37    1.23
  -8   2   7    9.67    1.25
   8  -3  -7   -0.24    0.64
   8  -4  -7    0.47    0.67
   8  -5  -7    3.71    1.05
   8  -6  -7    5.43    1.26
  -9  -5   7    1.21    0.89
  -9  -4   7    6.17    1.08
  -9  -3   7    1.20    0.74
  -9  -2   7    3.24    0.82
  -9  -2   7    2.12    0.73
  -9  -1   7    1.21    0.68
  -9  -1   7    1.04    0.65
   9   0  -7    1.18    0.70
  -9   0   7    0.77    0.69
   9  -1  -7    1.12    0.71
  -9   1   7    1.90    0.71
   9  -2  -7    1.40    0.77
  -9   2   7    0.84    0.81
   9  -3  -7    1.10    0.79
  -9   3   7    2.06    0.92
   9  -4  -7    5.80    1.15
   9  -5  -7    0.15    0.90
 -10  -4   7    1.52    0.92
 -10  -3   7    1.03    0.76
 -10  -2   7    0.05    0.73
 -10  -1   7   -0.13    0.70
 -10   0   7   -0.81    0.63
  10  -1  -7   -0.05    0.72
 -10   1   7    1.52    0.85
  10  -2  -7    0.72    0.79
 -10   2   7   -0.03    0.82
  10  -3  -7    1.75    0.94
 -10   3   7    1.48    0.96
  10  -4  -7    2.30    1.00
 -11  -1   7    0.59    0.86
 -11   0   7    2.22    0.95
 -11   1   7   -0.69    0.80
  11  -2  -7   -0.56    0.90
 -11   2   7    0.29    0.84
  11  -3  -7   -0.70    0.86
 -11   3   7    1.32    0.98
 -11   1  -8    2.66    1.11
 -11   0  -8    1.79    1.03
 -11  -1  -8   -0.42    0.89
 -10   3  -8    4.01    1.10
 -10   3  -8    2.95    1.14
 -10   2  -8    0.08    0.85
 -10   1  -8    8.76    1.35
 -10   0  -8   -0.10    0.81
 -10  -1  -8    7.92    1.28
 -10  -2  -8   -0.78    0.73
 -10  -3  -8    3.90    1.09
  -9   5  -8    0.53    0.97
  -9   4  -8    2.01    0.98
  -9   3  -8    3.86    1.03
  -9   3  -8    3.95    1.03
  -9   2  -8    7.53    1.23
  -9   2  -8    8.22    1.22
  -9   1  -8    7.81    1.19
  -9   0  -8   -0.05    0.71
  -9  -1  -8    5.83    1.11
  -9  -2  -8    5.10    1.04
  -9  -3  -8    3.14    0.97
  -9  -4  -8    1.40    0.88
  -9  -5  -8    3.07    1.13
  -8   6  -8    1.74    1.10
  -8   5  -8   -0.49    0.83
  -8   4  -8   18.39    2.05
  -8   3  -8    1.50    0.77
  -8   3  -8    2.09    0.78
  -8   2  -8    2.62    0.82
  -8   2  -8    1.45    0.72
  -8   1  -8   -0.65    0.52
  -8   1  -8   -1.16    0.60
  -8   0  -8   21.77    1.92
  -8  -1  -8    0.39    0.67
  -8  -2  -8    1.12    0.68
  -8  -3  -8    2.13    0.81
  -8  -4  -8   18.95    1.95
  -8  -5  -8   -0.30    0.98
  -8  -6  -8    0.14    0.98
  -7   6  -8    1.47    1.01
  -7   5  -8    1.46    0.91
  -7   4  -8    0.78    0.85
  -7   3  -8   16.39    1.61
  -7   3  -8   18.44    1.86
  -7   2  -8    7.16    0.96
  -7   2  -8    5.91    1.03
  -7   1  -8   23.15    2.18
  -7   1  -8   25.89    2.05
  -7   0  -8    6.96    0.95
  -7   0  -8    6.80    0.96
  -7  -1  -8   27.07    2.17
  -7  -2  -8    5.40    0.92
  -7  -3  -8   18.34    1.78
  -7  -4  -8    0.18    0.79
  -7  -5  -8    2.39    1.04
  -7  -6  -8    3.84    1.14
  -6   7  -8    2.10    1.13
  -6   6  -8    1.04    0.95
  -6   5  -8    5.53    1.15
  -6   4  -8    1.89    0.81
  -6   3  -8   15.31    1.41
  -6   3  -8   15.62    1.67
  -6   2  -8    3.54    0.83
  -6   2  -8    3.60    0.69
  -6   1  -8   16.69    1.70
  -6   1  -8   18.97    1.57
  -6   0  -8    5.18    0.82
  -6   0  -8    5.46    0.82
  -6  -1  -8   23.38    1.90
  -6  -1  -8   22.84    1.99
  -6  -2  -8    5.88    0.93
  -6  -3  -8   13.02    1.41
  -6  -4  -8    1.87    0.83
  -6  -5  -8    5.68    1.18
  -6  -6  -8    0.87    1.03
  -6  -7  -8    4.08    1.25
  -5   7  -8    1.32    0.94
  -5   6  -8   11.72    1.62
  -5   5  -8    0.82    0.83
  -5   4  -8    5.55    1.05
  -5   3  -8   -0.34    0.54
  -5   3  -8    0.16    0.43
  -5   2  -8   88.52    6.54
  -5   2  -8   81.81    5.70
  -5   1  -8    2.87    0.69
  -5   1  -8    2.63    0.61
  -5   0  -8   24.31    1.93
  -5   0  -8   25.66    2.16
  -5  -1  -8    0.66    0.44
  -5  -1  -8    1.12    0.55
  -5  -2  -8   92.96    6.98
  -5  -2  -8   93.13    6.32
  -5  -3  -8    0.20    0.63
  -5  -4  -8    9.23    1.27
  -5  -5  -8    0.07    0.89
  -5  -6  -8   15.03    1.88
  -5  -7  -8    0.17    1.06
  -4   7  -8    2.33    1.01
  -4   6  -8    1.82    0.85
  -4   5  -8    8.61    1.28
  -4   4  -8   36.33    3.14
  -4   3  -8   19.16    1.79
  -4   3  -8   17.34    1.44
  -4   2  -8   -0.13    0.47
  -4   2  -8    0.16    0.39
  -4   1  -8   36.71    2.54
  -4   1  -8   33.90    2.91
  -4   0  -8   24.47    2.10
  -4   0  -8   24.68    1.88
  -4  -1  -8   31.06    2.53
  -4  -1  -8   30.16    2.26
  -4  -2  -8    0.43    0.50
  -4  -2  -8    0.44    0.48
  -4  -3  -8   22.14    1.90
  -4  -3  -8   18.59    1.79
  -4  -4  -8   36.79    2.91
  -4  -5  -8    8.76    1.30
  -4  -6  -8    1.50    0.93
  -4  -7  -8    0.52    0.96
  -4  -8  -8    2.20    1.16
  -3   8  -8    0.56    0.95
  -3   7  -8    5.84    1.23
  -3   6  -8    0.34    0.73
  -3   5  -8   12.61    1.51
   3  -5   8   11.78    1.21
  -3   4  -8    0.57    0.56
   3  -4   8    0.67    0.53
  -3   3  -8   48.41    3.92
  -3   2  -8    1.37    0.60
  -3   2  -8    2.06    0.42
  -3   1  -8   78.66    6.00
  -3   0  -8   19.32    1.47
  -3   0  -8   17.46    1.70
  -3  -1  -8   90.37    6.13
  -3  -1  -8   92.09    6.92
  -3  -2  -8    2.05    0.56
  -3  -2  -8    1.11    0.54
  -3  -3  -8   44.84    3.45
  -3  -3  -8   49.47    3.79
  -3  -4  -8    0.76    0.59
  -3  -4  -8    1.34    0.72
  -3  -5  -8   11.15    1.49
  -3  -6  -8    0.74    0.95
  -3  -7  -8    6.41    1.40
  -3  -8  -8    0.94    1.04
  -2   8  -8    1.90    1.04
  -2   7  -8    1.36    0.88
  -2   6  -8    3.29    0.93
   2  -6   8    3.92    0.78
  -2   5  -8    4.77    1.04
   2  -5   8    7.95    0.89
  -2   4  -8   49.95    4.20
   2  -4   8   53.96    3.76
  -2   3  -8    6.02    0.93
   2  -3   8    6.90    0.84
  -2   2  -8    4.05    0.46
  -2   2  -8    3.45    0.69
  -2   1  -8   16.31    1.26
  -2   1  -8   17.25    1.63
  -2   0  -8  139.15    9.07
  -2   0  -8  137.86   10.35
  -2  -1  -8   21.22    1.85
  -2  -1  -8   19.18    1.58
  -2  -2  -8    3.47    0.74
  -2  -2  -8    3.44    0.71
  -2  -3  -8    7.99    1.03
  -2  -3  -8    7.43    1.00
  -2  -4  -8   53.49    3.96
  -2  -4  -8   53.70    4.23
  -2  -5  -8    6.82    0.96
  -2  -5  -8    7.10    1.20
  -2  -6  -8    3.74    1.10
  -2  -7  -8    0.44    1.02
  -2  -8  -8    3.56    1.25
  -1   8  -8    0.10    0.85
  -1   7  -8    0.66    0.78
   1  -7   8    0.22    0.72
  -1   6  -8   12.69    1.57
   1  -6   8   12.26    1.23
  -1   5  -8    8.05    1.16
   1  -5   8    6.37    0.86
  -1   4  -8    0.56    0.60
   1  -4   8    0.15    0.45
  -1   3  -8   11.00    1.29
   1  -3   8   12.43    1.12
  -1   2  -8   81.14    5.05
  -1   2  -8   80.62    6.00
   1  -2   8   70.00    5.44
  -1   1  -8   20.47    1.50
  -1   1  -8   21.81    1.93
  -1   0  -8   24.58    2.15
  -1  -1  -8   20.38    1.88
  -1  -1  -8   21.21    1.63
  -1  -2  -8   82.06    5.37
  -1  -2  -8   75.09    6.00
  -1  -3  -8   12.39    1.33
  -1  -3  -8   13.74    1.34
  -1  -4  -8    0.48    0.62
  -1  -4  -8    0.90    0.52
  -1  -5  -8    8.42    1.20
  -1  -5  -8    6.22    0.93
  -1  -6  -8   12.32    1.43
  -1  -6  -8   15.84    1.70
  -1  -7  -8    1.04    0.98
  -1  -8  -8    0.93    1.02
   0   8  -8    2.62    1.02
   0  -8   8    2.82    0.98
   0   7  -8   13.84    1.71
   0  -7   8   15.00    1.50
   0   6  -8    7.12    1.11
   0  -6   8    4.09    0.80
   0   5  -8   32.22    2.58
   0  -5   8   25.36    2.17
   0   4  -8    7.34    1.04
   0  -4   8    5.09    0.75
   0   3  -8   42.17    3.97
   0  -3   8   57.39    3.63
   0   2  -8    0.88    0.54
   0  -2   8    0.87    0.46
   0   1  -8   96.13    6.15
   0   1  -8   91.17    7.19
   0   0  -8   10.74    0.95
   0   0  -8   13.61    1.32
   0  -1  -8   97.60    7.42
   0  -2  -8    0.39    0.45
   0  -3  -8   60.82    4.69
   0  -4  -8    4.41    0.74
   0  -5  -8   30.88    2.62
   0  -6  -8    5.23    0.95
   0  -6  -8    6.37    1.22
   0  -7  -8   13.03    1.73
   0  -8  -8    1.73    1.12
  -1  -8   8    0.06    0.84
   1   7  -8    5.09    1.08
  -1  -7   8    6.01    1.03
   1   6  -8    6.23    1.08
  -1  -6   8    5.84    0.94
   1   5  -8    2.14    0.73
  -1  -5   8    2.87    0.68
   1   4  -8    9.51    1.18
  -1  -4   8    8.13    0.93
   1   3  -8   47.99    3.66
  -1  -3   8   41.43    3.18
   1   2  -8  140.30   10.94
  -1  -2   8  150.06    9.97
   1   1  -8   20.60    1.90
  -1  -1   8   19.21    1.66
   1   0  -8    1.50    0.59
   1  -1  -8   23.10    2.06
   1  -2  -8  149.91   11.12
   1  -3  -8   50.48    3.95
   1  -4  -8   10.64    1.21
   1  -5  -8    3.77    0.81
   1  -6  -8    7.19    1.08
   1  -7  -8    5.58    1.06
   1  -8  -8   -1.00    0.93
  -2  -8   8    1.01    0.89
  -2  -7   8    0.50    0.79
   2   6  -8    1.12    0.67
  -2  -6   8    1.48    0.73
   2   5  -8    3.12    0.82
  -2  -5   8    3.92    0.79
   2   4  -8   35.09    3.13
  -2  -4   8   39.59    2.83
   2   3  -8    3.53    0.80
  -2  -3   8    2.25    0.56
   2   2  -8    2.70    0.78
  -2  -2   8    2.54    0.55
   2   1  -8    0.09    0.56
  -2  -1   8    0.04    0.42
   2   0  -8  141.50   10.61
   2  -1  -8    0.29    0.38
   2  -2  -8    2.15    0.58
   2  -3  -8    2.98    0.64
   2  -5  -8    3.55    0.77
   2  -6  -8    0.71    0.67
   2  -7  -8    0.65    0.78
   2  -8  -8    2.38    0.97
  -3  -8   8   -0.43    0.84
  -3  -7   8    5.58    1.09
   3   6  -8    3.38    0.82
  -3  -6   8    2.67    0.85
   3   5  -8   13.41    1.60
  -3  -5   8   17.21    1.53
   3   4  -8    0.37    0.54
  -3  -4   8    0.51    0.59
   3   3  -8   18.79    2.04
  -3  -3   8   22.25    1.73
   3   2  -8    4.69    0.93
  -3  -2   8    4.06    0.65
   3   1  -8   42.95    3.48
  -3  -1   8   40.96    3.05
   3   0  -8    0.41    0.55
   3  -1  -8   39.76    3.21
   3  -2  -8    5.21    0.79
   3  -3  -8   22.10    1.98
   3  -4  -8    0.34    0.53
   3  -5  -8   16.95    1.73
   3  -6  -8    3.38    0.85
   3  -7  -8    4.70    1.05
   3  -8  -8   -0.04    0.84
  -4  -8   8    2.92    1.04
  -4  -7   8    1.10    0.85
  -4  -6   8    2.02    0.82
   4   5  -8    9.13    1.22
  -4  -5   8    9.46    1.17
   4   4  -8   10.73    1.28
  -4  -4   8    8.28    1.08
   4   3  -8    9.21    1.31
  -4  -3   8    9.58    1.03
   4   2  -8    7.29    1.08
  -4  -2   8    5.88    0.60
  -4  -2   8    5.04    0.72
   4   1  -8   25.40    2.24
  -4  -1   8   24.78    1.75
  -4  -1   8   21.74    1.89
   4   0  -8   31.04    2.64
  -4   0   8   31.64    2.44
   4  -1  -8   24.52    2.12
   4  -2  -8    5.37    0.82
   4  -3  -8    9.48    1.13
   4  -4  -8    7.22    1.02
   4  -5  -8    9.78    1.24
   4  -6  -8    2.21    0.83
   4  -7  -8    0.80    0.82
   4  -8  -8    2.11    1.02
  -5  -7   8    1.25    0.90
  -5  -6   8    8.47    1.22
  -5  -5   8    6.79    1.04
   5   4  -8    2.35    0.78
  -5  -4   8    2.00    0.69
   5   3  -8    5.57    1.11
  -5  -3   8    6.60    0.88
   5   2  -8   44.09    3.17
  -5  -2   8   32.17    2.42
  -5  -2   8   33.46    2.65
   5   1  -8    6.12    1.00
  -5  -1   8    4.56    0.61
  -5  -1   8    4.07    0.71
   5   0  -8    0.35    0.50
  -5   0   8    0.92    0.42
  -5   0   8    1.11    0.59
   5  -1  -8    5.38    0.81
   5  -2  -8   34.92    2.91
   5  -3  -8    5.26    0.87
   5  -4  -8    3.21    0.83
   5  -5  -8    6.96    1.09
   5  -6  -8    9.73    1.36
   5  -7  -8    2.72    1.03
  -6  -7   8    1.91    0.98
  -6  -6   8    2.63    0.93
  -6  -5   8    6.88    1.09
  -6  -4   8    5.79    0.97
   6   3  -8    9.49    1.43
  -6  -3   8   12.98    1.22
   6   2  -8    0.21    0.70
  -6  -2   8    0.43    0.57
  -6  -2   8    0.54    0.42
   6   1  -8   13.34    1.42
  -6  -1   8   11.04    1.11
  -6  -1   8    8.92    0.97
   6   0  -8    4.52    0.81
  -6   0   8    4.93    0.74
  -6   0   8    4.64    0.79
   6  -1  -8    9.40    1.11
  -6   1   8    9.15    1.03
   6  -2  -8    0.21    0.60
   6  -3  -8    9.72    1.25
   6  -4  -8    6.54    1.09
   6  -5  -8    6.37    1.10
   6  -6  -8    2.76    1.00
   6  -7  -8    2.13    1.05
  -7  -6   8   -0.03    0.84
  -7  -5   8    3.41    0.90
  -7  -4   8    1.12    0.76
  -7  -3   8    6.80    0.97
   7   2  -8    1.04    0.75
  -7  -2   8    0.04    0.50
  -7  -2   8    0.92    0.64
   7   1  -8    2.30    0.81
  -7  -1   8    4.02    0.70
  -7  -1   8    3.22    0.71
   7   0  -8    1.36    0.63
  -7   0   8    0.18    0.51
  -7   0   8    0.22    0.60
   7  -1  -8    3.34    0.78
  -7   1   8    3.03    0.76
   7  -2  -8    0.26    0.62
   7  -3  -8    5.63    0.99
   7  -4  -8    1.77    0.84
   7  -5  -8    2.22    0.92
   7  -6  -8    0.38    0.82
  -8  -6   8    0.42    0.95
  -8  -5   8    0.30    0.86
  -8  -4   8    6.28    1.08
  -8  -3   8    1.20    0.73
  -8  -2   8    0.51    0.59
  -8  -2   8    1.14    0.69
   8   1  -8    1.43    0.78
  -8  -1   8    0.52    0.59
  -8  -1   8    0.71    0.67
   8   0  -8   23.88    2.20
  -8   0   8   22.16    1.93
  -8   0   8   23.61    2.02
   8  -1  -8    0.21    0.61
  -8   1   8   -0.06    0.65
   8  -2  -8    0.25    0.69
  -8   2   8    0.57    0.70
   8  -3  -8    2.07    0.85
   8  -4  -8    5.49    1.15
   8  -5  -8   -0.78    0.71
   8  -6  -8   -0.15    0.93
  -9  -5   8   -0.25    0.88
  -9  -4   8    0.90    0.84
  -9  -3   8    0.37    0.73
  -9  -2   8    2.14    0.82
  -9  -1   8    3.86    0.84
  -9  -1   8    3.38    0.85
   9   0  -8    0.59    0.70
  -9   0   8    0.26    0.66
   9  -1  -8    3.09    0.88
  -9   1   8    4.14    0.97
   9  -2  -8    3.05    0.97
  -9   2   8    3.11    0.95
   9  -3  -8    1.02    0.85
   9  -4  -8    0.32    0.80
   9  -5  -8    0.70    1.01
 -10  -4   8   -0.76    0.84
 -10  -3   8    1.00    0.84
 -10  -1   8   -0.38    0.72
 -10   0   8   -0.29    0.73
  10  -1  -8    0.15    0.72
 -10   1   8   -0.13    0.77
  10  -2  -8    0.38    0.84
 -10   2   8    0.83    0.89
  10  -3  -8    1.66    0.99
  10  -4  -8    1.14    1.00
 -11  -1   8    0.29    0.83
 -11   0   8   -0.69    0.81
 -11   1   8    0.77    0.87
  11  -2  -8    3.33    1.20
 -11   2   8    1.00    1.01
 -10   2  -9    0.56    0.94
 -10   1  -9    2.26    1.02
 -10   0  -9    1.14    0.92
 -10  -1  -9    3.85    1.03
 -10  -2  -9    0.47    0.90
 -10  -3  -9    3.31    1.07
  -9   4  -9    1.57    1.02
  -9   3  -9    4.31    1.11
  -9   2  -9    1.40    0.87
  -9   2  -9    1.10    0.83
  -9   1  -9   10.96    1.40
  -9   0  -9    3.49    0.97
  -9  -1  -9    8.87    1.28
  -9  -2  -9    0.71    0.81
  -9  -3  -9    4.51    1.10
  -9  -4  -9    1.81    1.02
  -8   5  -9    0.01    0.89
  -8   4  -9    1.14    0.86
  -8   3  -9    1.18    0.88
  -8   2  -9   23.91    2.20
  -8   2  -9   27.10    2.46
  -8   1  -9    5.43    1.02
  -8   1  -9    7.31    1.09
  -8   0  -9    2.87    0.87
  -8  -1  -9    4.15    0.93
  -8  -2  -9   25.40    2.21
  -8  -3  -9    0.91    0.78
  -8  -4  -9    1.31    0.92
  -8  -5  -9    0.32    1.05
  -7   6  -9    4.03    1.23
  -7   5  -9    3.95    1.15
  -7   4  -9    6.31    1.26
  -7   3  -9    2.98    0.88
  -7   2  -9    9.16    1.31
  -7   2  -9   10.08    1.18
  -7   1  -9    2.19    0.72
  -7   1  -9    2.02    0.75
  -7   0  -9    6.47    0.98
  -7   0  -9    6.30    1.00
  -7  -1  -9    3.92    0.83
  -7  -2  -9    7.13    1.08
  -7  -3  -9    3.74    0.98
  -7  -4  -9    9.97    1.40
  -7  -5  -9    4.54    1.19
  -7  -6  -9    2.70    1.19
  -6   6  -9    1.51    0.97
  -6   5  -9   14.26    1.83
  -6   4  -9    4.59    1.11
  -6   3  -9   11.01    1.43
  -6   2  -9    0.73    0.68
  -6   2  -9    1.13    0.56
  -6   1  -9   15.75    1.69
  -6   1  -9   18.03    1.54
  -6   0  -9   11.38    1.16
  -6   0  -9   10.31    1.25
  -6  -1  -9   14.61    1.34
  -6  -1  -9   12.18    1.34
  -6  -2  -9    0.50    0.64
  -6  -3  -9   12.26    1.40
  -6  -4  -9    5.64    1.07
  -6  -5  -9   15.55    1.79
  -6  -6  -9    1.62    1.08
  -5   7  -9    0.49    0.99
  -5   6  -9    0.92    0.90
  -5   5  -9    2.49    0.97
  -5   4  -9   18.60    1.99
  -5   3  -9    0.66    0.65
  -5   2  -9   10.70    1.29
  -5   1  -9    3.08    0.68
  -5   1  -9    3.09    0.76
  -5   0  -9  104.59    8.47
  -5   0  -9  121.20    7.54
  -5  -1  -9    4.04    0.72
  -5  -1  -9    2.98    0.70
  -5  -2  -9    8.77    1.00
  -5  -2  -9    6.78    0.96
  -5  -3  -9    2.07    0.75
  -5  -4  -9   20.97    2.01
  -5  -5  -9    0.19    0.92
  -5  -6  -9    0.56    1.07
  -5  -7  -9    0.87    1.13
  -4   7  -9    1.02    0.99
  -4   6  -9   21.14    2.32
  -4   5  -9   -0.07    0.77
  -4   4  -9   17.19    1.91
  -4   3  -9    4.87    0.97
  -4   2  -9   49.77    3.66
  -4   2  -9   58.78    4.33
  -4   1  -9   12.63    1.14
  -4   1  -9   11.89    1.36
  -4   0  -9    4.70    0.72
  -4   0  -9    3.81    0.73
  -4  -1  -9    7.26    0.88
  -4  -2  -9   59.64    4.70
  -4  -2  -9   60.17    4.24
  -4  -3  -9    5.35    1.01
  -4  -3  -9    7.02    0.99
  -4  -4  -9   16.82    1.72
  -4  -5  -9    1.08    0.90
  -4  -6  -9   20.79    2.20
  -4  -7  -9    0.60    0.99
  -3   7  -9    2.58    1.00
  -3   6  -9    1.56    0.87
  -3   5  -9    6.91    1.26
  -3   4  -9    0.04    0.64
  -3   3  -9   27.23    2.49
  -3   2  -9   18.05    1.52
  -3   2  -9   23.76    1.96
  -3   1  -9   69.05    5.51
  -3   1  -9   72.63    4.77
  -3   0  -9    2.09    0.50
  -3   0  -9    1.49    0.55
  -3  -1  -9   70.55    4.86
  -3  -1  -9   71.45    5.51
  -3  -2  -9   21.06    1.71
  -3  -2  -9   19.13    1.85
  -3  -3  -9   33.80    2.77
  -3  -3  -9   29.85    2.52
  -3  -4  -9    0.10    0.61
  -3  -4  -9   -0.33    0.66
  -3  -5  -9    9.82    1.42
  -3  -6  -9    3.13    1.10
  -3  -7  -9    2.55    1.23
  -2   8  -9    0.39    1.01
  -2   7  -9    1.07    0.90
  -2   6  -9    5.26    1.16
   2  -6   9    4.74    0.90
  -2   5  -9    4.76    1.03
   2  -5   9    2.52    0.73
  -2   4  -9    5.66    1.04
   2  -4   9    5.54    0.86
  -2   3  -9   14.30    1.57
  -2   2  -9   34.20    2.77
  -2   2  -9   30.90    2.21
  -2   1  -9   24.45    1.81
  -2   1  -9   25.84    2.29
  -2   0  -9   15.23    1.30
  -2   0  -9   16.76    1.64
  -2  -1  -9   34.34    2.81
  -2  -1  -9   32.42    2.44
  -2  -2  -9   49.30    3.49
  -2  -2  -9   47.26    3.88
  -2  -3  -9   18.60    1.80
  -2  -3  -9   21.44    1.95
  -2  -4  -9    5.42    0.94
  -2  -4  -9    5.48    1.07
  -2  -5  -9    3.69    1.02
  -2  -6  -9    5.09    1.23
  -2  -7  -9    2.66    1.15
  -2  -8  -9   -0.92    0.98
  -1   8  -9    3.19    1.16
  -1   7  -9    0.57    0.84
   1  -7   9    0.91    0.81
  -1   6  -9    3.69    1.04
   1  -6   9    1.58    0.76
  -1   5  -9    8.85    1.30
   1  -5   9    8.50    1.04
  -1   4  -9   44.98    3.51
   1  -4   9   38.43    3.03
  -1   3  -9    2.66    0.71
   1  -3   9    1.00    0.57
  -1   2  -9    2.41    0.69
  -1   1  -9   15.08    1.17
  -1   1  -9   15.55    1.63
  -1   0  -9   87.07    6.69
  -1  -1  -9   17.35    1.46
  -1  -1  -9   18.01    1.71
  -1  -2  -9    2.10    0.72
  -1  -2  -9    3.14    0.69
  -1  -3  -9    2.27    0.71
  -1  -3  -9    2.46    0.73
  -1  -4  -9   47.93    3.36
  -1  -4  -9   40.29    3.50
  -1  -5  -9    8.36    1.32
  -1  -5  -9    9.13    1.19
  -1  -6  -9    2.17    0.96
  -1  -7  -9   -0.86    0.91
  -1  -8  -9    3.09    1.20
   0   8  -9    1.14    0.97
   0   7  -9    6.80    1.30
   0  -7   9    6.10    1.06
   0   6  -9    2.75    0.93
   0  -6   9    1.17    0.73
   0   5  -9   30.59    2.92
   0  -5   9   34.22    2.55
   0   4  -9    4.98    0.97
   0  -4   9    4.83    0.78
   0   3  -9   45.38    3.49
   0  -3   9   38.23    3.01
   0   2  -9    0.98    0.59
   0  -2   9    2.37    0.62
   0   1  -9   51.61    3.41
   0   1  -9   49.59    4.13
   0   0  -9    6.36    1.02
   0   0  -9    7.13    0.73
   0  -1  -9   54.89    3.73
   0  -1  -9   51.82    4.29
   0  -2  -9    1.93    0.68
   0  -3  -9   31.27    2.65
   0  -4  -9    5.27    0.88
   0  -5  -9   33.74    2.86
   0  -6  -9    1.68    0.79
   0  -6  -9    1.51    0.97
   0  -7  -9   10.58    1.58
   0  -8  -9    0.16    1.04
  -1  -8   9    0.78    0.87
   1   7  -9    1.85    0.89
  -1  -7   9    3.05    0.87
   1   6  -9    5.29    1.11
  -1  -6   9    5.59    0.93
   1   5  -9   26.00    2.61
  -1  -5   9   30.25    2.28
   1   4  -9    4.33    0.91
  -1  -4   9    4.72    0.78
   1   3  -9   25.96    2.55
  -1  -3   9   29.57    2.19
   1   2  -9   20.63    2.27
  -1  -2   9   26.66    1.98
   1   1  -9   67.16    4.36
   1   1  -9   63.21    5.21
   1   0  -9   44.78    3.69
   1  -1  -9   62.07    4.90
   1  -2  -9   25.17    2.20
   1  -3  -9   31.36    2.66
   1  -4  -9    3.47    0.77
   1  -5  -9   31.86    2.77
   1  -6  -9    5.88    1.07
   1  -7  -9    2.98    1.03
   1  -8  -9   -0.85    0.88
  -2  -8   9    0.31    0.92
   2   7  -9    3.16    1.02
  -2  -7   9    2.03    0.91
   2   6  -9   11.49    1.41
  -2  -6   9    8.19    1.18
   2   5  -9    2.50    0.84
  -2  -5   9    2.44    0.74
   2   4  -9    1.78    0.69
  -2  -4   9    1.96    0.67
   2   3  -9    1.99    0.76
  -2  -3   9    2.85    0.64
   2   2  -9   62.72    5.15
  -2  -2   9   65.18    4.57
   2   1  -9    8.66    1.21
  -2  -1   9    7.91    0.97
   2   0  -9   -0.14    0.53
   2  -1  -9    7.51    1.03
   2  -2  -9   64.57    5.02
   2  -3  -9    3.46    0.75
   2  -4  -9    0.71    0.59
   2  -5  -9    2.40    0.82
   2  -6  -9    8.79    1.26
   2  -7  -9    3.03    0.99
   2  -8  -9    0.25    0.91
  -3  -7   9    0.50    0.87
   3   6  -9    1.46    0.79
  -3  -6   9    1.67    0.84
   3   5  -9    7.88    1.24
  -3  -5   9    8.29    1.09
   3   4  -9    7.44    1.16
  -3  -4   9    6.97    0.96
   3   3  -9   15.74    1.80
  -3  -3   9   17.18    1.52
   3   2  -9    5.94    1.04
  -3  -2   9    3.61    0.71
   3   1  -9   15.56    1.73
  -3  -1   9   17.02    1.50
   3   0  -9   28.44    2.52
   3  -1  -9   15.23    1.52
   3  -2  -9    3.26    0.71
   3  -3  -9   17.10    1.70
   3  -4  -9    8.10    1.17
   3  -5  -9    7.84    1.18
   3  -6  -9    1.89    0.84
   3  -7  -9    0.01    0.83
  -4  -7   9    4.61    1.14
  -4  -6   9    1.78    0.89
   4   5  -9    2.69    0.88
  -4  -5   9    3.73    0.90
   4   4  -9    3.52    0.95
  -4  -4   9    4.32    0.82
   4   3  -9   19.62    2.31
  -4  -3   9   27.81    2.05
   4   2  -9   12.56    1.51
  -4  -2   9   11.56    1.19
   4   1  -9    6.45    1.15
  -4  -1   9    7.28    0.88
   4   0  -9   13.12    1.49
   4  -1  -9    7.83    1.04
   4  -2  -9   11.96    1.33
   4  -3  -9   28.19    2.48
   4  -4  -9    2.18    0.74
   4  -5  -9    4.24    0.93
   4  -6  -9    1.40    0.87
   4  -7  -9    3.89    1.09
  -5  -7   9    0.96    0.94
  -5  -6   9   -0.44    0.75
  -5  -5   9    4.24    0.91
   5   4  -9    7.16    1.28
  -5  -4   9    8.67    1.09
   5   3  -9    1.29    0.81
  -5  -3   9    1.12    0.69
   5   2  -9    2.74    0.87
  -5  -2   9    0.76    0.59
   5   1  -9    2.08    0.79
  -5  -1   9    1.36    0.63
  -5   0   9   72.80    5.26
   5  -1  -9    0.93    0.58
   5  -2  -9    1.09    0.64
   5  -3  -9    1.07    0.73
   5  -4  -9    8.04    1.18
   5  -5  -9    3.62    1.00
   5  -6  -9   -0.98    0.70
   5  -7  -9    0.63    0.96
  -6  -6   9    2.35    0.97
  -6  -5   9    4.27    1.02
  -6  -4   9    4.54    0.87
   6   3  -9    5.18    1.15
  -6  -3   9    5.88    0.96
   6   2  -9   15.34    1.70
  -6  -2   9   12.29    1.33
   6   1  -9    7.90    1.17
  -6  -1   9    4.42    0.70
  -6  -1   9    4.31    0.81
   6   0  -9    0.47    0.60
  -6   0   9   -0.14    0.61
  -6   0   9    0.93    0.52
   6  -1  -9    3.84    0.83
   6  -2  -9   14.27    1.55
   6  -3  -9    5.51    1.06
   6  -4  -9    3.87    0.97
   6  -5  -9    3.47    0.96
   6  -6  -9    2.63    0.97
  -7  -6   9    1.59    1.02
  -7  -5   9    3.32    1.01
  -7  -4   9    2.08    0.84
  -7  -3   9    7.45    1.09
   7   2  -9   -0.40    0.74
  -7  -2   9    1.08    0.68
   7   1  -9    1.78    0.83
  -7  -1   9    0.90    0.67
  -7  -1   9    0.63    0.53
   7   0  -9    2.98    0.80
  -7   0   9    1.84    0.79
  -7   0   9    3.00    0.72
   7  -1  -9    0.51    0.60
   7  -2  -9    1.84    0.79
   7  -3  -9    7.76    1.22
   7  -4  -9    1.98    0.90
   7  -5  -9    5.13    1.15
   7  -6  -9    1.83    0.99
  -8  -5   9    0.81    0.90
  -8  -4   9    0.50    0.83
  -8  -3   9    1.07    0.82
  -8  -2   9    7.73    1.09
   8   1  -9    1.50    0.87
  -8  -1   9    0.34    0.60
  -8  -1   9    0.21    0.69
   8   0  -9    0.30    0.62
  -8   0   9    1.09    0.76
  -8   0   9    0.89    0.69
   8  -1  -9    0.69    0.74
  -8   1   9    2.36    0.78
   8  -2  -9   10.28    1.39
   8  -3  -9    2.79    1.00
   8  -4  -9    1.48    0.94
   8  -5  -9    0.28    0.87
  -9  -4   9    0.86    0.88
  -9  -3   9    0.43    0.90
  -9  -2   9   -0.48    0.74
  -9  -1   9    0.61    0.71
  -9  -1   9    0.93    0.79
   9   0  -9    2.73    0.90
  -9   0   9    4.33    0.95
   9  -1  -9    0.29    0.71
  -9   1   9    0.02    0.74
   9  -2  -9    0.39    0.78
   9  -3  -9    1.02    0.94
   9  -4  -9    0.52    0.88
 -10  -3   9   -0.03    0.83
 -10   0   9    1.47    0.89
  10  -1  -9    0.12    0.76
 -10   1   9    0.76    0.89
  10  -2  -9    0.48    0.88
  10  -3  -9    1.26    1.02
 -11   0   9    3.78    1.11
 -11   1   9   -0.41    0.95
 -10   1 -10   -0.04    0.92
 -10   0 -10    2.81    1.04
 -10  -1 -10    0.58    0.91
 -10  -2 -10    1.27    0.99
  -9   4 -10    2.81    1.11
  -9   3 -10    4.87    1.22
  -9   1 -10    5.38    1.11
  -9   0 -10    5.30    1.12
  -9  -1 -10    5.73    1.13
  -9  -2 -10   -0.71    0.77
  -9  -3 -10    3.99    1.12
  -9  -4 -10    3.23    1.13
  -8   5 -10    1.00    0.91
  -8   4 -10    2.05    1.05
  -8   3 -10    4.88    1.17
  -8   2 -10   -0.31    0.78
  -8   1 -10    5.36    1.09
  -8   1 -10    4.52    0.99
  -8   0 -10   11.11    1.35
  -8  -1 -10    6.19    1.05
  -8  -2 -10   -0.46    0.70
  -8  -3 -10    3.74    0.98
  -8  -4 -10   -0.26    0.96
  -8  -5 -10    1.53    1.12
  -7   5 -10    1.89    1.04
  -7   4 -10   10.15    1.58
  -7   3 -10    3.41    1.04
  -7   2 -10    6.49    1.19
  -7   2 -10    6.16    1.01
  -7   1 -10    7.68    1.24
  -7   1 -10    9.53    1.17
  -7   0 -10    7.48    1.15
  -7   0 -10    8.46    1.12
  -7  -1 -10    3.91    0.87
  -7  -2 -10    6.77    1.09
  -7  -3 -10    2.91    0.91
  -7  -4 -10    7.86    1.35
  -7  -5 -10    0.29    0.99
  -6   6 -10    3.75    1.22
  -6   5 -10    4.54    1.18
  -6   4 -10    0.40    0.90
  -6   3 -10    8.10    1.31
  -6   2 -10   13.44    1.61
  -6   1 -10   10.35    1.29
  -6   1 -10    9.74    1.12
  -6   0 -10    2.18    0.71
  -6   0 -10    1.75    0.71
  -6  -1 -10    8.08    1.10
  -6  -1 -10    8.33    1.06
  -6  -2 -10   13.02    1.42
  -6  -3 -10    9.22    1.24
  -6  -4 -10   -0.12    0.71
  -6  -5 -10    5.60    1.26
  -6  -6 -10    1.99    1.18
  -5   6 -10   -0.33    0.82
  -5   5 -10    3.51    1.17
  -5   4 -10    5.55    1.22
  -5   3 -10    2.19    0.90
  -5   2 -10   13.88    1.62
  -5   1 -10   15.63    1.44
  -5   1 -10   16.07    1.69
  -5   0 -10    6.98    0.92
  -5   0 -10    9.08    1.14
  -5  -1 -10   21.48    1.75
  -5  -1 -10   19.18    1.87
  -5  -2 -10   12.29    1.37
  -5  -2 -10   14.93    1.46
  -5  -3 -10    3.58    0.91
  -5  -4 -10    6.67    1.23
  -5  -5 -10    2.17    1.09
  -5  -6 -10    1.00    1.09
  -4   7 -10    1.38    1.00
  -4   6 -10    8.10    1.47
  -4   5 -10    1.51    0.91
  -4   4 -10   30.76    2.89
  -4   3 -10    4.50    0.99
  -4   2 -10   15.50    1.70
  -4   1 -10   17.62    1.80
  -4   0 -10   48.42    3.52
  -4   0 -10   51.38    4.03
  -4  -1 -10   19.96    1.57
  -4  -1 -10   16.97    1.80
  -4  -2 -10   16.83    1.63
  -4  -2 -10   13.23    1.46
  -4  -3 -10    6.78    1.06
  -4  -4 -10   26.76    2.34
  -4  -5 -10    2.12    0.99
  -4  -6 -10    6.23    1.37
  -4  -7 -10   -0.69    0.95
  -3   7 -10    2.57    1.18
  -3   6 -10    4.97    1.25
  -3   5 -10    5.28    1.18
  -3   4 -10   19.45    2.07
  -3   3 -10   13.51    1.61
  -3   2 -10    2.75    0.81
  -3   1 -10    9.61    0.91
  -3   1 -10    7.93    1.13
  -3   0 -10   22.81    1.73
  -3   0 -10   20.75    2.06
  -3  -1 -10    7.06    1.07
  -3  -1 -10    7.38    0.93
  -3  -2 -10    5.54    0.95
  -3  -2 -10    4.26    0.78
  -3  -3 -10   12.59    1.44
  -3  -3 -10   15.81    1.65
  -3  -4 -10   28.25    2.46
  -3  -5 -10    7.39    1.33
  -3  -6 -10    2.38    1.09
  -3  -7 -10    1.20    1.13
  -2   7 -10    4.77    1.30
  -2   6 -10    9.45    1.53
  -2   5 -10    5.87    1.23
   2  -5  10    5.47    0.95
  -2   4 -10    1.54    0.78
   2  -4  10    2.42    0.78
  -2   3 -10   15.10    1.70
  -2   2 -10   19.38    1.91
  -2   1 -10   27.31    2.53
  -2   1 -10   28.09    2.02
  -2   0 -10   24.02    2.04
  -2   0 -10   35.47    2.62
  -2  -1 -10   25.64    1.91
  -2  -1 -10   22.73    2.21
  -2  -2 -10   24.76    1.97
  -2  -2 -10   22.12    2.17
  -2  -3 -10   13.70    1.62
  -2  -3 -10   15.93    1.57
  -2  -4 -10    4.01    0.95
  -2  -4 -10    3.60    0.97
  -2  -5 -10    7.42    1.31
  -2  -6 -10    7.72    1.45
  -2  -7 -10    3.12    1.30
  -1   7 -10    1.90    1.04
  -1   6 -10    5.71    1.25
   1  -6  10    3.56    0.89
  -1   5 -10    7.49    1.22
   1  -5  10    4.28    0.87
  -1   4 -10    4.01    1.00
   1  -4  10    5.05    0.86
  -1   3 -10    9.80    1.42
   1  -3  10   15.70    1.38
  -1   2 -10   61.93    4.99
  -1   1 -10   14.76    1.19
  -1   1 -10   15.44    1.68
  -1   0 -10    3.08    0.53
  -1   0 -10    8.12    1.05
  -1  -1 -10   14.82    1.70
  -1  -1 -10   17.55    1.43
  -1  -2 -10   83.00    6.17
  -1  -2 -10   74.33    5.40
  -1  -3 -10   12.28    1.50
  -1  -3 -10   14.27    1.47
  -1  -4 -10    5.21    1.05
  -1  -4 -10    5.04    0.97
  -1  -5 -10    5.64    1.01
  -1  -5 -10    3.53    1.07
  -1  -6 -10    2.90    1.08
  -1  -7 -10    3.14    1.28
   0   7 -10    1.02    0.94
   0  -7  10   -0.16    0.87
   0   6 -10    1.73    0.93
   0  -6  10    3.97    0.89
   0   5 -10    4.40    1.11
   0  -5  10    3.65    0.83
   0   4 -10    2.54    0.85
   0  -4  10    1.46    0.66
   0   3 -10   26.71    2.43
   0  -3  10   24.27    2.07
   0   2 -10   19.42    1.98
   0  -2  10   18.26    1.66
   0   1 -10    9.46    0.82
   0   1 -10    8.46    1.25
   0   0 -10    4.21    0.97
   0   0 -10    5.64    0.67
   0  -1 -10    9.94    1.34
   0  -1 -10   10.98    1.07
   0  -2 -10   21.32    1.80
   0  -2 -10   20.45    2.07
   0  -3 -10   24.23    2.33
   0  -3 -10   28.20    2.22
   0  -4 -10    1.26    0.70
   0  -4 -10    1.70    0.80
   0  -5 -10    4.58    0.96
   0  -5 -10    4.49    1.07
   0  -6 -10    3.11    0.91
   0  -6 -10    2.31    1.01
   0  -7 -10    1.36    1.02
   0  -8 -10   -1.24    0.90
   1   7 -10    8.12    1.45
  -1  -7  10    5.82    1.14
   1   6 -10    0.69    0.87
  -1  -6  10    0.99    0.79
   1   5 -10   16.23    1.95
  -1  -5  10   17.30    1.61
   1   4 -10   16.51    1.75
  -1  -4  10   13.29    1.36
   1   3 -10   41.64    3.84
  -1  -3  10   47.76    3.38
   1   2 -10   17.15    2.00
  -1  -2  10   21.39    1.76
   1   1 -10   42.04    3.48
   1   1 -10   39.88    2.77
   1   0 -10    9.92    1.33
   1  -1 -10   40.95    3.48
   1  -2 -10   22.53    2.09
   1  -3 -10   45.96    3.77
   1  -4 -10   14.51    1.58
   1  -5 -10   18.13    1.87
   1  -6 -10    0.71    0.75
   1  -7 -10    7.60    1.31
   2   7 -10    1.81    1.00
  -2  -7  10    1.36    0.89
   2   6 -10    2.22    0.94
  -2  -6  10    1.11    0.79
   2   5 -10    1.83    0.91
  -2  -5  10    2.91    0.83
   2   4 -10    5.43    1.09
  -2  -4  10    5.90    0.93
   2   3 -10   14.06    1.81
  -2  -3  10   19.46    1.60
   2   2 -10    8.78    1.37
  -2  -2  10    9.15    1.08
   2   1 -10   36.34    2.96
  -2  -1  10   29.58    2.54
   2   0 -10   31.80    2.86
   2  -1 -10   32.69    2.89
   2  -2 -10    6.43    0.98
   2  -3 -10   17.19    1.72
   2  -4 -10    6.58    1.06
   2  -5 -10    3.40    0.93
   2  -6 -10    1.20    0.85
   2  -7 -10    1.72    0.95
  -3  -7  10    0.85    0.87
   3   6 -10    2.96    1.04
  -3  -6  10    2.08    0.87
   3   5 -10    4.69    1.07
  -3  -5  10    2.90    0.83
   3   4 -10   11.18    1.56
  -3  -4  10   12.73    1.31
   3   3 -10    9.34    1.33
  -3  -3  10    5.30    0.87
   3   2 -10   10.43    1.43
  -3  -2  10    9.88    1.12
   3   1 -10   19.22    1.80
  -3  -1  10   12.57    1.42
   3   0 -10    0.21    0.63
   3  -1 -10   10.91    1.31
   3  -2 -10    8.79    1.15
   3  -3 -10    8.21    1.14
   3  -4 -10   13.68    1.54
   3  -5 -10    4.47    1.03
   3  -6 -10    3.35    1.05
   3  -7 -10    1.61    0.98
  -4  -7  10   -0.11    0.90
  -4  -6  10    2.90    0.90
   4   5 -10    6.67    1.23
  -4  -5  10    8.69    1.18
   4   4 -10    1.30    0.81
  -4  -4  10    3.02    0.83
   4   3 -10   11.91    1.54
  -4  -3  10    8.01    1.06
   4   2 -10   13.05    1.58
  -4  -2  10   10.64    1.22
   4   1 -10   11.33    1.42
  -4  -1  10    7.87    1.08
   4   0 -10    1.86    0.79
   4  -1 -10    5.09    0.92
   4  -2 -10   10.05    1.27
   4  -3 -10   10.46    1.33
   4  -4 -10    1.91    0.83
   4  -5 -10    7.00    1.21
   4  -6 -10    2.39    1.00
   4  -7 -10   -1.14    0.84
  -5  -7  10    1.24    0.98
  -5  -6  10    1.15    0.92
  -5  -5  10    0.16    0.77
   5   4 -10    2.74    1.00
  -5  -4  10    0.99    0.79
   5   3 -10    4.49    1.12
  -5  -3  10    2.82    0.81
   5   2 -10    9.04    1.37
  -5  -2  10    7.12    1.03
   5   1 -10    2.65    0.94
  -5  -1  10    4.13    0.81
   5   0 -10    5.77    1.07
   5  -1 -10    4.87    0.94
   5  -2 -10    7.52    1.14
   5  -3 -10    2.32    0.84
   5  -4 -10    1.52    0.82
   5  -5 -10    0.88    0.88
   5  -6 -10    1.55    0.97
   5  -7 -10    4.04    1.22
  -6  -6  10    1.75    0.91
  -6  -5  10    4.55    1.04
  -6  -4  10    1.38    0.83
   6   3 -10    1.94    1.04
  -6  -3  10    1.67    0.78
   6   2 -10    7.25    1.31
  -6  -2  10    8.03    1.06
   6   1 -10    8.25    1.31
  -6  -1  10    5.14    0.95
   6  -1 -10    4.52    0.95
   6  -2 -10    6.67    1.11
   6  -3 -10   -0.22    0.68
   6  -4 -10    2.41    0.97
   6  -5 -10    5.33    1.16
   6  -6 -10    0.88    0.99
  -7  -6  10    1.09    1.00
  -7  -5  10    0.20    0.87
  -7  -4  10    2.90    0.99
  -7  -3  10    2.18    0.85
   7   2 -10    1.08    0.89
  -7  -2  10    0.31    0.70
   7   1 -10    1.08    0.88
  -7  -1  10    0.00    0.70
   7   0 -10    6.97    1.17
   7  -1 -10    0.90    0.72
   7  -2 -10    0.75    0.71
   7  -3 -10    2.75    0.97
   7  -4 -10    1.78    0.93
   7  -5 -10    0.30    0.95
   7  -6 -10    2.87    1.08
  -8  -5  10    1.45    0.99
  -8  -4  10    1.35    0.98
  -8  -3  10    0.76    0.85
  -8  -2  10    1.65    0.81
   8   1 -10   -0.02    0.82
  -8  -1  10   -0.21    0.70
   8   0 -10    0.49    0.72
  -8   0  10   -0.40    0.62
   8  -1 -10    0.94    0.76
   8  -2 -10    1.98    0.85
   8  -3 -10    0.15    0.82
   8  -4 -10    1.54    1.00
   8  -5 -10    1.29    1.06
  -9  -4  10    0.42    0.96
  -9  -3  10    1.61    0.91
  -9  -2  10    1.55    0.86
  -9  -1  10    0.31    0.82
   9   0 -10    0.56    0.83
  -9   0  10    0.22    0.78
   9  -1 -10    0.81    0.82
   9  -2 -10    2.58    0.95
   9  -3 -10    0.29    0.89
   9  -4 -10    0.17    1.04
 -10   0  10    0.03    0.88
  10  -1 -10    0.46    0.86
 -10   1  10   -0.22    0.83
  10  -2 -10    1.34    0.91
  -9   3 -11    0.59    0.96
  -9   1 -11    0.93    0.91
  -9   0 -11    1.52    0.92
  -9  -1 -11    0.29    0.83
  -9  -2 -11    6.72    1.23
  -9  -3 -11    0.53    0.94
  -8   4 -11   -0.09    0.92
  -8   3 -11    3.91    1.20
  -8   2 -11   -0.40    0.83
  -8   1 -11    3.62    0.96
  -8   0 -11    2.50    0.88
  -8  -1 -11    3.44    0.92
  -8  -2 -11   -0.74    0.66
  -8  -3 -11    2.48    0.97
  -8  -4 -11   -0.06    1.01
  -7   5 -11    2.83    1.17
  -7   4 -11    3.53    1.19
  -7   3 -11    5.47    1.25
  -7   2 -11    8.97    1.43
  -7   1 -11   10.30    1.25
  -7   1 -11    8.73    1.38
  -7   0 -11   11.27    1.33
  -7  -1 -11    7.41    1.10
  -7  -2 -11    6.99    1.12
  -7  -3 -11    4.30    1.09
  -7  -4 -11    2.74    1.10
  -7  -5 -11    2.54    1.19
  -6   6 -11    0.29    0.99
  -6   5 -11    0.97    0.95
  -6   4 -11    9.69    1.59
  -6   3 -11    1.34    0.90
  -6   2 -11    5.62    1.13
  -6   1 -11   -0.24    0.68
  -6   1 -11    0.53    0.60
  -6   0 -11   22.67    2.24
  -6   0 -11   24.41    2.04
  -6  -1 -11   -0.54    0.59
  -6  -2 -11    4.24    0.90
  -6  -3 -11    0.67    0.81
  -6  -4 -11    8.74    1.35
  -6  -5 -11    1.34    1.03
  -6  -6 -11   -1.59    0.99
  -5   6 -11    5.46    1.39
  -5   5 -11    1.63    1.06
  -5   4 -11    1.04    0.97
  -5   3 -11    8.25    1.38
  -5   2 -11   17.60    1.95
  -5   1 -11    8.83    1.30
  -5   1 -11    8.86    1.05
  -5   0 -11    0.77    0.69
  -5   0 -11   -0.18    0.52
  -5  -1 -11    9.03    1.10
  -5  -1 -11    8.73    1.20
  -5  -2 -11   15.43    1.52
  -5  -3 -11    8.37    1.21
  -5  -4 -11    0.53    0.90
  -5  -5 -11    0.85    1.01
  -5  -6 -11    5.49    1.45
  -4   6 -11    3.73    1.28
  -4   5 -11    5.84    1.37
  -4   4 -11    5.18    1.20
  -4   3 -11    5.32    1.18
  -4   2 -11    8.15    1.29
  -4   1 -11   11.52    1.29
  -4   1 -11    5.77    0.80
  -4   0 -11    5.66    1.01
  -4   0 -11    5.75    0.84
  -4  -1 -11   14.43    1.59
  -4  -1 -11   13.80    1.35
  -4  -2 -11   11.94    1.33
  -4  -2 -11   11.93    1.45
  -4  -3 -11    6.66    1.15
  -4  -4 -11    6.88    1.24
  -4  -5 -11    9.00    1.47
  -4  -6 -11    2.79    1.20
  -3   7 -11    1.40    1.16
  -3   6 -11    8.45    1.60
  -3   5 -11    3.06    1.08
  -3   4 -11    4.00    1.12
  -3   3 -11    4.81    1.11
  -3   2 -11   42.32    3.62
  -3   1 -11    7.65    0.87
  -3   1 -11    7.84    1.18
  -3   0 -11   16.67    1.75
  -3   0 -11   15.59    1.38
  -3  -1 -11    8.66    1.06
  -3  -1 -11   10.42    1.33
  -3  -2 -11   51.07    4.18
  -3  -2 -11   50.32    3.66
  -3  -3 -11    2.95    0.83
  -3  -3 -11    3.70    0.93
  -3  -4 -11    3.90    0.99
  -3  -5 -11    5.98    1.29
  -3  -6 -11    8.65    1.57
  -3  -7 -11    0.88    1.19
  -2   7 -11    0.05    1.01
  -2   6 -11    0.48    0.96
  -2   5 -11    5.43    1.26
   2  -5  11    7.54    1.16
  -2   4 -11   13.51    1.73
  -2   3 -11   11.12    1.52
  -2   2 -11    2.75    0.85
  -2   1 -11    7.92    1.20
  -2   0 -11   61.07    4.94
  -2  -1 -11    6.19    0.87
  -2  -1 -11    7.22    1.12
  -2  -2 -11    3.12    0.91
  -2  -2 -11    3.04    0.75
  -2  -3 -11   12.90    1.53
  -2  -3 -11    9.87    1.34
  -2  -4 -11   22.55    2.28
  -2  -4 -11   20.72    2.06
  -2  -5 -11    7.65    1.41
  -2  -6 -11    0.60    1.07
  -2  -7 -11    2.82    1.29
  -1   7 -11    0.65    1.06
  -1   6 -11   -0.10    0.89
   1  -6  11    0.73    0.84
  -1   5 -11    3.72    1.11
   1  -5  11    2.38    0.88
  -1   4 -11    6.30    1.24
   1  -4  11    4.00    0.93
  -1   3 -11   10.59    1.44
  -1   2 -11    0.97    0.70
  -1   1 -11   29.37    2.74
  -1   0 -11    1.99    0.76
  -1   0 -11    2.13    0.51
  -1  -1 -11   35.71    3.03
  -1  -1 -11   32.45    2.53
  -1  -2 -11    2.07    0.80
  -1  -2 -11    3.23    0.75
  -1  -3 -11   11.37    1.54
  -1  -3 -11   13.42    1.45
  -1  -4 -11    4.86    1.08
  -1  -4 -11    3.94    1.02
  -1  -5 -11    3.29    0.99
  -1  -5 -11    3.46    1.04
  -1  -6 -11   -0.81    0.89
  -1  -7 -11    1.35    1.17
   0   7 -11    2.56    1.19
   0  -7  11    0.53    0.89
   0   6 -11    0.01    0.85
   0  -6  11    1.21    0.84
   0   5 -11    4.47    1.15
   0  -5  11    2.46    0.82
   0   4 -11   10.43    1.56
   0  -4  11   10.77    1.26
   0   3 -11   24.42    2.40
   0  -3  11   24.80    2.14
   0   2 -11    0.23    0.71
   0   1 -11   18.27    1.96
   0   0 -11   23.66    2.24
   0   0 -11   21.51    1.72
   0  -1 -11   16.19    1.41
   0  -1 -11   15.15    1.74
   0  -2 -11    0.77    0.60
   0  -2 -11    0.55    0.72
   0  -3 -11   34.68    3.13
   0  -3 -11   34.95    2.78
   0  -4 -11   10.92    1.44
   0  -4 -11   12.02    1.48
   0  -5 -11    2.48    0.90
   0  -5 -11    4.07    1.03
   0  -6 -11   -0.05    0.85
   0  -6 -11    2.17    1.07
   0  -7 -11    2.17    1.11
   1   7 -11    0.80    0.98
  -1  -7  11    0.88    0.92
   1   6 -11    7.14    1.44
  -1  -6  11    6.45    1.13
   1   5 -11    9.34    1.56
  -1  -5  11    9.82    1.24
   1   4 -11    1.72    0.85
  -1  -4  11    1.68    0.75
   1   3 -11   12.64    1.68
  -1  -3  11   13.03    1.39
   1   2 -11    8.37    1.31
  -1  -2  11    5.71    0.97
   1   1 -11   35.11    3.13
   1   0 -11   15.53    1.72
   1   0 -11   13.78    1.25
   1  -1 -11   35.69    3.19
   1  -2 -11    6.78    1.19
   1  -3 -11   12.12    1.46
   1  -4 -11    1.75    0.80
   1  -5 -11    9.91    1.40
   1  -6 -11    7.40    1.26
   1  -7 -11   -0.39    0.85
   1  -7 -11    1.08    1.11
   2   7 -11    4.01    1.31
  -2  -7  11    4.19    1.12
   2   6 -11    0.78    0.97
  -2  -6  11    0.71    0.86
   2   5 -11    5.01    1.23
  -2  -5  11    4.74    0.98
   2   4 -11    5.52    1.27
  -2  -4  11    9.69    1.14
   2   3 -11   10.15    1.58
  -2  -3  11   13.64    1.36
   2   2 -11    4.79    1.10
  -2  -2  11    2.30    0.79
   2   1 -11   65.82    5.35
   2   0 -11   48.28    4.06
   2  -1 -11   55.72    4.57
   2  -2 -11    2.41    0.83
   2  -3 -11   11.56    1.43
   2  -4 -11    6.76    1.16
   2  -5 -11    5.53    1.12
   2  -6 -11    0.93    0.87
   2  -7 -11    2.66    1.07
  -3  -7  11    0.38    0.98
   3   6 -11    2.84    1.08
  -3  -6  11    3.29    1.01
   3   5 -11    1.57    0.95
  -3  -5  11    3.04    0.94
   3   4 -11    0.90    0.85
  -3  -4  11    1.62    0.75
   3   3 -11    5.25    1.24
  -3  -3  11    4.53    0.92
   3   2 -11    4.63    1.11
  -3  -2  11    4.36    0.84
   3   1 -11   23.30    2.33
   3   0 -11    3.32    0.98
   3  -1 -11   14.30    1.67
   3  -2 -11    5.10    0.99
   3  -3 -11    5.53    1.07
   3  -4 -11    1.16    0.79
   3  -5 -11    2.29    0.95
   3  -6 -11    1.97    0.92
   3  -7 -11    2.71    1.12
  -4  -7  11   -0.04    0.90
  -4  -6  11    1.22    0.97
   4   5 -11    1.47    0.90
  -4  -5  11    0.74    0.86
   4   4 -11    5.77    1.33
  -4  -4  11    7.66    1.13
   4   3 -11    4.60    1.20
  -4  -3  11    2.11    0.80
   4   2 -11    1.50    0.91
  -4  -2  11    0.58    0.69
   4   1 -11    3.48    1.03
  -4  -1  11    2.30    0.80
   4   0 -11   10.33    1.48
   4  -1 -11    2.57    0.84
   4  -2 -11    0.85    0.67
   4  -3 -11    2.13    0.83
   4  -4 -11    7.43    1.24
   4  -5 -11    0.41    0.80
   4  -6 -11    0.27    0.85
   4  -7 -11   -0.61    0.94
  -5  -6  11    2.26    0.96
  -5  -5  11    4.39    1.09
   5   4 -11    4.08    1.20
  -5  -4  11    6.11    1.07
   5   3 -11    2.14    1.08
  -5  -3  11    0.25    0.74
   5   2 -11    9.93    1.53
  -5  -2  11    8.87    1.19
   5   1 -11    9.31    1.40
  -5  -1  11    8.71    1.20
   5   0 -11    0.51    0.77
   5  -1 -11    4.84    1.02
   5  -2 -11    6.74    1.17
   5  -3 -11    0.52    0.77
   5  -4 -11    3.83    1.02
   5  -5 -11    3.47    1.06
   5  -6 -11    0.36    0.94
  -6  -6  11    0.69    0.87
  -6  -5  11    1.35    1.02
  -6  -4  11    4.98    1.06
   6   3 -11    2.07    1.09
  -6  -3  11    1.51    0.83
   6   2 -11    4.24    1.22
  -6  -2  11    5.15    0.97
   6   1 -11    3.60    1.09
  -6  -1  11    1.87    0.81
   6   0 -11    5.27    1.18
   6  -1 -11    1.80    0.77
   6  -2 -11    4.99    1.09
   6  -3 -11    1.38    0.85
   6  -4 -11    2.79    1.03
   6  -5 -11    0.61    0.93
   6  -6 -11    1.45    1.12
  -7  -5  11    0.29    1.01
  -7  -4  11    0.75    0.91
  -7  -3  11    0.57    0.84
   7   2 -11    5.66    1.29
  -7  -2  11    3.78    0.96
   7   1 -11    1.85    1.00
  -7  -1  11    2.76    0.91
   7   0 -11   -0.11    0.84
   7  -1 -11    0.80    0.69
   7  -2 -11    3.36    1.00
   7  -3 -11    1.34    0.92
   7  -4 -11    0.79    0.88
   7  -5 -11    0.97    1.08
  -8  -4  11    1.45    1.01
  -8  -3  11    1.86    0.95
  -8  -2  11    0.29    0.78
   8   1 -11    1.57    1.09
  -8  -1  11    2.14    0.92
   8   0 -11    0.63    0.90
   8  -1 -11    1.41    0.84
   8  -2 -11    0.20    0.85
   8  -3 -11    1.34    0.96
   8  -4 -11    0.97    0.94
  -9  -3  11    1.67    1.01
  -9  -2  11   -0.38    0.88
  -9  -1  11    2.37    1.02
   9   0 -11    0.47    1.00
   9  -1 -11   -0.04    0.79
   9  -2 -11    0.22    0.89
   9  -3 -11    1.28    1.04
  10  -1 -11   -0.23    0.87
  -9   0 -12    6.53    1.27
  -9  -1 -12   -0.30    0.82
  -8   3 -12    3.86    1.23
  -8   2 -12    4.32    1.23
  -8   0 -12    6.14    1.13
  -8  -1 -12    4.82    1.05
  -8  -2 -12    4.25    1.04
  -8  -3 -12    3.28    1.09
  -7   4 -12   -0.56    0.91
  -7   3 -12    4.90    1.25
  -7   2 -12    0.36    0.94
  -7   1 -12    7.10    1.33
  -7   0 -12    0.37    0.72
  -7  -1 -12    8.33    1.18
  -7  -2 -12    0.21    0.76
  -7  -3 -12    4.70    1.15
  -7  -4 -12    0.47    1.01
  -6   5 -12    0.96    1.10
  -6   4 -12    0.54    1.04
  -6   3 -12    1.27    0.94
  -6   2 -12   12.78    1.72
  -6   1 -12    2.09    0.93
  -6   0 -12   -0.28    0.69
  -6   0 -12   -0.24    0.73
  -6  -1 -12    0.86    0.65
  -6  -2 -12   14.37    1.56
  -6  -3 -12    1.72    0.89
  -6  -4 -12    0.31    0.86
  -6  -5 -12   -0.57    1.00
  -5   6 -12   -0.74    0.89
  -5   5 -12    1.00    1.10
  -5   4 -12    8.13    1.54
  -5   3 -12    1.15    0.93
  -5   2 -12    1.10    0.85
  -5   1 -12    5.45    1.16
  -5   0 -12   19.66    2.01
  -5   0 -12   18.88    1.66
  -5  -1 -12    6.01    1.08
  -5  -1 -12    5.55    0.93
  -5  -2 -12    0.37    0.70
  -5  -3 -12    3.37    0.97
  -5  -4 -12   11.87    1.64
  -5  -5 -12    3.69    1.25
  -5  -6 -12    0.78    1.32
  -4   6 -12    2.57    1.19
  -4   5 -12    1.68    1.08
  -4   4 -12    0.15    0.83
  -4   3 -12   10.26    1.55
  -4   2 -12    0.40    0.82
  -4   1 -12   11.87    1.54
  -4   0 -12    3.76    0.74
  -4   0 -12    3.13    0.92
  -4  -1 -12   14.03    1.31
  -4  -1 -12   10.49    1.47
  -4  -2 -12   -0.40    0.76
  -4  -2 -12    0.35    0.66
  -4  -3 -12   15.48    1.71
  -4  -4 -12    1.26    0.96
  -4  -5 -12    2.58    1.08
  -4  -6 -12    2.17    1.25
  -3   6 -12    2.49    1.23
  -3   5 -12    5.29    1.39
  -3   4 -12   12.43    1.75
  -3   3 -12    8.47    1.47
  -3   2 -12    4.46    1.06
  -3   1 -12    2.10    0.82
  -3   0 -12   60.14    4.31
  -3   0 -12   66.20    5.10
  -3  -1 -12    3.20    0.95
  -3  -1 -12    2.34    0.74
  -3  -2 -12    5.65    0.96
  -3  -2 -12    5.46    1.13
  -3  -3 -12    8.80    1.24
  -3  -3 -12    8.71    1.32
  -3  -4 -12   12.30    1.58
  -3  -5 -12    6.49    1.35
  -3  -6 -12   -0.01    1.11
  -2   6 -12    5.32    1.44
  -2   5 -12    1.35    0.94
  -2   4 -12    0.85    0.92
  -2   3 -12    2.09    0.96
  -2   2 -12   36.43    3.27
  -2   1 -12    0.35    0.73
  -2   0 -12    0.03    0.34
  -2   0 -12   -0.62    0.71
  -2  -1 -12    0.47    0.54
  -2  -1 -12    1.13    0.81
  -2  -2 -12   45.53    3.65
  -2  -2 -12   38.76    3.13
  -2  -3 -12    2.58    0.88
  -2  -3 -12    2.17    0.94
  -2  -4 -12    0.39    0.86
  -2  -4 -12    0.48    0.80
  -2  -5 -12    0.53    0.98
  -2  -6 -12    7.17    1.53
  -2  -7 -12   -0.06    1.30
  -1   7 -12    2.44    1.27
  -1   6 -12    0.25    0.98
   1  -6  12    0.61    0.94
  -1   5 -12    3.56    1.18
   1  -5  12    3.88    1.01
  -1   4 -12    1.43    0.98
   1  -4  12    1.02    0.81
  -1   3 -12    4.88    1.13
  -1   2 -12    2.11    0.86
  -1   1 -12   24.89    2.45
  -1   0 -12    2.98    0.90
  -1   0 -12    2.54    0.61
  -1  -1 -12   24.12    2.08
  -1  -1 -12   29.78    2.58
  -1  -2 -12    2.59    0.85
  -1  -2 -12    1.96    0.76
  -1  -3 -12    6.08    1.07
  -1  -3 -12    6.70    1.26
  -1  -4 -12    0.24    0.85
  -1  -4 -12    1.09    0.92
  -1  -5 -12    3.84    1.17
  -1  -5 -12    5.23    1.32
  -1  -6 -12    0.40    0.96
  -1  -7 -12    2.71    1.34
   0   7 -12    1.41    1.27
   0  -7  12    1.58    1.08
   0   6 -12    3.32    1.26
   0  -6  12    2.61    1.02
   0   5 -12    2.87    1.14
   0  -5  12    2.36    0.91
   0   4 -12    1.66    0.95
   0  -4  12    2.88    0.88
   0   3 -12   15.07    1.88
   0   2 -12   16.54    1.94
   0   1 -12   19.43    2.09
   0   0 -12   -0.30    0.68
   0   0 -12    0.67    0.49
   0  -1 -12   17.27    1.93
   0  -1 -12   18.91    1.62
   0  -2 -12   15.94    1.84
   0  -2 -12   15.59    1.53
   0  -3 -12   16.69    1.97
   0  -3 -12   17.77    1.75
   0  -4 -12    2.50    0.89
   0  -4 -12    0.95    0.88
   0  -5 -12    1.88    1.01
   0  -5 -12    1.88    0.98
   0  -6 -12    3.92    1.19
   0  -6 -12    2.34    1.09
   0  -7 -12    1.04    1.23
   1   7 -12    0.98    1.13
  -1  -7  12    0.71    1.05
   1   6 -12   -0.30    0.94
  -1  -6  12    0.53    0.90
   1   5 -12    2.67    1.13
  -1  -5  12    1.52    0.90
   1   4 -12    9.90    1.59
  -1  -4  12   11.08    1.31
   1   3 -12    0.36    0.77
  -1  -3  12    0.08    0.68
   1   2 -12    2.93    1.07
   1   1 -12    0.31    0.79
   1   0 -12    6.97    1.26
   1   0 -12    7.91    0.90
   1  -1 -12   -0.25    0.53
   1  -1 -12   -0.19    0.66
   1  -2 -12    2.57    0.94
   1  -3 -12    0.18    0.81
   1  -4 -12   11.87    1.61
   1  -5 -12    3.81    1.11
   1  -6 -12    1.36    1.02
   1  -6 -12    0.98    0.98
   1  -7 -12    0.21    1.07
   2   7 -12    2.42    1.30
  -2  -7  12    1.94    1.08
   2   6 -12    0.88    1.06
  -2  -6  12    3.98    1.07
   2   5 -12    4.90    1.32
  -2  -5  12    6.43    1.14
   2   4 -12    2.04    1.03
  -2  -4  12    3.69    0.96
   2   3 -12   18.64    2.06
  -2  -3  12   15.93    1.66
   2   2 -12   13.65    1.78
  -2  -2  12   14.89    1.59
   2   1 -12   28.42    2.75
   2   0 -12    2.81    0.93
   2  -1 -12   34.56    3.19
   2  -2 -12   15.08    1.81
   2  -3 -12   14.54    1.74
   2  -4 -12    3.46    1.04
   2  -5 -12    5.37    1.21
   2  -6 -12    1.17    0.95
   2  -7 -12   -0.10    0.97
   3   6 -12    1.02    1.04
  -3  -6  12    0.95    0.98
   3   5 -12    4.49    1.28
  -3  -5  12    4.90    1.10
   3   4 -12   -0.29    0.83
  -3  -4  12    0.78    0.83
   3   3 -12   14.78    1.88
  -3  -3  12   10.92    1.40
   3   2 -12    3.28    1.04
  -3  -2  12    2.53    0.87
   3   1 -12    5.88    1.25
   3   0 -12    4.14    1.06
   3  -1 -12    5.92    1.22
   3  -2 -12    1.68    0.89
   3  -3 -12   10.98    1.51
   3  -4 -12   -0.24    0.79
   3  -5 -12    6.03    1.23
   3  -6 -12    0.97    1.00
  -4  -6  12    0.91    1.06
   4   5 -12    0.16    0.86
  -4  -5  12    1.81    0.99
   4   4 -12    0.08    0.94
  -4  -4  12    1.00    0.85
   4   3 -12    4.96    1.31
  -4  -3  12    3.68    0.95
   4   2 -12    9.48    1.48
  -4  -2  12    7.23    1.12
   4   1 -12    6.02    1.24
   4   0 -12    0.21    0.82
   4  -1 -12    5.88    1.20
   4  -2 -12    7.47    1.28
   4  -3 -12    2.07    0.94
   4  -4 -12   -0.04    0.83
   4  -5 -12    0.84    0.90
   4  -6 -12    3.98    1.20
  -5  -6  12    0.01    0.99
  -5  -5  12    1.47    1.01
   5   4 -12    4.63    1.37
  -5  -4  12    5.92    1.15
   5   3 -12    3.72    1.22
  -5  -3  12    2.14    0.88
   5   2 -12    2.08    1.04
  -5  -2  12    1.50    0.79
   5   1 -12    4.00    1.11
  -5  -1  12    2.03    0.84
   5   0 -12    4.74    1.23
   5  -1 -12    3.98    1.13
   5  -2 -12    0.47    0.72
   5  -3 -12    3.16    1.05
   5  -4 -12    3.87    1.06
   5  -5 -12    1.96    0.97
   5  -6 -12   -0.09    1.00
  -6  -5  12    0.43    0.98
  -6  -4  12   -1.08    0.80
   6   3 -12    2.74    1.16
  -6  -3  12    1.84    0.91
   6   2 -12    0.32    0.95
  -6  -2  12    1.15    0.84
   6   1 -12    1.95    1.04
  -6  -1  12    2.65    0.94
   6   0 -12    1.26    0.99
   6  -1 -12    1.92    0.86
   6  -2 -12    0.88    0.77
   6  -3 -12    2.22    1.04
   6  -4 -12   -0.09    0.88
   6  -5 -12    1.10    0.93
  -7  -4  12    5.41    1.19
  -7  -3  12   -0.56    0.79
   7   2 -12    0.97    1.04
  -7  -2  12    2.32    0.91
   7   1 -12    4.60    1.24
  -7  -1  12    3.57    1.02
   7   0 -12    4.23    1.25
   7  -1 -12    2.41    0.95
   7  -2 -12    0.63    0.89
   7  -3 -12   -0.40    0.87
   7  -4 -12    4.24    1.27
  -8  -4  12   -0.20    1.00
  -8  -3  12    0.71    0.94
  -8  -2  12    1.51    0.96
   8   1 -12    2.14    1.22
  -8  -1  12    0.62    0.91
   8   0 -12    0.34    0.99
   8  -1 -12    0.01    0.83
   8  -2 -12    1.11    0.96
   8  -3 -12    0.73    0.95
   8  -4 -12    1.27    1.13
  -9  -2  12    0.14    0.90
  -9  -1  12    1.25    1.05
   9   0 -12    1.01    1.16
   9  -1 -12    1.04    1.01
   9  -2 -12   -1.06    0.89
  -8   2 -13    4.17    1.32
  -8  -1 -13    1.60    0.89
  -8  -2 -13    2.30    0.96
  -7   3 -13    1.03    1.11
  -7   2 -13    0.46    1.00
  -7   1 -13    4.18    1.20
  -7  -1 -13    1.72    0.90
  -7  -2 -13   -0.49    0.76
  -7  -3 -13    2.46    1.06
  -6   4 -13   -0.51    1.04
  -6   3 -13    3.54    1.24
  -6   2 -13   -0.04    0.92
  -6   1 -13    2.43    1.07
  -6   0 -13   20.94    2.26
  -6  -1 -13    1.59    0.77
  -6  -2 -13    0.23    0.73
  -6  -3 -13    1.35    0.92
  -6  -4 -13    1.31    1.01
  -5   5 -13    1.70    1.19
  -5   4 -13    2.21    1.13
  -5   3 -13    0.10    0.94
  -5   2 -13   11.79    1.67
  -5   1 -13    1.39    0.93
  -5   0 -13    2.54    0.95
  -5  -1 -13    0.27    0.64
  -5  -1 -13    0.85    0.81
  -5  -2 -13   13.03    1.44
  -5  -3 -13    0.96    0.82
  -5  -4 -13    0.83    1.02
  -5  -5 -13   -0.08    1.12
  -4   5 -13    1.30    1.23
  -4   4 -13    0.37    0.92
  -4   3 -13    5.64    1.28
  -4   2 -13    6.35    1.35
  -4   1 -13   10.42    1.51
  -4   0 -13    2.34    0.94
  -4  -1 -13   10.09    1.19
  -4  -1 -13   10.48    1.46
  -4  -2 -13    8.69    1.15
  -4  -2 -13    6.53    1.29
  -4  -3 -13    6.45    1.21
  -4  -4 -13    0.53    0.98
  -4  -5 -13    3.26    1.21
  -3   6 -13    4.78    1.49
  -3   5 -13   -0.02    0.99
  -3   4 -13    2.59    1.22
  -3   3 -13    4.99    1.28
  -3   2 -13    9.24    1.45
  -3   1 -13    5.03    1.08
  -3   0 -13    4.52    1.11
  -3  -1 -13    4.53    1.09
  -3  -1 -13    4.40    0.87
  -3  -2 -13   14.69    1.77
  -3  -2 -13   13.40    1.49
  -3  -3 -13    7.49    1.34
  -3  -3 -13    7.31    1.20
  -3  -4 -13    2.23    0.99
  -3  -5 -13    2.45    1.15
  -3  -6 -13    3.51    1.31
  -2   6 -13    0.87    1.21
  -2   5 -13    2.05    1.11
  -2   4 -13   15.46    2.04
  -2   3 -13    1.88    0.98
  -2   2 -13    0.68    0.87
  -2   1 -13    1.17    0.88
  -2   0 -13   24.06    2.47
  -2  -1 -13    1.63    0.91
  -2  -1 -13    1.23    0.66
  -2  -2 -13    0.57    0.70
  -2  -2 -13    0.78    0.83
  -2  -3 -13    1.94    0.87
  -2  -3 -13    1.88    0.98
  -2  -4 -13   19.35    2.08
  -2  -4 -13   20.48    2.29
  -2  -5 -13    2.29    1.09
  -2  -6 -13   -0.83    1.09
  -1   6 -13    0.66    1.14
   1  -6  13    1.34    1.04
  -1   5 -13    2.64    1.29
   1  -5  13    3.20    1.07
  -1   4 -13    2.69    1.19
  -1   3 -13   12.06    1.69
  -1   2 -13    2.91    1.02
  -1   1 -13    8.04    1.42
  -1   0 -13    5.94    1.22
  -1  -1 -13    6.45    0.95
  -1  -1 -13    7.40    1.29
  -1  -2 -13    3.25    1.06
  -1  -2 -13    2.74    0.85
  -1  -3 -13   17.62    2.07
  -1  -3 -13   18.89    1.86
  -1  -4 -13    5.16    1.27
  -1  -4 -13    1.02    0.92
  -1  -5 -13    2.39    1.11
  -1  -5 -13    3.64    1.23
  -1  -6 -13    1.49    1.17
   0   6 -13    0.96    1.18
   0  -6  13    0.73    1.02
   0   5 -13    6.36    1.49
   0  -5  13    3.72    1.15
   0   4 -13   -0.49    0.83
   0  -4  13    0.37    0.85
   0   3 -13    1.99    0.96
   0   2 -13    2.91    1.03
   0   1 -13   10.04    1.51
   0   0 -13    7.10    1.31
   0  -1 -13   11.85    1.62
   0  -1 -13   10.82    1.20
   0  -2 -13    3.65    0.88
   0  -2 -13    3.77    1.12
   0  -3 -13    3.33    0.94
   0  -3 -13    2.22    1.05
   0  -4 -13   -0.03    0.91
   0  -4 -13    0.03    0.81
   0  -5 -13    5.25    1.35
   0  -5 -13    3.33    1.10
   0  -6 -13   -1.92    0.95
   1   6 -13    3.78    1.44
  -1  -6  13    4.05    1.14
   1   5 -13   -0.02    1.00
  -1  -5  13    0.53    0.92
   1   4 -13   -0.94    0.85
  -1  -4  13    0.30    0.90
   1   3 -13    7.06    1.47
  -1  -3  13    5.75    1.10
   1   2 -13   25.35    2.68
   1   1 -13    0.03    0.81
   1   0 -13    4.08    1.11
   1  -1 -13    1.17    0.86
   1  -1 -13    0.36    0.62
   1  -2 -13   18.93    1.82
   1  -2 -13   20.76    2.27
   1  -3 -13    7.12    1.43
   1  -3 -13    8.07    1.24
   1  -4 -13   -0.99    0.76
   1  -4 -13    0.61    1.01
   1  -5 -13    0.62    0.91
   1  -5 -13    0.54    0.97
   1  -6 -13    2.09    1.10
   1  -6 -13    2.55    1.21
   2   6 -13    0.68    1.11
  -2  -6  13    1.23    1.01
   2   5 -13    3.17    1.31
  -2  -5  13    5.93    1.19
   2   4 -13    0.20    0.86
  -2  -4  13    2.00    0.99
   2   3 -13    4.55    1.21
  -2  -3  13    4.84    1.11
   2   2 -13    6.71    1.39
   2   1 -13   12.98    1.72
   2   0 -13   15.84    1.92
   2  -1 -13   10.48    1.58
   2  -2 -13    3.96    1.19
   2  -3 -13    6.66    1.41
   2  -4 -13    2.05    1.01
   2  -5 -13    6.62    1.40
   2  -6 -13    0.73    1.03
   3   6 -13   -0.14    1.19
  -3  -6  13   -0.76    1.01
   3   5 -13    2.31    1.20
  -3  -5  13    4.03    1.08
   3   4 -13    2.61    1.17
  -3  -4  13    2.06    0.99
   3   3 -13    8.04    1.54
  -3  -3  13    6.04    1.15
   3   2 -13    0.57    0.98
   3   1 -13    4.44    1.16
   3   0 -13   21.42    2.31
   3  -1 -13    5.26    1.30
   3  -2 -13    0.72    0.99
   3  -3 -13    4.89    1.24
   3  -4 -13    2.45    1.09
   3  -5 -13    1.79    1.02
   3  -6 -13    0.04    0.97
  -4  -6  13    0.51    1.02
   4   5 -13    0.39    1.04
  -4  -5  13    0.43    0.99
   4   4 -13    3.35    1.26
  -4  -4  13    2.83    1.05
   4   3 -13    1.45    1.05
  -4  -3  13    0.56    0.81
   4   2 -13    1.84    1.06
  -4  -2  13   -0.03    0.73
   4   1 -13    2.50    1.05
   4   0 -13   14.71    1.92
   4  -1 -13    3.44    1.18
   4  -2 -13    0.64    0.95
   4  -3 -13    1.36    0.88
   4  -4 -13    2.20    1.09
   4  -5 -13    0.45    1.02
   4  -6 -13    0.41    1.01
  -5  -5  13    1.72    1.05
   5   4 -13    1.61    1.17
  -5  -4  13    1.49    0.91
   5   3 -13    0.43    1.05
  -5  -3  13    1.13    0.93
   5   2 -13    4.21    1.21
  -5  -2  13    2.29    0.91
   5   1 -13    1.17    0.97
   5   0 -13    1.62    1.05
   5  -1 -13   -0.41    0.78
   5  -2 -13    1.89    1.02
   5  -3 -13    1.96    0.98
   5  -4 -13    0.16    0.87
   5  -5 -13    0.44    0.97
  -6  -5  13   -0.08    1.03
  -6  -4  13    1.46    1.02
   6   3 -13    2.78    1.29
  -6  -3  13    2.21    1.03
   6   2 -13   -0.39    0.95
  -6  -2  13   -0.42    0.85
   6   1 -13    1.90    1.01
   6   0 -13    5.13    1.37
   6  -1 -13    1.85    1.06
   6  -2 -13   -0.44    0.82
   6  -3 -13    1.78    1.09
   6  -4 -13    0.03    1.03
   6  -5 -13    1.11    1.04
  -7  -4  13   -0.08    1.02
  -7  -3  13    0.06    0.95
   7   2 -13    4.70    1.39
  -7  -2  13    3.52    1.14
   7   1 -13    2.06    1.15
   7   0 -13    1.45    1.14
   7  -1 -13    2.45    1.21
   7  -2 -13    1.95    1.08
   7  -3 -13    1.58    1.11
   7  -4 -13    0.42    1.01
  -8  -3  13    0.18    1.02
  -8  -2  13    0.27    0.99
   8   1 -13   -1.05    1.06
   8   0 -13    0.51    1.10
   8  -1 -13    0.74    1.14
   8  -2 -13    0.75    1.05
   8  -3 -13    0.14    1.08
  -7   2 -14    1.46    1.14
  -7   1 -14    1.92    1.12
  -7  -2 -14    0.35    0.81
  -6   3 -14    2.24    1.21
  -6   2 -14    1.66    1.11
  -6   1 -14    8.74    1.57
  -6   0 -14    3.13    1.14
  -6  -1 -14    8.51    1.23
  -6  -2 -14    0.79    0.84
  -6  -3 -14    4.03    1.13
  -5   4 -14    2.07    1.24
  -5   3 -14    0.63    1.01
  -5   2 -14   -1.05    0.87
  -5   1 -14    1.79    1.03
  -5   0 -14    2.35    1.01
  -5  -1 -14    1.90    0.98
  -5  -1 -14    1.67    0.77
  -5  -2 -14    0.77    0.76
  -5  -3 -14    2.66    0.99
  -5  -4 -14    2.20    1.14
  -4   5 -14   -0.27    1.08
  -4   4 -14    6.33    1.50
  -4   3 -14    5.28    1.36
  -4   2 -14    0.30    1.00
  -4   1 -14    2.48    1.03
  -4   0 -14    4.19    1.11
  -4  -1 -14    0.88    0.71
  -4  -1 -14    1.99    0.96
  -4  -2 -14    1.63    0.84
  -4  -2 -14    0.62    0.88
  -4  -3 -14    5.52    1.18
  -4  -4 -14    6.82    1.42
  -4  -5 -14    1.00    1.17
  -3   5 -14   -0.51    1.10
  -3   4 -14   -0.36    1.05
  -3   3 -14    2.36    1.21
  -3   2 -14    6.32    1.31
  -3   1 -14    6.19    1.27
  -3   0 -14    4.56    1.10
  -3  -1 -14    7.99    1.09
  -3  -1 -14    7.53    1.40
  -3  -2 -14    6.50    1.35
  -3  -2 -14    7.54    1.15
  -3  -3 -14    2.58    1.12
  -3  -3 -14    1.39    0.86
  -3  -4 -14    2.08    1.03
  -3  -5 -14    0.81    1.10
  -2   5 -14    1.49    1.30
  -2   4 -14    1.45    1.12
  -2   3 -14    0.91    1.07
  -2   2 -14    7.45    1.38
  -2   1 -14    9.17    1.48
  -2   0 -14    0.45    0.85
  -2  -1 -14   10.49    1.52
  -2  -2 -14   13.33    1.73
  -2  -2 -14   11.18    1.35
  -2  -3 -14    1.37    0.86
  -2  -3 -14    1.95    1.12
  -2  -4 -14    1.12    0.97
  -2  -4 -14    1.61    1.07
  -2  -5 -14    1.99    1.18
  -1   6 -14    2.41    1.47
  -1   5 -14   -0.31    1.16
  -1   4 -14    3.19    1.31
  -1   3 -14    7.68    1.49
  -1   2 -14    4.18    1.19
  -1   1 -14    1.47    1.02
  -1   0 -14    6.62    1.33
  -1  -1 -14    3.78    1.11
  -1  -2 -14    3.67    1.22
  -1  -2 -14    5.56    1.00
  -1  -3 -14   11.87    1.46
  -1  -3 -14    9.35    1.62
  -1  -4 -14    2.42    1.05
  -1  -4 -14    3.56    1.25
  -1  -5 -14    1.32    1.12
  -1  -6 -14    2.80    1.33
   0   6 -14   -0.25    1.24
   0  -6  14    0.90    1.05
   0   5 -14   -0.68    1.14
   0  -5  14    2.02    1.06
   0   4 -14    4.65    1.35
   0   3 -14    1.72    1.11
   0   2 -14    2.04    1.03
   0   1 -14    0.64    0.94
   0   0 -14    8.87    1.51
   0  -1 -14    1.96    1.04
   0  -2 -14    3.25    0.86
   0  -2 -14    2.07    0.98
   0  -3 -14    1.84    1.02
   0  -3 -14    2.13    0.91
   0  -4 -14    4.76    1.29
   0  -4 -14    3.31    1.11
   0  -5 -14    2.69    1.15
   0  -5 -14    0.75    1.20
   0  -6 -14   -0.01    1.14
   1   6 -14    1.70    1.31
  -1  -6  14    0.21    1.03
   1   5 -14   -0.10    1.17
  -1  -5  14    3.53    1.13
   1   4 -14    3.94    1.24
  -1  -4  14    4.34    1.20
   1   3 -14    1.51    1.15
   1   2 -14    2.58    1.16
   1   1 -14    4.31    1.23
   1   0 -14   23.93    2.51
   1  -1 -14    2.55    1.05
   1  -2 -14    3.67    1.14
   1  -2 -14    2.72    0.86
   1  -3 -14    3.59    1.25
   1  -3 -14    0.97    0.83
   1  -4 -14    4.62    1.16
   1  -4 -14    3.65    1.30
   1  -5 -14    3.15    1.20
   1  -5 -14    2.58    1.35
   1  -6 -14    1.34    1.17
   1  -6 -14   -0.19    1.01
   2   5 -14   -1.01    1.05
  -2  -5  14   -0.29    0.90
   2   4 -14    0.83    1.13
  -2  -4  14    1.25    1.03
   2   3 -14    3.45    1.26
   2   2 -14    3.43    1.19
   2   1 -14    1.40    1.03
   2   0 -14    1.95    1.06
   2  -1 -14    2.79    1.10
   2  -2 -14    3.28    1.20
   2  -3 -14    3.20    1.17
   2  -4 -14   -0.13    1.04
   2  -5 -14   -0.05    0.92
   3   5 -14    4.92    1.46
  -3  -5  14    4.90    1.27
   3   4 -14    0.87    1.06
  -3  -4  14    2.11    1.09
   3   3 -14    6.83    1.49
  -3  -3  14    5.48    1.23
   3   2 -14    6.52    1.47
   3   1 -14    1.48    1.03
   3   0 -14    0.12    0.93
   3  -1 -14   -0.64    0.92
   3  -2 -14    5.43    1.36
   3  -3 -14    7.49    1.56
   3  -4 -14    1.86    1.04
   3  -5 -14    6.59    1.50
   4   5 -14    0.41    1.16
  -4  -5  14    1.46    1.09
   4   4 -14    2.31    1.29
  -4  -4  14    4.47    1.16
   4   3 -14   -1.04    0.98
  -4  -3  14    1.66    1.00
   4   2 -14    4.89    1.34
   4   1 -14    1.57    1.07
   4   0 -14    2.33    1.10
   4  -1 -14    4.33    1.34
   4  -2 -14    2.22    1.17
   4  -3 -14    1.60    1.09
   4  -4 -14    5.67    1.36
   4  -5 -14    0.77    1.03
   5   4 -14    0.47    1.25
  -5  -4  14    2.66    1.11
   5   3 -14   -0.05    1.08
  -5  -3  14    0.97    1.01
   5   2 -14    0.34    1.05
   5   1 -14    0.07    0.90
   5   0 -14    3.30    1.17
   5  -1 -14    1.45    1.05
   5  -2 -14   -0.10    0.93
   5  -3 -14    2.11    1.14
   5  -4 -14    0.09    1.01
  -6  -4  14    2.35    1.17
   6   3 -14    1.85    1.24
  -6  -3  14    0.80    1.03
   6   2 -14    1.13    1.09
  -6  -2  14   -0.25    0.93
   6   1 -14    1.74    1.14
   6   0 -14    1.32    1.13
   6  -1 -14    1.36    1.15
   6  -2 -14   -0.69    0.95
   6  -3 -14    1.89    1.13
   6  -4 -14    1.32    1.07
  -7  -3  14    0.30    1.08
   7   2 -14    0.12    1.10
  -7  -2  14    1.63    1.14
   7   1 -14    1.45    1.06
   7   0 -14    0.27    1.18
   7  -1 -14    1.25    1.19
   7  -2 -14    0.47    0.95
   7  -3 -14    0.54    1.18
   8   1 -14    1.32    1.22
   8   0 -14    0.75    1.24
   8  -1 -14    1.23    1.23
  -6   2 -15    2.30    1.23
  -6   1 -15    0.70    1.10
  -6   0 -15    2.89    1.21
  -6  -2 -15    1.77    0.95
  -5   3 -15    2.02    1.19
  -5   2 -15    0.62    1.08
  -5   1 -15    4.23    1.28
  -5   0 -15    0.28    0.94
  -5  -1 -15    6.18    1.33
  -5  -2 -15    0.84    0.84
  -5  -3 -15    2.48    0.98
  -4   4 -15    1.21    1.25
  -4   3 -15    0.95    1.17
  -4   2 -15    3.99    1.32
  -4   1 -15    1.16    0.91
  -4   0 -15    0.42    0.88
  -4  -1 -15    1.14    0.98
  -4  -2 -15    3.62    0.94
  -4  -2 -15    5.38    1.30
  -4  -3 -15    1.08    0.97
  -4  -4 -15    1.14    1.14
  -3   4 -15    3.48    1.43
  -3   3 -15    2.12    1.20
  -3   2 -15    0.27    0.95
  -3   1 -15    1.77    0.99
  -3   0 -15    6.06    1.29
  -3  -1 -15    3.18    1.15
  -3  -2 -15    0.21    0.81
  -3  -2 -15   -0.04    0.92
  -3  -3 -15    1.24    0.90
  -3  -4 -15    4.64    1.24
  -2   5 -15    1.95    1.43
  -2   4 -15    0.74    1.19
  -2   3 -15    3.72    1.27
  -2   2 -15    1.73    1.00
  -2   1 -15    8.57    1.50
  -2   0 -15    0.15    0.90
  -2  -1 -15    8.94    1.56
  -2  -2 -15    1.63    0.81
  -2  -2 -15    2.14    1.12
  -2  -3 -15    7.21    1.22
  -2  -3 -15    5.48    1.36
  -2  -4 -15    1.76    1.07
  -2  -5 -15    0.48    1.15
  -1   5 -15    1.51    1.42
  -1   4 -15    0.62    1.22
  -1   3 -15    2.01    1.05
  -1   2 -15    0.68    1.01
  -1   1 -15    2.78    1.12
  -1   0 -15    1.55    1.01
  -1  -1 -15    4.28    1.22
  -1  -2 -15    2.13    1.13
  -1  -2 -15    0.50    0.77
  -1  -3 -15    7.82    1.50
  -1  -3 -15    3.90    1.09
  -1  -4 -15    0.33    0.98
  -1  -4 -15    1.33    1.19
  -1  -5 -15    0.98    1.07
   0   5 -15    2.06    1.31
   0   4 -15   -0.44    1.08
   0   3 -15   -1.25    0.96
   0   2 -15    8.50    1.58
   0   1 -15    2.52    1.16
   0   0 -15    0.67    1.06
   0  -1 -15    1.20    0.99
   0  -2 -15   11.15    1.36
   0  -2 -15    9.36    1.62
   0  -3 -15    0.62    0.82
   0  -3 -15   -0.38    0.99
   0  -4 -15   -0.65    1.05
   0  -4 -15   -0.74    0.89
   0  -5 -15    1.92    1.20
   0  -5 -15    0.67    1.24
   1   5 -15    0.05    1.20
  -1  -5  15    0.63    1.12
   1   4 -15    2.65    1.32
   1   3 -15    1.24    1.15
   1   2 -15    1.65    1.16
   1   1 -15    3.06    1.11
   1   0 -15    5.71    1.38
   1  -1 -15    5.06    1.36
   1  -2 -15    0.20    1.03
   1  -3 -15    2.16    0.95
   1  -3 -15    2.44    1.27
   1  -4 -15    3.66    1.15
   1  -4 -15    5.09    1.46
   1  -5 -15    1.88    1.23
   1  -5 -15    0.68    1.09
   2   5 -15    0.42    1.29
  -2  -5  15    1.11    1.12
   2   4 -15    0.07    1.13
  -2  -4  15    0.20    1.05
   2   3 -15    1.36    1.29
   2   2 -15    1.50    1.09
   2   1 -15    3.76    1.34
   2   0 -15    1.77    1.07
   2  -1 -15    2.93    1.19
   2  -2 -15    0.83    1.10
   2  -3 -15    1.79    1.19
   2  -4 -15    0.71    0.94
   2  -4 -15   -0.15    1.12
   2  -5 -15    1.84    1.38
   2  -5 -15    0.98    1.11
   3   4 -15    5.62    1.59
  -3  -4  15    4.13    1.31
   3   3 -15    1.74    1.21
   3   2 -15    0.30    1.02
   3   1 -15    2.23    1.10
   3   0 -15    1.28    1.04
   3  -1 -15    3.29    1.26
   3  -2 -15    1.75    1.14
   3  -3 -15    1.45    1.19
   3  -4 -15    4.26    1.47
   4   4 -15   -1.31    1.08
  -4  -4  15   -0.18    0.98
   4   3 -15    0.35    1.16
  -4  -3  15   -0.18    0.96
   4   2 -15    7.28    1.63
   4   1 -15    2.08    1.20
   4   0 -15   -0.02    1.00
   4  -1 -15    2.74    1.30
   4  -2 -15    5.28    1.50
   4  -3 -15    1.13    1.10
   4  -4 -15   -0.24    1.07
  -5  -4  15    0.16    1.11
   5   3 -15   -0.80    1.13
  -5  -3  15    2.31    1.15
   5   2 -15   -0.13    1.15
   5   1 -15    1.67    1.11
   5   0 -15   -0.04    0.98
   5  -1 -15    1.09    1.13
   5  -2 -15    1.56    1.24
   5  -3 -15    2.04    1.22
   6   3 -15    0.54    1.37
  -6  -3  15    0.41    1.17
   6   2 -15    0.68    1.15
   6   1 -15    1.08    1.22
   6   0 -15    0.62    1.12
   6  -1 -15    0.75    1.18
   6  -2 -15    1.33    1.30
   6  -3 -15    0.89    1.24
   7   1 -15    0.57    1.26
   7   0 -15    1.78    1.33
   7  -1 -15    0.92    1.29
  -5   2 -16   -1.57    1.00
  -5   1 -16    4.06    1.42
  -5   0 -16   -0.30    0.99
  -4   3 -16    2.39    1.33
  -4   2 -16   -1.44    0.91
  -4   1 -16    2.51    1.10
  -4   0 -16    3.98    1.26
  -4  -1 -16    0.66    0.99
  -4  -3 -16    0.79    0.97
  -3   3 -16   -0.51    1.12
  -3   2 -16    4.22    1.36
  -3   1 -16    0.11    1.01
  -3   0 -16    1.77    1.05
  -3  -1 -16   -0.04    0.95
  -3  -2 -16    8.16    1.61
  -3  -3 -16   -0.81    0.93
  -2   4 -16    1.21    1.29
  -2   3 -16    4.01    1.43
  -2   2 -16    0.33    1.00
  -2   1 -16    2.48    1.12
  -2   0 -16    1.62    1.05
  -2  -1 -16    3.14    1.23
  -2  -2 -16    0.79    1.08
  -2  -3 -16    2.03    0.97
  -2  -3 -16    4.13    1.31
  -2  -4 -16    0.98    1.05
  -1   4 -16   -0.60    1.11
  -1   3 -16    0.50    1.05
  -1   2 -16   -0.88    0.96
  -1   1 -16    5.45    1.34
  -1   0 -16    0.12    1.00
  -1  -1 -16    3.14    1.26
  -1  -2 -16    0.31    1.00
  -1  -3 -16    3.55    1.31
  -1  -3 -16    1.95    1.03
  -1  -4 -16    1.58    1.21
  -1  -4 -16   -0.01    1.02
   0   4 -16    5.45    1.58
   0   3 -16   -0.22    1.09
   0   2 -16    1.40    1.16
   0   1 -16    0.16    1.02
   0   0 -16    5.95    1.43
   0  -1 -16    0.29    1.00
   0  -2 -16    0.89    1.11
   0  -3 -16   -1.45    0.97
   0  -3 -16    0.81    0.93
   0  -4 -16    7.63    1.50
   0  -4 -16    7.48    1.74
   1   4 -16   -1.12    1.10
   1   3 -16    0.13    1.05
   1   2 -16    1.22    1.11
   1   1 -16    2.70    1.24
   1   0 -16    0.25    1.03
   1  -1 -16    2.11    1.13
   1  -2 -16    4.54    1.31
   1  -3 -16    1.10    1.21
   1  -3 -16   -0.29    0.91
   1  -4 -16    0.71    1.27
   1  -4 -16    0.54    1.05
   2   4 -16    2.61    1.37
   2   3 -16    3.18    1.42
   2   2 -16    0.68    1.17
   2   1 -16    5.26    1.49
   2   0 -16    0.31    0.96
   2  -1 -16    6.00    1.54
   2  -2 -16    0.92    1.14
   2  -3 -16    2.23    1.28
   2  -4 -16    2.28    1.38
   2  -4 -16    1.74    1.07
   3   4 -16    0.58    1.28
   3   3 -16    2.23    1.32
   3   2 -16    2.16    1.28
   3   1 -16   -0.44    1.04
   3   0 -16   -0.53    1.05
   3  -1 -16    0.88    1.10
   3  -2 -16    1.92    1.24
   3  -3 -16   -0.90    1.23
   3  -4 -16    1.22    1.26
   4   3 -16    0.92    1.26
   4   2 -16    0.67    1.19
   4   1 -16    2.68    1.26
   4   0 -16    7.64    1.64
   4  -1 -16    2.30    1.28
   4  -2 -16    0.13    1.20
   4  -3 -16    1.02    1.32
   5   2 -16    0.28    1.28
   5   1 -16    2.17    1.22
   5   0 -16    2.22    1.26
   5  -1 -16    1.77    1.31
   5  -2 -16    1.26    1.37
   6   1 -16   -0.23    1.20
   6   0 -16    0.42    1.26
   6  -1 -16    2.80    1.54
  -4   1 -17    2.72    1.25
  -4   0 -17    0.90    1.08
  -4  -1 -17    1.09    1.12
  -3   2 -17    0.67    1.10
  -3   1 -17    0.38    1.02
  -3   0 -17    2.61    1.16
  -3  -1 -17    1.49    1.13
  -3  -2 -17    0.40    1.13
  -2   2 -17    1.99    1.23
  -2   1 -17    0.77    1.06
  -2   0 -17    0.68    1.02
  -2  -1 -17    0.31    1.09
  -2  -2 -17    1.58    1.17
  -1   3 -17    0.28    1.10
  -1   2 -17    0.84    1.10
  -1   1 -17    2.81    1.25
  -1   0 -17   -1.13    0.91
  -1  -1 -17    4.48    1.32
  -1  -2 -17    2.33    1.29
  -1  -3 -17    0.00    1.15
   0   3 -17    1.39    1.24
   0   2 -17    5.22    1.51
   0   1 -17    1.43    1.21
   0   0 -17    1.73    1.18
   0  -1 -17    2.55    1.27
   0  -2 -17    4.69    1.47
   0  -3 -17    2.38    1.33
   1   3 -17    0.72    1.30
   1   2 -17    2.07    1.22
   1   1 -17    0.50    1.18
   1   0 -17    4.24    1.37
   1  -1 -17    1.35    1.20
   1  -2 -17    0.56    1.13
   1  -3 -17    0.44    1.17
   2   3 -17    1.95    1.46
   2   2 -17    0.94    1.24
   2   1 -17    4.25    1.42
   2   0 -17    2.98    1.25
   2  -1 -17    2.58    1.24
   2  -2 -17   -0.19    1.11
   2  -3 -17    1.52    1.24
   3   2 -17   -0.38    1.13
   3   1 -17   -0.17    1.08
   3   0 -17    1.14    1.23
   3  -1 -17    0.13    1.09
   3  -2 -17    1.13    1.27
   4   1 -17    0.74    1.22
   4   0 -17    0.48    1.29
   4  -1 -17    2.54    1.35
  -1   1 -18   -0.79    0.87
  -1   0 -18    1.85    1.23
  -1  -1 -18    0.01    1.14
   0   1 -18    0.22    1.12
   0   0 -18    1.39    1.21
   0  -1 -18    0.30    1.12
   1   1 -18    1.11    1.26
   1   0 -18    0.23    1.18
   1  -1 -18    1.48    1.26
   2   0 -18   -1.09    1.04
   0   0   0    0.00    0.00
;
_shelx_hkl_checksum              18944
_shelx_res_file
;
TITL cd16086 in P2(1)
CELL 0.71073   9.4796   7.1550  13.6509  90.000  90.968  90.000
ZERR    2.00   0.0015   0.0012   0.0022   0.000   0.004   0.000
LATT -1
SYMM -X, 0.5+Y, -Z
SFAC C  H  N  O  Br
UNIT 40 26 2 6 4
OMIT   0   0   1
OMIT     4   3   5
OMIT    -3   3   4
OMIT  -3.00  51.00
L.S. 10
ACTA
BOND $H
FMAP 2
PLAN 20
HTAB C12 Br1_$2
EQIV $2 -x+1, y+1/2, -z+1
HTAB C11 Br2_$1
EQIV $1 -x+1, y+1/2, -z+2
conf
htab
mpla c1 > c10
mpla c15 > c20
size 0.20 0.14 0.10
wpdb -1
WGHT    0.028700
FVAR       0.21889
MOLE 1
BR1   5    0.345543    0.791139    0.404801    11.00000    0.05751    0.04568 =
         0.06587   -0.00737   -0.02122    0.00352
BR2   5    0.151721    0.046197    0.970042    11.00000    0.07988    0.07933 =
         0.06066    0.01481   -0.00630   -0.03675
N1    3    0.864060    1.106246    0.808449    11.00000    0.03829    0.05797 =
         0.05512   -0.01164   -0.00285   -0.00047
O1    4    0.965530    0.818681    0.763294    11.00000    0.04070    0.05789 =
         0.04927   -0.01222   -0.01078    0.01252
MOLE 3
O2    4    0.796418    1.187074    0.870249    11.00000    0.07420    0.08527 =
         0.10162   -0.03953    0.01507    0.00645
MOLE 1
O3    4    0.937393    1.185275    0.750438    11.00000    0.06947    0.06070 =
         0.07516    0.00005    0.00143   -0.01875
MOLE 3
C1    1    0.771039    0.683730    0.385068    11.00000    0.06380    0.06164 =
         0.04104   -0.00856    0.01777   -0.00143
AFIX  43
H1    2    0.832247    0.646904    0.336161    11.00000   -1.20000
AFIX   0
C2    1    0.632057    0.707165    0.362510    11.00000    0.06554    0.05580 =
         0.03641   -0.00214   -0.00069   -0.00959
AFIX  43
H2    2    0.598258    0.687783    0.298968    11.00000   -1.20000
AFIX   0
MOLE 1
C3    1    0.539793    0.761692    0.437741    11.00000    0.05183    0.03646 =
         0.04456   -0.00081   -0.00421   -0.00303
C4    1    0.584678    0.792837    0.531359    11.00000    0.04238    0.03304 =
         0.04255   -0.00278   -0.00143   -0.00067
AFIX  43
H4    2    0.521482    0.828426    0.579279    11.00000   -1.20000
AFIX   0
C5    1    0.729809    0.769890    0.554306    11.00000    0.04750    0.02855 =
         0.03711    0.00609    0.00352   -0.00322
MOLE 3
C6    1    0.824905    0.713722    0.480555    11.00000    0.05000    0.04347 =
         0.03522   -0.00168    0.01085   -0.00284
C7    1    0.969455    0.689252    0.505084    11.00000    0.05160    0.05378 =
         0.05392   -0.01344    0.01429    0.00371
AFIX  43
H7    2    1.030699    0.649884    0.456738    11.00000   -1.20000
AFIX   0
C8    1    1.021965    0.721444    0.597204    11.00000    0.03441    0.05995 =
         0.06476   -0.00368    0.00689    0.00685
AFIX  43
H8    2    1.117200    0.705959    0.612569    11.00000   -1.20000
AFIX   0
MOLE 1
C9    1    0.926869    0.777976    0.666206    11.00000    0.04367    0.03726 =
         0.04833    0.00132   -0.00184    0.00485
C10   1    0.786299    0.801785    0.649326    11.00000    0.04163    0.02963 =
         0.03803    0.00054    0.00390   -0.00121
C11   1    0.848222    0.896754    0.807136    11.00000    0.04718    0.04552 =
         0.03604   -0.00211   -0.00188   -0.00073
AFIX  13
H11   2    0.838015    0.848496    0.873828    11.00000   -1.20000
AFIX   0
C12   1    0.714903    0.850500    0.743586    11.00000    0.03936    0.04504 =
         0.03714    0.00180   -0.00608   -0.00075
AFIX  13
H12   2    0.655092    0.961269    0.735241    11.00000   -1.20000
AFIX   0
C13   1    0.633227    0.692026    0.787158    11.00000    0.04655    0.03910 =
         0.03202    0.00068   -0.00277    0.00051
AFIX  43
H13   2    0.682068    0.581769    0.800043    11.00000   -1.20000
AFIX   0
C14   1    0.499479    0.695738    0.808513    11.00000    0.04506    0.04467 =
         0.04081    0.00295   -0.00182   -0.00020
AFIX  43
H14   2    0.452519    0.808115    0.797532    11.00000   -1.20000
AFIX   0
C15   1    0.415997    0.543362    0.847579    11.00000    0.04166    0.04495 =
         0.03367   -0.00313    0.00188    0.00102
C16   1    0.270238    0.548612    0.848008    11.00000    0.04077    0.04966 =
         0.05530   -0.00314    0.00151    0.00380
AFIX  43
H16   2    0.225045    0.655025    0.824115    11.00000   -1.20000
AFIX   0
MOLE 3
C17   1    0.188847    0.404393    0.881987    11.00000    0.04209    0.06208 =
         0.04860   -0.00139   -0.00187   -0.00619
AFIX  43
H17   2    0.090874    0.411451    0.880375    11.00000   -1.20000
AFIX   0
MOLE 1
C18   1    0.256804    0.250421    0.918186    11.00000    0.05269    0.05995 =
         0.03430    0.00179    0.00529   -0.01582
C19   1    0.401757    0.235648    0.921687    11.00000    0.06019    0.04859 =
         0.04016    0.00798   -0.00566   -0.00298
AFIX  43
H19   2    0.445483    0.129476    0.947155    11.00000   -1.20000
AFIX   0
C20   1    0.479963    0.382049    0.886527    11.00000    0.04074    0.05566 =
         0.04071    0.00617   -0.00194   -0.00197
AFIX  43
H20   2    0.577887    0.374047    0.888589    11.00000   -1.20000
AFIX   0
HKLF 4
REM  cd16086 in P2(1)
REM R1 =  0.0411 for    2731 Fo > 4sig(Fo)  and  0.0518 for all    3269 data
REM    235 parameters refined using      1 restraints
END
WGHT      0.0282      0.0000
REM Instructions for potential hydrogen bonds
HTAB C11 Br2_$1
HTAB C12 Br1_$2
REM Highest difference peak  0.460,  deepest hole -0.328,  1-sigma level  0.065
Q1    1   0.0984  0.1555  0.9622  11.00000  0.05    0.42
Q2    1   0.1568  0.0295  0.9007  11.00000  0.05    0.39
Q3    1   0.4371  0.7904  0.3966  11.00000  0.05    0.35
Q4    1   0.3493  0.8060  0.4804  11.00000  0.05    0.34
Q5    1   0.3044  0.6618  0.3903  11.00000  0.05    0.30
Q6    1   0.0951 -0.0566  0.9557  11.00000  0.05    0.26
Q7    1   0.1341  0.0613  1.0528  11.00000  0.05    0.24
Q8    1   0.5410  0.7271  0.5003  11.00000  0.05    0.23
Q9    1   0.3676  0.9396  0.4137  11.00000  0.05    0.22
Q10   1   0.2262  0.2748  0.8630  11.00000  0.05    0.20
Q11   1   0.2954  0.9164  0.3807  11.00000  0.05    0.20
Q12   1   0.8430  0.7908  0.4605  11.00000  0.05    0.20
Q13   1   0.2335  0.5207  0.9155  11.00000  0.05    0.19
Q14   1   0.9837  0.7635  0.9139  11.00000  0.05    0.19
Q15   1   0.6236  0.1644  0.9749  11.00000  0.05    0.19
Q16   1   0.2355  0.8128  0.4054  11.00000  0.05    0.19
Q17   1   0.3058  0.8548  0.8975  11.00000  0.05    0.19
Q18   1   0.3390  0.2671  0.8918  11.00000  0.05    0.19
Q19   1   0.5477  0.6969  0.6557  11.00000  0.05    0.18
Q20   1   1.0630  0.5702  0.6018  11.00000  0.05    0.18
;
_shelx_res_checksum              66608
_shelxl_version_number           .2013
loop_
_space_group_symop_operation_xyz
'x, y, z'
'-x, y+1/2, -z'
loop_
_atom_site_type_symbol
_atom_site_label
_atom_site_fract_x
_atom_site_fract_y
_atom_site_fract_z
_atom_site_U_iso_or_equiv
_atom_site_adp_type
_atom_site_calc_flag
_atom_site_occupancy
Br Br1 0.34554(7) 0.79114(10) 0.40480(6) 0.0566(2) Uani d 1
Br Br2 0.15172(9) 0.04620(14) 0.97004(6) 0.0734(3) Uani d 1
N N1 0.8641(6) 1.1062(9) 0.8084(5) 0.0505(17) Uani d 1
O O1 0.9655(4) 0.8187(7) 0.7633(4) 0.0494(13) Uani d 1
O O2 0.7964(6) 1.1871(10) 0.8702(5) 0.087(2) Uani d 1
O O3 0.9374(6) 1.1853(8) 0.7504(5) 0.0684(16) Uani d 1
C C1 0.7710(8) 0.6837(11) 0.3851(6) 0.055(2) Uani d 1
H H1 0.8322 0.6469 0.3362 0.066 Uiso calc 1
C C2 0.6321(8) 0.7072(11) 0.3625(6) 0.0526(19) Uani d 1
H H2 0.5983 0.6878 0.2990 0.063 Uiso calc 1
C C3 0.5398(7) 0.7617(10) 0.4377(5) 0.0443(16) Uani d 1
C C4 0.5847(6) 0.7928(11) 0.5314(5) 0.0393(14) Uani d 1
H H4 0.5215 0.8284 0.5793 0.047 Uiso calc 1
C C5 0.7298(6) 0.7699(10) 0.5543(5) 0.0377(14) Uani d 1
C C6 0.8249(7) 0.7137(10) 0.4806(5) 0.0428(16) Uani d 1
C C7 0.9695(8) 0.6893(11) 0.5051(6) 0.053(2) Uani d 1
H H7 1.0307 0.6499 0.4567 0.064 Uiso calc 1
C C8 1.0220(7) 0.7214(11) 0.5972(6) 0.0530(19) Uani d 1
H H8 1.1172 0.7060 0.6126 0.064 Uiso calc 1
C C9 0.9269(6) 0.7780(11) 0.6662(5) 0.0431(15) Uani d 1
C C10 0.7863(6) 0.8018(10) 0.6493(4) 0.0364(13) Uani d 1
C C11 0.8482(7) 0.8968(10) 0.8071(5) 0.0429(17) Uani d 1
H H11 0.8380 0.8485 0.8738 0.052 Uiso calc 1
C C12 0.7149(6) 0.8505(9) 0.7436(5) 0.0406(16) Uani d 1
H H12 0.6551 0.9613 0.7352 0.049 Uiso calc 1
C C13 0.6332(7) 0.6920(10) 0.7872(5) 0.0393(15) Uani d 1
H H13 0.6821 0.5818 0.8000 0.047 Uiso calc 1
C C14 0.4995(7) 0.6957(10) 0.8085(5) 0.0435(16) Uani d 1
H H14 0.4525 0.8081 0.7975 0.052 Uiso calc 1
C C15 0.4160(6) 0.5434(11) 0.8476(4) 0.0401(14) Uani d 1
C C16 0.2702(6) 0.5486(12) 0.8480(5) 0.0486(16) Uani d 1
H H16 0.2250 0.6550 0.8241 0.058 Uiso calc 1
C C17 0.1888(7) 0.4044(11) 0.8820(6) 0.0510(19) Uani d 1
H H17 0.0909 0.4115 0.8804 0.061 Uiso calc 1
C C18 0.2568(7) 0.2504(11) 0.9182(5) 0.049(2) Uani d 1
C C19 0.4018(7) 0.2356(10) 0.9217(5) 0.0497(18) Uani d 1
H H19 0.4455 0.1295 0.9472 0.060 Uiso calc 1
C C20 0.4800(7) 0.3820(11) 0.8865(5) 0.0457(17) Uani d 1
H H20 0.5779 0.3740 0.8886 0.055 Uiso calc 1
loop_
_atom_site_aniso_label
_atom_site_aniso_U_11
_atom_site_aniso_U_22
_atom_site_aniso_U_33
_atom_site_aniso_U_12
_atom_site_aniso_U_13
_atom_site_aniso_U_23
Br1 0.0575(4) 0.0457(4) 0.0659(5) 0.0035(4) -0.0212(3) -0.0074(4)
Br2 0.0799(6) 0.0793(6) 0.0607(5) -0.0367(5) -0.0063(4) 0.0148(5)
N1 0.038(3) 0.058(4) 0.055(4) 0.000(3) -0.003(3) -0.012(3)
O1 0.041(2) 0.058(4) 0.049(3) 0.013(2) -0.011(2) -0.012(3)
O2 0.074(4) 0.085(5) 0.102(6) 0.006(4) 0.015(4) -0.040(4)
O3 0.069(4) 0.061(4) 0.075(4) -0.019(3) 0.001(3) 0.000(3)
C1 0.064(5) 0.062(5) 0.041(5) -0.001(4) 0.018(4) -0.009(4)
C2 0.066(5) 0.056(5) 0.036(4) -0.010(4) -0.001(4) -0.002(4)
C3 0.052(4) 0.036(4) 0.045(4) -0.003(3) -0.004(3) -0.001(3)
C4 0.042(3) 0.033(3) 0.043(4) -0.001(4) -0.001(3) -0.003(4)
C5 0.047(3) 0.029(3) 0.037(4) -0.003(3) 0.004(3) 0.006(3)
C6 0.050(4) 0.043(4) 0.035(4) -0.003(3) 0.011(3) -0.002(3)
C7 0.052(4) 0.054(5) 0.054(5) 0.004(4) 0.014(4) -0.013(4)
C8 0.034(4) 0.060(5) 0.065(5) 0.007(3) 0.007(3) -0.004(4)
C9 0.044(3) 0.037(3) 0.048(4) 0.005(3) -0.002(3) 0.001(4)
C10 0.042(3) 0.030(3) 0.038(4) -0.001(3) 0.004(3) 0.001(3)
C11 0.047(4) 0.046(4) 0.036(4) -0.001(3) -0.002(3) -0.002(3)
C12 0.039(3) 0.045(4) 0.037(4) -0.001(3) -0.006(3) 0.002(3)
C13 0.047(4) 0.039(4) 0.032(4) 0.001(3) -0.003(3) 0.001(3)
C14 0.045(4) 0.045(4) 0.041(4) 0.000(3) -0.002(3) 0.003(3)
C15 0.042(3) 0.045(4) 0.034(3) 0.001(3) 0.002(3) -0.003(3)
C16 0.041(4) 0.050(4) 0.055(4) 0.004(4) 0.002(3) -0.003(4)
C17 0.042(4) 0.062(5) 0.049(5) -0.006(4) -0.002(3) -0.001(4)
C18 0.053(4) 0.060(6) 0.034(4) -0.016(4) 0.005(3) 0.002(3)
C19 0.060(4) 0.049(5) 0.040(4) -0.003(3) -0.006(3) 0.008(3)
C20 0.041(4) 0.056(4) 0.041(4) -0.002(3) -0.002(3) 0.006(3)
loop_
_atom_type_symbol
_atom_type_description
_atom_type_scat_dispersion_real
_atom_type_scat_dispersion_imag
_atom_type_scat_source
C C 0.0033 0.0016 'International Tables Vol C Tables 4.2.6.8 and 6.1.1.4'
H H 0.0000 0.0000 'International Tables Vol C Tables 4.2.6.8 and 6.1.1.4'
N N 0.0061 0.0033 'International Tables Vol C Tables 4.2.6.8 and 6.1.1.4'
O O 0.0106 0.0060 'International Tables Vol C Tables 4.2.6.8 and 6.1.1.4'
Br Br -0.2901 2.4595 'International Tables Vol C Tables 4.2.6.8 and 6.1.1.4'
loop_
_geom_angle_atom_site_label_1
_geom_angle_atom_site_label_2
_geom_angle_atom_site_label_3
_geom_angle
O3 N1 O2 123.4(7)
O3 N1 C11 121.2(7)
O2 N1 C11 115.4(7)
C11 O1 C9 107.0(5)
C2 C1 C6 121.7(7)
C2 C1 H1 119.1
C6 C1 H1 119.1
C1 C2 C3 118.6(7)
C1 C2 H2 120.7
C3 C2 H2 120.7
C4 C3 C2 122.7(6)
C4 C3 Br1 119.4(5)
C2 C3 Br1 117.9(5)
C3 C4 C5 118.5(6)
C3 C4 H4 120.8
C5 C4 H4 120.8
C10 C5 C4 122.4(6)
C10 C5 C6 117.4(6)
C4 C5 C6 120.1(6)
C1 C6 C7 122.3(6)
C1 C6 C5 118.3(6)
C7 C6 C5 119.4(6)
C8 C7 C6 122.3(6)
C8 C7 H7 118.9
C6 C7 H7 118.9
C7 C8 C9 116.6(6)
C7 C8 H8 121.7
C9 C8 H8 121.7
C10 C9 C8 124.9(7)
C10 C9 O1 112.0(5)
C8 C9 O1 123.1(6)
C9 C10 C5 119.4(6)
C9 C10 C12 109.7(5)
C5 C10 C12 130.8(5)
O1 C11 N1 109.0(6)
O1 C11 C12 108.8(5)
N1 C11 C12 107.3(6)
O1 C11 H11 110.5
N1 C11 H11 110.5
C12 C11 H11 110.5
C13 C12 C10 114.0(6)
C13 C12 C11 111.0(5)
C10 C12 C11 98.8(5)
C13 C12 H12 110.8
C10 C12 H12 110.8
C11 C12 H12 110.8
C14 C13 C12 125.6(7)
C14 C13 H13 117.2
C12 C13 H13 117.2
C13 C14 C15 127.1(7)
C13 C14 H14 116.5
C15 C14 H14 116.5
C16 C15 C20 116.5(7)
C16 C15 C14 122.1(7)
C20 C15 C14 121.4(6)
C17 C16 C15 123.2(8)
C17 C16 H16 118.4
C15 C16 H16 118.4
C18 C17 C16 117.7(6)
C18 C17 H17 121.2
C16 C17 H17 121.2
C17 C18 C19 122.6(7)
C17 C18 Br2 120.4(5)
C19 C18 Br2 117.0(6)
C20 C19 C18 118.2(7)
C20 C19 H19 120.9
C18 C19 H19 120.9
C19 C20 C15 121.8(6)
C19 C20 H20 119.1
C15 C20 H20 119.1
loop_
_geom_bond_atom_site_label_1
_geom_bond_atom_site_label_2
_geom_bond_distance
Br1 C3 1.900(6)
Br2 C18 1.911(7)
N1 O3 1.204(8)
N1 O2 1.215(8)
N1 C11 1.506(10)
O1 C11 1.389(8)
O1 C9 1.400(8)
C1 C2 1.358(10)
C1 C6 1.408(11)
C1 H1 0.9300
C2 C3 1.415(10)
C2 H2 0.9300
C3 C4 1.359(9)
C4 C5 1.415(8)
C4 H4 0.9300
C5 C10 1.413(9)
C5 C6 1.421(9)
C6 C7 1.416(10)
C7 C8 1.364(11)
C7 H7 0.9300
C8 C9 1.376(9)
C8 H8 0.9300
C9 C10 1.359(8)
C10 C12 1.505(9)
C11 C12 1.556(9)
C11 H11 0.9800
C12 C13 1.501(9)
C12 H12 0.9800
C13 C14 1.306(9)
C13 H13 0.9300
C14 C15 1.454(10)
C14 H14 0.9300
C15 C16 1.382(8)
C15 C20 1.404(10)
C16 C17 1.374(10)
C16 H16 0.9300
C17 C18 1.365(11)
C17 H17 0.9300
C18 C19 1.378(10)
C19 C20 1.374(10)
C19 H19 0.9300
C20 H20 0.9300
loop_
_geom_hbond_atom_site_label_D
_geom_hbond_atom_site_label_H
_geom_hbond_atom_site_label_A
_geom_hbond_site_symmetry_A
_geom_hbond_distance_DH
_geom_hbond_distance_HA
_geom_hbond_distance_DA
_geom_hbond_angle_DHA
C12 H12 Br1 2_656 0.98 3.04 3.786(7) 134.2
C11 H11 Br2 2_657 0.98 3.04 3.942(7) 154.2
loop_
_geom_torsion_atom_site_label_1
_geom_torsion_atom_site_label_2
_geom_torsion_atom_site_label_3
_geom_torsion_atom_site_label_4
_geom_torsion
C6 C1 C2 C3 -0.5(11)
C1 C2 C3 C4 0.5(11)
C1 C2 C3 Br1 -179.4(6)
C2 C3 C4 C5 0.1(11)
Br1 C3 C4 C5 179.9(5)
C3 C4 C5 C10 179.1(6)
C3 C4 C5 C6 -0.6(10)
C2 C1 C6 C7 179.8(7)
C2 C1 C6 C5 0.0(11)
C10 C5 C6 C1 -179.1(7)
C4 C5 C6 C1 0.6(10)
C10 C5 C6 C7 1.1(10)
C4 C5 C6 C7 -179.2(7)
C1 C6 C7 C8 178.8(7)
C5 C6 C7 C8 -1.4(11)
C6 C7 C8 C9 0.5(11)
C7 C8 C9 C10 0.7(12)
C7 C8 C9 O1 -179.1(7)
C11 O1 C9 C10 -8.4(8)
C11 O1 C9 C8 171.3(7)
C8 C9 C10 C5 -0.9(11)
O1 C9 C10 C5 178.8(6)
C8 C9 C10 C12 175.8(7)
O1 C9 C10 C12 -4.4(9)
C4 C5 C10 C9 -179.7(7)
C6 C5 C10 C9 0.0(10)
C4 C5 C10 C12 4.4(12)
C6 C5 C10 C12 -175.9(7)
C9 O1 C11 N1 -99.4(6)
C9 O1 C11 C12 17.4(7)
O3 N1 C11 O1 24.1(9)
O2 N1 C11 O1 -157.1(6)
O3 N1 C11 C12 -93.6(7)
O2 N1 C11 C12 85.2(8)
C9 C10 C12 C13 -104.2(7)
C5 C10 C12 C13 72.0(9)
C9 C10 C12 C11 13.6(8)
C5 C10 C12 C11 -170.2(7)
O1 C11 C12 C13 101.3(6)
N1 C11 C12 C13 -140.9(6)
O1 C11 C12 C10 -18.7(7)
N1 C11 C12 C10 99.1(6)
C10 C12 C13 C14 -123.6(7)
C11 C12 C13 C14 125.9(7)
C12 C13 C14 C15 177.8(6)
C13 C14 C15 C16 -165.8(7)
C13 C14 C15 C20 13.8(11)
C20 C15 C16 C17 -1.5(10)
C14 C15 C16 C17 178.1(7)
C15 C16 C17 C18 1.0(11)
C16 C17 C18 C19 0.1(11)
C16 C17 C18 Br2 178.4(5)
C17 C18 C19 C20 -0.5(11)
Br2 C18 C19 C20 -178.8(6)
C18 C19 C20 C15 -0.2(11)
C16 C15 C20 C19 1.1(10)
C14 C15 C20 C19 -178.6(7)

_cod_database_fobs_code 1543065
