#------------------------------------------------------------------------------
#$Date: 2016-06-18 04:40:05 +0300 (Sat, 18 Jun 2016) $
#$Revision: 183686 $
#$URL: file:///home/coder/svn-repositories/cod/cif/1/54/34/1543474.cif $
#------------------------------------------------------------------------------
#
# This file is available in the Crystallography Open Database (COD),
# http://www.crystallography.net/. The original data for this entry
# were provided by IUCr Journals, http://journals.iucr.org/.
#
# The file may be used within the scientific community so long as
# proper attribution is given to the journal article from which the
# data were obtained.
#
data_1543474
loop_
_publ_author_name
'Boulhaoua, Mohammed'
'Essaghouani, Abdelhanine'
'Benchidmi, Mohammed'
'Essassi, El Mokhtar'
'Mague, Joel T.'
_publ_section_title
;
 1-(5-Nitro-1<i>H</i>-indazol-1-yl)ethanone
;
_journal_coeditor_code           ZQ4008
_journal_issue                   6
_journal_name_full               IUCrData
_journal_page_first              x160939
_journal_paper_doi               10.1107/S2414314616009391
_journal_volume                  1
_journal_year                    2016
_chemical_formula_iupac          'C9 H7 N3 O3'
_chemical_formula_moiety         'C9 H7 N3 O3'
_chemical_formula_sum            'C9 H7 N3 O3'
_chemical_formula_weight         205.18
_chemical_name_systematic
;
1-(5-Nitro-1<i>H</i>-indazol-1-yl)ethanone
;
_space_group_crystal_system      triclinic
_space_group_IT_number           2
_space_group_name_Hall           '-P 1'
_space_group_name_H-M_alt        'P -1'
_symmetry_space_group_name_Hall  '-P 1'
_symmetry_space_group_name_H-M   'P -1'
_atom_sites_solution_hydrogens   difmap
_audit_creation_method           SHELXL-2014/7
_cell_angle_alpha                113.0200(10)
_cell_angle_beta                 91.404(2)
_cell_angle_gamma                118.350(2)
_cell_formula_units_Z            2
_cell_length_a                   7.6004(3)
_cell_length_b                   7.9200(3)
_cell_length_c                   9.3621(3)
_cell_measurement_reflns_used    2667
_cell_measurement_temperature    150(2)
_cell_measurement_theta_max      72.2857
_cell_measurement_theta_min      5.3157
_cell_volume                     440.83(3)
_computing_cell_refinement
;
<i>SAINT</i> (Bruker, 2016)
;
_computing_data_collection
;
<i>APEX3</i> (Bruker, 2016)
;
_computing_data_reduction
;
<i>SAINT</i> (Bruker, 2016)
;
_computing_molecular_graphics
;
<i>DIAMOND</i> (Brandenburg & Putz, 2012)
;
_computing_publication_material
;
<i>SHELXTL</i> (Sheldrick, 2008)
;
_computing_structure_refinement
;
<i>SHELXL2014/7</i> (Sheldrick, 2015<i>b</i>)
;
_computing_structure_solution
;
<i>SHELXT</i> (Sheldrick, 2015<i>a</i>)
;
_diffrn_ambient_temperature      150(2)
_diffrn_detector_area_resol_mean 10.4167
_diffrn_measured_fraction_theta_full 0.952
_diffrn_measured_fraction_theta_max 0.943
_diffrn_measurement_device_type  'Bruker D8 VENTURE PHOTON 100 CMOS'
_diffrn_measurement_method       '\w scans'
_diffrn_radiation_monochromator  mirror
_diffrn_radiation_type           CuK\a
_diffrn_radiation_wavelength     1.54178
_diffrn_reflns_av_R_equivalents  0.0170
_diffrn_reflns_limit_h_max       9
_diffrn_reflns_limit_h_min       -9
_diffrn_reflns_limit_k_max       9
_diffrn_reflns_limit_k_min       -9
_diffrn_reflns_limit_l_max       11
_diffrn_reflns_limit_l_min       -11
_diffrn_reflns_number            3385
_diffrn_reflns_theta_full        70.000
_diffrn_reflns_theta_max         72.278
_diffrn_reflns_theta_min         5.315
_exptl_absorpt_coefficient_mu    1.018
_exptl_absorpt_correction_T_max  0.96
_exptl_absorpt_correction_T_min  0.84
_exptl_absorpt_correction_type   multi-scan
_exptl_absorpt_process_details
;
(<i>SADABS</i>; Bruker, 2016)
;
_exptl_crystal_colour            colourless
_exptl_crystal_density_diffrn    1.546
_exptl_crystal_density_method    'not measured'
_exptl_crystal_description       'thick plate'
_exptl_crystal_F_000             212
_exptl_crystal_size_max          0.266
_exptl_crystal_size_mid          0.205
_exptl_crystal_size_min          0.038
_refine_diff_density_max         0.303
_refine_diff_density_min         -0.218
_refine_ls_extinction_coef       0.043(5)
_refine_ls_extinction_expression Fc^*^=kFc[1+0.001xFc^2^\l^3^/sin(2\q)]^-1/4^
_refine_ls_extinction_method
;
<i>SHELXL 2014/7</i> (Sheldrick, 2015<i>b</i>)
;
_refine_ls_goodness_of_fit_ref   1.068
_refine_ls_hydrogen_treatment    refall
_refine_ls_matrix_type           full
_refine_ls_number_parameters     165
_refine_ls_number_reflns         1641
_refine_ls_number_restraints     0
_refine_ls_restrained_S_all      1.068
_refine_ls_R_factor_all          0.0423
_refine_ls_R_factor_gt           0.0381
_refine_ls_shift/su_max          0.000
_refine_ls_shift/su_mean         0.000
_refine_ls_structure_factor_coef Fsqd
_refine_ls_weighting_details
'w=1/[\s^2^(Fo^2^)+(0.0655P)^2^+0.0862P] where P=(Fo^2^+2Fc^2^)/3'
_refine_ls_weighting_scheme      calc
_refine_ls_wR_factor_gt          0.1002
_refine_ls_wR_factor_ref         0.1045
_reflns_number_gt                1456
_reflns_number_total             1641
_reflns_threshold_expression     'I > 2\s(I)'
_cod_data_source_file            zq4008sup1.cif
_cod_data_source_block           I
_cod_database_code               1543474
_shelx_space_group_comment
;
The symmetry employed for this shelxl refinement is uniquely defined
by the following loop, which should always be used as a source of
symmetry information in preference to the above space-group names.
They are only intended as comments.
;
_shelx_estimated_absorpt_t_min   0.773
_shelx_estimated_absorpt_t_max   0.962
_shelx_hkl_file
;
  -1   0   0   34.71    0.81
   1   0   0   35.32    0.81
  -2   0   0    0.76    0.04
   2   0   0    0.78    0.04
  -3   0   0  145.43    3.44
  -3   0   0  145.36    3.41
   3   0   0  150.45    3.41
  -4   0   0   39.38    0.98
  -4   0   0   37.08    1.00
  -5   0   0    1.35    0.23
  -5   0   0    1.43    0.15
  -5   0   0    1.41    0.24
  -6   0   0    0.79    0.14
  -6   0   0    0.77    0.15
  -7   0   0   24.03    0.69
  -7   0   0   24.66    0.66
  -8   1   0    4.73    0.20
  -8   1   0    5.66    0.25
  -7   1   0    6.61    0.30
  -7   1   0    7.40    0.28
  -6   1   0    3.60    0.25
  -6   1   0    3.69    0.22
  -6   1   0    3.92    0.23
  -5   1   0    6.27    0.30
  -5   1   0    6.11    0.29
  -5   1   0    5.85    0.25
   4  -1   0  106.25    2.53
  -4   1   0  110.52    2.57
  -4   1   0  108.01    2.53
   3  -1   0   76.00    1.72
  -3   1   0   73.65    1.72
  -3   1   0   70.60    1.75
   2  -1   0   84.18    1.91
  -2   1   0   80.60    1.91
   1  -1   0  234.04    5.44
  -1   1   0  233.53    5.44
   0  -1   0    0.00    0.01
   0   1   0    0.01    0.01
  -1  -1   0  242.58    5.73
   1   1   0  249.93    5.71
  -2  -1   0   32.39    0.82
  -2  -1   0   33.28    0.79
   2   1   0   33.02    0.79
  -3  -1   0   30.60    0.78
  -3  -1   0   30.48    0.75
   3   1   0   29.28    0.76
  -4  -1   0   37.81    1.00
  -4  -1   0   37.54    0.99
  -5  -1   0    0.82    0.15
  -6  -1   0    1.79    0.18
  -7  -1   0    1.56    0.19
   7   1   0    1.28    0.12
  -8   2   0    0.20    0.24
  -8   2   0    0.12    0.07
  -7   2   0   54.82    1.34
  -7   2   0   54.65    1.36
  -7   2   0   51.09    1.38
  -6   2   0    0.11    0.12
  -6   2   0    0.24    0.11
  -6   2   0    0.21    0.11
  -5   2   0    1.58    0.25
  -5   2   0    1.01    0.15
  -5   2   0    1.20    0.13
   4  -2   0   66.98    1.61
  -4   2   0   68.75    1.64
  -4   2   0   66.88    1.61
   3  -2   0  182.31    4.13
  -3   2   0  174.39    4.13
   2  -2   0   14.46    0.37
   1  -2   0   60.88    1.43
   1  -2   0   60.38    1.43
  -1  -2   0    7.59    0.22
  -1  -2   0    7.13    0.25
  -2  -2   0    8.63    0.28
  -2  -2   0    8.95    0.30
  -3  -2   0   60.69    1.51
  -4  -2   0   14.22    0.46
  -5  -2   0    1.78    0.18
   5   2   0    1.66    0.20
  -6  -2   0    0.57    0.16
   6   2   0    0.62    0.14
  -9   3   0    3.76    0.14
  -8   3   0    4.92    0.25
  -8   3   0    4.35    0.20
  -7   3   0   13.99    0.43
  -7   3   0   14.10    0.46
  -7   3   0   12.93    0.46
  -6   3   0    2.46    0.20
  -6   3   0    2.56    0.20
  -5   3   0   11.93    0.38
  -5   3   0   11.79    0.48
  -5   3   0   11.85    0.39
   4  -3   0  102.16    2.51
  -4   3   0  109.60    2.52
   3  -3   0   83.09    1.98
  -3   3   0   83.34    1.99
   2  -3   0   35.61    0.88
   2  -3   0   35.51    0.89
   1  -3   0   56.64    1.35
   1  -3   0   54.81    1.34
   0  -3   0    0.05    0.05
  -1  -3   0   91.90    2.18
  -1  -3   0   90.36    2.18
  -2  -3   0    8.75    0.31
   2   3   0    8.03    0.40
  -3  -3   0    4.09    0.23
   3   3   0    4.21    0.32
   3   3   0    3.90    0.30
  -4  -3   0    9.30    0.36
   4   3   0    9.27    0.35
  -5  -3   0    0.16    0.12
  -9   4   0    4.61    0.17
  -8   4   0   -0.06    0.12
  -8   4   0   -0.07    0.07
  -7   4   0   60.97    1.55
  -7   4   0   61.85    1.53
  -7   4   0   60.67    1.51
  -6   4   0    0.51    0.13
  -6   4   0    0.64    0.14
  -5   4   0    0.43    0.15
  -5   4   0    0.31    0.11
   4  -4   0   51.31    1.27
  -4   4   0   49.25    1.38
   3  -4   0  105.40    2.48
  -3   4   0  102.14    2.48
   2  -4   0   19.51    0.55
  -2   4   0   20.15    0.57
   1  -4   0   25.34    0.68
   0  -4   0 1000.00   22.49
   0   4   0  972.60   22.47
   0   4   0  954.63   22.48
  -1  -4   0   -0.02    0.11
   1   4   0   -0.07    0.16
   1   4   0   -0.04    0.15
  -2  -4   0    5.12    0.26
   2   4   0    4.43    0.29
  -3  -4   0   18.08    0.56
   3   4   0   18.11    0.56
  -4  -4   0    4.88    0.25
  -9   5   0    3.63    0.14
  -8   5   0    1.36    0.18
  -8   5   0    1.38    0.13
  -7   5   0   15.16    0.44
  -7   5   0   13.35    0.48
  -6   5   0    1.68    0.18
  -6   5   0    1.66    0.20
  -5   5   0    9.65    0.36
  -4   5   0   40.27    1.05
  -4   5   0   39.24    1.03
  -3   5   0   43.01    1.09
  -3   5   0   43.61    1.11
  -3   5   0   41.34    1.11
  -2   5   0   10.14    0.39
  -2   5   0   10.05    0.35
  -1   5   0    5.88    0.30
  -1   5   0    6.31    0.26
   0  -5   0   -0.10    0.13
   0   5   0    0.18    0.12
   0   5   0   -0.07    0.13
  -1  -5   0   28.17    0.80
   1   5   0   28.36    0.76
   1   5   0   27.73    0.78
  -2  -5   0    2.82    0.23
   2   5   0    3.20    0.23
  -3  -5   0    0.10    0.16
   3   5   0    0.06    0.19
  -8   6   0    0.47    0.18
  -8   6   0    0.27    0.10
  -7   6   0   42.05    1.06
  -7   6   0   42.86    1.13
  -6   6   0    1.62    0.22
  -5   6   0   -0.05    0.15
  -5   6   0    0.13    0.16
  -4   6   0   19.84    0.63
  -4   6   0   20.93    0.63
  -4   6   0   20.23    0.59
  -3   6   0   32.06    0.86
  -3   6   0   32.13    0.87
  -2   6   0   16.01    0.52
   1  -6   0    3.68    0.39
  -1   6   0    3.52    0.25
  -1   6   0    3.73    0.22
   0  -6   0  217.62    5.29
   0   6   0  223.51    5.26
   0   6   0  232.76    5.29
  -1  -6   0    0.31    0.16
   1   6   0    0.33    0.12
   2   6   0    1.44    0.17
  -7   7   0    6.91    0.36
  -6   7   0    1.06    0.25
  -5   7   0    2.54    0.27
  -5   7   0    2.84    0.20
  -4   7   0   12.35    0.44
  -4   7   0   12.94    0.42
   3  -7   0   14.04    0.52
  -3   7   0   14.59    0.46
  -3   7   0   14.95    0.47
   2  -7   0    3.31    0.29
  -2   7   0    3.85    0.22
  -2   7   0    3.41    0.19
   1  -7   0    0.58    0.24
  -1   7   0    0.36    0.10
  -1   7   0    0.60    0.15
   0   7   0    0.02    0.10
   0   7   0    0.00    0.11
   1   7   0    7.23    0.24
  -6   8   0    1.44    0.15
  -5   8   0    0.15    0.09
  -4   8   0    6.29    0.24
  -4   8   0    6.20    0.26
  -3   8   0    8.60    0.29
  -3   8   0    8.53    0.30
  -2   8   0    8.50    0.28
  -2   8   0    8.19    0.26
  -1   8   0    0.27    0.08
  -1   8   0    0.31    0.09
  -5   9   0    0.23    0.07
  -3   9  -1    4.21    0.16
  -3   9  -1    4.44    0.18
  -4   9  -1    0.99    0.09
  -5   9  -1    0.48    0.09
  -1   8  -1    0.06    0.09
  -1   8  -1    0.21    0.08
  -2   8  -1    1.51    0.12
  -2   8  -1    1.32    0.15
   2  -8   1    1.37    0.25
  -3   8  -1    7.64    0.29
  -3   8  -1    7.42    0.28
   3  -8   1    7.26    0.34
  -4   8  -1    0.17    0.16
  -4   8  -1    0.21    0.09
  -5   8  -1    1.60    0.15
  -6   8  -1    0.08    0.13
  -7   8  -1   13.92    0.49
   1   7  -1   83.97    2.00
   0   7  -1   -0.21    0.10
   0   7  -1   -0.08    0.10
   0  -7   1    0.11    0.16
  -1   7  -1    3.51    0.20
  -1   7  -1    3.72    0.23
   1  -7   1    4.09    0.27
  -2   7  -1   11.62    0.41
  -2   7  -1   11.41    0.39
   2  -7   1   11.07    0.43
  -3   7  -1   15.12    0.47
  -3   7  -1   15.02    0.49
  -4   7  -1    7.63    0.30
  -4   7  -1    7.11    0.37
  -5   7  -1    6.56    0.32
  -5   7  -1    6.84    0.29
  -6   7  -1   19.36    0.62
  -7   7  -1    1.64    0.21
  -8   7  -1    7.27    0.33
   2   6  -1    7.32    0.28
  -2  -6   1    7.36    0.31
   1   6  -1    4.06    0.23
   1   6  -1    3.58    0.25
  -1  -6   1    3.39    0.24
   0   6  -1   82.14    1.99
   0   6  -1   81.17    2.01
   0  -6   1   80.68    2.02
  -1   6  -1    0.20    0.09
  -1   6  -1    0.42    0.15
   1  -6   1    0.37    0.16
  -2   6  -1   17.53    0.55
  -2   6  -1   18.01    0.54
  -3   6  -1   17.43    0.56
  -3   6  -1   17.98    0.53
  -3   6  -1   16.95    0.56
  -4   6  -1   -0.23    0.12
  -4   6  -1    0.19    0.16
  -5   6  -1    0.95    0.19
  -5   6  -1    1.29    0.22
  -6   6  -1    0.33    0.13
  -7   6  -1   16.63    0.55
  -7   6  -1   17.96    0.50
  -8   6  -1    1.00    0.24
   3   5  -1    0.27    0.15
  -3  -5   1    0.39    0.13
   2   5  -1    2.53    0.22
  -2  -5   1    2.07    0.19
   1   5  -1  245.68    5.80
   1   5  -1  246.50    5.77
  -1  -5   1  248.21    5.81
   0   5  -1   -0.10    0.14
   0   5  -1    0.05    0.13
   0  -5   1    0.01    0.11
  -1   5  -1   14.65    0.49
  -1   5  -1   15.22    0.46
  -2   5  -1   33.69    0.92
  -2   5  -1   35.24    0.92
  -2   5  -1   34.14    0.90
  -3   5  -1   42.47    1.09
  -3   5  -1   43.17    1.12
  -4   5  -1   35.12    0.94
  -4   5  -1   36.37    0.96
  -5   5  -1   25.17    0.71
  -5   5  -1   24.71    0.70
  -6   5  -1   19.09    0.57
  -6   5  -1   21.61    0.62
  -7   5  -1    0.19    0.12
  -7   5  -1    0.32    0.09
  -8   5  -1    9.86    0.37
  -8   5  -1   10.08    0.32
  -9   5  -1    2.06    0.11
  -4  -4   1   16.05    0.50
   3   4  -1    2.10    0.25
  -3  -4   1    1.57    0.17
   2   4  -1    5.95    0.33
  -2  -4   1    6.36    0.28
   1   4  -1   12.19    0.43
   1   4  -1   12.12    0.44
  -1  -4   1   12.15    0.40
   0  -4   1  216.27    5.06
  -1   4  -1   13.69    0.42
   1  -4   1   13.89    0.40
  -2   4  -1  110.28    2.65
   2  -4   1  112.07    2.64
  -3   4  -1   40.82    1.04
  -4   4  -1    0.49    0.11
  -5   4  -1    0.34    0.13
  -5   4  -1    0.11    0.10
  -6   4  -1    2.64    0.20
  -6   4  -1    2.60    0.20
  -6   4  -1    1.72    0.35
  -7   4  -1    9.13    0.32
  -7   4  -1    8.27    0.34
  -7   4  -1    8.69    0.36
  -8   4  -1    1.44    0.14
  -8   4  -1    1.57    0.17
  -9   4  -1    1.86    0.10
   9  -4   1    1.84    0.16
  -5  -3   1    4.64    0.24
   4   3  -1    5.02    0.30
  -4  -3   1    5.15    0.26
   3   3  -1    1.05    0.22
  -3  -3   1    0.91    0.14
   2   3  -1   10.41    0.42
  -2  -3   1   10.88    0.36
  -1  -3   1  601.46   13.90
  -1  -3   1  618.94   13.91
  -1  -3   1  586.57   13.90
   0  -3   1    0.06    0.04
   0  -3   1    0.10    0.06
   1  -3   1   57.08    1.38
   1  -3   1   57.99    1.37
   2  -3   1   85.78    2.02
  -3   3  -1  105.42    2.47
  -3   3  -1  105.37    2.48
   3  -3   1  103.81    2.47
  -4   3  -1  117.89    2.71
  -4   3  -1  114.28    2.72
   4  -3   1  111.36    2.71
  -5   3  -1   43.52    1.10
  -5   3  -1   43.58    1.09
  -5   3  -1   41.40    1.13
  -6   3  -1    8.82    0.34
  -6   3  -1    8.01    0.36
  -6   3  -1    8.62    0.32
  -7   3  -1    0.65    0.16
  -7   3  -1    0.56    0.11
  -8   3  -1    7.77    0.27
  -8   3  -1    8.07    0.32
   9  -3   1    2.14    0.14
   6   2  -1    1.20    0.17
  -6  -2   1    0.79    0.15
  -5  -2   1   14.79    0.48
  -3  -2   1    3.45    0.18
  -3  -2   1    3.09    0.37
  -2  -2   1    0.07    0.05
  -2  -2   1    0.12    0.09
  -1  -2   1   41.45    0.98
   0  -2   1  419.03    9.54
   0  -2   1  400.97    9.53
  -1   2  -1   43.14    1.05
   1  -2   1   45.40    1.05
  -2   2  -1  341.87    8.13
   2  -2   1  354.20    8.12
  -3   2  -1   67.91    1.67
  -3   2  -1   70.18    1.65
   3  -2   1   70.56    1.65
  -4   2  -1    0.77    0.14
  -4   2  -1    0.66    0.11
   4  -2   1    0.79    0.15
  -5   2  -1    0.73    0.18
  -5   2  -1    0.28    0.10
  -5   2  -1    0.39    0.15
  -6   2  -1    3.54    0.22
  -6   2  -1    3.45    0.22
  -6   2  -1    3.52    0.25
  -7   2  -1    1.34    0.18
  -7   2  -1    1.27    0.17
  -8   2  -1    3.29    0.16
  -8   2  -1    3.32    0.21
   7   1  -1    7.83    0.27
  -7  -1   1    7.81    0.31
  -5  -1   1    8.76    0.34
  -5  -1   1    8.60    0.39
  -5  -1   1    8.49    0.36
  -4  -1   1    1.57    0.31
  -4  -1   1    1.95    0.24
  -4  -1   1    1.81    0.15
  -3  -1   1    3.78    0.18
  -3  -1   1    4.00    0.14
  -2  -1   1   25.07    0.60
   0   1  -1    9.80    0.24
   0  -1   1    9.53    0.24
  -1   1  -1   97.87    2.33
   1  -1   1  103.34    2.34
  -2   1  -1   87.41    2.09
   2  -1   1   92.37    2.09
  -3   1  -1  100.69    2.36
  -3   1  -1  100.03    2.34
   3  -1   1   98.96    2.34
  -4   1  -1  131.85    3.06
  -4   1  -1  132.29    3.04
   4  -1   1  123.46    3.04
  -5   1  -1   37.17    0.98
  -5   1  -1   37.38    0.97
  -5   1  -1   37.72    0.99
  -6   1  -1   -0.11    0.10
  -7   1  -1    2.66    0.20
  -7   1  -1    3.03    0.19
  -8   1  -1    2.71    0.21
   8  -1   1    2.55    0.14
   8   0  -1    0.15    0.07
  -7   0   1   15.39    0.50
  -7   0   1   16.31    0.46
  -6   0   1    1.05    0.21
  -6   0   1    0.95    0.20
  -6   0   1    1.18    0.16
  -5   0   1   38.08    0.98
  -5   0   1   35.96    0.99
  -5   0   1   37.47    0.98
  -4   0   1  149.36    3.53
   3   0  -1    6.52    0.16
  -3   0   1    5.78    0.22
   0   0  -1  192.37    4.48
   0   0   1  193.22    4.48
  -1   0  -1   63.10    1.47
   1   0   1   63.50    1.47
  -2   0  -1  246.60    5.80
   2   0   1  252.31    5.80
  -3   0  -1   34.81    0.87
   3   0   1   33.84    0.85
  -4   0  -1    0.26    0.09
  -4   0  -1    0.28    0.17
  -4   0  -1    0.26    0.13
  -5   0  -1    1.36    0.25
  -5   0  -1    1.58    0.16
  -6   0  -1    2.34    0.22
  -6   0  -1    2.21    0.19
  -7   0  -1    0.28    0.13
   7   0   1    0.28    0.09
  -8   1   1    6.60    0.28
  -8   1   1    6.42    0.23
  -7   1   1   14.18    0.46
  -7   1   1   14.32    0.44
  -7   1   1   14.02    0.48
  -6   1   1   24.43    0.72
  -6   1   1   25.27    0.71
  -6   1   1   24.58    0.69
  -5   1   1   14.23    0.50
  -5   1   1   15.05    0.45
  -5   1   1   14.56    0.46
   4  -1  -1    2.25    0.09
  -4   1   1    2.23    0.15
   3  -1  -1   25.72    0.61
   2  -1  -1   23.08    0.56
   2  -1  -1   23.86    0.56
   1  -1  -1  795.16   18.36
   0  -1  -1   13.78    0.34
   0   1   1   13.84    0.34
  -1  -1  -1   82.61    1.91
   1   1   1   80.50    1.91
  -2  -1  -1   22.68    0.60
  -2  -1  -1   23.28    0.59
   2   1   1   22.99    0.59
  -3  -1  -1   27.90    0.73
  -3  -1  -1   27.09    0.72
  -4  -1  -1   62.52    1.56
  -5  -1  -1   12.06    0.42
  -6  -1  -1    2.54    0.20
   6   1   1    2.77    0.19
   7   1   1    4.01    0.17
  -8   2   1    0.16    0.14
  -8   2   1    0.22    0.08
  -7   2   1   14.02    0.46
  -7   2   1   13.74    0.48
  -7   2   1   14.41    0.45
  -6   2   1    1.80    0.18
  -6   2   1    1.31    0.22
  -6   2   1    1.62    0.18
  -5   2   1   51.51    1.29
  -5   2   1   52.04    1.30
  -5   2   1   51.12    1.32
   4  -2  -1  176.04    4.01
   4  -2  -1  168.77    4.01
  -4   2   1  173.72    4.05
   3  -2  -1    3.93    0.13
   3  -2  -1    3.85    0.14
   2  -2  -1   79.09    1.83
   2  -2  -1   76.74    1.83
   1  -2  -1   73.44    1.73
   0  -2  -1   14.99    0.40
   0   2   1   15.24    0.40
  -1  -2  -1   40.51    1.03
  -1  -2  -1   42.47    1.02
   1   2   1   41.68    1.03
  -2  -2  -1   59.73    1.46
  -2  -2  -1   59.49    1.46
  -3  -2  -1   12.80    0.42
   4   2   1    0.23    0.12
  -5  -2  -1    1.49    0.17
   5   2   1    1.44    0.17
   6   2   1    1.06    0.16
  -9   3   1    5.11    0.22
  -8   3   1    3.51    0.18
  -8   3   1    3.88    0.21
  -8   3   1    3.57    0.23
  -7   3   1   14.05    0.44
  -7   3   1   14.18    0.48
  -7   3   1   14.40    0.48
  -6   3   1   43.73    1.13
  -6   3   1   45.50    1.15
  -6   3   1   42.86    1.19
  -5   3   1   16.90    0.50
  -5   3   1   16.28    0.55
  -5   3   1   16.08    0.49
   4  -3  -1    5.31    0.27
   4  -3  -1    5.81    0.22
  -4   3   1    5.89    0.24
   3  -3  -1   20.71    0.57
   3  -3  -1   21.44    0.55
  -3   3   1   21.30    0.58
   2  -3  -1   16.51    0.48
   2  -3  -1   17.93    0.46
   1  -3  -1  139.39    3.27
   0  -3  -1    4.87    0.20
   0  -3  -1    4.72    0.23
  -1  -3  -1   32.34    0.91
   1   3   1   32.36    0.87
  -2  -3  -1    4.15    0.22
   2   3   1    3.43    0.30
   2   3   1    3.74    0.29
  -3  -3  -1    7.34    0.43
   3   3   1    6.42    0.37
   3   3   1    6.09    0.31
  -4  -3  -1   16.45    0.51
   4   3   1   15.88    0.49
  -5  -3  -1    1.38    0.26
  -9   4   1   14.75    0.40
  -8   4   1   -0.03    0.14
  -8   4   1   -0.04    0.07
  -8   4   1    0.08    0.11
  -7   4   1    7.08    0.33
  -7   4   1    6.51    0.31
  -7   4   1    7.03    0.28
  -6   4   1    1.83    0.19
  -6   4   1    1.85    0.20
  -6   4   1    1.79    0.29
  -5   4   1   24.06    0.76
  -5   4   1   25.22    0.70
  -5   4   1   25.80    0.70
   4  -4  -1   81.37    1.98
  -4   4   1   79.63    1.96
   3  -4  -1    0.44    0.13
  -3   4   1    0.75    0.19
  -2   4   1   37.80    0.97
  -2   4   1   37.35    0.97
  -1   4   1   29.55    0.77
  -1   4   1   28.20    0.78
   0  -4  -1   -0.14    0.13
   0   4   1    0.19    0.16
   0   4   1    0.10    0.13
  -1  -4  -1    5.90    0.29
   1   4   1    5.76    0.30
   1   4   1    5.69    0.29
  -2  -4  -1   12.61    0.43
   2   4   1   12.31    0.43
  -3  -4  -1    5.23    0.28
   3   4   1    5.28    0.49
  -9   5   1    3.86    0.15
  -8   5   1    1.07    0.13
  -8   5   1    1.23    0.23
  -7   5   1    5.63    0.29
  -7   5   1    5.82    0.25
  -6   5   1   37.05    1.00
  -6   5   1   40.46    1.06
  -5   5   1   13.47    0.48
  -5   5   1   13.56    0.47
  -4   5   1    0.90    0.23
  -4   5   1    0.85    0.20
  -4   5   1    1.06    0.22
  -3   5   1   10.98    0.41
  -3   5   1   11.60    0.38
  -3   5   1   11.19    0.42
  -2   5   1    3.18    0.20
  -2   5   1    2.78    0.23
   1  -5  -1   14.84    0.49
  -1   5   1   14.66    0.48
  -1   5   1   14.38    0.46
   0  -5  -1    2.35    0.26
   0   5   1    2.39    0.23
   0   5   1    2.09    0.18
  -1  -5  -1   10.90    0.42
   1   5   1   11.12    0.40
   1   5   1   11.20    0.39
   2   5   1    0.52    0.15
  -8   6   1    0.49    0.14
  -7   6   1    2.38    0.31
  -6   6   1    2.16    0.33
  -5   6   1    5.91    0.34
  -5   6   1    6.12    0.28
  -4   6   1   17.67    0.56
  -4   6   1   17.94    0.54
  -3   6   1    0.15    0.15
  -3   6   1    0.02    0.10
   2  -6  -1   13.38    0.53
  -2   6   1   14.01    0.45
  -2   6   1   13.85    0.46
   1  -6  -1    6.97    0.40
  -1   6   1    6.97    0.31
  -1   6   1    7.46    0.29
   0   6   1    0.58    0.15
   1   6   1    0.32    0.12
  -6   7   1   21.07    0.64
  -5   7   1    7.00    0.27
  -5   7   1    6.99    0.32
  -4   7   1    0.07    0.10
  -3   7   1    5.76    0.25
  -2   7   1    0.08    0.11
  -2   7   1   -0.02    0.09
  -1   7   1    1.33    0.12
  -1   7   1    1.33    0.15
   0   7   1    0.63    0.12
  -6   8   1    3.64    0.28
  -5   8   1    1.01    0.11
  -4   8   1    2.41    0.17
  -4   8   1    2.29    0.13
  -3   8   1    0.13    0.08
  -3   8   1    0.07    0.06
  -2   8   1    3.37    0.14
  -2   9  -2    0.77    0.13
  -2   9  -2    0.73    0.08
  -3   9  -2    5.71    0.23
  -3   9  -2    5.32    0.19
  -4   9  -2    1.86    0.11
   4  -9   2    1.96    0.26
  -5   9  -2    3.16    0.15
   5  -9   2    2.81    0.28
   0   8  -2    0.14    0.09
  -1   8  -2    0.04    0.09
  -1   8  -2   -0.01    0.08
   1  -8   2    0.09    0.16
  -2   8  -2    0.15    0.08
  -2   8  -2    0.16    0.11
   2  -8   2    0.07    0.15
  -3   8  -2    1.92    0.20
  -3   8  -2    2.11    0.15
   3  -8   2    2.29    0.24
  -4   8  -2    0.25    0.20
  -5   8  -2    0.42    0.11
  -6   8  -2    0.49    0.16
  -6   8  -2    0.30    0.15
  -7   8  -2    1.04    0.21
   2   7  -2    0.16    0.11
   1   7  -2    8.59    0.30
  -1  -7   2    8.86    0.34
   0   7  -2    3.74    0.22
   0   7  -2    3.81    0.21
   0  -7   2    3.94    0.26
  -1   7  -2    4.02    0.22
  -1   7  -2    4.39    0.25
   1  -7   2    4.08    0.26
  -2   7  -2    0.32    0.12
  -2   7  -2    0.25    0.15
  -3   7  -2   19.56    0.58
  -3   7  -2   19.94    0.61
  -4   7  -2    7.17    0.34
  -4   7  -2    7.25    0.30
  -5   7  -2    8.63    0.33
  -5   7  -2    8.32    0.37
  -6   7  -2   23.29    0.70
  -7   7  -2   33.17    0.91
  -8   7  -2    0.01    0.14
   3   6  -2   -0.02    0.13
  -3  -6   2    0.31    0.17
   2   6  -2    1.19    0.16
  -2  -6   2    1.03    0.16
   1   6  -2    0.14    0.12
   1   6  -2    0.02    0.16
  -1  -6   2    0.10    0.13
   0   6  -2    3.63    0.24
   0   6  -2    3.87    0.24
  -1   6  -2    0.62    0.16
  -1   6  -2    1.17    0.20
  -2   6  -2    0.84    0.18
  -2   6  -2    1.14    0.21
  -3   6  -2    5.43    0.36
  -3   6  -2    5.19    0.26
  -3   6  -2    5.68    0.29
  -4   6  -2    0.06    0.12
  -4   6  -2   -0.20    0.13
  -5   6  -2    0.91    0.17
  -5   6  -2    0.90    0.24
  -6   6  -2    0.62    0.16
  -6   6  -2    0.73    0.14
  -7   6  -2    0.06    0.09
  -7   6  -2    0.00    0.11
  -8   6  -2    0.11    0.12
  -8   6  -2    0.15    0.07
  -4  -5   2    0.83    0.16
   3   5  -2    5.74    0.27
  -3  -5   2    5.47    0.27
   2   5  -2    0.73    0.15
  -2  -5   2    0.65    0.16
   1   5  -2    7.15    0.34
  -1  -5   2    7.69    0.32
   0   5  -2   31.72    0.85
   0   5  -2   30.98    0.87
   0  -5   2   32.33    0.87
  -1   5  -2   15.30    0.52
  -1   5  -2   16.39    0.49
  -2   5  -2    0.95    0.18
  -2   5  -2    0.45    0.12
  -3   5  -2   53.38    1.36
  -3   5  -2   54.78    1.37
  -4   5  -2   17.55    0.55
  -4   5  -2   17.96    0.54
  -5   5  -2   11.00    0.39
  -5   5  -2   10.58    0.38
  -6   5  -2   82.91    2.03
  -6   5  -2   80.90    1.98
  -7   5  -2   64.68    1.53
  -7   5  -2   59.07    1.57
  -8   5  -2    0.57    0.14
  -8   5  -2    0.75    0.11
  -5  -4   2    3.32    0.20
   4   4  -2   11.12    0.41
  -4  -4   2   10.52    0.38
   3   4  -2    2.95    0.28
  -3  -4   2    3.18    0.21
   2   4  -2    2.58    0.24
  -2  -4   2    1.92    0.18
   1   4  -2    0.61    0.37
   1   4  -2    0.16    0.15
  -1  -4   2    0.36    0.11
   0  -4   2   36.95    0.93
  -1   4  -2   10.94    0.36
   1  -4   2   11.21    0.34
  -2   4  -2   12.50    0.39
  -3   4  -2   14.89    0.44
  -4   4  -2    3.24    0.24
  -4   4  -2    3.17    0.18
  -5   4  -2    0.33    0.11
  -5   4  -2    0.50    0.13
  -6   4  -2    0.81    0.15
  -6   4  -2    1.08    0.16
  -7   4  -2    1.17    0.16
  -7   4  -2    0.93    0.16
  -8   4  -2    0.09    0.11
  -8   4  -2   -0.01    0.07
  -6  -3   2    0.24    0.13
  -5  -3   2    1.38    0.16
   4   3  -2    2.88    0.33
  -4  -3   2    2.87    0.20
   3   3  -2   20.69    0.63
  -3  -3   2   20.64    0.60
   2   3  -2    4.69    0.32
  -2  -3   2    5.21    0.22
  -1  -3   2   -0.01    0.08
  -1  -3   2    0.03    0.05
  -1  -3   2    0.09    0.09
   0  -3   2  129.98    3.06
   0  -3   2  132.62    3.07
   1  -3   2   52.96    1.27
  -2   3  -2    1.72    0.14
  -2   3  -2    2.03    0.10
   2  -3   2    2.02    0.11
  -3   3  -2   76.52    1.84
  -3   3  -2   76.41    1.85
   3  -3   2   78.09    1.84
  -4   3  -2   24.30    0.65
  -4   3  -2   23.76    0.65
  -5   3  -2    5.68    0.26
  -5   3  -2    5.94    0.26
  -5   3  -2    5.59    0.34
  -6   3  -2  129.48    3.11
  -6   3  -2  131.47    3.14
  -7   3  -2   74.56    1.78
  -7   3  -2   70.78    1.82
  -8   3  -2    2.34    0.14
  -8   3  -2    2.52    0.20
   8  -3   2    2.67    0.17
  -6  -2   2    7.71    0.31
  -5  -2   2    5.24    0.26
   4   2  -2   13.31    0.56
  -4  -2   2   14.73    0.52
  -4  -2   2   15.87    0.48
  -3  -2   2   26.49    0.71
  -2  -2   2   28.62    0.75
  -2  -2   2   28.89    0.69
  -2  -2   2   29.10    0.69
  -1  -2   2    1.22    0.06
  -1  -2   2    1.35    0.07
   0   2  -2  156.95    3.68
   0  -2   2  161.32    3.68
  -1   2  -2   42.17    1.03
   1  -2   2   44.82    1.03
  -2   2  -2   56.35    1.35
   2  -2   2   57.44    1.35
  -3   2  -2   13.57    0.39
  -3   2  -2   13.55    0.37
   3  -2   2   13.52    0.38
  -4   2  -2   11.72    0.38
  -4   2  -2   11.70    0.37
  -5   2  -2    1.38    0.15
  -5   2  -2    1.15    0.18
  -6   2  -2    2.65    0.20
  -6   2  -2    2.52    0.19
  -7   2  -2    2.83    0.21
  -7   2  -2    2.55    0.18
  -8   2  -2    0.24    0.14
   8  -2   2    0.15    0.07
  -7  -1   2    1.84    0.18
  -6  -1   2    0.22    0.11
  -6  -1   2    0.42    0.13
  -6  -1   2    0.63    0.15
  -5  -1   2    1.50    0.17
  -5  -1   2    1.99    0.26
  -5  -1   2    1.75    0.23
  -4  -1   2    5.57    0.34
  -4  -1   2    5.37    0.33
  -4  -1   2    5.92    0.24
  -3  -1   2   50.68    1.25
  -1  -1   2   63.48    1.47
   0   1  -2  185.86    4.42
   0  -1   2  193.25    4.43
  -1   1  -2   53.93    1.32
   1  -1   2   58.89    1.33
  -2   1  -2    0.89    0.07
   2  -1   2    0.87    0.07
  -3   1  -2   43.37    1.08
  -3   1  -2   45.64    1.07
   3  -1   2   42.62    1.07
  -4   1  -2   10.95    0.38
  -4   1  -2   11.28    0.36
  -4   1  -2   10.76    0.40
  -5   1  -2    0.19    0.10
  -5   1  -2    0.19    0.11
  -6   1  -2   90.92    2.32
  -6   1  -2   98.43    2.28
  -7   1  -2   53.17    1.36
   7  -1   2   53.77    1.33
   8  -1   2    2.52    0.13
  -7   0   2   46.20    1.20
  -7   0   2   45.64    1.17
  -7   0   2   45.42    1.14
  -6   0   2   18.38    0.55
  -6   0   2   18.07    0.57
  -6   0   2   18.26    0.57
  -5   0   2    4.70    0.30
  -5   0   2    4.84    0.27
  -5   0   2    4.87    0.24
  -4   0   2   18.08    0.52
  -3   0   2  106.40    2.51
   1   0  -2    2.45    0.07
  -1   0   2    2.46    0.07
   0   0  -2  206.67    4.93
   0   0   2  215.29    4.94
  -1   0  -2   89.58    2.10
   1   0   2   89.91    2.10
  -2   0  -2   31.99    0.79
   2   0   2   31.37    0.78
  -3   0  -2    0.18    0.08
  -3   0  -2    0.15    0.09
  -4   0  -2   10.06    0.38
  -4   0  -2   10.03    0.35
  -5   0  -2    2.53    0.24
  -5   0  -2    2.59    0.20
  -6   0  -2    4.60    0.27
   6   0   2    4.98    0.24
  -7   0  -2    2.74    0.25
   7   0   2    2.71    0.15
  -8   1   2    8.11    0.26
  -8   1   2    8.02    0.33
  -7   1   2    5.50    0.28
  -7   1   2    5.82    0.25
  -7   1   2    5.89    0.28
  -6   1   2    0.80    0.18
  -6   1   2    0.60    0.15
  -6   1   2    0.87    0.17
  -5   1   2    1.10    0.19
  -5   1   2    0.77    0.16
  -5   1   2    0.90    0.15
  -4   1   2    3.71    0.19
   3  -1  -2   55.53    1.28
   3  -1  -2   54.47    1.28
   2  -1  -2   36.26    0.86
   1  -1  -2   95.51    2.27
  -1   1   2   99.37    2.27
   0  -1  -2  133.70    3.17
   0   1   2  138.99    3.17
  -1  -1  -2    7.93    0.23
   1   1   2    7.49    0.24
  -2  -1  -2    0.48    0.14
  -2  -1  -2    0.22    0.07
  -3  -1  -2   13.16    0.42
  -4  -1  -2    0.93    0.17
   4   1   2    0.78    0.17
  -5  -1  -2    0.79    0.18
   5   1   2    0.84    0.17
  -6  -1  -2   39.69    1.04
   6   1   2   40.13    1.00
  -9   2   2    4.76    0.16
  -8   2   2    8.81    0.35
  -8   2   2    8.35    0.28
  -8   2   2    8.16    0.30
  -7   2   2   72.24    1.86
  -7   2   2   76.44    1.84
  -7   2   2   76.52    1.86
  -6   2   2   32.04    0.86
  -6   2   2   30.93    0.84
  -6   2   2   30.40    0.87
  -5   2   2    3.11    0.23
  -5   2   2    3.21    0.20
  -5   2   2    3.08    0.28
   4  -2  -2    9.60    0.28
  -4   2   2    9.54    0.33
   3  -2  -2  119.22    2.76
   3  -2  -2  116.90    2.75
   2  -2  -2   24.87    0.62
   1  -2  -2    0.68    0.07
  -1   2   2    0.67    0.08
   0  -2  -2   84.09    1.94
   0   2   2   79.40    1.95
  -1  -2  -2   65.22    1.57
  -1  -2  -2   64.43    1.58
  -2  -2  -2    6.63    0.27
   2   2   2    5.68    0.41
   2   2   2    6.17    0.31
  -3  -2  -2    1.32    0.19
   3   2   2    1.55    0.21
  -4  -2  -2    8.17    0.35
   4   2   2    8.78    0.33
  -5  -2  -2    0.91    0.24
   5   2   2    1.03    0.15
  -9   3   2    1.02    0.16
  -8   3   2    9.84    0.32
  -8   3   2    9.91    0.34
  -7   3   2    9.77    0.39
  -7   3   2   10.74    0.39
  -7   3   2   10.21    0.35
  -6   3   2    0.28    0.11
  -6   3   2    0.38    0.16
  -6   3   2    0.49    0.15
  -5   3   2    0.04    0.13
  -5   3   2    0.12    0.16
  -5   3   2    0.00    0.13
   4  -3  -2    0.65    0.13
  -4   3   2    0.90    0.18
   3  -3  -2   21.29    0.58
   2  -3  -2    4.55    0.21
   1  -3  -2   34.41    0.89
   0  -3  -2   47.43    1.21
   0   3   2   49.62    1.21
   0   3   2   47.20    1.22
  -1  -3  -2    0.27    0.14
   1   3   2    0.34    0.16
   1   3   2    0.41    0.16
   1   3   2    0.18    0.17
  -2  -3  -2   -0.04    0.15
   2   3   2   -0.19    0.19
   2   3   2    0.00    0.15
  -3  -3  -2    2.28    0.24
   3   3   2    2.73    0.22
   4   3   2    0.77    0.19
  -9   4   2    6.07    0.21
  -8   4   2   11.79    0.38
  -8   4   2   12.12    0.45
  -8   4   2   11.93    0.36
  -7   4   2   62.96    1.65
  -7   4   2   66.84    1.61
  -7   4   2   66.71    1.63
  -6   4   2   40.81    1.07
  -6   4   2   39.96    1.08
  -6   4   2   40.01    1.04
  -5   4   2    4.77    0.27
  -5   4   2    4.44    0.29
  -5   4   2    4.12    0.34
  -4   4   2    0.06    0.16
  -4   4   2    0.38    0.18
  -3   4   2   45.07    1.19
  -3   4   2   47.62    1.18
  -2   4   2    2.94    0.27
  -2   4   2    3.09    0.20
  -1   4   2    0.13    0.12
  -1   4   2    0.14    0.14
   0  -4  -2   17.34    0.56
   0   4   2   17.54    0.52
  -1  -4  -2   18.80    0.59
   1   4   2   18.98    0.57
   1   4   2   19.16    0.56
   2   4   2    1.42    0.24
  -9   5   2    0.49    0.10
  -8   5   2    9.03    0.29
  -7   5   2   10.67    0.54
  -6   5   2    0.15    0.21
  -5   5   2    0.40    0.14
  -5   5   2    0.52    0.23
  -4   5   2    0.26    0.16
  -4   5   2    0.07    0.12
  -3   5   2    2.60    0.19
  -3   5   2    2.39    0.24
  -2   5   2    0.38    0.15
  -2   5   2   -0.03    0.10
  -1   5   2    7.26    0.29
  -1   5   2    7.19    0.33
   0   5   2   10.07    0.38
   0   5   2   10.41    0.36
   1   5   2    0.33    0.15
   1   5   2    0.11    0.13
   2   5   2   -0.05    0.15
  -5   6   2    4.62    0.23
  -5   6   2    4.70    0.31
  -4   6   2    0.74    0.15
  -4   6   2    0.51    0.15
  -3   6   2   14.44    0.47
  -3   6   2   13.84    0.44
  -2   6   2   -0.10    0.09
  -2   6   2    0.14    0.13
  -1   6   2    0.79    0.20
   0   6   2    3.40    0.19
   0   6   2    3.48    0.18
   1   6   2    3.35    0.17
  -5   7   2    0.39    0.16
  -5   7   2    0.29    0.09
  -4   7   2    0.01    0.08
  -4   7   2    0.03    0.12
  -3   7   2    0.11    0.07
  -3   7   2    0.06    0.10
  -2   7   2   -0.04    0.06
  -2   7   2   -0.04    0.08
  -1   7   2    1.16    0.12
  -1   7   2    0.99    0.11
  -5   8   2    2.64    0.13
  -4   8   2    0.90    0.09
  -4   8   2    0.66    0.15
  -2   9  -3    4.55    0.19
  -2   9  -3    5.37    0.20
  -3   9  -3    2.10    0.21
  -3   9  -3    2.21    0.13
   3  -9   3    2.15    0.21
  -4   9  -3    6.70    0.24
   4  -9   3    7.00    0.31
  -5   9  -3   10.36    0.32
   0   8  -3    1.91    0.19
   0   8  -3    2.31    0.14
   0  -8   3    1.79    0.20
  -1   8  -3    1.89    0.14
  -1   8  -3    2.07    0.17
  -2   8  -3    0.29    0.13
  -2   8  -3    0.08    0.08
   2  -8   3    0.32    0.14
  -3   8  -3    0.73    0.14
  -3   8  -3    0.61    0.16
  -4   8  -3    3.25    0.20
  -5   8  -3   32.97    0.84
  -5   8  -3   31.17    0.89
  -6   8  -3   53.09    1.36
  -7   8  -3    0.01    0.14
   2   7  -3    0.46    0.12
   1   7  -3    3.03    0.19
  -1  -7   3    3.32    0.24
   0   7  -3    0.11    0.11
   0  -7   3    0.07    0.13
  -1   7  -3    1.91    0.17
  -1   7  -3    2.02    0.21
   1  -7   3    1.76    0.20
  -2   7  -3   32.16    0.87
  -2   7  -3   31.95    0.88
  -3   7  -3   15.43    0.49
  -3   7  -3   15.76    0.53
  -4   7  -3    8.71    0.38
  -4   7  -3    9.27    0.34
  -5   7  -3   17.58    0.53
  -5   7  -3   17.16    0.58
  -6   7  -3   10.81    0.41
  -7   7  -3   10.04    0.38
  -8   7  -3    2.97    0.21
   3   6  -3    0.17    0.11
  -3  -6   3    0.10    0.11
   2   6  -3    1.40    0.17
  -2  -6   3    1.51    0.17
   1   6  -3    0.39    0.14
   1   6  -3    0.51    0.15
  -1  -6   3    0.27    0.14
   0   6  -3    7.66    0.34
   0   6  -3    7.36    0.32
   0  -6   3    7.94    0.34
  -1   6  -3   16.67    0.51
  -1   6  -3   15.79    0.52
  -2   6  -3    0.22    0.13
  -2   6  -3    0.11    0.19
  -3   6  -3    0.75    0.18
  -3   6  -3    1.12    0.19
  -4   6  -3   21.85    0.66
  -4   6  -3   21.43    0.63
  -5   6  -3   64.71    1.64
  -5   6  -3   64.27    1.60
  -6   6  -3   99.73    2.33
  -6   6  -3   94.74    2.39
  -7   6  -3    0.00    0.11
  -8   6  -3   12.72    0.42
  -4  -5   3    0.85    0.16
  -3  -5   3    0.30    0.12
   2   5  -3    2.01    0.24
  -2  -5   3    1.66    0.19
   1   5  -3    9.05    0.37
   1   5  -3    9.29    0.37
  -1  -5   3    9.62    0.36
   0   5  -3    0.46    0.16
   0   5  -3    0.36    0.15
   0  -5   3    0.24    0.13
  -1   5  -3   13.92    0.49
  -1   5  -3   14.76    0.46
  -2   5  -3  158.89    3.76
  -2   5  -3  157.58    3.74
  -3   5  -3   73.22    1.80
  -3   5  -3   73.29    1.82
  -4   5  -3    4.04    0.22
  -4   5  -3    3.70    0.29
  -4   5  -3    4.69    0.30
  -5   5  -3   17.01    0.51
  -6   5  -3   10.02    0.38
  -6   5  -3    8.86    0.33
  -7   5  -3   14.81    0.44
  -7   5  -3   14.53    0.49
  -8   5  -3    4.39    0.36
  -5  -4   3    0.63    0.16
  -4  -4   3    1.51    0.17
   3   4  -3    0.28    0.16
   2   4  -3    1.15    0.23
  -2  -4   3    1.07    0.17
   1   4  -3    1.96    0.24
  -1  -4   3    2.04    0.16
   0  -4   3   16.38    0.47
  -1   4  -3   91.73    2.21
  -2   4  -3    2.02    0.16
  -2   4  -3    2.70    0.16
  -3   4  -3    0.21    0.08
  -3   4  -3    0.43    0.10
  -4   4  -3   54.77    1.39
  -4   4  -3   57.65    1.41
  -5   4  -3   75.93    1.85
  -5   4  -3   76.35    1.88
  -6   4  -3  127.26    3.06
  -6   4  -3  129.37    3.09
  -7   4  -3    0.47    0.10
  -7   4  -3    0.51    0.15
  -8   4  -3    9.68    0.35
   8  -4   3    9.87    0.32
  -6  -3   3   16.26    0.49
  -5  -3   3    1.49    0.17
   4   3  -3    9.04    0.39
  -4  -3   3    7.64    0.39
   3   3  -3    6.12    0.33
  -3  -3   3    5.63    0.26
   2   3  -3    8.91    0.40
  -2  -3   3    9.29    0.32
  -1  -3   3   16.82    0.44
  -1  -3   3   16.54    0.47
  -1  -3   3   15.49    0.42
   0  -3   3    2.64    0.13
  -1   3  -3   82.81    1.97
   1  -3   3   84.11    1.97
  -2   3  -3  376.87    8.73
  -2   3  -3  378.11    8.72
   2  -3   3  376.06    8.72
  -3   3  -3  161.74    3.81
  -3   3  -3  163.18    3.81
  -4   3  -3   -0.02    0.11
  -4   3  -3    0.21    0.10
  -5   3  -3   14.58    0.45
  -5   3  -3   14.50    0.46
  -6   3  -3    2.91    0.22
  -6   3  -3    2.80    0.20
  -7   3  -3   13.45    0.41
  -7   3  -3   12.53    0.45
   7  -3   3   14.51    0.44
  -8   3  -3    3.74    0.23
   8  -3   3    4.07    0.18
  -6  -2   3    3.00    0.21
  -5  -2   3    1.84    0.19
  -5  -2   3    2.41    0.26
   4   2  -3    2.10    0.31
  -4  -2   3    2.28    0.18
  -4  -2   3    2.21    0.31
   3   2  -3    2.37    0.33
  -3  -2   3    2.79    0.17
  -2  -2   3    0.10    0.09
  -1  -2   3    6.41    0.18
   0   2  -3   11.71    0.31
   0  -2   3   12.01    0.31
  -1   2  -3  209.39    4.99
   1  -2   3  221.54    4.99
  -2   2  -3   26.95    0.66
   2  -2   3   25.37    0.66
  -3   2  -3    8.65    0.30
  -3   2  -3    8.80    0.29
  -4   2  -3   79.98    1.97
  -4   2  -3   83.63    1.99
  -5   2  -3   38.12    0.99
  -5   2  -3   35.74    0.98
  -6   2  -3  101.03    2.53
  -6   2  -3  106.36    2.49
  -7   2  -3    0.37    0.15
   7  -2   3    0.25    0.09
   8  -2   3    4.12    0.17
  -7  -1   3   11.78    0.41
  -6  -1   3   47.73    1.20
  -6  -1   3   45.73    1.24
  -6  -1   3   49.15    1.23
  -5  -1   3    8.33    0.36
  -5  -1   3    8.24    0.37
  -5  -1   3    8.51    0.33
  -4  -1   3   43.34    1.14
  -4  -1   3   42.61    1.10
  -4  -1   3   43.26    1.11
  -3  -1   3   42.92    1.07
   1   1  -3    2.62    0.09
  -1  -1   3    2.53    0.08
   0   1  -3    1.80    0.08
   0  -1   3    1.85    0.08
  -1   1  -3  128.52    3.03
   1  -1   3  131.42    3.03
  -2   1  -3  384.47    8.90
   2  -1   3  385.81    8.90
  -3   1  -3  138.89    3.22
  -3   1  -3  133.99    3.22
  -4   1  -3    4.23    0.22
  -4   1  -3    3.81    0.24
  -5   1  -3   10.47    0.38
  -5   1  -3   10.10    0.36
  -6   1  -3    0.03    0.14
   6  -1   3    0.03    0.10
  -7   1  -3    7.40    0.33
  -7   0   3    3.63    0.23
  -7   0   3    4.00    0.26
  -7   0   3    3.99    0.21
  -6   0   3    8.55    0.34
  -6   0   3    8.08    0.35
  -6   0   3    8.28    0.34
  -5   0   3    0.96    0.16
  -5   0   3    0.95    0.22
  -5   0   3    1.10    0.20
  -4   0   3    0.32    0.14
  -4   0   3    0.55    0.12
  -4   0   3    0.17    0.14
  -3   0   3    7.83    0.28
   2   0  -3    3.36    0.10
   1   0  -3    0.14    0.04
  -1   0   3    0.16    0.04
   0   0  -3    0.08    0.02
   0   0   3    0.05    0.03
  -1   0  -3  176.29    4.07
   1   0   3  173.33    4.07
  -2   0  -3   23.68    0.64
  -2   0  -3   24.13    0.63
  -3   0  -3    9.08    0.34
   3   0   3    9.08    0.33
  -4   0  -3   63.51    1.56
   4   0   3   61.45    1.56
  -5   0  -3    6.60    0.31
   5   0   3    6.40    0.29
  -6   0  -3   50.28    1.32
   6   0   3   52.01    1.28
   7   0   3    0.42    0.10
  -8   1   3    1.36    0.13
  -8   1   3    1.26    0.12
  -8   1   3    1.15    0.29
  -7   1   3   16.69    0.52
  -7   1   3   16.53    0.49
  -7   1   3   16.39    0.54
  -6   1   3   85.45    2.11
  -6   1   3   90.43    2.14
  -6   1   3   84.14    2.14
  -5   1   3   22.55    0.64
  -5   1   3   22.40    0.67
  -5   1   3   22.23    0.63
  -4   1   3   80.05    1.97
  -4   1   3   81.47    2.00
  -4   1   3   83.10    1.96
   3  -1  -3  102.91    2.41
   3  -1  -3  104.90    2.41
   2  -1  -3   32.09    0.78
   1  -1  -3    1.40    0.09
  -1   1   3    1.37    0.09
   0  -1  -3    1.78    0.11
   0   1   3    1.73    0.12
  -1  -1  -3   31.91    0.81
  -2  -1  -3  167.33    3.92
   2   1   3  166.78    3.93
  -3  -1  -3   52.82    1.32
   3   1   3   51.65    1.32
  -4  -1  -3    4.40    0.29
   4   1   3    4.75    0.24
  -5  -1  -3    5.57    0.34
   5   1   3    5.66    0.25
   6   1   3    0.69    0.11
  -8   2   3    4.40    0.19
  -8   2   3    4.37    0.21
  -7   2   3    2.17    0.21
  -7   2   3    1.74    0.17
  -7   2   3    1.57    0.26
  -6   2   3   13.35    0.47
  -6   2   3   13.22    0.48
  -6   2   3   13.42    0.44
  -5   2   3    0.16    0.18
  -5   2   3    0.18    0.13
  -5   2   3    0.05    0.10
  -4   2   3    1.05    0.25
  -4   2   3    0.92    0.21
   3  -2  -3    2.21    0.19
   2  -2  -3   10.26    0.31
   1  -2  -3    9.42    0.31
   0  -2  -3    2.32    0.18
   1   2   3   49.60    1.23
   1   2   3   49.41    1.23
   1   2   3   48.31    1.26
   2   2   3    9.89    0.47
   2   2   3   11.25    0.38
  -3  -2  -3    7.52    0.57
   3   2   3    7.12    0.31
   4   2   3   22.62    0.65
   5   2   3   -0.02    0.08
  -9   3   3    1.63    0.10
  -8   3   3    0.52    0.14
  -8   3   3    0.43    0.11
  -7   3   3   17.90    0.53
  -7   3   3   18.54    0.57
  -6   3   3   89.89    2.18
  -6   3   3   90.01    2.21
  -5   3   3   32.68    0.86
  -5   3   3   32.14    0.89
  -5   3   3   31.63    0.93
  -4   3   3   60.64    1.52
  -4   3   3   59.14    1.51
  -4   3   3   61.11    1.50
  -4   3   3   59.93    1.50
   3  -3  -3   85.52    2.14
  -3   3   3   89.98    2.13
  -3   3   3   89.12    2.17
  -3   3   3   88.86    2.15
  -2   3   3   23.71    0.68
  -2   3   3   23.81    0.66
  -1   3   3    2.53    0.25
  -1   3   3    2.76    0.25
  -1   3   3    3.07    0.20
   0   3   3    0.12    0.11
   0   3   3    0.07    0.15
   0   3   3    0.02    0.15
   1   3   3    2.63    0.24
   1   3   3    2.32    0.31
   1   3   3    3.15    0.26
   2   3   3   39.98    1.03
   2   3   3   39.55    1.05
   3   3   3   14.94    0.46
   4   3   3    2.60    0.21
  -9   4   3    0.75    0.09
  -8   4   3    2.10    0.18
  -8   4   3    1.69    0.14
  -7   4   3   -0.05    0.10
  -7   4   3    0.45    0.14
  -6   4   3   11.68    0.41
  -6   4   3   11.77    0.45
  -5   4   3    1.22    0.30
  -5   4   3    1.57    0.27
  -5   4   3    1.18    0.26
  -4   4   3    2.07    0.20
  -4   4   3    1.88    0.30
  -4   4   3    2.17    0.24
  -3   4   3    0.25    0.12
  -3   4   3    0.13    0.20
  -3   4   3    0.10    0.14
  -2   4   3    5.34    0.28
  -2   4   3    5.17    0.24
  -1   4   3   12.89    0.44
  -1   4   3   12.76    0.41
   0   4   3    2.04    0.22
   0   4   3    2.42    0.19
   1   4   3    9.37    0.35
   1   4   3   10.01    0.38
   2   4   3    4.86    0.28
  -8   5   3    0.12    0.09
  -7   5   3   12.94    0.40
  -7   5   3   13.37    0.46
  -5   5   3   25.67    0.74
  -5   5   3   25.15    0.70
  -4   5   3   33.32    0.90
  -4   5   3   32.33    0.87
  -3   5   3   38.16    0.98
  -3   5   3   36.68    0.99
  -2   5   3   12.42    0.43
  -2   5   3   12.26    0.40
  -1   5   3    3.25    0.19
  -1   5   3    3.27    0.22
   0   5   3    1.09    0.17
   1   5   3    0.03    0.11
  -5   6   3    3.11    0.19
  -5   6   3    2.99    0.25
  -4   6   3    3.97    0.23
  -4   6   3    3.52    0.20
  -3   6   3    1.08    0.16
  -3   6   3    1.31    0.14
  -2   6   3    1.37    0.16
  -2   6   3    1.50    0.13
  -1   6   3    8.88    0.29
  -1   6   3    9.01    0.31
   0   6   3    1.21    0.14
   0   6   3    1.15    0.15
  -5   7   3   10.63    0.35
  -5   7   3   10.42    0.32
  -4   7   3   14.44    0.41
  -4   7   3   13.75    0.40
  -3   7   3   11.01    0.33
  -3   7   3   11.08    0.34
  -2   7   3    3.91    0.15
  -2   9  -4    8.58    0.27
  -2   9  -4    9.05    0.29
   2  -9   4    8.77    0.32
  -3   9  -4    4.37    0.18
   3  -9   4    4.72    0.24
  -4   9  -4    1.84    0.12
   4  -9   4    1.96    0.20
  -5   9  -4   41.54    1.03
   0   8  -4    0.30    0.09
   0   8  -4    0.38    0.15
   0  -8   4    0.47    0.15
  -1   8  -4    3.57    0.18
  -1   8  -4    3.99    0.21
   1  -8   4    3.77    0.24
  -2   8  -4   14.60    0.45
  -2   8  -4   15.04    0.46
   2  -8   4   14.83    0.50
  -3   8  -4    2.86    0.18
  -3   8  -4    2.71    0.27
  -4   8  -4    1.39    0.15
  -5   8  -4    0.56    0.15
  -5   8  -4    0.88    0.15
  -6   8  -4    5.66    0.28
  -7   8  -4    3.76    0.23
   2   7  -4    1.63    0.14
  -2  -7   4    1.59    0.18
   1   7  -4    0.51    0.13
  -1  -7   4    0.63    0.16
   0   7  -4    3.87    0.22
   0   7  -4    3.72    0.23
   0  -7   4    3.38    0.24
  -1   7  -4   16.48    0.50
  -1   7  -4   14.96    0.48
   1  -7   4   14.71    0.52
  -2   7  -4   27.08    0.76
  -3   7  -4   12.05    0.41
  -3   7  -4   11.72    0.54
  -4   7  -4   19.94    0.58
  -4   7  -4   19.12    0.63
  -5   7  -4   88.32    2.06
  -5   7  -4   81.21    2.12
  -6   7  -4    8.18    0.35
  -7   7  -4    2.19    0.19
  -8   7  -4    1.37    0.19
   3   6  -4    3.81    0.20
  -3  -6   4    4.12    0.22
   2   6  -4    0.70    0.15
  -2  -6   4    0.64    0.16
   1   6  -4   10.08    0.37
   1   6  -4   10.43    0.39
  -1  -6   4    9.92    0.39
   0   6  -4    0.29    0.14
   0   6  -4    0.30    0.14
   0  -6   4    0.60    0.17
  -1   6  -4   10.23    0.37
  -1   6  -4    9.81    0.39
  -2   6  -4   55.93    1.48
  -2   6  -4   54.82    1.44
  -2   6  -4   59.16    1.47
  -3   6  -4    5.95    0.28
  -3   6  -4    6.89    0.32
  -4   6  -4    0.33    0.12
  -4   6  -4    0.71    0.16
  -5   6  -4    6.72    0.35
  -5   6  -4    7.26    0.32
  -6   6  -4    6.17    0.29
  -7   6  -4    5.08    0.26
  -8   6  -4    0.46    0.14
   4   5  -4    7.44    0.29
  -4  -5   4    7.94    0.30
   3   5  -4    6.76    0.30
  -3  -5   4    6.14    0.29
   2   5  -4    4.11    0.27
  -2  -5   4    3.92    0.25
   1   5  -4   10.51    0.40
   1   5  -4   10.47    0.41
  -1  -5   4   10.75    0.39
   0   5  -4   13.29    0.46
   0   5  -4   13.70    0.45
  -1   5  -4   55.42    1.44
  -1   5  -4   59.17    1.44
  -2   5  -4   63.81    1.59
  -2   5  -4   63.61    1.60
  -3   5  -4   18.70    0.57
  -3   5  -4   18.68    0.57
  -4   5  -4   65.61    1.64
  -4   5  -4   64.99    1.62
  -5   5  -4  127.16    3.03
  -5   5  -4  123.20    2.97
  -6   5  -4   20.43    0.58
  -6   5  -4   19.93    0.62
  -7   5  -4    0.98    0.16
  -8   5  -4    0.72    0.16
  -5  -4   4    2.69    0.21
   4   4  -4    9.67    0.37
  -4  -4   4    9.64    0.36
   3   4  -4   14.68    0.51
   2   4  -4    3.93    0.28
  -2  -4   4    3.81    0.24
   1   4  -4   58.42    1.45
   1   4  -4   54.80    1.43
  -1  -4   4   57.52    1.42
  -1   4  -4   20.87    0.59
  -2   4  -4  157.21    3.62
  -2   4  -4  149.05    3.61
  -4   4  -4    0.19    0.11
  -4   4  -4    0.22    0.11
  -5   4  -4   21.78    0.64
  -5   4  -4   21.81    0.61
  -6   4  -4    5.59    0.24
  -6   4  -4    4.69    0.26
   6  -4   4    5.51    0.31
  -7   4  -4    3.56    0.22
   7  -4   4    3.52    0.22
  -8   4  -4    0.37    0.15
   8  -4   4    1.01    0.18
  -6  -3   4    6.88    0.30
   5   3  -4   30.25    0.82
  -5  -3   4   29.26    0.82
   4   3  -4   28.15    0.80
  -4  -3   4   27.21    0.78
   3   3  -4   31.00    0.89
  -3  -3   4   32.49    0.86
   2   3  -4   14.13    0.50
  -2  -3   4   14.23    0.44
  -1  -3   4   60.85    1.45
  -1  -3   4   61.90    1.50
   0   3  -4   36.66    0.90
   0  -3   4   35.84    0.89
  -1   3  -4  198.44    4.57
  -1   3  -4  197.73    4.56
   1  -3   4  190.55    4.55
  -2   3  -4   93.99    2.27
  -2   3  -4   96.34    2.26
  -3   3  -4   13.06    0.40
  -3   3  -4   12.49    0.41
  -4   3  -4   99.19    2.31
  -4   3  -4  100.56    2.33
   4  -3   4   89.70    2.32
  -5   3  -4  138.17    3.26
  -5   3  -4  134.31    3.23
  -6   3  -4   22.57    0.63
  -6   3  -4   21.87    0.66
   6  -3   4   23.64    0.65
  -7   3  -4    0.16    0.15
   7  -3   4    0.11    0.08
   8  -3   4    0.46    0.12
  -6  -2   4    6.63    0.30
   5   2  -4    8.86    0.41
  -5  -2   4    8.55    0.38
  -5  -2   4    8.75    0.35
  -5  -2   4    9.04    0.38
   4   2  -4   24.14    0.74
  -4  -2   4   24.24    0.69
  -4  -2   4   24.08    0.68
  -4  -2   4   23.19    0.73
  -3  -2   4   28.31    0.84
  -3  -2   4   29.34    0.78
  -3  -2   4   29.42    0.80
  -2  -2   4   11.98    0.38
   1   2  -4  234.46    5.49
  -1  -2   4  241.10    5.49
   0   2  -4    2.90    0.12
   0  -2   4    2.75    0.12
  -1   2  -4   22.17    0.57
   1  -2   4   22.33    0.57
  -2   2  -4  186.16    4.35
  -3   2  -4   10.04    0.36
  -3   2  -4    9.48    0.35
  -4   2  -4    0.44    0.11
  -4   2  -4    0.30    0.14
   4  -2   4    0.49    0.13
  -5   2  -4   26.01    0.71
  -5   2  -4   26.84    0.74
   5  -2   4   24.84    0.72
  -6   2  -4    2.58    0.25
   6  -2   4    3.35    0.21
  -7   2  -4    1.09    0.27
   7  -2   4    0.89    0.13
  -7  -1   4   12.47    0.45
  -7  -1   4   12.15    0.38
  -6  -1   4   14.60    0.45
  -6  -1   4   14.13    0.47
  -6  -1   4   13.60    0.48
   5   1  -4   64.70    1.71
  -5  -1   4   68.85    1.68
  -5  -1   4   69.03    1.69
  -5  -1   4   67.65    1.71
  -4  -1   4   58.94    1.51
  -4  -1   4   59.32    1.47
  -4  -1   4   59.48    1.48
  -3  -1   4   70.69    1.71
   1   1  -4  129.85    3.09
  -1  -1   4  136.55    3.09
   0   1  -4   30.61    0.77
   0  -1   4   31.81    0.77
  -1   1  -4  236.03    5.49
   1  -1   4  236.30    5.48
  -2   1  -4   52.17    1.29
  -3   1  -4    8.91    0.35
   3  -1   4    8.67    0.34
  -4   1  -4   70.08    1.69
   4  -1   4   65.89    1.71
  -5   1  -4   88.74    2.20
   5  -1   4   90.40    2.18
  -6   1  -4   11.26    0.56
   6  -1   4   11.64    0.38
   7  -1   4   -0.04    0.07
  -8   0   4    0.83    0.14
  -7   0   4   17.28    0.52
  -7   0   4   17.43    0.58
  -7   0   4   17.40    0.50
  -6   0   4   11.63    0.44
  -6   0   4   11.41    0.43
  -6   0   4   12.22    0.41
  -5   0   4   20.16    0.63
  -5   0   4   20.63    0.61
  -5   0   4   20.76    0.60
  -4   0   4   30.25    0.85
  -4   0   4   30.10    0.81
  -4   0   4   30.54    0.87
  -4   0   4   30.82    0.81
   2   0  -4   18.35    0.45
  -2   0   4   18.13    0.45
   1   0  -4  311.46    7.40
  -1   0   4  329.82    7.40
   0   0  -4    1.01    0.09
   0   0   4    0.92    0.11
  -1   0  -4   13.96    0.41
   2   0   4   83.87    2.03
   3   0   4    5.23    0.25
  -4   0  -4    0.20    0.22
   4   0   4    0.32    0.10
   5   0   4   17.63    0.52
   6   0   4    2.01    0.13
  -8   1   4    1.11    0.13
  -8   1   4    1.03    0.11
  -7   1   4   20.87    0.62
  -7   1   4   20.68    0.60
  -6   1   4   20.17    0.63
  -6   1   4   19.71    0.59
  -5   1   4   85.85    2.12
  -4   1   4   68.50    1.74
  -4   1   4   69.67    1.73
  -4   1   4   69.90    1.70
   2  -1  -4   69.33    1.66
   1  -1  -4  107.62    2.55
  -1   1   4  108.51    2.58
   0  -1  -4    1.74    0.15
   1   1   4  102.81    2.46
   1   1   4  102.99    2.46
   2   1   4   12.05    0.43
   2   1   4   12.20    0.41
   3   1   4    4.70    0.25
   4   1   4   23.31    0.65
   5   1   4   38.08    0.96
  -8   2   4    0.19    0.07
  -8   2   4    0.07    0.08
  -7   2   4   17.14    0.53
  -7   2   4   18.48    0.56
  -6   2   4   14.57    0.47
  -6   2   4   15.16    0.51
  -5   2   4   29.73    0.80
  -5   2   4   28.91    0.84
  -5   2   4   28.95    0.83
  -4   2   4   19.96    0.60
  -4   2   4   19.05    0.62
  -4   2   4   19.91    0.58
  -3   2   4   18.45    0.57
  -3   2   4   17.62    0.55
  -3   2   4   18.24    0.56
  -3   2   4   18.49    0.54
   2  -2  -4   14.68    0.46
  -2   2   4   14.17    0.47
  -2   2   4   14.86    0.44
  -2   2   4   14.71    0.48
  -1   2   4  142.84    3.51
  -1   2   4  151.64    3.50
  -1   2   4  150.89    3.52
   0   2   4    0.12    0.17
   0   2   4    0.14    0.13
   0   2   4   -0.10    0.11
   1   2   4    4.98    0.32
   1   2   4    5.36    0.27
   1   2   4    5.40    0.27
   2   2   4   23.05    0.69
   2   2   4   23.79    0.67
   3   2   4    2.87    0.21
   4   2   4    0.17    0.09
  -8   3   4    0.88    0.11
  -8   3   4    0.53    0.14
  -7   3   4   19.96    0.56
  -7   3   4   19.08    0.59
  -6   3   4   19.48    0.57
  -6   3   4   19.17    0.61
  -5   3   4   59.69    1.53
  -5   3   4   61.07    1.51
  -5   3   4   60.56    1.54
  -4   3   4   62.73    1.58
  -4   3   4   63.04    1.60
  -4   3   4   65.65    1.58
  -4   3   4   63.82    1.60
  -3   3   4   18.52    0.59
  -3   3   4   19.10    0.55
  -2   3   4   45.81    1.16
  -2   3   4   44.06    1.16
  -2   3   4   44.86    1.14
  -1   3   4   38.84    1.00
  -1   3   4   38.88    1.02
  -1   3   4   38.03    1.01
   0   3   4    0.44    0.16
   0   3   4    0.00    0.15
   0   3   4    0.38    0.12
   1   3   4   35.29    0.93
   1   3   4   34.74    0.91
   1   3   4   34.28    0.93
   3   3   4    2.38    0.21
  -8   4   4    0.02    0.07
  -8   4   4   -0.13    0.10
  -7   4   4    7.09    0.27
  -7   4   4    7.10    0.30
  -6   4   4   12.79    0.46
  -6   4   4   13.28    0.43
  -6   4   4   12.91    0.50
  -5   4   4   31.80    0.84
  -5   4   4   30.03    0.86
  -5   4   4   31.23    0.87
  -4   4   4    5.45    0.31
  -4   4   4    6.05    0.35
  -4   4   4    5.92    0.27
  -3   4   4    4.56    0.23
  -3   4   4    4.93    0.32
  -3   4   4    4.32    0.26
  -2   4   4    4.10    0.25
  -2   4   4    4.27    0.30
  -2   4   4    4.24    0.22
  -1   4   4   49.24    1.30
  -1   4   4   48.90    1.29
  -1   4   4   55.49    1.32
   0   4   4    0.26    0.11
   0   4   4    0.41    0.13
   0   4   4    0.20    0.16
   1   4   4    1.70    0.24
   1   4   4    1.62    0.18
   1   4   4    1.67    0.20
  -6   5   4   11.29    0.47
  -6   5   4   11.57    0.43
  -5   5   4   27.18    0.76
  -5   5   4   27.21    0.73
  -4   5   4   46.52    1.19
  -4   5   4   46.94    1.21
  -3   5   4    1.24    0.15
  -3   5   4    1.30    0.18
  -2   5   4   20.00    0.59
  -2   5   4   19.81    0.57
  -1   5   4    8.13    0.31
  -1   5   4    8.20    0.29
   0   5   4    0.62    0.12
   0   5   4    0.63    0.14
  -5   6   4   19.56    0.56
  -5   6   4   21.77    0.63
  -4   6   4    0.39    0.12
  -4   6   4    0.25    0.08
  -3   6   4    0.12    0.10
  -3   6   4    0.07    0.07
  -2   6   4    1.11    0.13
  -2   6   4    0.83    0.10
  -1   6   4   12.77    0.38
  -1   6   4   13.05    0.36
  -5   7   4    8.07    0.25
  -5   7   4    8.26    0.29
  -4   7   4   20.24    0.53
  -4   7   4   21.14    0.54
  -1   9  -5    7.56    0.24
  -1   9  -5    7.06    0.23
  -2   9  -5   -0.10    0.06
  -2   9  -5    0.04    0.12
   2  -9   5    0.00    0.13
  -3   9  -5    1.81    0.12
   3  -9   5    1.85    0.18
  -4   9  -5   14.75    0.42
  -5   9  -5   11.03    0.33
   1   8  -5    0.03    0.07
   0   8  -5    2.28    0.16
   0   8  -5    1.85    0.15
   0  -8   5    2.36    0.21
  -1   8  -5   11.08    0.37
  -1   8  -5   10.65    0.35
   1  -8   5   11.66    0.40
  -2   8  -5    0.13    0.09
  -2   8  -5   -0.05    0.14
   2  -8   5    0.26    0.15
  -3   8  -5    8.99    0.32
  -5   8  -5    0.03    0.10
  -5   8  -5    0.16    0.14
  -6   8  -5    0.07    0.13
  -7   8  -5    0.03    0.13
   2   7  -5   12.05    0.36
  -2  -7   5   12.16    0.40
   1   7  -5    6.68    0.27
  -1  -7   5    6.57    0.30
   0   7  -5    2.40    0.19
   0   7  -5    2.11    0.20
   0  -7   5    2.01    0.21
  -1   7  -5   27.93    0.76
  -1   7  -5   27.41    0.75
   1  -7   5   25.22    0.78
  -2   7  -5    1.39    0.27
  -2   7  -5    0.89    0.17
  -3   7  -5    7.41    0.31
  -4   7  -5   29.74    0.86
  -4   7  -5   29.89    0.82
  -5   7  -5   22.26    0.64
  -5   7  -5   23.53    0.71
  -6   7  -5    1.48    0.20
   6  -7   5    1.67    0.20
  -7   7  -5   12.65    0.43
   7  -7   5   11.85    0.36
   8  -7   5    0.23    0.08
   3   6  -5   22.20    0.60
  -3  -6   5   21.51    0.62
   2   6  -5    7.45    0.32
  -2  -6   5    7.10    0.31
   1   6  -5    0.26    0.14
   1   6  -5    0.21    0.17
  -1  -6   5    0.45    0.14
   0   6  -5    2.17    0.23
   0   6  -5    1.90    0.21
   0  -6   5    2.61    0.23
  -1   6  -5   23.10    0.68
  -1   6  -5   23.47    0.68
  -2   6  -5    1.71    0.19
  -2   6  -5    2.12    0.31
  -3   6  -5   22.81    0.68
  -3   6  -5   21.54    0.64
  -4   6  -5   37.06    1.01
  -4   6  -5   35.57    0.97
  -5   6  -5    0.68    0.19
  -6   6  -5    0.33    0.15
  -7   6  -5   -0.09    0.13
   4   5  -5    0.05    0.13
  -4  -5   5    0.15    0.14
   3   5  -5    0.88    0.16
  -3  -5   5    0.51    0.15
   2   5  -5   44.79    1.17
  -2  -5   5   43.64    1.16
   1   5  -5   25.30    0.74
   1   5  -5   25.71    0.73
  -1  -5   5   26.24    0.74
   0   5  -5    7.96    0.34
   0   5  -5    7.91    0.36
   0  -5   5    8.50    0.34
  -1   5  -5   67.25    1.63
  -1   5  -5   63.80    1.64
  -2   5  -5    6.24    0.28
  -2   5  -5    5.88    0.28
  -3   5  -5   21.87    0.64
  -3   5  -5   21.87    0.65
  -4   5  -5   36.45    0.99
  -4   5  -5   36.42    0.98
  -5   5  -5   29.79    0.84
  -6   5  -5    0.59    0.17
  -7   5  -5   18.32    0.56
  -5  -4   5   23.95    0.67
   4   4  -5    2.79    0.28
  -4  -4   5    2.44    0.21
   3   4  -5   51.66    1.35
  -3  -4   5   52.17    1.34
   2   4  -5   14.74    0.52
  -2  -4   5   15.60    0.49
   1   4  -5    2.06    0.25
   1   4  -5    2.08    0.24
  -1  -4   5    2.16    0.20
   0   4  -5    0.52    0.13
   0   4  -5    1.19    0.28
  -1   4  -5   41.74    1.06
  -1   4  -5   40.08    1.07
  -1   4  -5   41.72    1.06
  -2   4  -5   19.28    0.56
  -2   4  -5   18.87    0.56
   2  -4   5   19.17    0.64
  -3   4  -5   24.39    0.70
  -3   4  -5   24.96    0.70
  -4   4  -5   42.83    1.12
  -5   4  -5    5.68    0.29
   5  -4   5    5.78    0.34
  -6   4  -5    0.09    0.15
   6  -4   5    0.24    0.14
  -7   4  -5    0.20    0.16
   7  -4   5    0.24    0.12
   8  -4   5    6.54    0.20
   5   3  -5    1.84    0.24
  -5  -3   5    2.03    0.23
   4   3  -5    0.40    0.17
  -4  -3   5    0.48    0.15
   3   3  -5    0.70    0.18
  -3  -3   5    1.02    0.21
  -3  -3   5    0.73    0.19
   2   3  -5  106.77    2.61
  -2  -3   5  106.83    2.60
  -2  -3   5  110.73    2.59
  -1  -3   5   52.15    1.30
   0   3  -5   11.29    0.35
   0  -3   5   10.25    0.35
  -1   3  -5   84.03    2.07
  -1   3  -5   88.05    2.06
  -2   3  -5   16.95    0.52
  -2   3  -5   16.85    0.51
  -3   3  -5   36.65    0.95
  -3   3  -5   34.97    0.96
  -4   3  -5   20.83    0.60
   4  -3   5   19.33    0.60
  -5   3  -5   23.11    0.66
   5  -3   5   21.41    0.64
  -6   3  -5    0.05    0.18
   6  -3   5    0.15    0.10
   7  -3   5   15.20    0.43
  -6  -2   5   40.21    1.03
  -6  -2   5   40.60    1.07
   5   2  -5   54.85    1.38
  -5  -2   5   54.59    1.35
  -5  -2   5   51.30    1.37
  -5  -2   5   53.60    1.37
   4   2  -5    9.54    0.42
  -4  -2   5    9.57    0.37
  -4  -2   5    9.80    0.43
  -4  -2   5   10.07    0.39
  -3  -2   5   91.10    2.23
  -3  -2   5   94.24    2.24
  -3  -2   5   92.33    2.28
  -2  -2   5   11.87    0.45
  -2  -2   5   12.44    0.46
   1   2  -5    2.20    0.16
   0   2  -5    0.49    0.12
   0  -2   5    0.45    0.09
  -1   2  -5   50.65    1.25
   3  -2   5    9.47    0.36
  -4   2  -5   31.13    0.87
   4  -2   5   31.49    0.85
  -5   2  -5   11.91    0.47
   5  -2   5   11.74    0.41
   6  -2   5    0.08    0.09
  -7  -1   5    0.01    0.11
  -7  -1   5    0.20    0.10
  -6  -1   5   58.46    1.48
  -6  -1   5   58.92    1.52
  -5  -1   5   11.69    0.41
  -5  -1   5   12.31    0.45
  -4  -1   5    3.09    0.29
  -4  -1   5    2.92    0.22
  -3  -1   5   10.17    0.43
  -3  -1   5   10.34    0.41
  -3  -1   5   10.18    0.37
   1   1  -5   43.06    1.05
  -1  -1   5   43.19    1.05
   0   1  -5    4.61    0.20
  -1   1  -5   62.33    1.53
   2  -1   5   10.33    0.37
   3  -1   5   25.08    0.70
   4  -1   5    4.18    0.24
   5  -1   5    9.01    0.33
   6  -1   5    0.77    0.11
  -8   0   5    0.13    0.12
  -7   0   5    0.16    0.09
  -7   0   5    0.13    0.10
   6   0  -5   68.93    1.77
  -6   0   5   72.02    1.77
  -6   0   5   70.57    1.74
  -5   0   5   68.48    1.71
  -5   0   5   68.99    1.74
  -4   0   5   24.28    0.72
  -4   0   5   24.06    0.68
  -4   0   5   24.69    0.73
  -3   0   5   91.25    2.22
  -3   0   5   90.72    2.24
  -3   0   5   94.88    2.26
   2   0  -5    3.11    0.18
   1   0  -5    0.48    0.13
   0   0  -5    0.12    0.08
   1   0   5   21.18    0.61
   1   0   5   22.12    0.60
   1   0   5   21.16    0.61
   2   0   5   24.11    0.67
   2   0   5   23.12    0.66
   2   0   5   23.63    0.67
   3   0   5    0.68    0.13
   3   0   5    0.65    0.17
   4   0   5   12.10    0.41
   5   0   5   12.79    0.39
   6   0   5    0.07    0.06
  -8   1   5    5.04    0.20
  -8   1   5    4.98    0.18
  -7   1   5   -0.05    0.08
  -7   1   5   -0.17    0.10
  -6   1   5   70.40    1.77
  -6   1   5   69.80    1.74
  -5   1   5   23.97    0.71
  -5   1   5   23.89    0.72
  -5   1   5   23.71    0.68
  -4   1   5   11.62    0.43
  -4   1   5   11.77    0.40
  -4   1   5   11.28    0.45
  -3   1   5   22.88    0.65
  -3   1   5   24.08    0.65
  -3   1   5   22.40    0.68
  -3   1   5   22.30    0.66
   2  -1  -5   85.06    2.07
  -2   1   5   86.15    2.09
  -2   1   5   87.17    2.10
  -2   1   5   81.45    2.07
  -2   1   5   89.37    2.08
  -1   1   5   11.69    0.42
   0   1   5    0.69    0.14
   0   1   5    0.66    0.15
   0   1   5    1.02    0.19
   1   1   5   19.09    0.54
   1   1   5   18.24    0.54
   1   1   5   16.67    0.57
   2   1   5    3.30    0.26
   2   1   5    3.43    0.23
   3   1   5   13.08    0.43
   4   1   5    0.41    0.10
   5   1   5    1.92    0.13
  -8   2   5    0.11    0.08
  -8   2   5    0.13    0.06
  -7   2   5    0.83    0.14
  -7   2   5    0.69    0.17
  -6   2   5   65.64    1.65
  -6   2   5   65.02    1.64
  -6   2   5   65.32    1.63
  -5   2   5   59.10    1.48
  -5   2   5   59.98    1.51
  -5   2   5   57.99    1.51
  -4   2   5   33.79    0.91
  -4   2   5   34.37    1.11
  -4   2   5   33.75    0.94
  -3   2   5   33.80    0.92
  -3   2   5   33.76    0.93
  -3   2   5   34.00    0.93
  -3   2   5   36.06    0.92
  -2   2   5    0.20    0.14
  -2   2   5    0.10    0.09
  -2   2   5   -0.05    0.14
  -1   2   5    0.36    0.15
  -1   2   5   -0.17    0.11
  -1   2   5    0.14    0.10
   0   2   5    0.36    0.14
   0   2   5    0.55    0.14
   0   2   5    0.07    0.16
   1   2   5    7.11    0.30
   1   2   5    7.79    0.31
   1   2   5    7.51    0.36
   2   2   5   11.73    0.39
   2   2   5   11.31    0.41
   3   2   5   -0.17    0.09
   4   2   5    2.85    0.17
  -8   3   5   10.28    0.30
  -8   3   5   10.52    0.32
  -7   3   5   -0.02    0.10
  -7   3   5    0.29    0.09
  -6   3   5   49.29    1.28
  -6   3   5   49.04    1.27
  -6   3   5   49.71    1.25
  -5   3   5   21.15    0.65
  -5   3   5   20.75    0.62
  -5   3   5   21.59    0.65
  -4   3   5   18.76    0.59
  -4   3   5   18.87    0.57
  -4   3   5   18.61    0.60
  -4   3   5   19.21    0.58
  -3   3   5   20.06    0.61
  -3   3   5   19.23    0.60
  -3   3   5   19.52    0.58
  -2   3   5   19.57    0.60
  -2   3   5   20.00    0.58
  -2   3   5   19.75    0.60
  -1   3   5    0.80    0.15
  -1   3   5    0.84    0.19
  -1   3   5    1.01    0.15
   0   3   5    0.08    0.14
   0   3   5   -0.14    0.09
   0   3   5   -0.01    0.11
   1   3   5    2.18    0.20
   1   3   5    2.47    0.21
   2   3   5    1.01    0.16
  -8   4   5    0.13    0.10
  -8   4   5    0.04    0.08
  -7   4   5    3.42    0.21
  -7   4   5    3.36    0.19
  -6   4   5   34.37    0.90
  -6   4   5   35.45    0.93
  -6   4   5   34.75    0.93
  -5   4   5   35.13    0.95
  -5   4   5   34.71    0.92
  -5   4   5   35.85    0.95
  -4   4   5   30.47    0.84
  -4   4   5   29.88    0.84
  -4   4   5   29.54    0.81
  -3   4   5    3.97    0.22
  -3   4   5    4.40    0.29
  -3   4   5    4.04    0.26
  -2   4   5    1.08    0.18
  -2   4   5    1.15    0.15
  -2   4   5    0.92    0.17
  -1   4   5    0.00    0.08
  -1   4   5    0.04    0.12
   0   4   5    0.04    0.12
   0   4   5    0.06    0.08
   0   4   5    0.14    0.15
  -6   5   5   18.57    0.54
  -5   5   5    9.04    0.34
  -5   5   5    8.95    0.31
  -4   5   5   17.46    0.50
  -4   5   5   17.28    0.52
  -3   5   5    7.96    0.30
  -3   5   5    7.63    0.28
  -2   5   5    2.29    0.18
  -2   5   5    2.11    0.14
  -1   5   5   -0.08    0.10
  -1   5   5   -0.05    0.07
   0   5   5    0.11    0.13
   0   5   5    0.07    0.13
  -5   6   5   10.27    0.29
  -5   6   5    8.63    0.34
  -4   6   5   12.65    0.37
  -4   6   5   13.45    0.38
  -3   6   5    0.02    0.06
  -3   6   5   -0.10    0.08
  -2   6   5    1.52    0.12
  -2   6   5    1.32    0.09
  -1   9  -6    0.04    0.09
  -2   9  -6    2.02    0.11
   2  -9   6    2.35    0.22
  -3   9  -6    0.02    0.07
   3  -9   6   -0.02    0.14
  -4   9  -6    6.70    0.23
   4  -9   6    6.43    0.30
  -5   9  -6    0.59    0.12
   1   8  -6    0.03    0.08
   0   8  -6    0.97    0.13
   0   8  -6    1.08    0.13
   0  -8   6    0.98    0.21
  -1   8  -6    0.40    0.11
  -1   8  -6    0.32    0.10
   1  -8   6    0.55    0.26
  -2   8  -6    0.11    0.10
  -2   8  -6    0.29    0.17
   2  -8   6    0.38    0.17
  -3   8  -6   -0.17    0.09
  -4   8  -6   29.90    0.79
  -5   8  -6    3.60    0.26
  -5   8  -6    3.46    0.19
  -6   8  -6    5.10    0.27
   2   7  -6    0.31    0.09
   1   7  -6    0.07    0.10
   1   7  -6    0.01    0.16
  -1  -7   6    0.10    0.15
   0   7  -6   10.55    0.44
   0  -7   6   10.92    0.41
  -1   7  -6    0.01    0.16
  -1   7  -6    0.11    0.11
   1  -7   6   -0.15    0.15
  -2   7  -6    6.46    0.35
  -2   7  -6    5.97    0.28
  -3   7  -6    0.75    0.16
  -4   7  -6   26.39    0.72
  -4   7  -6   25.35    0.76
  -5   7  -6    4.03    0.25
  -5   7  -6    4.19    0.28
   5  -7   6    3.72    0.25
  -6   7  -6    1.45    0.24
   6  -7   6    1.26    0.15
  -7   7  -6    3.42    0.30
   7  -7   6    3.71    0.17
   3   6  -6    4.64    0.21
  -3  -6   6    4.56    0.27
   2   6  -6    0.07    0.11
  -2  -6   6    0.05    0.14
   1   6  -6    0.52    0.15
   1   6  -6   -0.03    0.15
  -1  -6   6    0.30    0.17
   0   6  -6    1.30    0.21
   0   6  -6    1.06    0.18
   0  -6   6    1.64    0.22
  -1   6  -6    0.26    0.12
  -1   6  -6    0.08    0.17
  -2   6  -6    0.28    0.13
  -3   6  -6    2.55    0.24
  -3   6  -6    2.25    0.21
   3  -6   6    2.26    0.27
  -4   6  -6   57.94    1.38
  -4   6  -6   48.83    1.62
   4  -6   6   55.97    1.36
  -5   6  -6   13.33    0.49
   5  -6   6   13.99    0.43
  -6   6  -6    7.94    0.35
  -7   6  -6    4.35    0.32
   7  -6   6    4.47    0.18
   4   5  -6    0.74    0.17
  -4  -5   6    0.51    0.25
   3   5  -6    3.19    0.26
  -3  -5   6    3.06    0.24
   2   5  -6    5.36    0.29
  -2  -5   6    5.24    0.29
   1   5  -6    3.16    0.25
   1   5  -6    3.70    0.25
  -1  -5   6    3.26    0.25
   0   5  -6   32.49    0.92
   0   5  -6   34.04    0.92
   0  -5   6   35.14    0.93
  -1   5  -6    0.46    0.14
  -1   5  -6    0.29    0.20
   1  -5   6    0.29    0.20
  -2   5  -6    6.59    0.29
  -2   5  -6    6.55    0.32
   2  -5   6    6.13    0.32
  -3   5  -6    3.56    0.24
  -3   5  -6    3.69    0.28
   3  -5   6    3.47    0.28
  -4   5  -6   60.05    1.51
  -4   5  -6   57.78    1.48
  -5   5  -6   11.33    0.43
  -6   5  -6    0.95    0.24
   7  -5   6    4.63    0.19
   4   4  -6   -0.02    0.14
  -4  -4   6   -0.18    0.18
   3   4  -6    5.09    0.29
  -3  -4   6    4.75    0.29
   2   4  -6    1.16    0.28
   2   4  -6    0.99    0.21
  -2  -4   6    1.46    0.23
   1   4  -6    0.57    0.15
   1   4  -6    0.40    0.16
  -1  -4   6    0.49    0.18
  -1  -4   6    0.24    0.18
   0   4  -6    1.14    0.18
   0  -4   6    1.20    0.22
   0  -4   6    1.07    0.17
  -1   4  -6    0.13    0.13
   1  -4   6    0.08    0.14
  -2   4  -6    0.49    0.21
  -2   4  -6    0.25    0.13
   2  -4   6    0.38    0.13
  -3   4  -6    7.00    0.37
  -3   4  -6    8.09    0.33
  -4   4  -6   61.96    1.57
  -5   4  -6   27.58    0.79
   5  -4   6   26.71    0.75
   6  -4   6    6.95    0.31
   7  -4   6    4.63    0.18
   5   3  -6   55.54    1.40
   4   3  -6    7.77    0.36
  -4  -3   6    7.72    0.34
  -3  -3   6   14.50    0.50
   2   3  -6   35.07    0.95
  -2  -3   6   35.58    0.94
   1   3  -6   10.71    0.40
  -1  -3   6   11.19    0.39
   0   3  -6   62.59    1.57
   0   3  -6   63.22    1.55
   0  -3   6   61.11    1.53
  -1   3  -6    4.09    0.24
   1  -3   6    4.16    0.24
  -2   3  -6    1.74    0.20
   2  -3   6    1.27    0.18
  -3   3  -6    6.87    0.33
   3  -3   6    6.11    0.34
   4  -3   6   59.15    1.48
   5  -3   6   14.78    0.47
   6  -3   6    0.26    0.08
   6  -3   6    0.09    0.09
   7  -3   6    3.01    0.15
   7  -3   6    3.08    0.17
  -6  -2   6    0.85    0.19
  -6  -2   6    0.86    0.15
   5   2  -6    2.70    0.26
  -5  -2   6    2.64    0.22
  -5  -2   6    2.49    0.26
  -4  -2   6    0.00    0.13
  -4  -2   6   -0.12    0.17
  -3  -2   6    1.95    0.31
  -3  -2   6    1.38    0.20
   2   2  -6    4.28    0.28
  -2  -2   6    4.35    0.30
  -2  -2   6    3.83    0.36
  -2  -2   6    4.69    0.24
  -1  -2   6    0.01    0.11
  -1  -2   6    0.54    0.17
   0   2  -6    0.20    0.13
   0  -2   6    0.26    0.10
   1  -2   6    0.21    0.18
   1  -2   6    0.24    0.12
   2  -2   6    0.28    0.12
   2  -2   6   -0.11    0.13
  -3   2  -6    5.61    0.32
   3  -2   6    5.25    0.27
   3  -2   6    5.97    0.26
   4  -2   6   27.05    0.73
   4  -2   6   25.13    0.71
   5  -2   6   34.39    0.91
   6  -2   6    2.91    0.17
   6  -2   6    3.18    0.17
  -7  -1   6    2.54    0.21
  -7  -1   6    2.50    0.15
   6   1  -6    7.65    0.36
  -6  -1   6    8.00    0.32
  -6  -1   6    8.08    0.30
  -5  -1   6   83.67    2.10
  -5  -1   6   85.35    2.07
  -4  -1   6   22.51    0.70
  -4  -1   6   23.37    0.66
  -3  -1   6   33.51    0.93
  -3  -1   6   33.76    0.93
  -3  -1   6   33.44    0.89
  -2  -1   6   93.56    2.29
  -2  -1   6   93.22    2.28
  -2  -1   6   94.84    2.26
  -1  -1   6    9.62    0.34
  -1  -1   6    9.24    0.39
  -1  -1   6    9.10    0.38
   0  -1   6   51.56    1.27
   0  -1   6   52.98    1.27
   0  -1   6   48.33    1.30
   0  -1   6   49.30    1.28
   1  -1   6   12.83    0.42
   1  -1   6   12.57    0.43
   1  -1   6   13.33    0.42
   2  -1   6    0.19    0.11
   2  -1   6   -0.02    0.11
   3  -1   6    5.74    0.27
   3  -1   6    5.62    0.27
   4  -1   6   43.19    1.11
   4  -1   6   42.47    1.09
   5  -1   6   10.53    0.34
   6  -1   6   -0.04    0.06
  -7   0   6    5.30    0.21
  -7   0   6    5.23    0.23
  -6   0   6    1.33    0.20
  -6   0   6    1.24    0.16
  -5   0   6    1.02    0.18
  -5   0   6    1.54    0.23
  -4   0   6    0.07    0.14
  -4   0   6    0.16    0.11
  -4   0   6    0.28    0.16
  -3   0   6    0.07    0.12
  -3   0   6    0.08    0.14
  -3   0   6    0.22    0.12
  -2   0   6    8.31    0.32
  -2   0   6    8.61    0.34
  -2   0   6    8.96    0.38
  -2   0   6    8.70    0.33
  -1   0   6   -0.14    0.17
  -1   0   6    0.08    0.13
  -1   0   6    0.03    0.10
  -1   0   6    0.13    0.12
   0   0   6    0.18    0.12
   0   0   6    0.28    0.10
   0   0   6    0.69    0.15
   0   0   6    0.47    0.19
   1   0   6    1.77    0.35
   1   0   6    2.16    0.23
   1   0   6    2.15    0.19
   2   0   6    0.69    0.12
   2   0   6    0.88    0.15
   3   0   6    0.68    0.16
   4   0   6    4.94    0.22
   5   0   6   22.70    0.59
  -8   1   6   11.02    0.31
  -8   1   6   11.01    0.30
  -7   1   6    2.29    0.15
  -7   1   6    2.62    0.18
  -6   1   6    2.77    0.19
  -6   1   6    3.23    0.23
  -5   1   6   75.42    1.86
  -5   1   6   74.73    1.89
  -5   1   6   75.71    1.89
  -4   1   6   38.30    1.05
  -4   1   6   38.82    1.05
  -4   1   6   39.21    1.02
  -3   1   6   25.61    0.83
  -3   1   6   26.70    0.83
  -3   1   6   26.22    0.73
  -3   1   6   26.97    0.80
  -2   1   6   94.89    2.23
  -2   1   6   91.50    2.24
  -2   1   6   91.46    2.22
  -2   1   6   89.23    2.24
  -1   1   6    2.14    0.25
  -1   1   6    1.88    0.23
  -1   1   6    2.27    0.18
  -1   1   6    2.07    0.22
   0   1   6   19.63    0.62
   0   1   6   20.71    0.67
   0   1   6   21.44    0.62
   1   1   6   17.25    0.51
   1   1   6   15.71    0.56
   1   1   6   16.60    0.52
   2   1   6    1.65    0.19
   3   1   6    1.68    0.16
   4   1   6   20.08    0.54
  -8   2   6    0.23    0.06
  -8   2   6    0.25    0.08
  -7   2   6    2.86    0.16
  -7   2   6    2.77    0.19
  -6   2   6    0.41    0.12
  -6   2   6    0.85    0.19
  -6   2   6    0.36    0.18
  -5   2   6    0.54    0.14
  -5   2   6    0.43    0.12
  -5   2   6    0.50    0.16
  -4   2   6    0.42    0.16
  -4   2   6    0.38    0.15
  -4   2   6    0.47    0.13
  -4   2   6    0.29    0.15
  -3   2   6    1.53    0.22
  -3   2   6    1.88    0.19
  -3   2   6    1.55    0.23
  -3   2   6    1.85    0.21
  -2   2   6    7.19    0.32
  -2   2   6    7.69    0.30
  -2   2   6    7.45    0.33
  -1   2   6    0.61    0.16
  -1   2   6    0.68    0.14
  -1   2   6    0.37    0.13
   0   2   6    0.04    0.10
   0   2   6    0.10    0.11
   0   2   6    0.14    0.16
   1   2   6    2.32    0.19
   1   2   6    2.27    0.29
   1   2   6    2.54    0.19
   2   2   6    1.71    0.17
   3   2   6    0.58    0.12
  -8   3   6   10.35    0.31
  -8   3   6   10.41    0.29
  -7   3   6    1.42    0.16
  -7   3   6    1.44    0.14
  -6   3   6    0.00    0.10
  -6   3   6    0.18    0.11
  -6   3   6    0.05    0.15
  -5   3   6   44.54    1.16
  -5   3   6   44.51    1.17
  -5   3   6   43.88    1.15
  -4   3   6   35.21    0.95
  -4   3   6   34.48    0.95
  -4   3   6   34.82    0.92
  -3   3   6    9.27    0.37
  -3   3   6    8.95    0.34
  -3   3   6    9.22    0.38
  -2   3   6   46.68    1.24
  -2   3   6   48.90    1.25
  -2   3   6   50.32    1.26
  -1   3   6    0.10    0.14
  -1   3   6    0.54    0.14
  -1   3   6    0.29    0.09
   0   3   6    6.51    0.28
   0   3   6    6.16    0.25
   0   3   6    5.76    0.29
   1   3   6   11.45    0.37
   1   3   6   11.62    0.36
   2   3   6    3.73    0.21
  -7   4   6    0.66    0.17
  -6   4   6   -0.03    0.12
  -6   4   6    0.01    0.14
  -5   4   6    0.10    0.13
  -5   4   6    0.06    0.12
  -5   4   6   -0.07    0.13
  -4   4   6    0.35    0.14
  -4   4   6    0.54    0.15
  -4   4   6    0.59    0.13
  -3   4   6    1.72    0.19
  -3   4   6    1.79    0.15
  -3   4   6    1.57    0.23
  -2   4   6    2.21    0.18
  -2   4   6    2.10    0.21
  -2   4   6    2.02    0.15
  -1   4   6    0.67    0.11
  -1   4   6    1.03    0.21
  -1   4   6    0.73    0.15
   0   4   6    0.02    0.14
   0   4   6   -0.04    0.09
  -6   5   6    1.30    0.20
  -5   5   6   13.84    0.40
  -5   5   6   13.05    0.38
  -4   5   6   14.90    0.43
  -4   5   6   13.99    0.41
  -3   5   6    1.74    0.11
  -3   5   6    1.77    0.15
  -2   5   6   16.70    0.46
  -2   5   6   17.93    0.47
  -2   9  -7    0.15    0.07
  -3   9  -7    0.03    0.06
  -4   9  -7   19.42    0.51
  -5   9  -7    2.47    0.15
   0   8  -7    3.16    0.17
   0   8  -7    3.27    0.16
  -1   8  -7    1.87    0.14
  -1   8  -7    1.82    0.17
   1  -8   7    1.46    0.24
  -2   8  -7    0.16    0.08
   2  -8   7    0.19    0.18
  -3   8  -7    9.99    0.34
   3  -8   7   10.30    0.53
  -4   8  -7    5.01    0.21
  -5   8  -7    5.72    0.22
   2   7  -7    2.35    0.15
   1   7  -7    0.22    0.11
   1   7  -7    0.16    0.14
  -1  -7   7    0.28    0.20
   0   7  -7    0.41    0.13
   0   7  -7    0.59    0.15
   0  -7   7    0.28    0.20
  -1   7  -7   16.98    0.51
   1  -7   7   15.97    0.55
  -2   7  -7    3.52    0.20
   2  -7   7    3.18    0.29
  -3   7  -7   -0.02    0.10
  -5   7  -7    6.73    0.36
  -5   7  -7    6.42    0.28
   5  -7   7    6.50    0.27
   6  -7   7    2.42    0.16
   7  -7   7    2.09    0.13
   3   6  -7    2.36    0.16
   2   6  -7    6.03    0.27
  -2  -6   7    6.25    0.36
   1   6  -7   18.50    0.55
   1   6  -7   17.77    0.55
  -1  -6   7   16.86    0.57
   0   6  -7    8.04    0.32
   0   6  -7    7.70    0.33
   0  -6   7    6.89    0.37
  -1   6  -7   14.39    0.49
  -1   6  -7   13.79    0.47
   1  -6   7   13.89    0.51
  -2   6  -7    0.14    0.12
   2  -6   7    0.52    0.19
  -3   6  -7    9.76    0.37
   3  -6   7    9.66    0.37
  -4   6  -7   16.26    0.50
  -4   6  -7   15.55    0.57
   4  -6   7   16.33    0.49
  -5   6  -7   12.43    0.61
   6  -6   7    1.30    0.13
   7  -6   7    8.48    0.30
   4   5  -7    4.21    0.21
   3   5  -7   14.40    0.46
   2   5  -7   10.65    0.41
   2   5  -7   11.23    0.41
   1   5  -7    2.83    0.24
   1   5  -7    2.33    0.23
   0   5  -7    3.41    0.29
   0   5  -7    2.66    0.22
   0  -5   7    3.18    0.28
  -1   5  -7   47.17    1.23
   1  -5   7   46.38    1.20
  -2   5  -7   14.61    0.48
   2  -5   7   14.64    0.47
  -3   5  -7    0.04    0.11
   3  -5   7    0.03    0.11
  -4   5  -7   36.24    0.96
   4  -5   7   35.98    0.95
   5  -5   7   10.59    0.36
   6  -5   7    2.13    0.14
   7  -5   7    1.42    0.10
   5   4  -7   20.01    0.54
   4   4  -7    0.42    0.14
   3   4  -7    7.48    0.34
   2   4  -7   21.00    0.63
   2   4  -7   20.42    0.65
  -2  -4   7   20.79    0.63
   1   4  -7   33.50    0.89
  -1  -4   7   32.08    0.88
   0   4  -7   10.10    0.38
   0  -4   7   10.13    0.37
  -1   4  -7   55.46    1.41
   1  -4   7   53.68    1.37
  -2   4  -7    0.44    0.14
   2  -4   7    0.33    0.11
  -3   4  -7    3.39    0.24
   3  -4   7    2.95    0.21
  -4   4  -7   25.10    0.71
   4  -4   7   23.72    0.68
   5  -4   7    9.03    0.51
   5  -4   7   10.28    0.34
   6  -4   7    0.57    0.11
   5   3  -7    0.10    0.12
   4   3  -7    9.84    0.39
  -4  -3   7    9.44    0.36
  -3  -3   7   25.81    0.73
   2   3  -7   25.43    0.74
  -2  -3   7   25.30    0.72
   1   3  -7   12.85    0.44
  -1  -3   7   13.17    0.43
   0   3  -7   10.55    0.38
   0  -3   7   10.77    0.38
  -1   3  -7   71.04    1.77
   1  -3   7   71.49    1.75
  -2   3  -7   35.98    0.96
   2  -3   7   34.31    0.97
   2  -3   7   37.25    0.95
  -3   3  -7    0.23    0.16
   3  -3   7    0.17    0.16
   3  -3   7    0.07    0.09
   4  -3   7   27.86    0.75
   4  -3   7   27.38    0.76
   5  -3   7    8.95    0.31
   5  -3   7    9.07    0.32
   6  -3   7    1.26    0.12
   6   2  -7    2.16    0.24
  -6  -2   7    1.80    0.26
  -6  -2   7    1.55    0.25
   5   2  -7   36.90    0.98
  -5  -2   7   35.84    0.96
  -5  -2   7   35.85    0.94
  -4  -2   7    0.03    0.16
  -4  -2   7    0.36    0.11
   3   2  -7   12.53    0.49
  -3  -2   7   13.13    0.44
  -3  -2   7   13.04    0.50
   2   2  -7   42.87    1.14
  -2  -2   7   44.09    1.17
  -2  -2   7   44.64    1.16
  -2  -2   7   43.25    1.13
  -1  -2   7   36.95    1.01
  -1  -2   7   37.22    1.00
  -1  -2   7   37.07    0.97
   0  -2   7   11.99    0.46
   0  -2   7   12.43    0.47
   0  -2   7   12.44    0.41
   1  -2   7   86.38    2.15
   1  -2   7   90.27    2.19
   2  -2   7    1.66    0.18
   2  -2   7    1.24    0.24
  -3   2  -7    0.08    0.15
   3  -2   7    0.12    0.12
   3  -2   7   -0.06    0.09
   4  -2   7   18.70    0.55
   4  -2   7   18.57    0.54
   5  -2   7    4.78    0.21
   5  -2   7    4.70    0.20
   6  -2   7    0.00    0.08
  -7  -1   7    3.50    0.16
  -7  -1   7    3.43    0.22
   6   1  -7   13.01    0.43
  -6  -1   7   13.03    0.42
  -6  -1   7   13.26    0.40
  -5  -1   7    0.95    0.16
  -5  -1   7    1.37    0.21
  -4  -1   7   11.78    0.45
  -4  -1   7   11.55    0.41
  -3  -1   7   20.21    0.63
  -3  -1   7   20.56    0.60
  -3  -1   7   19.72    0.63
  -2  -1   7   30.51    0.86
  -1  -1   7   27.21    0.77
  -1  -1   7   27.66    0.75
  -1  -1   7   27.20    0.78
   0  -1   7    7.74    0.41
   0  -1   7    7.99    0.38
   0  -1   7    7.82    0.33
   1  -1   7   61.65    1.53
   1  -1   7   62.02    1.56
   2  -1   7   49.93    1.28
   2  -1   7   50.43    1.27
   3  -1   7   -0.09    0.10
   3  -1   7    0.11    0.11
   4  -1   7   13.67    0.42
   4  -1   7   14.56    0.43
   5  -1   7    4.91    0.19
  -7   0   7    1.56    0.12
  -7   0   7    1.62    0.14
  -6   0   7    0.14    0.09
  -6   0   7    0.27    0.11
  -5   0   7   40.29    1.08
  -5   0   7   40.43    1.06
  -4   0   7    0.83    0.17
  -4   0   7    0.55    0.15
  -4   0   7    0.43    0.14
  -3   0   7   12.81    0.44
  -3   0   7   12.85    0.46
  -3   0   7   13.25    0.47
  -2   0   7   60.92    1.53
  -2   0   7   61.26    1.53
  -2   0   7   61.22    1.55
  -2   0   7   61.03    1.55
  -1   0   7   23.49    0.67
  -1   0   7   23.56    0.70
  -1   0   7   23.26    0.66
  -1   0   7   23.36    0.69
   0   0   7   14.86    0.46
   0   0   7   15.04    0.46
   0   0   7   14.40    0.48
   0   0   7   13.63    0.51
   1   0   7   76.62    1.92
   1   0   7   78.18    1.90
   1   0   7   78.53    1.90
   2   0   7    2.55    0.25
   2   0   7    2.60    0.21
   3   0   7    1.53    0.16
   4   0   7    6.78    0.24
  -7   1   7    6.05    0.24
  -7   1   7    6.09    0.22
  -6   1   7   23.50    0.65
  -6   1   7   23.31    0.67
  -5   1   7    3.73    0.22
  -5   1   7    3.05    0.24
  -5   1   7    3.65    0.25
  -4   1   7    5.43    0.30
  -4   1   7    5.62    0.28
  -4   1   7    5.57    0.30
  -3   1   7    7.84    0.33
  -3   1   7    7.73    0.34
  -3   1   7    7.59    0.35
  -3   1   7    7.64    0.32
  -2   1   7   26.27    0.73
  -2   1   7   27.08    0.73
  -2   1   7   25.46    0.76
  -2   1   7   25.29    0.74
  -1   1   7   30.26    0.81
  -1   1   7   28.95    0.83
  -1   1   7   30.34    0.84
  -1   1   7   29.45    0.81
   0   1   7    1.38    0.27
   0   1   7    1.11    0.17
   0   1   7    1.12    0.18
   1   1   7   30.47    0.84
   1   1   7   30.90    0.82
   2   1   7   43.51    1.11
   3   1   7    0.06    0.07
  -7   2   7    2.51    0.14
  -7   2   7    2.53    0.16
  -6   2   7    0.28    0.09
  -6   2   7    0.40    0.11
  -5   2   7   22.89    0.63
  -5   2   7   22.18    0.74
  -4   2   7    3.55    0.24
  -4   2   7    3.38    0.23
  -4   2   7    3.79    0.25
  -4   2   7    3.70    0.25
  -3   2   7    6.54    0.32
  -3   2   7    6.36    0.31
  -3   2   7    6.73    0.29
  -3   2   7    6.87    0.34
  -2   2   7   59.54    1.48
  -2   2   7   56.40    1.46
  -2   2   7   58.20    1.48
  -1   2   7    7.97    0.30
  -1   2   7    7.77    0.33
  -1   2   7    8.18    0.33
   0   2   7    9.73    0.38
   1   2   7   40.51    1.03
   2   2   7    2.37    0.16
  -7   3   7    6.26    0.23
  -7   3   7    5.70    0.21
  -6   3   7   21.60    0.59
  -6   3   7   20.91    0.57
  -6   3   7   20.67    0.58
  -5   3   7    4.13    0.23
  -5   3   7    3.87    0.27
  -5   3   7    4.01    0.22
  -4   3   7    0.61    0.16
  -4   3   7    0.60    0.14
  -4   3   7    0.66    0.17
  -3   3   7    0.72    0.18
  -3   3   7    0.69    0.14
  -3   3   7    0.57    0.13
  -2   3   7   13.84    0.45
  -2   3   7   13.61    0.45
  -2   3   7   14.03    0.43
  -1   3   7   17.88    0.52
  -1   3   7   17.40    0.50
  -1   3   7   17.55    0.51
   0   3   7    0.02    0.09
   0   3   7   -0.02    0.08
   1   3   7    8.96    0.30
  -6   4   7    0.88    0.18
  -6   4   7    0.87    0.17
  -5   4   7    7.84    0.28
  -4   4   7    4.42    0.21
  -4   4   7    4.41    0.24
  -4   4   7    4.18    0.18
  -3   4   7    1.63    0.12
  -3   4   7    1.59    0.16
  -3   4   7    1.37    0.20
  -2   4   7   34.42    0.87
  -2   4   7   33.91    0.86
  -2   4   7   35.13    0.88
  -1   4   7    1.32    0.16
  -3   9  -8    0.81    0.08
  -4   9  -8    6.01    0.19
   0   8  -8   11.46    0.33
   0   8  -8   10.95    0.32
  -1   8  -8   60.20    1.47
  -1   8  -8   61.85    1.47
  -2   8  -8    2.16    0.14
  -3   8  -8    2.72    0.16
  -4   8  -8    1.74    0.14
  -5   8  -8    1.00    0.15
   2   7  -8    0.05    0.08
   1   7  -8   12.10    0.43
   1   7  -8   12.20    0.37
   0   7  -8   31.90    0.82
   0   7  -8   30.75    0.82
  -1   7  -8    1.45    0.15
  -1   7  -8    1.63    0.23
  -2   7  -8   -0.08    0.09
  -3   7  -8    1.08    0.14
  -4   7  -8    9.61    0.33
   4  -7   8    9.71    0.33
   5  -7   8    0.07    0.09
   6  -7   8    0.25    0.08
   3   6  -8   14.31    0.41
   2   6  -8   24.68    0.73
   1   6  -8    0.84    0.17
   1   6  -8    1.00    0.17
   0   6  -8   29.31    0.80
   0   6  -8   29.41    0.80
  -1   6  -8  173.42    4.12
  -1   6  -8  175.67    4.14
  -2   6  -8    2.72    0.20
   2  -6   8    2.58    0.23
  -3   6  -8    0.11    0.12
   3  -6   8    0.04    0.11
  -4   6  -8    1.25    0.17
   4  -6   8    1.45    0.17
   5  -6   8    3.24    0.17
   6  -6   8    0.14    0.06
   4   5  -8    1.80    0.15
   3   5  -8   33.64    0.89
   2   5  -8   -0.04    0.16
   2   5  -8    0.15    0.19
   1   5  -8   20.85    0.62
   1   5  -8   21.12    0.63
  -1  -5   8   19.75    0.61
   0   5  -8   62.07    1.60
   0   5  -8   63.50    1.60
   0  -5   8   64.32    1.58
  -1   5  -8    3.80    0.35
  -1   5  -8    3.38    0.21
   1  -5   8    3.04    0.23
  -2   5  -8    0.77    0.15
   2  -5   8    0.47    0.12
  -3   5  -8    1.21    0.17
   3  -5   8    1.20    0.17
  -4   5  -8    9.02    0.34
   4  -5   8    9.26    0.33
   5  -5   8    0.06    0.07
   6  -5   8    0.04    0.06
   5   4  -8    1.45    0.17
   4   4  -8    3.08    0.20
  -3  -4   8   30.99    0.84
   2   4  -8   67.19    1.65
   2   4  -8   65.91    1.67
  -2  -4   8   64.79    1.64
   1   4  -8    0.24    0.12
  -1  -4   8   -0.06    0.11
   0   4  -8   40.94    1.10
   0  -4   8   41.84    1.08
  -1   4  -8  244.37    5.79
   1  -4   8  248.24    5.77
  -2   4  -8    1.43    0.18
   2  -4   8    1.22    0.17
  -3   4  -8    1.34    0.19
   3  -4   8    1.08    0.17
   4  -4   8    0.06    0.08
   5  -4   8    5.08    0.21
   6  -4   8    0.08    0.06
   5   3  -8    3.09    0.19
  -5  -3   8    2.89    0.36
   4   3  -8    9.73    0.37
  -4  -3   8    9.55    0.34
  -3  -3   8   69.93    1.73
   2   3  -8   -0.01    0.15
  -2  -3   8    0.11    0.12
   1   3  -8   21.22    0.63
  -1  -3   8   20.50    0.61
   0   3  -8   82.10    2.03
   0  -3   8   80.75    2.04
   0  -3   8   84.57    2.02
  -1   3  -8    4.02    0.23
   1  -3   8    4.06    0.23
   1  -3   8    3.84    0.36
  -2   3  -8    1.82    0.20
   2  -3   8    1.84    0.27
   2  -3   8    1.80    0.17
  -3   3  -8    0.18    0.14
   3  -3   8    0.13    0.10
   3  -3   8   -0.18    0.15
   4  -3   8    4.42    0.21
   4  -3   8    4.26    0.24
   5  -3   8    0.09    0.07
   5  -3   8    0.11    0.10
   6   2  -8    1.89    0.23
  -6  -2   8    1.98    0.16
   5   2  -8    1.09    0.18
  -5  -2   8    0.91    0.13
  -5  -2   8    0.80    0.16
  -4  -2   8    8.05    0.31
   3   2  -8   36.76    0.99
  -3  -2   8   36.67    0.98
  -3  -2   8   36.83    1.01
   2   2  -8   95.04    2.31
  -2  -2   8   93.37    2.29
  -2  -2   8   95.25    2.32
  -2  -2   8   93.60    2.32
  -1  -2   8    0.29    0.16
  -1  -2   8    0.20    0.10
  -1  -2   8   -0.01    0.17
   0  -2   8   33.52    0.92
   0  -2   8   33.76    0.92
   0  -2   8   32.65    0.89
   1  -2   8  226.02    5.36
   1  -2   8  230.88    5.37
  -2   2  -8   -0.04    0.11
   2  -2   8   -0.08    0.08
   2  -2   8   -0.27    0.11
  -3   2  -8    1.52    0.21
   3  -2   8    1.36    0.24
   3  -2   8    1.87    0.20
   4  -2   8    0.12    0.09
   4  -2   8    0.27    0.10
   5  -2   8    4.37    0.18
  -6  -1   8    0.11    0.07
  -6  -1   8    0.22    0.11
  -5  -1   8    3.15    0.22
  -5  -1   8    2.74    0.18
  -4  -1   8   22.31    0.67
  -4  -1   8   22.05    0.64
   3   1  -8   74.61    1.88
  -3  -1   8   75.13    1.90
  -3  -1   8   76.09    1.90
  -3  -1   8   76.62    1.87
  -2  -1   8    0.07    0.15
  -2  -1   8    0.07    0.09
  -2  -1   8   -0.14    0.12
  -1  -1   8   15.88    0.50
  -1  -1   8   15.66    0.51
  -1  -1   8   15.86    0.53
   0  -1   8   64.90    1.61
   0  -1   8   65.23    1.63
   0  -1   8   64.78    1.63
   1  -1   8    1.90    0.20
   1  -1   8    1.79    0.19
   2  -1   8    3.64    0.22
   2  -1   8    3.44    0.22
   3  -1   8    0.25    0.10
   3  -1   8    0.16    0.11
   4  -1   8    1.12    0.12
  -6   0   8    3.32    0.19
  -6   0   8    3.24    0.17
  -5   0   8    0.05    0.10
  -5   0   8    0.19    0.08
  -4   0   8    8.83    0.34
  -4   0   8    9.11    0.37
  -4   0   8    8.99    0.38
  -3   0   8   28.40    0.83
  -3   0   8   28.75    0.79
  -3   0   8   29.24    0.82
  -2   0   8   90.88    2.24
  -2   0   8   89.55    2.20
  -2   0   8   91.50    2.24
  -1   0   8    0.27    0.17
  -1   0   8    0.18    0.11
  -1   0   8    0.18    0.10
   0   0   8   14.79    0.47
   0   0   8   14.33    0.50
   0   0   8   15.31    0.49
   1   0   8  125.99    3.04
   1   0   8  131.31    3.08
   2   0   8    0.71    0.13
   3   0   8    0.65    0.11
  -6   1   8    0.15    0.09
  -6   1   8    0.16    0.08
  -5   1   8    1.95    0.16
  -5   1   8    2.03    0.18
  -5   1   8    2.30    0.20
  -4   1   8   21.26    0.61
  -3   1   8   54.27    1.40
  -3   1   8   54.26    1.36
  -3   1   8   54.23    1.40
  -2   1   8   -0.14    0.11
  -2   1   8    0.15    0.14
  -2   1   8   -0.04    0.10
  -1   1   8    8.68    0.36
  -1   1   8    9.26    0.37
  -1   1   8    9.43    0.33
  -1   1   8    9.46    0.35
   0   1   8   28.31    0.77
   0   1   8   27.26    0.77
   1   1   8    0.33    0.09
   2   1   8    2.89    0.16
  -6   2   8    2.41    0.16
  -6   2   8    2.99    0.17
  -5   2   8    0.10    0.09
  -5   2   8    0.15    0.11
  -5   2   8   -0.06    0.09
  -4   2   8    3.74    0.21
  -4   2   8    3.75    0.23
  -4   2   8    3.84    0.22
  -3   2   8   13.32    0.44
  -3   2   8   13.12    0.44
  -2   2   8   48.56    1.26
  -2   2   8   51.81    1.28
  -2   2   8   50.65    1.28
  -1   2   8    0.15    0.13
  -1   2   8   -0.03    0.09
   0   2   8    3.30    0.18
   1   2   8   44.10    1.07
  -6   3   8   -0.12    0.08
  -5   3   8    1.33    0.14
  -5   3   8    1.29    0.14
  -4   3   8   10.67    0.35
  -4   3   8   10.68    0.34
  -3   3   8   22.66    0.62
  -3   3   8   23.05    0.62
  -2   3   8    0.11    0.10
  -2   3   8   -0.05    0.10
  -1   3   8    2.80    0.19
  -1   3   8    2.98    0.18
  -1   8  -9    0.89    0.10
  -2   8  -9    2.91    0.14
  -3   8  -9    1.69    0.12
  -4   8  -9    0.02    0.08
   1   7  -9    3.91    0.19
   0   7  -9   42.14    1.04
   0   7  -9   41.69    1.04
  -1   7  -9    0.88    0.12
  -2   7  -9    0.15    0.08
  -3   7  -9    4.52    0.20
  -4   7  -9    0.54    0.12
   4  -7   9    0.41    0.16
   5  -7   9    0.34    0.09
   2   6  -9    0.12    0.09
   1   6  -9    6.74    0.26
   1   6  -9    6.74    0.27
   0   6  -9    3.54    0.20
   0   6  -9    3.33    0.24
  -1   6  -9    0.19    0.10
   1  -6   9   -0.06    0.13
  -2   6  -9    6.71    0.28
   2  -6   9    6.79    0.27
  -3   6  -9    2.38    0.17
   3  -6   9    2.58    0.18
  -4   6  -9    0.02    0.11
   4  -6   9    0.02    0.07
   5  -6   9    6.06    0.21
   3   5  -9    9.27    0.31
   2   5  -9    6.81    0.30
   2   5  -9    7.29    0.29
   1   5  -9    5.49    0.26
   1   5  -9    5.54    0.27
  -1  -5   9    5.77    0.27
   0   5  -9   61.77    1.56
   0   5  -9   59.84    1.66
   0  -5   9   64.40    1.57
  -1   5  -9    1.28    0.16
   1  -5   9    1.02    0.16
  -2   5  -9    0.30    0.11
   2  -5   9    0.22    0.10
  -3   5  -9    8.17    0.31
   3  -5   9    8.12    0.30
  -4   5  -9    0.60    0.15
   4  -5   9    0.52    0.11
   5  -5   9    0.27    0.06
   4   4  -9    9.10    0.30
   3   4  -9    5.89    0.26
  -3  -4   9    5.16    0.26
   2   4  -9    0.19    0.13
   2   4  -9   -0.02    0.13
  -2  -4   9   -0.07    0.10
   1   4  -9    6.30    0.31
   1   4  -9    6.10    0.28
  -1  -4   9    6.85    0.29
   0   4  -9   10.34    0.37
   0  -4   9    9.99    0.36
  -1   4  -9    1.81    0.18
   1  -4   9    2.05    0.18
  -2   4  -9    7.77    0.30
   2  -4   9    7.59    0.30
  -3   4  -9    1.66    0.17
   3  -4   9    1.53    0.14
   4  -4   9    0.36    0.08
   5  -4   9    3.96    0.16
   5   3  -9    1.20    0.15
   4   3  -9    1.62    0.17
  -4  -3   9    1.96    0.16
   3   3  -9    6.31    0.40
  -3  -3   9    6.18    0.27
   2   3  -9   11.45    0.40
  -2  -3   9   11.67    0.40
   1   3  -9    7.41    0.31
  -1  -3   9    7.05    0.30
   0   3  -9   42.58    1.10
   0  -3   9   40.73    1.11
   0  -3   9   42.78    1.09
  -1   3  -9    0.95    0.16
   1  -3   9    1.15    0.18
   1  -3   9    1.00    0.15
   2  -3   9   -0.05    0.08
   2  -3   9    0.18    0.17
  -3   3  -9    6.74    0.27
   3  -3   9    6.77    0.30
   3  -3   9    7.10    0.26
   4  -3   9    0.04    0.07
   4  -3   9   -0.10    0.13
   5   2  -9    0.55    0.14
  -5  -2   9    0.36    0.08
  -4  -2   9    5.79    0.30
  -4  -2   9    6.34    0.25
   3   2  -9    4.52    0.27
  -3  -2   9    4.84    0.29
   2   2  -9    0.15    0.13
  -2  -2   9    0.07    0.10
  -2  -2   9    0.19    0.17
   1   2  -9    3.56    0.22
  -1  -2   9    3.63    0.27
  -1  -2   9    3.29    0.21
  -1  -2   9    3.43    0.26
   0   2  -9   12.78    0.44
   0  -2   9   12.78    0.47
   0  -2   9   12.99    0.42
   0  -2   9   13.54    0.45
  -1   2  -9    4.66    0.24
   1  -2   9    4.35    0.22
   1  -2   9    4.24    0.28
  -2   2  -9    2.81    0.20
   2  -2   9    3.21    0.21
   2  -2   9    2.98    0.18
   3  -2   9    0.23    0.10
   3  -2   9    0.29    0.09
   4  -2   9    0.68    0.15
  -5  -1   9    0.34    0.12
  -5  -1   9    0.27    0.07
  -4  -1   9    2.27    0.17
  -4  -1   9    2.37    0.21
   3   1  -9    1.77    0.20
  -3  -1   9    1.88    0.23
  -2  -1   9    9.80    0.39
  -2  -1   9   10.33    0.39
  -2  -1   9   10.33    0.36
  -1  -1   9    6.53    0.30
  -1  -1   9    6.21    0.31
  -1  -1   9    6.41    0.27
   0  -1   9   16.83    0.52
   0  -1   9   15.82    0.53
   1  -1   9    0.99    0.15
   1  -1   9    0.82    0.13
  -2   1  -9   -0.09    0.12
   2  -1   9    0.06    0.09
   2  -1   9    0.01    0.10
   6   0  -9    0.27    0.12
  -6   0   9    0.11    0.06
  -6   0   9    0.37    0.10
  -5   0   9    0.02    0.07
  -5   0   9    0.00    0.09
   4   0  -9    1.95    0.22
  -4   0   9    1.66    0.18
  -4   0   9    1.74    0.15
  -4   0   9    1.85    0.18
  -3   0   9    2.74    0.21
  -3   0   9    2.91    0.22
  -3   0   9    2.67    0.19
  -2   0   9    1.12    0.18
  -2   0   9    0.61    0.15
  -2   0   9    0.94    0.16
  -1   0   9    0.49    0.12
  -1   0   9    0.60    0.15
  -1   0   9    0.63    0.12
   0   0   9    8.49    0.30
   0   0   9    8.15    0.36
   0   0   9    8.04    0.30
   1   0   9    3.52    0.19
   2   0   9    0.62    0.11
  -5   1   9   -0.05    0.07
  -5   1   9   -0.02    0.08
   4  -1  -9    2.58    0.18
  -4   1   9    2.56    0.19
  -4   1   9    2.79    0.18
  -4   1   9    2.74    0.16
  -3   1   9    0.11    0.10
  -3   1   9    0.06    0.10
  -3   1   9    0.28    0.11
  -2   1   9    4.24    0.22
  -2   1   9    4.77    0.24
  -2   1   9    4.38    0.23
  -1   1   9    3.60    0.22
  -1   1   9    3.41    0.19
   0   1   9    2.53    0.16
   1   1   9    0.54    0.11
  -5   2   9    0.79    0.13
  -4   2   9    0.16    0.09
  -4   2   9    0.13    0.08
  -3   2   9    1.61    0.14
  -3   2   9    1.45    0.15
  -2   2   9    1.50    0.15
  -1   2   9    0.10    0.08
   0   7 -10    0.61    0.11
  -1   7 -10    1.92    0.12
  -2   7 -10    0.18    0.07
  -3   7 -10    0.42    0.10
   1   6 -10    2.48    0.16
   1   6 -10    2.54    0.17
   0   6 -10    0.60    0.11
   0   6 -10    0.48    0.17
  -1   6 -10    0.25    0.09
   1  -6  10    0.27    0.12
  -2   6 -10    3.62    0.18
   2  -6  10    3.76    0.19
  -3   6 -10    9.24    0.29
   3  -6  10    9.37    0.29
   4  -6  10    2.10    0.12
   2   5 -10   -0.04    0.10
   1   5 -10    0.65    0.14
   1   5 -10    0.51    0.13
  -1  -5  10    0.27    0.11
   0   5 -10    4.26    0.21
   0   5 -10    4.36    0.29
   0  -5  10    4.60    0.22
  -1   5 -10    2.12    0.15
   1  -5  10    2.04    0.16
  -2   5 -10    0.03    0.08
   2  -5  10    0.03    0.07
  -3   5 -10    0.41    0.10
   3  -5  10    0.51    0.10
   4  -5  10   -0.03    0.09
   3   4 -10    0.43    0.11
  -3  -4  10    0.54    0.11
   2   4 -10    2.25    0.18
   2   4 -10    2.10    0.18
  -2  -4  10    2.35    0.17
   1   4 -10    9.41    0.35
   1   4 -10    8.60    0.32
  -1  -4  10    9.49    0.33
   0   4 -10    1.04    0.26
   0   4 -10    0.57    0.12
   0  -4  10    0.32    0.09
  -1   4 -10    0.09    0.09
   1  -4  10   -0.04    0.07
  -2   4 -10    9.22    0.31
   2  -4  10    9.27    0.31
  -3   4 -10   10.39    0.34
   3  -4  10   10.43    0.32
   4  -4  10    2.27    0.12
  -4  -3  10   -0.16    0.08
   3   3 -10    0.09    0.12
  -3  -3  10    0.03    0.07
   2   3 -10    0.29    0.12
  -2  -3  10    0.03    0.08
   1   3 -10    1.92    0.17
   0   3 -10    8.68    0.32
   0  -3  10    8.49    0.30
  -1   3 -10    1.20    0.14
   1  -3  10    1.02    0.25
   1  -3  10    1.01    0.13
  -2   3 -10   -0.05    0.09
   2  -3  10   -0.06    0.06
   3  -3  10   -0.03    0.08
   4   2 -10    5.80    0.24
  -4  -2  10    5.56    0.21
   3   2 -10    0.67    0.14
  -3  -2  10    0.53    0.12
  -3  -2  10    0.57    0.16
   2   2 -10    3.62    0.20
  -2  -2  10    3.80    0.19
  -2  -2  10    3.70    0.26
   1   2 -10   14.04    0.44
  -1  -2  10   14.27    0.46
  -1  -2  10   13.13    0.42
   0   2 -10    0.08    0.09
   0  -2  10    0.01    0.07
   0  -2  10    0.08    0.12
  -1   2 -10    0.22    0.10
   1  -2  10    0.06    0.08
   1  -2  10   -0.03    0.11
  -2   2 -10    9.67    0.31
   2  -2  10   10.73    0.38
  -4  -1  10    0.04    0.11
  -4  -1  10    0.09    0.07
   3   1 -10   -0.17    0.11
  -3  -1  10    0.13    0.07
  -3  -1  10    0.22    0.11
   2   1 -10    0.16    0.10
  -2  -1  10    0.10    0.08
  -2  -1  10    0.16    0.11
   1   1 -10    2.63    0.17
  -1  -1  10    2.57    0.19
  -1  -1  10    2.59    0.17
   0   1 -10    8.37    0.29
   0  -1  10    8.14    0.28
   0  -1  10    8.84    0.30
  -1   1 -10    0.15    0.09
   1  -1  10    0.21    0.12
   1  -1  10    0.18    0.09
  -4   0  10    3.81    0.21
  -4   0  10    3.84    0.16
   3   0 -10    0.37    0.10
  -3   0  10    0.22    0.08
  -3   0  10    0.25    0.09
   2   0 -10    3.70    0.18
  -2   0  10    3.95    0.20
  -2   0  10    3.82    0.20
  -2   0  10    3.70    0.21
   1   0 -10   11.79    0.36
  -1   0  10   11.04    0.36
  -1   0  10   11.65    0.36
   0   0 -10    0.11    0.08
   3  -1 -10    0.04    0.09
  -3   1  10    0.17    0.08
   2  -1 -10    0.11    0.07
  -2   1  10   -0.05    0.08
   0   6 -11    0.19    0.08
  -1   6 -11    0.53    0.09
  -2   6 -11    1.48    0.10
   2  -6  11    1.43    0.15
   1   5 -11   -0.20    0.09
  -1  -5  11   -0.07    0.10
   0   5 -11    2.31    0.13
   0  -5  11    2.27    0.14
  -1   5 -11    6.54    0.23
   1  -5  11    6.48    0.23
  -2   5 -11    4.14    0.17
   2  -5  11    4.35    0.17
   2   4 -11   21.26    0.56
  -2  -4  11   20.80    0.55
   1   4 -11    6.40    0.29
   1   4 -11    6.82    0.24
  -1  -4  11    6.97    0.24
   0   4 -11    0.08    0.08
   0  -4  11   -0.12    0.07
  -1   4 -11    0.38    0.10
   1  -4  11    0.23    0.06
  -2   4 -11    1.72    0.13
   2  -4  11    1.82    0.11
   2   3 -11    0.64    0.13
   2   3 -11    1.03    0.17
  -2  -3  11    0.82    0.11
   1   3 -11    0.41    0.22
   1   3 -11    0.18    0.09
  -1  -3  11    0.05    0.06
   0   3 -11    4.97    0.19
   0  -3  11    4.63    0.19
  -1   3 -11    4.44    0.18
   1  -3  11    4.08    0.21
   3   2 -11    0.02    0.11
  -3  -2  11    0.09    0.06
   2   2 -11   21.89    0.57
   2   2 -11   20.03    0.55
   1   2 -11    6.61    0.24
  -1  -2  11    7.05    0.25
  -1  -2  11    6.76    0.33
   0   2 -11    0.30    0.09
   0  -2  11    0.17    0.07
   2   1 -11    0.14    0.08
  -2  -1  11    0.21    0.11
  -2  -1  11    0.07    0.07
   1   1 -11    0.54    0.09
  -1  -1  11    0.67    0.17
   0   0   0    0.00    0.00
;
_shelx_hkl_checksum              51000
_shelx_res_file
;
    JTM576_0m.res created by SHELXL-2014/7
TITL JTM576_0m_a.res in P-1
REM Old TITL JTM576_0m in P-1
REM SHELXT solution in P-1
REM R1 0.113,  Rweak 0.003,  Alpha 0.059,  Orientation as input
REM Formula found by SHELXT:  C10 N3 O2
CELL  1.54178   7.6004   7.9200   9.3621  113.020   91.404  118.350
ZERR    2.000   0.0003   0.0003   0.0003    0.001    0.002    0.002
LATT  1
SFAC C H N O
UNIT 18 14 6 6
TEMP -123
SIZE 0.038 0.205 0.266
L.S. 5
BOND $H
LIST 4
FMAP 2
PLAN 5
CONF
EQIV $1 x+1, y, z
HTAB C3 O1_$1
ACTA 140
WGHT    0.065500    0.086200
EXTI    0.043466
FVAR       0.55828
O1    4    0.311744    0.755165    0.380550    11.00000    0.03108    0.04278 =
         0.03359    0.01903    0.01420    0.02284
O2    4    0.945983    0.755462    0.948355    11.00000    0.05200    0.05654 =
         0.03075    0.02644    0.01319    0.02858
O3    4    1.175890    0.762389    0.815383    11.00000    0.03944    0.06494 =
         0.04698    0.03347    0.01027    0.03016
N1    3    0.597444    0.747355    0.330981    11.00000    0.02575    0.02998 =
         0.02260    0.01170    0.00895    0.01618
N2    3    0.715148    0.724399    0.221618    11.00000    0.02988    0.03543 =
         0.02453    0.01326    0.01349    0.01931
N3    3    1.014053    0.758530    0.831441    11.00000    0.03350    0.03201 =
         0.02964    0.01559    0.00471    0.01438
C1    1    0.860464    0.716340    0.289725    11.00000    0.02853    0.03524 =
         0.02592    0.01387    0.01248    0.01947
H1    2    0.957162    0.696521    0.231381    11.00000    0.03542
C2    1    0.846258    0.733778    0.446708    11.00000    0.02477    0.02535 =
         0.02452    0.01083    0.00864    0.01321
C3    1    0.961845    0.735074    0.565151    11.00000    0.02620    0.02632 =
         0.02848    0.01281    0.00810    0.01366
H3    2    1.084868    0.723823    0.549265    11.00000    0.04527
C4    1    0.896359    0.756291    0.703772    11.00000    0.02920    0.02545 =
         0.02434    0.01212    0.00537    0.01202
C5    1    0.724179    0.775181    0.728747    11.00000    0.03055    0.02706 =
         0.02414    0.01139    0.00975    0.01274
H5    2    0.684058    0.786426    0.829407    11.00000    0.03880
C6    1    0.609650    0.774362    0.611706    11.00000    0.02717    0.02675 =
         0.02568    0.01103    0.01046    0.01354
H6    2    0.485000    0.783898    0.626524    11.00000    0.02644
C7    1    0.674081    0.753733    0.470143    11.00000    0.02475    0.02209 =
         0.02189    0.00918    0.00718    0.01148
C8    1    0.421255    0.750770    0.288947    11.00000    0.02431    0.02616 =
         0.02796    0.01036    0.00654    0.01342
C9    1    0.384088    0.747271    0.129887    11.00000    0.03309    0.04104 =
         0.02788    0.01663    0.00884    0.02175
H9A   2    0.366481    0.617503    0.042560    11.00000    0.05030
H9B   2    0.498543    0.865429    0.126492    11.00000    0.04031
H9C   2    0.257977    0.749777    0.113498    11.00000    0.04275
HKLF 4
REM  JTM576_0m_a.res in P-1
REM R1 =  0.0381 for    1456 Fo > 4sig(Fo)  and  0.0423 for all    1641 data
REM    165 parameters refined using      0 restraints
END
WGHT      0.0663      0.0845
REM Highest difference peak  0.303,  deepest hole -0.218,  1-sigma level  0.047
Q1    1   0.9335  0.7500  0.6482  11.00000  0.05    0.30
Q2    1   0.6219  0.7480  0.5324  11.00000  0.05    0.27
Q3    1   0.7549  0.7387  0.4615  11.00000  0.05    0.27
Q4    1   0.8544  0.7229  0.3779  11.00000  0.05    0.26
Q5    1   0.6287  0.7431  0.4039  11.00000  0.05    0.25
;
_shelx_res_checksum              61842
loop_
_space_group_symop_operation_xyz
'x, y, z'
'-x, -y, -z'
loop_
_atom_site_type_symbol
_atom_site_label
_atom_site_fract_x
_atom_site_fract_y
_atom_site_fract_z
_atom_site_U_iso_or_equiv
_atom_site_adp_type
_atom_site_calc_flag
_atom_site_occupancy
O O1 0.31174(15) 0.75516(16) 0.38055(12) 0.0335(3) Uani d 1
O O2 0.94598(19) 0.7555(2) 0.94836(13) 0.0440(3) Uani d 1
O O3 1.17589(18) 0.7624(2) 0.81538(15) 0.0462(3) Uani d 1
N N1 0.59744(16) 0.74735(18) 0.33098(13) 0.0255(3) Uani d 1
N N2 0.71515(18) 0.72440(19) 0.22162(13) 0.0290(3) Uani d 1
N N3 1.01405(19) 0.75853(19) 0.83144(14) 0.0326(3) Uani d 1
C C1 0.8605(2) 0.7163(2) 0.28973(16) 0.0286(3) Uani d 1
H H1 0.957(3) 0.697(3) 0.231(2) 0.035(4) Uiso d 1
C C2 0.8463(2) 0.7338(2) 0.44671(15) 0.0250(3) Uani d 1
C C3 0.9618(2) 0.7351(2) 0.56515(16) 0.0270(3) Uani d 1
H H3 1.085(3) 0.724(3) 0.549(2) 0.045(5) Uiso d 1
C C4 0.8964(2) 0.7563(2) 0.70377(16) 0.0272(3) Uani d 1
C C5 0.7242(2) 0.7752(2) 0.72875(16) 0.0285(3) Uani d 1
H H5 0.684(3) 0.786(3) 0.829(2) 0.039(5) Uiso d 1
C C6 0.6096(2) 0.7744(2) 0.61171(16) 0.0271(3) Uani d 1
H H6 0.485(3) 0.784(3) 0.6265(19) 0.026(4) Uiso d 1
C C7 0.6741(2) 0.75373(19) 0.47014(15) 0.0236(3) Uani d 1
C C8 0.4213(2) 0.7508(2) 0.28895(16) 0.0268(3) Uani d 1
C C9 0.3841(2) 0.7473(3) 0.12989(17) 0.0326(4) Uani d 1
H H9A 0.366(3) 0.618(3) 0.043(2) 0.050(5) Uiso d 1
H H9B 0.499(3) 0.865(3) 0.126(2) 0.040(5) Uiso d 1
H H9C 0.258(3) 0.750(3) 0.113(2) 0.043(5) Uiso d 1
loop_
_atom_site_aniso_label
_atom_site_aniso_U_11
_atom_site_aniso_U_22
_atom_site_aniso_U_33
_atom_site_aniso_U_12
_atom_site_aniso_U_13
_atom_site_aniso_U_23
O1 0.0311(5) 0.0428(6) 0.0336(5) 0.0228(5) 0.0142(4) 0.0190(5)
O2 0.0520(7) 0.0565(7) 0.0307(6) 0.0286(6) 0.0132(5) 0.0264(5)
O3 0.0394(6) 0.0649(8) 0.0470(7) 0.0302(6) 0.0103(5) 0.0335(6)
N1 0.0258(6) 0.0300(6) 0.0226(5) 0.0162(5) 0.0090(4) 0.0117(4)
N2 0.0299(6) 0.0354(6) 0.0245(6) 0.0193(5) 0.0135(5) 0.0133(5)
N3 0.0335(7) 0.0320(6) 0.0296(6) 0.0144(5) 0.0047(5) 0.0156(5)
C1 0.0285(7) 0.0352(7) 0.0259(6) 0.0195(6) 0.0125(5) 0.0139(6)
C2 0.0248(6) 0.0253(6) 0.0245(6) 0.0132(5) 0.0086(5) 0.0108(5)
C3 0.0262(6) 0.0263(6) 0.0285(7) 0.0137(6) 0.0081(5) 0.0128(5)
C4 0.0292(7) 0.0254(6) 0.0243(6) 0.0120(6) 0.0054(5) 0.0121(5)
C5 0.0305(7) 0.0271(7) 0.0241(6) 0.0127(6) 0.0097(5) 0.0114(5)
C6 0.0272(7) 0.0267(6) 0.0257(7) 0.0135(6) 0.0105(5) 0.0110(5)
C7 0.0248(6) 0.0221(6) 0.0219(6) 0.0115(5) 0.0072(5) 0.0092(5)
C8 0.0243(6) 0.0262(6) 0.0280(7) 0.0134(6) 0.0065(5) 0.0104(5)
C9 0.0331(7) 0.0410(8) 0.0279(7) 0.0217(7) 0.0088(6) 0.0166(6)
loop_
_atom_type_symbol
_atom_type_description
_atom_type_scat_dispersion_real
_atom_type_scat_dispersion_imag
_atom_type_scat_source
C C 0.0181 0.0091 'International Tables Vol C Tables 4.2.6.8 and 6.1.1.4'
H H 0.0000 0.0000 'International Tables Vol C Tables 4.2.6.8 and 6.1.1.4'
N N 0.0311 0.0180 'International Tables Vol C Tables 4.2.6.8 and 6.1.1.4'
O O 0.0492 0.0322 'International Tables Vol C Tables 4.2.6.8 and 6.1.1.4'
loop_
_geom_angle_atom_site_label_1
_geom_angle_atom_site_label_2
_geom_angle_atom_site_label_3
_geom_angle
C7 N1 N2 111.10(10)
C7 N1 C8 129.03(11)
N2 N1 C8 119.79(11)
C1 N2 N1 106.12(11)
O2 N3 O3 123.36(13)
O2 N3 C4 118.42(12)
O3 N3 C4 118.21(12)
N2 C1 C2 111.95(12)
N2 C1 H1 119.0(11)
C2 C1 H1 129.0(11)
C3 C2 C7 120.90(12)
C3 C2 C1 133.98(13)
C7 C2 C1 105.12(12)
C4 C3 C2 116.08(13)
C4 C3 H3 123.1(12)
C2 C3 H3 120.8(12)
C3 C4 C5 123.74(13)
C3 C4 N3 117.76(13)
C5 C4 N3 118.51(12)
C6 C5 C4 120.29(12)
C6 C5 H5 120.1(11)
C4 C5 H5 119.6(11)
C5 C6 C7 116.86(13)
C5 C6 H6 121.2(9)
C7 C6 H6 121.9(9)
N1 C7 C6 132.17(12)
N1 C7 C2 105.71(11)
C6 C7 C2 122.12(13)
O1 C8 N1 119.14(12)
O1 C8 C9 125.17(13)
N1 C8 C9 115.70(12)
C8 C9 H9A 111.2(12)
C8 C9 H9B 110.3(11)
H9A C9 H9B 106.8(16)
C8 C9 H9C 108.4(11)
H9A C9 H9C 108.9(16)
H9B C9 H9C 111.3(16)
loop_
_geom_bond_atom_site_label_1
_geom_bond_atom_site_label_2
_geom_bond_distance
O1 C8 1.2119(17)
O2 N3 1.2259(16)
O3 N3 1.2302(18)
N1 C7 1.3866(16)
N1 N2 1.3912(15)
N1 C8 1.4020(17)
N2 C1 1.3018(19)
N3 C4 1.4646(17)
C1 C2 1.4331(18)
C1 H1 0.962(18)
C2 C3 1.3915(19)
C2 C7 1.4032(19)
C3 C4 1.3787(18)
C3 H3 0.99(2)
C4 C5 1.401(2)
C5 C6 1.379(2)
C5 H5 0.981(18)
C6 C7 1.4005(17)
C6 H6 0.994(18)
C8 C9 1.4959(19)
C9 H9A 0.97(2)
C9 H9B 0.941(19)
C9 H9C 0.98(2)
loop_
_geom_hbond_atom_site_label_D
_geom_hbond_atom_site_label_H
_geom_hbond_atom_site_label_A
_geom_hbond_site_symmetry_A
_geom_hbond_distance_DH
_geom_hbond_distance_HA
_geom_hbond_distance_DA
_geom_hbond_angle_DHA
C3 H3 O1 1_655 0.99(2) 2.36(2) 3.1816(17) 140.0(16)
loop_
_geom_torsion_atom_site_label_1
_geom_torsion_atom_site_label_2
_geom_torsion_atom_site_label_3
_geom_torsion_atom_site_label_4
_geom_torsion
C7 N1 N2 C1 0.09(15)
C8 N1 N2 C1 -177.03(12)
N1 N2 C1 C2 -0.08(16)
N2 C1 C2 C3 -179.60(14)
N2 C1 C2 C7 0.05(16)
C7 C2 C3 C4 0.16(19)
C1 C2 C3 C4 179.76(14)
C2 C3 C4 C5 0.2(2)
C2 C3 C4 N3 -179.96(11)
O2 N3 C4 C3 -172.80(12)
O3 N3 C4 C3 6.87(19)
O2 N3 C4 C5 7.06(19)
O3 N3 C4 C5 -173.27(13)
C3 C4 C5 C6 -0.3(2)
N3 C4 C5 C6 179.82(11)
C4 C5 C6 C7 0.1(2)
N2 N1 C7 C6 -179.93(13)
C8 N1 C7 C6 -3.1(2)
N2 N1 C7 C2 -0.06(14)
C8 N1 C7 C2 176.72(12)
C5 C6 C7 N1 -179.88(13)
C5 C6 C7 C2 0.27(19)
C3 C2 C7 N1 179.71(11)
C1 C2 C7 N1 0.01(14)
C3 C2 C7 C6 -0.4(2)
C1 C2 C7 C6 179.89(12)
C7 N1 C8 O1 -1.8(2)
N2 N1 C8 O1 174.72(11)
C7 N1 C8 C9 178.53(12)
N2 N1 C8 C9 -4.93(18)

_cod_database_fobs_code 1543474
