#------------------------------------------------------------------------------
#$Date: 2016-08-05 06:40:14 +0300 (Fri, 05 Aug 2016) $
#$Revision: 184974 $
#$URL: file:///home/coder/svn-repositories/cod/cif/1/54/33/1543356.cif $
#------------------------------------------------------------------------------
#
# This file is available in the Crystallography Open Database (COD),
# http://www.crystallography.net/
#
# All data on this site have been placed in the public domain by the
# contributors.
#
data_1543356
loop_
_publ_author_name
'Aida, Yukimasa'
'Sugiyama, Haruki'
'Uekusa, Hidehiro'
'Shibata, Yu'
'Tanaka, Ken'
_publ_section_title
;
 Rhodium-Catalyzed Asymmetric [2 + 2 + 2] Cycloaddition of \a,\w-Diynes
 with Unsymmetrical 1,2-Disubstituted Alkenes.
;
_journal_issue                   11
_journal_name_full               'Organic letters'
_journal_page_first              2672
_journal_page_last               2675
_journal_paper_doi               10.1021/acs.orglett.6b01116
_journal_volume                  18
_journal_year                    2016
_chemical_absolute_configuration sym
_chemical_formula_moiety         'C29 H22 O4'
_chemical_formula_sum            'C29 H22 O4'
_chemical_formula_weight         434.46
_chemical_name_common            YA375-F1
_chemical_name_systematic        YA375-F1
_space_group_crystal_system      triclinic
_space_group_IT_number           1
_space_group_name_Hall           'P 1'
_space_group_name_H-M_alt        'P 1'
_symmetry_space_group_name_Hall  'P 1'
_symmetry_space_group_name_H-M   'P 1'
_atom_sites_solution_hydrogens   geom
_atom_sites_solution_primary     dual
_atom_sites_solution_secondary   difmap
_audit_creation_method           SHELXL-2014/7
_cell_angle_alpha                65.909(1)
_cell_angle_beta                 85.150(1)
_cell_angle_gamma                82.591(1)
_cell_formula_units_Z            1
_cell_length_a                   5.1050(1)
_cell_length_b                   9.9850(2)
_cell_length_c                   11.8359(2)
_cell_measurement_reflns_used    6212
_cell_measurement_temperature    173(2)
_cell_measurement_theta_max      68.14
_cell_measurement_theta_min      4.1
_cell_volume                     545.829(18)
_computing_cell_refinement       'PROCESS-AUTO (Rigaku, 1998)'
_computing_data_collection       'PROCESS-AUTO (Rigaku, 1998)'
_computing_data_reduction        'PROCESS-AUTO (Rigaku, 1998)'
_computing_molecular_graphics    'ORTEP-3 (Farrugia, 2008)'
_computing_publication_material  'SHELXL-2014/07 (Sheldrick, 2014)'
_computing_structure_refinement  'SHELXL-2014/7 (Sheldrick, 2014)'
_computing_structure_solution    'SHELXT 2014/4 (Sheldrick, 2014)'
_diffrn_ambient_temperature      173(2)
_diffrn_detector_area_resol_mean 10
_diffrn_measured_fraction_theta_full 0.986
_diffrn_measured_fraction_theta_max 0.983
_diffrn_measurement_device_type  'RIGAKU R-AXIS RAPID-II IP Area Detector'
_diffrn_measurement_method       '\w scans'
_diffrn_radiation_type           CuK\a
_diffrn_radiation_wavelength     1.54186
_diffrn_reflns_av_R_equivalents  0.0423
_diffrn_reflns_av_unetI/netI     0.0423
_diffrn_reflns_Laue_measured_fraction_full 0.986
_diffrn_reflns_Laue_measured_fraction_max 0.983
_diffrn_reflns_limit_h_max       6
_diffrn_reflns_limit_h_min       -6
_diffrn_reflns_limit_k_max       11
_diffrn_reflns_limit_k_min       -11
_diffrn_reflns_limit_l_max       14
_diffrn_reflns_limit_l_min       -14
_diffrn_reflns_number            6252
_diffrn_reflns_point_group_measured_fraction_full 0.842
_diffrn_reflns_point_group_measured_fraction_max 0.839
_diffrn_reflns_theta_full        67.686
_diffrn_reflns_theta_max         68.144
_diffrn_reflns_theta_min         4.094
_diffrn_source                   'rotating anode X-ray tube'
_exptl_absorpt_coefficient_mu    0.703
_exptl_absorpt_correction_T_max  0.895
_exptl_absorpt_correction_T_min  0.766
_exptl_absorpt_correction_type   multi-scan
_exptl_absorpt_process_details   'Absorption was corrected by ABSCOR'
_exptl_crystal_colour            yellow
_exptl_crystal_density_diffrn    1.322
_exptl_crystal_description       block
_exptl_crystal_F_000             228
_exptl_crystal_size_max          0.230
_exptl_crystal_size_mid          0.175
_exptl_crystal_size_min          0.162
_refine_diff_density_max         0.207
_refine_diff_density_min         -0.254
_refine_diff_density_rms         0.064
_refine_ls_abs_structure_details
;
 Flack x determined using 1256 quotients [(I+)-(I-)]/[(I+)+(I-)]
 (Parsons, Flack and Wagner, Acta Cryst. B69 (2013) 249-259).
;
_refine_ls_abs_structure_Flack   -0.01(13)
_refine_ls_extinction_method     none
_refine_ls_goodness_of_fit_ref   1.222
_refine_ls_hydrogen_treatment    constr
_refine_ls_matrix_type           full
_refine_ls_number_parameters     300
_refine_ls_number_reflns         3339
_refine_ls_number_restraints     3
_refine_ls_restrained_S_all      1.222
_refine_ls_R_factor_all          0.0440
_refine_ls_R_factor_gt           0.0406
_refine_ls_shift/su_max          0.000
_refine_ls_shift/su_mean         0.000
_refine_ls_structure_factor_coef Fsqd
_refine_ls_weighting_details
'w=1/[\s^2^(Fo^2^)+(0.0530P)^2^+0.1641P] where P=(Fo^2^+2Fc^2^)/3'
_refine_ls_weighting_scheme      calc
_refine_ls_wR_factor_gt          0.1047
_refine_ls_wR_factor_ref         0.1210
_reflns_Friedel_coverage         0.706
_reflns_Friedel_fraction_full    0.698
_reflns_Friedel_fraction_max     0.694
_reflns_number_gt                3177
_reflns_number_total             3339
_reflns_threshold_expression     'I > 2\s(I)'
_cod_data_source_file            ol6b01116_si_002.cif
_cod_data_source_block           shelx
_cod_depositor_comments          'Adding full bibliography for 1543356.cif.'
_cod_database_code               1543356
_shelx_shelxl_version_number     2014/7
_shelx_space_group_comment
;
The symmetry employed for this shelxl refinement is uniquely defined
by the following loop, which should always be used as a source of
symmetry information in preference to the above space-group names.
They are only intended as comments.
;
_shelx_estimated_absorpt_t_min   0.855
_shelx_estimated_absorpt_t_max   0.895
_shelx_res_file
;

    shelx.res created by SHELXL-2014/7


TITL shelxt_a.res in P1
REM Old TITL   2016/03/28 10:10:09

REM SHELXT solution in P1
REM R1 0.106,  Rweak 0.031,  Alpha 0.000,  Orientation as input
REM Flack x =  0.007 ( 0.133 ) from Parsons' quotients
REM Formula found by SHELXT:  C29 O4

CELL  1.54186   5.1050   9.9850  11.8359   65.909   85.150   82.591
ZERR    1.000   0.0001   0.0002   0.0002    0.001    0.001    0.001
LATT -1
SFAC C H O
UNIT 29 22 4
L.S. 10
BOND $H
TEMP -100
SIZE 0.175 0.230 0.162
HTAB
ACTA
LIST 4
FMAP 2
PLAN 20
WGHT    0.053000    0.164100
FVAR       1.59291
O1    3   -0.029921    0.604297    0.743947    11.00000    0.07235    0.07054 =
         0.03853   -0.02758    0.00829    0.02200
O2    3    0.295537    0.422999    0.820207    11.00000    0.06971    0.04648 =
         0.02901   -0.02240   -0.01000    0.00773
O3    3    0.311596    0.498921    0.176607    11.00000    0.04478    0.06531 =
         0.03058   -0.02673    0.00292   -0.01790
O4    3    0.644227    0.619503    0.187348    11.00000    0.03416    0.03521 =
         0.02742   -0.00950    0.00715   -0.00830
C1    1    0.218334    0.509163    0.607929    11.00000    0.02665    0.03581 =
         0.02479   -0.01439    0.00053   -0.00415
C2    1    0.295702    0.386079    0.587763    11.00000    0.02601    0.03333 =
         0.02023   -0.00929    0.00152   -0.00215
C3    1    0.247519    0.233756    0.675590    11.00000    0.03040    0.03885 =
         0.01948   -0.01118   -0.00134   -0.01009
C4    1    0.031296    0.208879    0.760071    11.00000    0.03647    0.05339 =
         0.02560   -0.01731    0.00232   -0.01287
AFIX  43
H4    2   -0.085488    0.290159    0.761977    11.00000   -1.20000
AFIX   0
C5    1   -0.013900    0.066728    0.840947    11.00000    0.04189    0.06035 =
         0.02502   -0.00913    0.00801   -0.02468
AFIX  43
H5    2   -0.159045    0.050713    0.899077    11.00000   -1.20000
AFIX   0
C6    1    0.153905   -0.051869    0.836495    11.00000    0.05423    0.04523 =
         0.02582   -0.00010   -0.00060   -0.02516
AFIX  43
H6    2    0.127662   -0.149097    0.894017    11.00000   -1.20000
AFIX   0
C7    1    0.357812   -0.029783    0.749509    11.00000    0.05048    0.03515 =
         0.02905   -0.00630   -0.00332   -0.01127
AFIX  43
H7    2    0.466762   -0.112409    0.745364    11.00000   -1.20000
AFIX   0
C8    1    0.407667    0.112734    0.666769    11.00000    0.03326    0.03301 =
         0.01998   -0.00592   -0.00691   -0.00925
C9    1    0.620215    0.137596    0.569356    11.00000    0.03280    0.02785 =
         0.02601   -0.01265   -0.00489   -0.00579
C10   1    0.818728    0.025193    0.574214    11.00000    0.03819    0.02599 =
         0.03212   -0.01027   -0.01016   -0.00344
AFIX  43
H10   2    0.814827   -0.069567    0.639977    11.00000   -1.20000
AFIX   0
C11   1    1.021867    0.049907    0.484282    11.00000    0.03184    0.03042 =
         0.04745   -0.02257   -0.00873    0.00314
AFIX  43
H11   2    1.154957   -0.027781    0.488813    11.00000   -1.20000
AFIX   0
C12   1    1.030317    0.187478    0.388252    11.00000    0.03041    0.03254 =
         0.03524   -0.01862    0.00228   -0.00334
AFIX  43
H12   2    1.169444    0.204811    0.326978    11.00000   -1.20000
AFIX   0
C13   1    0.834216    0.299962    0.382044    11.00000    0.02813    0.02606 =
         0.02750   -0.01156   -0.00063   -0.00472
AFIX  43
H13   2    0.842283    0.394603    0.316520    11.00000   -1.20000
AFIX   0
C14   1    0.624416    0.277438    0.470072    11.00000    0.02865    0.02496 =
         0.02451   -0.01260   -0.00210   -0.00540
C15   1    0.424719    0.400789    0.466266    11.00000    0.01994    0.02712 =
         0.02717   -0.01462    0.00068   -0.00850
C16   1    0.362936    0.524265    0.365054    11.00000    0.02269    0.02746 =
         0.02377   -0.01232    0.00179   -0.00543
C17   1    0.190521    0.657488    0.374072    11.00000    0.02249    0.02968 =
         0.02624   -0.01364   -0.00094    0.00023
AFIX  13
H17   2    0.000711    0.657145    0.359217    11.00000   -1.20000
AFIX   0
C18   1    0.297455    0.801924    0.289690    11.00000    0.02440    0.02653 =
         0.03016   -0.01455   -0.00061    0.00235
C19   1    0.245148    0.888890    0.166596    11.00000    0.03456    0.03377 =
         0.03292   -0.01253   -0.00770    0.00349
AFIX  43
H19   2    0.121615    0.863550    0.124802    11.00000   -1.20000
AFIX   0
C20   1    0.377710    1.014558    0.105205    11.00000    0.04596    0.03301 =
         0.03446   -0.00560   -0.00324    0.00127
AFIX  43
H20   2    0.346123    1.074737    0.020513    11.00000   -1.20000
AFIX   0
C21   1    0.554359    1.051692    0.167024    11.00000    0.04547    0.03246 =
         0.04461   -0.00931    0.00011   -0.00747
AFIX  43
H21   2    0.644111    1.137062    0.124096    11.00000   -1.20000
AFIX   0
C22   1    0.602873    0.966088    0.291089    11.00000    0.03533    0.03394 =
         0.04700   -0.01861   -0.00495   -0.00505
AFIX  43
H22   2    0.723136    0.992984    0.333295    11.00000   -1.20000
AFIX   0
C23   1    0.472905    0.840689    0.352383    11.00000    0.02941    0.02735 =
         0.03401   -0.01653   -0.00256    0.00390
C24   1    0.483155    0.731176    0.485767    11.00000    0.02549    0.03290 =
         0.03196   -0.01803   -0.00502   -0.00015
AFIX  23
H24A  2    0.483740    0.781345    0.542642    11.00000   -1.20000
H24B  2    0.640864    0.658160    0.499537    11.00000   -1.20000
AFIX   0
C25   1    0.226971    0.658138    0.502612    11.00000    0.02518    0.03028 =
         0.02587   -0.01510   -0.00009    0.00197
AFIX  13
H25   2    0.078496    0.725580    0.517314    11.00000   -1.20000
AFIX   0
C26   1    0.436708    0.542386    0.234187    11.00000    0.02577    0.02459 =
         0.02446   -0.00919    0.00091    0.00025
C27   1    0.713179    0.654450    0.057881    11.00000    0.04597    0.06283 =
         0.03115   -0.01182    0.01456   -0.00990
AFIX 137
H27A  2    0.590495    0.736537    0.006318    11.00000   -1.50000
H27B  2    0.701767    0.567895    0.039934    11.00000   -1.50000
H27C  2    0.893929    0.682563    0.039790    11.00000   -1.50000
AFIX   0
C28   1    0.140001    0.516549    0.730103    11.00000    0.03918    0.04005 =
         0.02843   -0.01636    0.00312   -0.00189
C29   1    0.238040    0.428684    0.939690    11.00000    0.14299    0.06242 =
         0.03062   -0.02717   -0.01902    0.02754
AFIX 137
H29A  2    0.237964    0.530329    0.931677    11.00000   -1.50000
H29B  2    0.373049    0.364757    0.997503    11.00000   -1.50000
H29C  2    0.064041    0.394829    0.971073    11.00000   -1.50000
AFIX   0
HKLF 4

REM  shelxt_a.res in P1
REM R1 =  0.0406 for    3177 Fo > 4sig(Fo)  and  0.0440 for all    3339 data
REM    300 parameters refined using      3 restraints

END

WGHT      0.0530      0.1641

REM No hydrogen bonds found for HTAB generation

REM Highest difference peak  0.207,  deepest hole -0.254,  1-sigma level  0.064
Q1    1   0.9088  0.5971  0.0573  11.00000  0.05    0.21
Q2    1  -0.1424  0.8766  0.1591  11.00000  0.05    0.20
Q3    1   0.4099 -0.1288  0.6377  11.00000  0.05    0.20
Q4    1  -0.2586  0.2628  0.9222  11.00000  0.05    0.19
Q5    1   0.2540 -0.1922  0.6802  11.00000  0.05    0.18
Q6    1   0.5282  0.5209  0.9032  11.00000  0.05    0.18
Q7    1   0.5573  0.3836  0.9583  11.00000  0.05    0.18
Q8    1   0.8695  0.3143  0.5801  11.00000  0.05    0.17
Q9    1  -0.0525  0.0860  1.0263  11.00000  0.05    0.17
Q10   1   0.6376  0.5343  0.5935  11.00000  0.05    0.17
Q11   1   0.5775  0.2594  0.9413  11.00000  0.05    0.17
Q12   1  -0.0053  0.8752  0.1145  11.00000  0.05    0.17
Q13   1   0.5797  0.8392  0.5793  11.00000  0.05    0.17
Q14   1   0.7027  0.3838  0.1021  11.00000  0.05    0.17
Q15   1   0.6573  0.4976  0.6179  11.00000  0.05    0.17
Q16   1  -0.0671  0.1247  1.0031  11.00000  0.05    0.17
Q17   1  -0.1713  0.3546  0.5905  11.00000  0.05    0.17
Q18   1  -0.1865  0.4580  0.6513  11.00000  0.05    0.17
Q19   1  -0.0848  0.7561  0.1646  11.00000  0.05    0.16
Q20   1  -0.0488  0.9649  0.0849  11.00000  0.05    0.16
;
_shelx_res_checksum              1094
_shelx_hkl_file
;
   0   0   1 2183.75  116.04
   0   0   1 2507.36  133.53
   0   0   1 1758.63   93.51
   0   0   1 2666.14  141.07
   0   0  -1 2077.44  110.70
   0   0  -1 2454.48  130.79
   0   0  -1 1777.68   94.76
   0   0  -1 2191.38  116.62
   0   0  -1 2620.39  137.66
   0   0   2  794.25   35.78
   0   0   2  805.26   35.95
   0   0   2  729.27   31.92
   0   0   2  828.79   36.72
   0   0  -2  778.13   34.45
   0   0  -2  780.25   34.87
   0   0  -2  850.58   36.77
   0   0  -2  775.16   34.60
   0   0   3 1487.30   76.52
   0   0   3 1566.81   79.70
   0   0   3 1390.07   70.21
   0   0   3 1445.50   73.95
   0   0  -3 1472.20   75.13
   0   0  -3 1602.99   80.54
   0   0  -3 1517.36   78.64
   0   0  -3 1356.94   69.57
   0   0   4    4.95    0.75
   0   0   4    3.56    0.63
   0   0   4    4.82    0.95
   0   0  -4    3.04    0.50
   0   0  -4    2.68    0.41
   0   0  -4    4.19    0.70
   0   0  -4    6.05    1.24
   0   0   5  754.89   37.15
   0   0   5  730.00   34.57
   0   0   5  733.06   33.65
   0   0  -5  742.00   34.79
   0   0  -5  604.84   28.34
   0   0  -5  746.84   33.74
   0   0  -5  747.52   35.48
   0   0  -5  770.21   36.70
   0   0   6  271.56   11.02
   0   0   6  255.25   12.04
   0   0   6  288.06   13.96
   0   0  -6  230.26   10.22
   0   0  -6  258.85   12.60
   0   0  -6  276.88   13.24
   0   0  -6  268.00   12.28
   0   0  -6  268.02   10.81
   0   0   7  279.78   13.09
   0   0   7  268.44   13.03
   0   0  -7  222.72    9.90
   0   0  -7  271.75   12.98
   0   0  -7  267.53   12.75
   0   0   8  165.67    9.40
   0   0  -8  166.67   10.03
   0   0  -8  169.96    9.79
   0   0   9  540.10   28.81
   0   0  -9  524.07   27.98
   0   0  -9  559.06   29.82
   0   0  10  368.42   21.32
   0   0 -10  369.57   21.22
   0   0 -10  389.58   22.57
   0   0  11  466.20   25.47
   0   0 -11  471.31   25.36
   0   0 -11  439.59   25.08
   0   0  12  106.34    7.74
   0   0 -12  109.55    6.36
   0   0 -12  100.05    5.77
   0   0  13   46.89    4.14
   0   0 -13   43.22    2.68
   0   0 -13   46.78    3.89
   0   1 -12   18.86    1.89
   0   1 -12   20.05    3.00
   0  -1  12   18.90    3.27
   0   1 -11  137.66    9.07
   0   1 -11  122.35    7.07
   0  -1  11  125.52    7.60
   0   1 -10   72.10    4.98
   0   1 -10   69.98    6.44
   0  -1  10   69.96    6.71
   0   1  -9  502.03   28.64
   0   1  -9  495.98   26.66
   0  -1   9  513.56   29.67
   0   1  -8  204.58   12.02
   0   1  -8  200.59   10.73
   0  -1   8  190.99   11.57
   0   1  -7  250.52   12.38
   0   1  -7  237.01   12.85
   0  -1   7  249.12   12.40
   0   1  -6   13.92    1.05
   0   1  -6   13.91    2.32
   0   1  -6   14.35    1.58
   0   1  -6   12.41    1.21
   0  -1   6   13.01    0.77
   0  -1   6   14.52    2.22
   0   1  -5  196.34    8.23
   0   1  -5  210.39   10.06
   0   1  -5  191.87    9.27
   0  -1   5  211.18    8.52
   0  -1   5  221.27    9.79
   0  -1   5  205.20    9.12
   0  -1   5  203.47    8.27
   0   1  -4 1823.38   99.56
   0   1  -4 1773.25   97.72
   0   1  -4 1875.13  102.49
   0   1  -4 1914.49  106.74
   0  -1   4 1816.83   98.62
   0  -1   4 1681.19   90.96
   0  -1   4 1960.18  109.08
   0  -1   4 1848.41  102.31
   0   1  -3   49.14    2.21
   0   1  -3   48.39    2.17
   0   1  -3   47.79    2.61
   0   1  -3   46.10    1.95
   0  -1   3   46.55    2.05
   0  -1   3   46.47    2.11
   0  -1   3   44.33    2.03
   0   1  -2   42.35    1.69
   0   1  -2   52.24    2.37
   0   1  -2   41.46    1.95
   0   1  -2   42.20    2.22
   0  -1   2   38.76    1.66
   0  -1   2   40.43    1.77
   0  -1   2   39.89    1.72
   0  -1   2   40.65    1.46
   0   1  -1 1513.31   77.42
   0   1  -1 1830.94   93.92
   0   1  -1 1522.45   77.73
   0   1  -1 1690.47   86.84
   0  -1   1 1735.77   86.91
   0  -1   1 1466.10   75.02
   0  -1   1 1848.71   94.99
   0  -1   1 1769.65   91.24
   0  -1   1 1611.83   81.43
   0  -1   1 1963.89   99.78
   0   1   0  161.87    5.62
   0   1   0  212.56    7.30
   0   1   0  199.26    6.64
   0   1   0  215.68    7.60
   0   1   0  210.78    6.83
   0  -1   0  184.52    6.46
   0  -1   0  231.51    7.37
   0  -1   0  213.10    7.52
   0  -1   0  206.99    6.88
   0  -1   0  213.12    7.37
   0   1   1 2157.64  116.38
   0   1   1 2212.86  118.84
   0   1   1 2110.31  113.02
   0   1   1 2484.37  135.38
   0  -1  -1 2522.48  132.91
   0  -1  -1 2194.63  118.30
   0  -1  -1 1762.16   94.73
   0  -1  -1 2112.54  114.06
   0  -1  -1 2435.89  132.42
   0  -1  -1 2792.98  146.71
   0   1   2  291.46   10.46
   0   1   2  277.07   10.58
   0   1   2  272.84   10.34
   0   1   2  290.57   11.24
   0  -1  -2  256.61   10.08
   0  -1  -2  275.54   10.31
   0  -1  -2  271.51    9.89
   0  -1  -2  274.65    9.81
   0  -1  -2  277.20   11.03
   0   1   3   67.75    3.25
   0   1   3   75.01    2.53
   0   1   3   68.19    2.49
   0   1   3   71.98    2.68
   0  -1  -3   68.78    2.70
   0  -1  -3   69.47    2.63
   0  -1  -3   70.73    2.75
   0  -1  -3   71.80    3.09
   0  -1  -3   76.85    2.58
   0   1   4   89.70    3.80
   0   1   4   79.47    3.00
   0   1   4   85.63    3.38
   0  -1  -4   88.80    3.07
   0  -1  -4   88.35    3.46
   0  -1  -4   82.02    2.98
   0  -1  -4   80.62    3.26
   0  -1  -4   84.33    3.49
   0   1   5 1674.42   92.69
   0   1   5 1676.76   89.35
   0   1   5 1647.71   89.63
   0  -1  -5 1679.16   91.29
   0  -1  -5 1504.21   80.10
   0  -1  -5 1699.61   91.52
   0  -1  -5 1694.95   87.87
   0  -1  -5 1724.32   93.71
   0   1   6  676.59   32.63
   0   1   6  670.61   31.09
   0   1   6  733.96   37.23
   0  -1  -6  766.24   33.86
   0  -1  -6  695.99   33.63
   0  -1  -6  721.19   35.04
   0  -1  -6  707.13   35.11
   0  -1  -6  653.79   30.89
   0   1   7 1177.90   62.47
   0   1   7 1191.46   65.18
   0  -1  -7 1033.84   53.57
   0  -1  -7 1203.07   65.44
   0  -1  -7 1205.19   64.47
   0  -1  -7 1265.37   67.33
   0   1   8   10.80    2.17
   0  -1  -8   10.93    2.43
   0  -1  -8   11.29    1.80
   0   1   9   44.25    3.24
   0  -1  -9   47.89    4.63
   0  -1  -9   46.31    5.19
   0   1  10   47.37    5.03
   0  -1 -10   46.18    3.96
   0  -1 -10   44.57    3.66
   0   1  11  191.22   10.74
   0  -1 -11  212.23   13.36
   0  -1 -11  198.23   12.42
   0   1  12   67.18    4.73
   0  -1 -12   67.86    6.36
   0  -1 -12   63.15    4.34
   0   1  13   42.97    3.26
   0  -1 -13   44.81    3.26
   0  -1 -13   39.56    2.84
   0   2 -11   73.93    4.37
   0   2 -11   76.42    5.24
   0  -2  11   74.38    4.75
   0   2 -10  138.65    8.83
   0   2 -10  129.96    8.67
   0  -2  10  131.46    9.21
   0   2  -9  145.41    8.38
   0   2  -9  151.52    8.46
   0  -2   9  150.77   10.52
   0   2  -8  243.24   14.17
   0   2  -8  234.51   14.08
   0  -2   8  243.73   14.73
   0   2  -7  234.63   11.93
   0   2  -7  228.91   11.95
   0  -2   7  246.89   12.90
   0   2  -6  303.60   13.57
   0   2  -6  333.75   16.26
   0   2  -6  349.06   17.57
   0  -2   6  294.74   13.02
   0  -2   6  356.17   18.43
   0   2  -5  123.55    5.31
   0   2  -5  132.78    6.18
   0   2  -5  139.73    7.40
   0   2  -5  135.68    6.02
   0  -2   5  136.46    7.26
   0  -2   5  135.23    5.83
   0  -2   5  145.35    6.73
   0   2  -4  262.53   11.23
   0   2  -4  280.64   13.28
   0   2  -4  275.04   12.29
   0   2  -4  286.59   12.50
   0  -2   4  264.95   10.24
   0  -2   4  298.38   12.70
   0  -2   4  285.55   12.73
   0  -2   4  261.01   11.03
   0  -2   4  269.04   12.89
   0   2  -3  347.03   15.17
   0   2  -3  339.32   15.49
   0   2  -3  346.09   15.27
   0   2  -3  317.49   13.46
   0  -2   3  344.00   13.52
   0  -2   3  348.32   15.15
   0  -2   3  342.01   15.65
   0  -2   3  363.02   15.40
   0  -2   3  336.02   14.29
   0   2  -2  446.20   19.46
   0   2  -2  416.22   17.83
   0   2  -2  476.92   20.73
   0   2  -2  469.96   20.33
   0  -2   2  465.92   20.47
   0  -2   2  453.96   19.67
   0  -2   2  449.58   19.30
   0  -2   2  472.70   20.38
   0  -2   2  437.55   17.59
   0   2  -1  749.27   35.01
   0   2  -1  854.20   39.68
   0   2  -1  893.12   41.56
   0   2  -1  900.21   41.22
   0  -2   1  881.34   39.54
   0  -2   1  810.48   38.15
   0  -2   1  897.29   42.19
   0  -2   1  898.52   41.50
   0  -2   1  910.03   40.20
   0  -2   1  890.21   42.43
   0   2   0 2879.93  168.54
   0   2   0 2924.40  172.08
   0   2   0 2980.07  172.00
   0   2   0 3371.91  191.60
   0   2   0 2246.60  132.75
   0  -2   0 3144.66  183.99
   0  -2   0 2576.83  150.08
   0  -2   0 2935.47  169.46
   0  -2   0 3337.99  187.82
   0  -2   0 2842.55  168.44
   0   2   1 1538.42   76.32
   0   2   1 1712.67   86.65
   0   2   1 1125.46   56.86
   0  -2  -1 1657.21   82.52
   0  -2  -1 1513.46   75.34
   0   2   2 4113.18  264.14
   0   2   2 4712.76  303.37
   0   2   2 4874.20  318.07
   0   2   2 3830.31  247.45
   0  -2  -2 4517.73  293.09
   0  -2  -2 4322.35  281.42
   0  -2  -2 4635.44  293.36
   0  -2  -2 4069.13  262.73
   0  -2  -2 4894.09  308.87
   0   2   3 3008.15  180.18
   0   2   3 2901.09  167.96
   0   2   3 2730.58  160.17
   0   2   3 2640.03  154.94
   0  -2  -3 2800.07  166.22
   0  -2  -3 2739.44  162.27
   0  -2  -3 2938.25  170.64
   0  -2  -3 2776.23  163.79
   0  -2  -3 2834.49  163.80
   0  -2  -3 2937.15  169.26
   0   2   4  166.17    6.04
   0   2   4  166.77    7.18
   0   2   4  177.07    7.09
   0  -2  -4  171.62    6.43
   0  -2  -4  170.05    6.72
   0  -2  -4  156.29    6.94
   0  -2  -4  176.73    6.37
   0  -2  -4  158.58    6.11
   0  -2  -4  164.13    6.82
   0   2   5  655.35   29.69
   0   2   5  606.13   27.74
   0   2   5  642.66   31.42
   0   2   5  610.47   26.28
   0  -2  -5  635.58   28.25
   0  -2  -5  641.64   29.73
   0  -2  -5  592.27   28.15
   0  -2  -5  564.27   27.10
   0  -2  -5  655.34   28.04
   0  -2  -5  653.30   30.27
   0   2   6 1326.27   70.11
   0   2   6 1435.19   79.06
   0   2   6 1311.53   68.11
   0  -2  -6 1360.20   73.43
   0  -2  -6 1346.41   66.52
   0  -2  -6 1378.09   73.50
   0  -2  -6 1323.16   71.20
   0  -2  -6 1360.88   71.82
   0  -2  -6 1342.91   69.04
   0   2   7  103.15    6.38
   0   2   7   99.61    4.71
   0   2   7   99.88    4.03
   0  -2  -7  104.11    5.39
   0  -2  -7   90.72    4.61
   0  -2  -7   89.37    4.14
   0  -2  -7   96.79    4.79
   0  -2  -7   93.78    5.35
   0   2   8  175.43    9.16
   0  -2  -8  178.32    8.83
   0  -2  -8  175.00    8.66
   0   2   9    4.82    1.32
   0  -2  -9    5.57    2.52
   0  -2  -9    5.28    2.28
   0   2  10   86.70    5.25
   0  -2 -10   85.31    5.27
   0  -2 -10   87.51    5.68
   0   2  11   39.06    4.56
   0  -2 -11   42.61    3.58
   0  -2 -11   45.06    5.18
   0   2  12  116.94    6.83
   0  -2 -12  123.54    7.32
   0  -2 -12  119.09    8.16
   0   2  13    6.37    1.72
   0  -2 -13    6.62    2.39
   0  -2 -13    7.96    1.75
   0   3 -11   55.27    3.11
   0  -3  11   53.85    3.35
   0   3 -10   41.78    4.15
   0   3 -10   41.28    3.37
   0  -3  10   41.81    4.55
   0   3  -9   10.49    1.64
   0   3  -9    9.98    1.91
   0  -3   9    8.41    3.26
   0   3  -8   21.90    3.10
   0   3  -8   21.91    3.75
   0  -3   8   22.62    3.99
   0   3  -7   54.67    4.54
   0   3  -7   53.02    3.85
   0  -3   7   55.79    4.14
   0   3  -6  180.60    9.68
   0   3  -6  170.67    7.67
   0   3  -6  188.76    9.64
   0  -3   6  192.69   11.27
   0   3  -5  107.38    5.34
   0   3  -5  117.58    5.64
   0   3  -5  116.32    6.78
   0  -3   5  107.04    4.64
   0  -3   5  121.89    7.31
   0   3  -4  608.15   30.08
   0   3  -4  660.78   31.38
   0   3  -4  653.87   32.78
   0   3  -4  568.96   27.46
   0  -3   4  635.73   30.00
   0  -3   4  642.77   32.95
   0  -3   4  653.50   31.95
   0   3  -3 2074.84  120.96
   0   3  -3 2362.14  137.95
   0   3  -3 2338.02  137.10
   0   3  -3 2233.38  129.73
   0  -3   3 2346.18  135.60
   0  -3   3 2245.12  130.09
   0  -3   3 2144.96  120.64
   0  -3   3 2318.26  138.35
   0  -3   3 2358.62  138.07
   0   3  -2 2149.67  121.68
   0   3  -2 2131.46  119.48
   0   3  -2 2189.90  122.91
   0   3  -2 1781.78  100.86
   0  -3   2 2094.37  118.55
   0  -3   2 1931.41  105.99
   0  -3   2 1994.06  112.30
   0  -3   2 2072.76  118.66
   0  -3   2 2162.34  121.06
   0   3  -1  176.82    7.35
   0   3  -1  199.69    8.16
   0   3  -1  202.14    7.79
   0   3  -1  192.48    7.96
   0  -3   1  201.99    8.71
   0  -3   1  218.65    8.29
   0  -3   1  197.87    8.52
   0  -3   1  215.66    9.02
   0  -3   1  199.92    8.26
   0   3   0  113.75    4.78
   0   3   0  138.62    5.43
   0   3   0  134.53    5.84
   0   3   0  137.90    5.02
   0   3   0  144.44    4.78
   0  -3   0  138.72    5.50
   0  -3   0  137.19    5.79
   0  -3   0  124.83    4.83
   0  -3   0  139.58    5.94
   0   3   1  123.18    4.42
   0   3   1  126.57    5.59
   0   3   1  119.89    4.90
   0   3   1   96.79    4.46
   0  -3  -1  109.75    4.18
   0  -3  -1  122.71    5.11
   0  -3  -1  116.74    5.49
   0   3   2 2975.38  177.37
   0   3   2 2942.23  176.82
   0   3   2 2822.36  169.82
   0   3   2 3298.26  201.35
   0  -3  -2 2936.43  179.47
   0  -3  -2 3236.30  185.55
   0  -3  -2 3078.64  184.88
   0  -3  -2 3075.88  184.76
   0  -3  -2 3004.43  172.07
   0   3   3   23.46    1.53
   0   3   3   20.97    1.23
   0   3   3   22.66    1.08
   0   3   3   22.61    1.45
   0  -3  -3   23.90    1.53
   0  -3  -3   23.16    1.99
   0  -3  -3   23.37    0.91
   0  -3  -3   21.82    1.32
   0  -3  -3   20.94    0.94
   0   3   4   40.54    1.74
   0   3   4   41.88    1.85
   0   3   4   40.70    2.01
   0  -3  -4   43.07    1.66
   0  -3  -4   42.72    2.15
   0  -3  -4   39.55    2.02
   0  -3  -4   39.90    1.78
   0   3   5 1177.39   61.48
   0   3   5 1069.68   52.27
   0   3   5 1257.99   62.94
   0  -3  -5 1181.58   59.23
   0  -3  -5 1127.26   57.99
   0  -3  -5 1093.21   57.37
   0  -3  -5 1130.29   57.20
   0  -3  -5 1058.85   51.93
   0   3   6  764.83   38.64
   0   3   6  693.33   31.22
   0   3   6  806.13   38.11
   0   3   6  712.79   34.32
   0  -3  -6  792.89   38.64
   0  -3  -6  733.91   36.49
   0  -3  -6  672.17   34.31
   0  -3  -6  800.47   37.15
   0  -3  -6  732.67   34.96
   0   3   7  123.23    5.63
   0   3   7  126.70    7.40
   0   3   7  118.55    5.07
   0  -3  -7  115.81    5.91
   0  -3  -7  126.60    6.25
   0  -3  -7  118.79    5.23
   0  -3  -7  117.30    5.60
   0  -3  -7  115.55    6.04
   0   3   8  659.80   33.44
   0   3   8  629.95   29.22
   0  -3  -8  633.62   32.04
   0  -3  -8  651.85   32.40
   0  -3  -8  572.71   29.56
   0   3   9  322.16   16.74
   0  -3  -9  324.44   17.13
   0  -3  -9  335.96   17.74
   0   3  10   12.99    1.86
   0  -3 -10   14.03    3.00
   0  -3 -10   14.77    2.15
   0   3  11   62.48    4.25
   0  -3 -11   60.01    4.20
   0  -3 -11   62.04    5.64
   0  -3 -12   10.07    1.91
   0  -3 -12   10.57    1.99
   0   3  13   61.15    5.04
   0  -3 -13   61.17    4.96
   0  -3 -13   67.36    5.40
   0   3  14    1.84    1.71
   0  -3 -14    1.25    1.56
   0  -3 -14    1.54    1.49
   0   4 -10    7.09    1.89
   0  -4  10    6.94    2.25
   0   4  -9   23.95    2.32
   0  -4   9   24.36    2.68
   0   4  -8   46.02    4.59
   0  -4   8   44.83    5.14
   0   4  -7   22.33    2.44
   0  -4   7   21.29    2.81
   0   4  -6   24.48    2.30
   0   4  -6   25.11    2.43
   0  -4   6   26.87    4.01
   0   4  -5   67.66    3.57
   0   4  -5   70.12    5.10
   0   4  -5   64.35    3.46
   0  -4   5   72.43    5.80
   0   4  -4    0.10    0.97
   0   4  -4    5.16    0.89
   0   4  -4    4.55    0.76
   0   4  -4    4.10    1.78
   0  -4   4    4.12    2.04
   0   4  -3   12.96    1.64
   0   4  -3   12.24    1.26
   0   4  -3   11.18    1.15
   0   4  -3   15.80    1.45
   0  -4   3   13.27    1.62
   0  -4   3   12.32    0.96
   0  -4   3   21.23    1.51
   0  -4   3   11.66    1.14
   0  -4   3   12.40    1.32
   0   4  -2   18.95    1.74
   0   4  -2   19.21    1.45
   0   4  -2   15.76    1.32
   0   4  -2   18.69    1.23
   0  -4   2   20.26    1.73
   0  -4   2   19.44    1.56
   0  -4   2   22.31    1.48
   0  -4   2   17.25    1.08
   0  -4   2   17.92    1.34
   0   4  -1  157.47    6.65
   0   4  -1  139.87    5.22
   0   4  -1  122.93    5.96
   0   4  -1  149.35    6.37
   0  -4   1  151.59    7.66
   0  -4   1  140.93    5.93
   0  -4   1  146.78    6.26
   0  -4   1  148.75    6.12
   0  -4   1  121.92    5.18
   0   4   0   25.20    1.45
   0   4   0   21.58    2.05
   0   4   0   28.53    1.92
   0  -4   0   23.46    1.40
   0  -4   0   22.39    1.15
   0  -4   0   25.93    1.91
   0  -4   0   25.97    2.35
   0   4   1  797.33   37.38
   0   4   1  652.42   31.12
   0   4   1  791.55   38.49
   0   4   1  833.83   38.60
   0   4   1  794.83   37.51
   0  -4  -1  773.23   37.76
   0  -4  -1  744.09   35.17
   0  -4  -1  855.92   40.70
   0   4   2  383.82   16.39
   0   4   2  415.22   18.37
   0   4   2  396.18   17.36
   0   4   2  380.41   17.06
   0  -4  -2  377.67   17.11
   0  -4  -2  386.17   16.80
   0  -4  -2  405.86   17.41
   0   4   3  137.10    5.81
   0   4   3  152.22    7.23
   0   4   3  139.70    6.00
   0   4   3  138.12    5.39
   0  -4  -3  135.41    6.67
   0  -4  -3  144.78    6.19
   0  -4  -3  139.52    6.03
   0   4   4  260.96   12.26
   0   4   4  232.90    9.78
   0   4   4  226.47    9.13
   0   4   4  247.64   10.28
   0  -4  -4  230.01    8.97
   0  -4  -4  239.15    9.00
   0  -4  -4  237.59   10.62
   0  -4  -4  250.73   10.82
   0  -4  -4  244.14   11.45
   0   4   5  112.08    6.08
   0   4   5  113.13    5.18
   0   4   5  110.62    4.48
   0   4   5  108.07    4.40
   0  -4  -5  106.33    4.38
   0  -4  -5  114.51    6.01
   0  -4  -5  111.57    5.12
   0  -4  -5  111.25    4.24
   0  -4  -5  112.92    5.21
   0   4   6  273.68   11.28
   0   4   6  295.19   14.15
   0   4   6  303.24   12.80
   0  -4  -6  286.13   14.18
   0  -4  -6  278.70   11.54
   0  -4  -6  292.57   13.50
   0  -4  -6  310.69   13.69
   0  -4  -6  297.41   13.10
   0   4   7   82.81    3.93
   0   4   7   78.90    3.75
   0   4   7   86.54    4.80
   0  -4  -7   75.81    4.80
   0  -4  -7   80.51    4.68
   0  -4  -7   86.90    4.67
   0  -4  -7   72.64    3.28
   0  -4  -7   82.35    4.28
   0   4   8  272.24   12.14
   0   4   8  278.59   13.06
   0  -4  -8  272.53   13.99
   0  -4  -8  278.98   12.66
   0  -4  -8  251.84   13.22
   0  -4  -8  276.44   12.81
   0   4   9   47.33    3.92
   0  -4  -9   43.59    3.62
   0  -4  -9   43.52    3.10
   0  -4  -9   48.42    3.87
   0   4  10   50.17    4.37
   0  -4 -10   50.50    3.43
   0  -4 -10   51.22    3.60
   0   4  11   34.82    2.90
   0  -4 -11   33.57    4.12
   0  -4 -11   36.01    3.83
   0   4  12    6.65    1.69
   0  -4 -12    5.82    2.57
   0  -4 -12    6.69    1.55
   0   4  13   14.27    2.94
   0  -4 -13   14.65    1.78
   0  -4 -13   13.78    1.87
   0   4  14   20.93    2.81
   0  -4 -14   20.29    1.73
   0  -4 -14   20.35    2.24
   0   5  -9   25.15    1.91
   0  -5   9   25.28    2.17
   0   5  -8   15.08    2.66
   0  -5   8   13.66    3.07
   0   5  -7   64.74    4.22
   0  -5   7   64.72    4.75
   0   5  -6  296.72   15.27
   0   5  -6  264.72   12.45
   0  -5   6  304.52   16.75
   0   5  -5   20.66    3.15
   0   5  -5   19.06    2.48
   0  -5   5   20.41    3.87
   0   5  -4  184.56    9.10
   0   5  -4  195.71   10.80
   0  -5   4  203.83   12.20
   0   5  -3  145.99    7.23
   0   5  -3  139.75    6.97
   0  -5   3  145.54    8.93
   0   5  -2  203.22    9.59
   0   5  -2  198.81    9.39
   0   5  -2  205.41    9.57
   0   5  -2  181.29    9.32
   0  -5   2  179.36    7.84
   0  -5   2  206.66   10.16
   0  -5   2  208.42   10.45
   0  -5   2  199.74    9.00
   0   5  -1  158.00    7.36
   0   5  -1  176.62    8.19
   0   5  -1  173.19    8.05
   0   5  -1  182.65    8.72
   0  -5   1  182.65    9.70
   0  -5   1  173.98    8.16
   0  -5   1  179.56    8.54
   0  -5   1  157.29    6.96
   0   5   0  370.24   17.16
   0   5   0  375.69   17.16
   0   5   0  311.87   15.10
   0   5   0  384.89   18.08
   0  -5   0  379.74   17.65
   0  -5   0  360.35   17.99
   0  -5   0  362.98   16.47
   0  -5   0  344.03   15.81
   0   5   1    2.86    0.56
   0   5   1    3.32    0.69
   0   5   1    3.22    0.77
   0   5   1    3.31    1.36
   0   5   1    3.38    0.99
   0  -5  -1    3.29    0.74
   0  -5  -1    2.84    0.68
   0  -5  -1    3.60    0.94
   0   5   2   84.41    4.50
   0   5   2   83.33    3.89
   0   5   2   81.75    3.84
   0  -5  -2   87.12    3.85
   0  -5  -2   78.25    3.97
   0  -5  -2   75.57    4.02
   0   5   3  260.95   11.95
   0   5   3  275.57   11.45
   0   5   3  266.49   11.89
   0   5   3  260.26   11.61
   0  -5  -3  258.21   12.74
   0  -5  -3  262.20   11.84
   0  -5  -3  265.14   11.50
   0   5   4  584.61   27.65
   0   5   4  616.10   28.52
   0   5   4  570.25   26.45
   0   5   4  586.40   28.82
   0  -5  -4  587.74   29.58
   0  -5  -4  548.08   27.31
   0  -5  -4  616.12   29.19
   0   5   5   87.57    3.73
   0   5   5   80.66    3.70
   0   5   5   81.72    4.18
   0   5   5   85.80    4.53
   0  -5  -5   86.34    3.92
   0  -5  -5   76.06    4.58
   0  -5  -5   80.73    4.22
   0   5   6  442.91   22.60
   0   5   6  389.05   17.81
   0   5   6  425.62   18.80
   0   5   6  381.20   16.86
   0  -5  -6  413.57   20.25
   0  -5  -6  373.79   18.81
   0  -5  -6  395.15   18.85
   0   5   7  208.69   10.65
   0   5   7  197.26    8.55
   0  -5  -7  210.21    9.60
   0  -5  -7  185.14    9.55
   0  -5  -7  190.04    9.07
   0   5   8  140.63    7.44
   0  -5  -8  140.73    7.88
   0  -5  -8  142.38    7.02
   0  -5  -8  136.14    8.13
   0  -5  -8  144.82    6.49
   0   5   9  174.14    8.56
   0  -5  -9  162.79    9.53
   0  -5  -9  164.28    9.40
   0  -5  -9  165.13    7.95
   0   5  10   56.43    3.67
   0  -5 -10   56.73    4.83
   0  -5 -10   56.32    4.03
   0   5  11  153.03    9.28
   0  -5 -11  148.95    8.08
   0  -5 -11  144.37    7.46
   0   5  12   34.63    3.82
   0  -5 -12   36.56    2.91
   0  -5 -12   35.30    3.22
   0   5  13   62.56    4.86
   0  -5 -13   60.58    3.35
   0  -5 -13   63.72    4.79
   0   5  14    9.76    2.01
   0  -5 -14    9.73    1.91
   0   6  -8   19.90    1.58
   0  -6   8   20.18    1.76
   0   6  -7    4.32    1.83
   0  -6   7    2.77    2.26
   0   6  -6  107.82    5.86
   0   6  -6   96.64    4.60
   0  -6   6  105.82    6.53
   0   6  -5  129.01    6.39
   0   6  -5  139.36    8.51
   0  -6   5  136.02    9.53
   0   6  -4  183.33   10.41
   0   6  -4  179.24    9.87
   0  -6   4  179.23   11.56
   0   6  -3  157.34    9.18
   0   6  -3  155.81    8.94
   0  -6   3  159.13   10.17
   0   6  -2   53.73    4.62
   0   6  -2   53.27    3.19
   0  -6   2   51.25    3.68
   0   6  -1  359.22   18.32
   0   6  -1  341.45   16.83
   0  -6   1  317.11   15.07
   0  -6   1  296.08   14.06
   0  -6   1  328.24   17.71
   0   6   0   37.61    3.69
   0   6   0   37.98    2.26
   0   6   0   36.30    2.22
   0  -6   0   35.14    2.64
   0  -6   0   35.40    2.15
   0  -6   0   37.08    2.26
   0  -6   0   31.72    2.37
   0   6   1  328.94   16.19
   0   6   1  322.65   15.07
   0   6   1  283.40   14.08
   0   6   1  320.56   15.08
   0  -6  -1  314.81   14.45
   0  -6  -1  315.42   14.58
   0  -6  -1  292.16   14.03
   0  -6  -1  298.22   15.55
   0   6   2  176.92    8.05
   0   6   2  167.57    7.87
   0   6   2  163.09    7.09
   0  -6  -2  169.92    8.71
   0  -6  -2  169.11    7.72
   0  -6  -2  161.17    9.07
   0   6   3  266.01   12.43
   0   6   3  260.84   12.29
   0   6   3  247.61   11.81
   0   6   3  273.90   12.45
   0  -6  -3  264.67   12.04
   0  -6  -3  256.95   13.43
   0  -6  -3  257.63   12.22
   0   6   4  132.88    6.52
   0   6   4  133.82    5.82
   0   6   4  131.56    6.43
   0   6   4  120.12    5.80
   0  -6  -4  140.65    7.91
   0  -6  -4  129.07    7.33
   0  -6  -4  128.05    5.88
   0   6   5  306.76   14.14
   0   6   5  342.27   17.69
   0   6   5  341.30   16.00
   0   6   5  357.62   15.89
   0  -6  -5  340.52   16.22
   0  -6  -5  322.93   15.99
   0  -6  -5  332.20   17.06
   0   6   6  397.69   19.29
   0  -6  -6  481.37   23.08
   0  -6  -6  421.74   22.49
   0  -6  -6  392.07   19.57
   0  -6  -7   32.94    3.83
   0  -6  -7   31.01    2.44
   0   6   8  585.48   29.23
   0  -6  -8  590.91   30.99
   0  -6  -8  587.57   32.57
   0   6   9  256.23   13.43
   0  -6  -9  248.37   12.58
   0  -6  -9  242.02   12.94
   0   6  10   66.46    4.88
   0  -6 -10   58.60    4.07
   0  -6 -10   63.23    4.00
   0   6  11  292.14   15.79
   0  -6 -11  278.67   15.42
   0   6  12  112.16    6.13
   0  -6 -12  108.85    7.04
   0   6  13   61.34    3.79
   0  -6 -13   56.50    4.30
   0   6  14   21.82    1.77
   0  -6 -14   22.77    2.23
   0   7  -7   21.61    1.90
   0   7  -6   20.52    1.69
   0   7  -6   19.01    1.28
   0  -7   6   19.46    1.97
   0   7  -5   92.04    4.59
   0   7  -5   95.63    5.07
   0  -7   5   92.73    5.63
   0   7  -4   35.91    3.53
   0   7  -4   36.99    3.41
   0  -7   4   34.73    4.31
   0   7  -3  104.41    5.77
   0   7  -3  103.29    6.54
   0  -7   3  103.61    7.67
   0   7  -2  237.53   11.81
   0   7  -2  240.49   12.23
   0  -7   2  235.41   12.84
   0   7  -1   81.44    4.43
   0   7  -1   87.42    5.11
   0  -7   1   82.17    5.16
   0   7   0  123.18    6.50
   0   7   0  114.79    6.44
   0  -7   0   93.61    4.96
   0  -7   0  108.25    7.24
   0   7   1   81.16    4.22
   0   7   1   88.88    4.94
   0  -7  -1   82.73    4.45
   0  -7  -1   80.25    4.86
   0   7   2    5.55    1.97
   0   7   2    4.32    0.94
   0  -7  -2    3.82    1.18
   0  -7  -2    4.86    2.06
   0   7   3  410.20   18.92
   0   7   3  314.14   14.89
   0  -7  -3  295.56   16.40
   0  -7  -3  300.14   15.95
   0   7   4  104.36    5.57
   0  -7  -4  106.47    6.95
   0  -7  -4  119.93    6.52
   0   7   5  157.04    7.89
   0   7   5  149.01    7.30
   0  -7  -5  157.63    8.11
   0  -7  -5  160.42    8.51
   0   7   6  190.41    9.42
   0   7   6  191.05    9.02
   0  -7  -6  208.92   12.22
   0  -7  -6  187.29    9.56
   0   7   7   90.06    4.48
   0  -7  -7  100.41    7.34
   0  -7  -7   88.70    5.11
   0   7   8  150.60    7.44
   0  -7  -8  153.83    8.96
   0  -7  -8  149.64    7.72
   0   7   9  405.64   21.00
   0  -7  -9  403.13   20.56
   0  -7  -9  418.41   22.59
   0   7  10   78.14    4.43
   0  -7 -10   69.65    5.22
   0  -7 -10   71.43    6.11
   0   7  11   39.39    2.82
   0  -7 -11   36.35    3.85
   0  -7 -11   36.66    3.68
   0   7  12   27.95    2.33
   0  -7 -12   26.58    3.04
   0   7  13  207.06   10.91
   0  -7 -13  193.49    9.87
   0   8  -5   32.17    1.90
   0   8  -5   31.22    1.79
   0  -8   5   30.03    2.64
   0   8  -4    1.31    0.84
   0   8  -4    1.96    1.39
   0  -8   4    0.71    1.03
   0   8  -3   17.71    1.89
   0   8  -3   16.33    2.38
   0  -8   3   15.67    2.05
   0   8  -2   45.40    4.38
   0   8  -2   42.00    2.80
   0  -8   2   39.75    3.29
   0   8  -1   35.45    4.09
   0   8  -1   32.11    2.40
   0  -8   1   30.26    2.90
   0   8   0  205.17   12.04
   0   8   0  201.15   10.69
   0  -8   0  202.56   10.24
   0  -8   0  194.19   11.89
   0   8   1  236.93   12.37
   0   8   1  246.17   14.00
   0  -8  -1  241.89   13.55
   0  -8  -1  232.59   13.82
   0   8   2 1111.01   61.97
   0   8   2 1234.47   68.14
   0  -8  -2 1208.19   70.24
   0  -8  -2 1111.50   65.85
   0   8   3  114.38    5.79
   0   8   3  116.95    6.21
   0  -8  -3  123.86    7.07
   0  -8  -3  115.78    6.68
   0   8   4  138.48    7.92
   0   8   4  237.49   10.98
   0  -8  -4  131.83    8.57
   0  -8  -4  148.36    8.47
   0   8   5    3.32    1.38
   0  -8  -5    2.93    2.13
   0  -8  -5    3.52    2.50
   0   8   6    3.22    1.27
   0   8   6    3.28    1.39
   0  -8  -6    3.74    1.74
   0  -8  -6    2.86    1.24
   0   8   7  162.32    7.75
   0  -8  -7  159.12    8.47
   0  -8  -7  178.74   11.60
   0   8   8   29.90    2.21
   0  -8  -8   31.52    3.43
   0  -8  -8   28.30    2.31
   0   8   9  123.23    6.98
   0  -8  -9  125.19    7.44
   0  -8  -9  131.77    9.52
   0   8  10   45.45    2.90
   0  -8 -10   42.05    3.67
   0  -8 -10   45.58    4.97
   0   8  11    1.30    0.96
   0  -8 -11    1.68    2.00
   0  -8 -11    0.93    1.46
   0   8  12  146.00    7.81
   0  -8 -12  134.70    7.30
   0  -8 -12  135.93    7.17
   0   8  13  120.57    6.40
   0  -8 -13  110.90    5.51
   0   9  -4    4.67    1.27
   0   9  -3    0.15    0.73
   0   9  -3    0.12    0.50
   0  -9   3    0.22    1.01
   0   9  -2   67.19    4.94
   0   9  -2   57.67    3.05
   0  -9   2   56.88    3.47
   0   9  -1   15.20    2.94
   0   9  -1   14.42    1.43
   0  -9   1   13.79    1.85
   0   9   0  178.33   10.53
   0   9   0  167.89    8.84
   0  -9   0  166.15   10.08
   0   9   1   78.29    4.86
   0   9   1   78.64    5.99
   0  -9  -1   78.50    6.07
   0  -9  -1   80.41    5.81
   0   9   2  297.82   14.37
   0   9   2  298.18   16.24
   0  -9  -2  291.95   16.46
   0  -9  -2  296.69   15.73
   0   9   3  315.48   16.92
   0   9   3  301.10   15.29
   0  -9  -3  292.89   16.71
   0  -9  -3  309.97   17.80
   0   9   4   28.53    2.13
   0   9   4   27.01    2.24
   0  -9  -4   26.35    2.53
   0  -9  -4   29.46    4.45
   0   9   5   42.81    3.51
   0  -9  -5   42.99    3.83
   0  -9  -5   38.36    3.82
   0   9   6    0.90    1.21
   0   9   6    0.92    1.20
   0  -9  -6    1.65    1.62
   0  -9  -6    0.90    1.73
   0  -9  -7   39.84    2.98
   0  -9  -7   47.89    5.84
   0   9   8   32.10    2.21
   0  -9  -8   30.43    2.32
   0  -9  -8   36.23    3.71
   0   9   9  167.68    8.71
   0  -9  -9  169.34    8.36
   0  -9  -9  189.09   10.83
   0   9  10   43.93    2.61
   0  -9 -10   46.45    5.07
   0  -9 -10   41.55    3.28
   0   9  11   84.98    4.22
   0  -9 -11   89.50    6.30
   0  -9 -11   78.23    4.49
   0   9  12   16.20    1.36
   0  -9 -12   16.43    2.20
   0  -9 -12   15.71    1.59
   0  10  -2   15.17    2.18
   0  10  -1   38.62    3.57
   0  10   0   46.16    3.11
   0  10   1    8.97    1.62
   0  10   2   52.37    3.44
   0 -10  -2   47.40    4.19
   0  10   3   46.60    4.02
   0 -10  -3   47.18    3.17
   0 -10  -3   48.50    4.67
   0  10   4   44.58    3.86
   0 -10  -4   41.02    3.60
   0 -10  -4   44.50    4.85
   0  10   5   38.62    2.56
   0 -10  -5   37.54    2.68
   0 -10  -5   40.82    4.88
   0  10   6   68.73    3.62
   0 -10  -6   64.67    4.60
   0 -10  -6   72.34    6.88
   0 -10  -7   93.61    6.47
   0  10   8   13.36    1.26
   0 -10  -8   15.36    3.89
   0  10   9   33.77    2.49
   0 -10  -9   37.21    3.52
   0  10  10   18.70    1.81
   0 -10 -10   20.69    3.66
   0  10  11   32.95    2.18
   0 -10 -11   35.58    3.68
   0  11   1    2.55    1.01
   0  11   2   42.63    2.72
   0  11   3   11.18    1.43
   0 -11  -3    9.69    1.99
   0  11   4   38.05    3.05
   0 -11  -4   35.89    2.74
   0  11   5   10.93    1.23
   0 -11  -5   12.33    1.89
   0  11   6   20.56    1.94
   0 -11  -6   21.23    3.64
   0 -11  -7   72.56    6.31
   0 -11  -8   78.38    5.17
   0 -11  -9   53.38    5.21
   0 -11 -10   66.66    4.16
   1 -11  -8   20.92    3.28
   1 -11  -8   19.78    1.87
   1 -11  -7    7.61    1.75
   1 -11  -7    7.60    1.02
   1 -11  -6   15.89    2.11
  -1  11   6   14.50    1.85
   1 -11  -5   13.06    3.00
  -1  11   5   21.75    1.38
  -1  11   5   13.40    1.46
   1 -11  -4    5.21    2.23
  -1  11   4    4.80    1.75
   1 -11  -3    5.56    1.96
  -1  11   3    4.69    0.77
  -1  11   3    6.51    1.76
  -1  11   2    9.63    1.33
   1 -10 -10   79.26    4.71
   1 -10 -10   93.12    5.94
   1 -10  -9    2.92    2.33
   1 -10  -9    2.89    1.67
   1 -10  -8   27.66    2.23
   1 -10  -8   29.78    3.03
   1 -10  -7   41.88    5.05
  -1  10   7   39.52    2.96
   1 -10  -6   30.49    3.20
  -1  10   6   29.32    2.25
  -1  10   6   49.12    3.53
   1 -10  -5   13.46    2.37
  -1  10   5   11.93    1.59
   1 -10  -4   49.54    5.35
  -1  10   4   53.42    3.90
  -1  10   4   43.77    3.13
   1 -10  -3   39.59    4.38
  -1  10   3   37.18    2.54
   1 -10  -2   23.69    3.24
  -1  10   2   20.45    2.57
  -1  10   2   22.01    3.08
   1 -10  -1   40.68    3.71
  -1  10   1   39.68    3.32
  -1  10   1   41.23    3.89
   1 -10   0   44.29    2.48
  -1  10   0   48.56    3.89
  -1  10   0   45.98    3.33
  -1  10  -1    6.03    1.43
  -1  10  -1    5.81    1.76
   1  -9 -12   61.78    3.07
   1  -9 -11   47.95    2.91
   1  -9 -11   47.27    3.43
   1  -9 -10  153.34    8.10
   1  -9 -10  150.15    7.70
   1  -9  -9    3.75    2.17
   1  -9  -9    3.98    2.60
   1  -9  -8   49.57    3.54
   1  -9  -8   51.25    5.59
   1  -9  -7  154.19    9.18
  -1   9   7  148.28    7.61
  -1   9   7  150.74    8.12
   1  -9  -6  144.17   10.36
  -1   9   6  134.72    7.07
  -1   9   6  135.02    7.69
   1  -9  -5   63.04    4.92
  -1   9   5  104.39    6.15
  -1   9   5   59.53    3.86
   1  -9  -4   53.01    4.28
  -1   9   4   47.42    4.30
  -1   9   4   47.43    3.25
   1  -9  -3   28.88    4.39
  -1   9   3   38.89    3.73
  -1   9   3   25.28    2.54
   1  -9  -2    2.20    2.45
  -1   9   2    2.38    1.23
  -1   9   2    2.79    2.25
   1  -9  -1  136.94    8.81
  -1   9   1  130.22    8.49
  -1   9   1  124.23    7.67
   1  -9   0   27.47    3.22
  -1   9   0   27.65    3.71
  -1   9   0   27.78    3.33
  -1   9  -1  146.53    8.91
  -1   9  -1  150.36    7.63
  -1   9  -2    3.03    1.02
  -1   9  -2    1.29    1.01
  -1   9  -3    7.66    1.45
  -1   9  -3    7.24    1.12
   1  -8 -12    1.23    0.99
   1  -8 -11   77.96    4.59
   1  -8 -10  224.22   11.75
   1  -8 -10  239.23   12.35
   1  -8  -9   54.80    4.02
   1  -8  -9   52.97    4.97
   1  -8  -8   -0.05    1.59
   1  -8  -8   31.73    3.36
   1  -8  -7   47.11    5.26
  -1   8   7   44.40    4.03
  -1   8   7   46.14    2.84
   1  -8  -6    3.27    1.68
  -1   8   6    2.58    1.19
  -1   8   6    2.91    1.62
   1  -8  -5   64.88    6.25
  -1   8   5   70.30    4.19
  -1   8   5   60.94    4.60
   1  -8  -4   44.52    4.72
  -1   8   4   42.85    3.00
   1  -8  -3   57.60    4.10
  -1   8   3   57.63    4.93
  -1   8   3   58.53    3.77
   1  -8  -2    5.37    2.54
  -1   8   2    5.33    2.27
  -1   8   2    5.53    2.31
   1  -8  -1   39.19    4.23
  -1   8   1   39.13    3.14
  -1   8   1   38.72    3.03
   1  -8   0   18.05    2.91
  -1   8   0   18.41    3.15
  -1   8   0   19.17    2.24
   1  -8   1   57.66    3.49
  -1   8  -1   60.57    3.89
  -1   8  -1   60.86    5.14
  -1   8  -2  199.36   10.29
  -1   8  -2  188.65    9.64
  -1   8  -3   27.58    2.79
  -1   8  -3   29.05    2.48
  -1   8  -4   37.81    2.18
  -1   8  -4   40.32    2.71
  -1   8  -5    2.22    1.42
   1  -7 -13  178.10    8.49
   1  -7 -12    2.41    1.25
  -1   7  12    2.81    0.81
   1  -7 -11  237.71   12.32
  -1   7  11  222.10   11.00
   1  -7 -10  224.56   12.00
  -1   7  10  227.70   11.50
   1  -7  -9  135.34    8.81
   1  -7  -9  125.61    8.26
  -1   7   9  126.46    6.78
   1  -7  -8  231.39   13.30
   1  -7  -8  798.80   36.23
   1  -7  -7   14.35    3.24
  -1   7   7   13.08    1.96
  -1   7   7   12.42    2.55
   1  -7  -6  100.21    5.94
  -1   7   6   97.81    5.25
  -1   7   6   95.40    5.55
   1  -7  -5   12.76    2.80
  -1   7   5   13.91    1.67
  -1   7   5   13.21    2.15
   1  -7  -4   29.41    2.59
  -1   7   4   28.65    2.22
   1  -7  -3   81.77    5.71
  -1   7   3   80.18    5.30
  -1   7   3  122.67    6.77
   1  -7  -2   79.75    4.50
  -1   7   2   77.03    4.37
  -1   7   2   78.17    4.43
   1  -7  -1  413.00   20.73
  -1   7   1  416.78   22.36
  -1   7   1  422.71   22.50
   1  -7   0 1182.43   67.09
  -1   7   0 1211.92   68.21
  -1   7   0 1201.51   68.57
   1  -7   1 1185.59   66.20
  -1   7  -1 1254.77   72.06
  -1   7  -1 1270.38   73.69
   1  -7   2   41.36    2.56
  -1   7  -2   46.06    4.71
  -1   7  -2   46.38    4.36
  -1   7  -3  113.45    6.91
  -1   7  -3  113.99    6.56
  -1   7  -4   14.89    1.47
  -1   7  -4   15.58    2.06
  -1   7  -5    6.88    1.50
  -1   7  -6    6.95    2.02
   1  -6 -13   21.78    2.05
  -1   6  13   20.57    1.55
   1  -6 -12   11.58    1.80
  -1   6  12   10.70    1.95
   1  -6 -11   91.64    5.58
  -1   6  11   86.58    5.27
   1  -6 -10  233.51   13.59
  -1   6  10  220.39   11.50
   1  -6  -9  189.60   10.90
   1  -6  -9  200.13   11.96
  -1   6   9  191.90    9.27
   1  -6  -8  652.42   35.86
   1  -6  -8  674.27   35.57
  -1   6   8  610.86   31.23
   1  -6  -7  184.59   10.58
  -1   6   7  176.74    8.67
  -1   6   7  182.59    8.94
  -1   6   7  168.07    8.09
   1  -6  -6   65.97    3.96
  -1   6   6   66.73    3.66
  -1   6   6   65.47    3.97
  -1   6   6   58.87    2.82
   1  -6  -5    6.34    1.33
   1  -6  -5    6.13    1.29
  -1   6   5    6.65    1.62
  -1   6   5    7.23    0.99
  -1   6   5    6.89    1.23
   1  -6  -4  179.63    8.42
   1  -6  -4  223.39   11.36
  -1   6   4  220.18   10.32
  -1   6   4  232.22   10.63
  -1   6   4  236.11   10.92
   1  -6  -3   21.60    1.82
   1  -6  -3   19.33    1.38
  -1   6   3   19.46    1.64
  -1   6   3   20.91    1.35
   1  -6  -2  158.97    8.17
  -1   6   2  162.58    8.55
  -1   6   2  187.68    9.45
   1  -6  -1   88.90    4.40
  -1   6   1   89.08    5.39
  -1   6   1   93.15    4.81
   1  -6   0  150.62    7.03
  -1   6   0  153.87    8.53
  -1   6   0  148.51    7.36
   1  -6   1  574.59   28.36
  -1   6  -1  591.90   30.35
  -1   6  -1  588.67   29.70
   1  -6   2   71.08    3.66
  -1   6  -2   74.00    4.23
  -1   6  -2   80.11    6.10
   1  -6   3   65.49    3.33
  -1   6  -3   73.93    4.11
  -1   6  -3   74.39    6.33
  -1   6  -4  144.01    7.81
  -1   6  -4  156.04    8.53
  -1   6  -5   77.74    4.94
  -1   6  -6    8.00    2.69
  -1   6  -7    8.92    2.32
  -1   6  -8  107.23    5.26
   1  -5 -13    8.68    1.52
   1  -5 -13    9.84    2.39
  -1   5  13    9.19    1.84
   1  -5 -12   46.09    3.50
   1  -5 -12   47.90    4.64
  -1   5  12   46.51    3.73
   1  -5 -11   16.08    1.67
   1  -5 -11   17.63    3.37
  -1   5  11   17.67    2.71
   1  -5 -10   30.93    2.86
   1  -5 -10   29.91    2.14
  -1   5  10   29.79    2.27
   1  -5  -9   29.31    2.70
   1  -5  -9   27.59    2.66
  -1   5   9   27.32    2.67
   1  -5  -8  271.76   13.69
   1  -5  -8  277.40   12.73
   1  -5  -8  293.76   14.77
  -1   5   8  289.22   14.16
   1  -5  -7  424.41   21.05
  -1   5   7  415.36   19.30
  -1   5   7  427.89   20.53
  -1   5   7  382.54   18.25
   1  -5  -6   34.27    2.35
  -1   5   6   33.14    1.75
  -1   5   6   37.54    1.91
  -1   5   6   37.49    2.99
  -1   5   6   35.61    2.99
  -1   5   6   34.37    1.98
   1  -5  -5   36.64    2.03
   1  -5  -5   45.09    2.61
   1  -5  -5   45.24    3.23
  -1   5   5   45.61    3.03
  -1   5   5   47.12    3.26
  -1   5   5   43.90    2.16
  -1   5   5   44.40    2.36
   1  -5  -4  117.37    5.49
   1  -5  -4  131.18    5.99
   1  -5  -4  100.60    5.00
  -1   5   4  120.49    5.82
  -1   5   4  118.88    5.39
  -1   5   4  114.78    4.97
  -1   5   4  122.98    6.30
   1  -5  -3  462.56   21.54
   1  -5  -3  435.26   20.56
   1  -5  -3  357.37   16.67
   1  -5  -3  474.50   21.94
  -1   5   3  415.16   19.16
  -1   5   3  431.13   20.32
  -1   5   3  459.48   21.87
   1  -5  -2  344.95   15.30
   1  -5  -2  273.40   12.83
   1  -5  -2  356.72   16.31
   1  -5  -2  312.82   15.07
  -1   5   2  342.88   15.81
  -1   5   2  312.23   13.62
  -1   5   2  326.64   15.38
   1  -5  -1  284.91   13.04
   1  -5  -1  317.57   14.63
   1  -5  -1  310.75   14.43
   1  -5  -1  257.99   12.10
  -1   5   1  301.18   13.57
  -1   5   1  312.64   13.81
  -1   5   1  309.95   14.85
  -1   5   1  311.27   13.54
   1  -5   0   69.99    3.22
   1  -5   0   72.37    4.51
   1  -5   0   66.15    3.67
   1  -5   0   75.72    3.89
  -1   5   0   75.40    3.70
  -1   5   0   70.92    3.25
  -1   5   0   77.03    3.79
  -1   5   0   75.07    3.84
   1  -5   1   21.91    2.57
   1  -5   1   18.90    1.29
   1  -5   1   23.43    2.59
   1  -5   1   20.29    1.97
  -1   5  -1   19.78    1.13
  -1   5  -1   20.93    1.83
  -1   5  -1   21.52    2.41
  -1   5  -1   21.06    2.44
   1  -5   2  128.27    6.30
   1  -5   2  134.12    5.88
  -1   5  -2  145.17    7.18
  -1   5  -2  129.01    5.50
  -1   5  -2  144.21    7.55
   1  -5   3   31.23    1.76
   1  -5   3   32.79    2.98
  -1   5  -3   36.67    3.06
  -1   5  -3   36.67    3.78
  -1   5  -4   93.44    6.63
  -1   5  -4   84.96    4.35
  -1   5  -5   66.32    4.00
  -1   5  -5   76.07    6.05
  -1   5  -6   72.31    6.17
  -1   5  -7   24.69    3.72
  -1   5  -8   14.60    1.89
  -1   5  -9   11.93    2.20
   1  -4 -13   23.57    1.98
   1  -4 -13   25.03    2.29
  -1   4  13   24.15    2.90
   1  -4 -12   20.66    2.04
   1  -4 -12   21.35    2.37
  -1   4  12   20.55    2.08
   1  -4 -11  130.18    7.39
   1  -4 -11  128.41    7.76
  -1   4  11  128.15    6.84
   1  -4 -10    1.20    2.17
   1  -4 -10    2.17    1.15
  -1   4  10    1.98    1.58
   1  -4  -9   41.44    2.71
   1  -4  -9   43.62    4.27
  -1   4   9   42.99    3.41
   1  -4  -8   31.99    2.81
   1  -4  -8   31.92    3.55
  -1   4   8   34.66    2.18
   1  -4  -7  271.82   12.05
   1  -4  -7  274.29   13.23
   1  -4  -7  254.34   12.66
   1  -4  -7  277.58   12.80
   1  -4  -7  262.93   11.27
  -1   4   7  271.65   12.72
  -1   4   7  259.85   11.83
  -1   4   7  251.95   10.96
  -1   4   7  278.68   13.59
   1  -4  -6  115.38    5.03
   1  -4  -6  108.96    5.63
   1  -4  -6  113.94    4.83
   1  -4  -6  122.21    5.62
   1  -4  -6  113.27    4.81
  -1   4   6   88.60    4.38
  -1   4   6  113.43    4.87
  -1   4   6  117.28    5.37
  -1   4   6  108.13    4.71
  -1   4   6  119.88    5.75
   1  -4  -5  184.95    8.24
   1  -4  -5  196.48    9.29
   1  -4  -5  190.48    8.12
   1  -4  -5  193.52    8.23
   1  -4  -5  202.69    8.19
  -1   4   5  191.98    8.47
  -1   4   5  184.26    7.64
  -1   4   5  198.22    9.46
  -1   4   5  202.71    9.14
  -1   4   5  189.04    8.03
   1  -4  -4  487.85   23.32
   1  -4  -4  597.42   27.94
   1  -4  -4  568.40   25.63
   1  -4  -4  588.11   27.32
   1  -4  -4  622.89   26.65
  -1   4   4  552.91   26.68
  -1   4   4  577.33   25.99
  -1   4   4  570.58   27.26
  -1   4   4  600.68   28.37
   1  -4  -3 1715.51   94.29
   1  -4  -3 1712.50   93.07
   1  -4  -3 1626.47   86.99
  -1   4   3 1746.35   96.06
  -1   4   3 1620.28   87.40
  -1   4   3 1636.72   89.66
  -1   4   3 1641.93   90.80
   1  -4  -2 2456.60  144.61
   1  -4  -2 2362.80  135.03
   1  -4  -2 2426.44  143.08
   1  -4  -2 2370.22  138.10
  -1   4   2 2300.64  134.13
  -1   4   2 2323.44  136.12
  -1   4   2 2591.29  150.79
  -1   4   2 2381.55  140.95
   1  -4  -1  420.36   19.06
   1  -4  -1  414.69   18.33
   1  -4  -1  395.98   18.81
   1  -4  -1  412.43   17.27
  -1   4   1  364.67   15.87
  -1   4   1  381.19   17.00
  -1   4   1  407.24   17.80
   1  -4   0  572.71   27.10
   1  -4   0  566.56   24.82
   1  -4   0  560.87   25.79
   1  -4   0  534.16   26.18
  -1   4   0  578.59   27.85
  -1   4   0  585.96   27.72
  -1   4   0  569.36   25.57
  -1   4   0  567.58   25.93
   1  -4   1  623.21   31.08
   1  -4   1  557.24   27.37
   1  -4   1  615.37   30.53
   1  -4   1  682.60   31.18
   1  -4   1  659.68   29.48
  -1   4  -1  639.86   31.60
  -1   4  -1  644.19   31.08
  -1   4  -1  618.12   28.47
  -1   4  -1  644.94   30.27
   1  -4   2  169.97    8.64
   1  -4   2  167.92    6.67
   1  -4   2  170.67    7.07
   1  -4   2  167.56    8.41
   1  -4   2  163.13    7.45
  -1   4  -2  159.63    6.97
  -1   4  -2  171.19    8.05
  -1   4  -2  170.85    8.12
  -1   4  -2  154.02    6.62
  -1   4  -2  176.67    8.19
   1  -4   3  149.93    7.80
   1  -4   3  141.25    7.19
   1  -4   3  141.98    5.55
   1  -4   3  144.35    6.05
  -1   4  -3  126.28    5.68
  -1   4  -3  140.67    6.85
  -1   4  -3  139.91    6.88
  -1   4  -3  140.40    6.56
  -1   4  -3  152.71    8.18
   1  -4   4   33.37    2.87
   1  -4   4   33.66    1.71
   1  -4   4   31.95    2.29
  -1   4  -4   34.18    2.02
  -1   4  -4   33.86    2.53
  -1   4  -4   35.67    3.55
   1  -4   5  106.42    5.86
  -1   4  -5  113.85    7.37
  -1   4  -5  107.42    5.35
  -1   4  -5  107.62    5.00
   1  -4   6  115.75    6.48
  -1   4  -6  119.82    8.08
   1  -4   7   21.69    3.18
  -1   4  -7   23.99    2.64
   1  -4   8   55.92    3.75
  -1   4  -8   59.97    4.16
   1  -4   9  113.32    6.44
  -1   4  -9  128.71    7.93
  -1   4 -10    8.43    1.29
   1  -3 -13   22.94    2.19
   1  -3 -13   23.35    3.23
  -1   3  13   22.66    2.09
   1  -3 -12   61.90    4.19
   1  -3 -12   65.12    5.42
  -1   3  12   62.75    4.94
   1  -3 -11  145.53    9.24
   1  -3 -11  158.00   10.04
  -1   3  11  156.98    9.53
   1  -3 -10    4.73    1.60
   1  -3 -10    5.77    2.51
  -1   3  10    4.82    1.37
   1  -3  -9    6.14    1.36
   1  -3  -9    2.15    1.38
  -1   3   9    1.40    1.61
   1  -3  -8  557.63   29.25
   1  -3  -8  540.94   27.33
  -1   3   8  554.07   27.93
   1  -3  -7  483.76   22.44
   1  -3  -7  444.95   22.71
   1  -3  -7  491.99   24.26
   1  -3  -7  429.33   19.44
   1  -3  -7  489.31   23.27
  -1   3   7  482.53   24.71
  -1   3   7  426.58   19.76
  -1   3   7  444.78   20.92
   1  -3  -6   47.85    2.28
   1  -3  -6   55.23    2.98
   1  -3  -6   50.98    3.29
   1  -3  -6   46.41    2.35
   1  -3  -6   48.29    2.13
   1  -3  -6   49.89    2.30
  -1   3   6   47.18    2.66
  -1   3   6   51.24    3.42
  -1   3   6   46.55    2.20
  -1   3   6   44.06    1.98
   1  -3  -5  218.28    9.34
   1  -3  -5  227.29    9.89
   1  -3  -5  227.93    9.31
   1  -3  -5  226.96    9.35
   1  -3  -5  219.86    9.85
  -1   3   5  215.45    9.26
  -1   3   5  223.76    9.97
  -1   3   5  225.94   10.23
  -1   3   5  212.50    8.64
  -1   3   5  219.90    9.59
   1  -3  -4   40.85    2.24
   1  -3  -4   46.83    2.10
   1  -3  -4   42.19    2.57
   1  -3  -4   43.11    1.83
  -1   3   4   44.55    2.53
  -1   3   4   44.34    2.63
  -1   3   4   38.92    1.65
  -1   3   4   47.47    2.59
  -1   3   4   43.68    2.03
   1  -3  -3 1103.35   54.42
   1  -3  -3  980.24   47.85
   1  -3  -3  989.01   49.53
   1  -3  -3  999.14   48.67
  -1   3   3  964.30   47.65
  -1   3   3 1010.39   49.82
  -1   3   3 1001.26   49.91
  -1   3   3 1077.38   50.67
  -1   3   3  984.21   47.50
   1  -3  -2 1705.43   90.53
   1  -3  -2 1685.86   91.27
   1  -3  -2 1737.04   91.95
   1  -3  -2 1735.68   93.20
  -1   3   2 1667.82   90.88
  -1   3   2 1692.06   90.21
  -1   3   2 1625.51   88.13
   1  -3  -1 2590.63  149.54
   1  -3  -1 2452.88  144.31
   1  -3  -1 2560.56  149.93
   1  -3  -1 2630.88  151.00
  -1   3   1 2499.34  145.73
  -1   3   1 2467.28  145.05
  -1   3   1 2392.73  138.26
  -1   3   1 2409.25  138.10
   1  -3   0  608.04   28.73
   1  -3   0  609.09   27.27
   1  -3   0  610.79   27.35
   1  -3   0  567.75   27.05
  -1   3   0  596.28   26.61
  -1   3   0  587.50   26.96
  -1   3   0  603.99   26.14
  -1   3   0  579.93   26.22
   1  -3   1  554.42   24.12
   1  -3   1  493.10   22.47
   1  -3   1  505.52   23.21
   1  -3   1  539.66   23.44
   1  -3   1  502.20   23.91
  -1   3  -1  507.72   22.75
  -1   3  -1  517.24   23.64
  -1   3  -1  515.34   22.68
  -1   3  -1  517.48   22.33
  -1   3  -1  514.11   23.51
   1  -3   2   75.06    3.38
   1  -3   2   71.11    4.12
   1  -3   2   72.88    3.48
   1  -3   2   73.16    3.62
   1  -3   2   85.77    3.34
  -1   3  -2   74.40    3.23
  -1   3  -2   74.20    3.23
  -1   3  -2   69.95    3.17
  -1   3  -2   72.78    4.15
  -1   3  -2   74.98    3.15
   1  -3   3  543.31   23.78
   1  -3   3  503.82   24.76
   1  -3   3  481.69   22.51
   1  -3   3  545.56   25.59
   1  -3   3  545.41   24.30
  -1   3  -3  498.00   23.64
  -1   3  -3  411.76   19.12
  -1   3  -3  479.11   21.69
  -1   3  -3  493.10   22.15
  -1   3  -3  535.57   25.19
   1  -3   4  176.94    8.90
   1  -3   4  176.94    7.64
   1  -3   4  175.45    7.13
   1  -3   4  182.49    8.64
   1  -3   4  163.85    7.64
  -1   3  -4  166.97    7.04
  -1   3  -4  169.07    7.76
  -1   3  -4  157.63    7.16
  -1   3  -4  171.00    7.71
  -1   3  -4  179.18    9.39
   1  -3   5   67.36    4.16
   1  -3   5   65.83    3.61
   1  -3   5   66.83    2.86
  -1   3  -5   68.22    3.42
  -1   3  -5   65.44    3.37
  -1   3  -5   65.36    3.62
  -1   3  -5   68.43    4.93
   1  -3   6   87.44    4.87
  -1   3  -6   89.41    4.89
  -1   3  -6   91.78    6.40
   1  -3   7   17.86    2.01
  -1   3  -7   18.77    2.84
  -1   3  -7   18.50    2.38
   1  -3   8   24.29    3.40
  -1   3  -8   24.25    3.11
  -1   3  -8   24.35    2.66
   1  -3   9  115.18    6.40
  -1   3  -9  119.12    6.22
  -1   3  -9  121.51    8.09
   1  -3  10    0.99    1.43
  -1   3 -10    0.75    1.09
  -1   3 -10    0.41    0.73
   1  -2 -13   21.71    2.21
   1  -2 -13   21.66    2.10
  -1   2  13   21.75    3.13
   1  -2 -12   16.33    2.19
   1  -2 -12   14.81    3.45
  -1   2  12   15.94    2.16
   1  -2 -11   72.88    6.13
   1  -2 -11   71.03    6.11
  -1   2  11   68.35    4.56
   1  -2 -10   45.15    3.63
   1  -2 -10   45.13    4.70
  -1   2  10   45.68    4.52
   1  -2  -9  105.35    5.98
   1  -2  -9  103.83    5.89
  -1   2   9  102.17    5.56
   1  -2  -8  173.79    8.75
   1  -2  -8  173.04    9.24
  -1   2   8  158.77    8.42
   1  -2  -7   78.21    4.22
   1  -2  -7   80.54    5.09
   1  -2  -7   88.65    4.30
   1  -2  -7   78.98    3.55
   1  -2  -7   89.47    5.23
  -1   2   7   83.54    4.01
  -1   2   7   72.66    3.45
  -1   2   7   85.94    5.47
   1  -2  -6  308.63   14.05
   1  -2  -6  317.91   15.38
   1  -2  -6  343.99   16.14
   1  -2  -6  334.58   14.52
   1  -2  -6  335.26   14.53
  -1   2   6  308.60   14.18
  -1   2   6  335.94   16.20
  -1   2   6  312.03   12.54
  -1   2   6  323.15   14.28
   1  -2  -5  888.17   43.46
   1  -2  -5  911.72   43.69
   1  -2  -5  827.24   40.24
   1  -2  -5  772.96   37.77
   1  -2  -5  885.23   41.66
   1  -2  -5  849.92   42.02
  -1   2   5  848.32   41.25
  -1   2   5  896.50   44.90
  -1   2   5  859.04   42.05
  -1   2   5  813.43   37.60
   1  -2  -4  207.47    9.08
   1  -2  -4  203.95    8.21
   1  -2  -4  191.47    7.67
   1  -2  -4  215.06    8.87
  -1   2   4  213.97    8.15
  -1   2   4  203.63    8.81
  -1   2   4  217.07    9.46
  -1   2   4  194.34    7.96
  -1   2   4  196.35    7.80
   1  -2  -3  900.15   42.62
   1  -2  -3  961.78   45.95
   1  -2  -3  944.21   45.60
   1  -2  -3  963.94   46.49
  -1   2   3 1007.30   46.98
  -1   2   3  937.67   45.15
  -1   2   3  966.49   46.96
  -1   2   3  976.82   47.72
  -1   2   3  973.04   45.77
  -1   2   3  935.79   43.75
   1  -2  -2 4099.67  270.61
   1  -2  -2 4814.07  315.69
   1  -2  -2 4644.88  302.05
   1  -2  -2 4514.65  295.44
  -1   2   2 4217.57  278.50
  -1   2   2 4751.08  308.82
  -1   2   2 4465.90  294.36
  -1   2   2 4412.51  288.56
   1  -2  -1 3972.77  248.01
   1  -2  -1 3793.79  240.22
   1  -2  -1 3976.50  251.25
   1  -2  -1 3607.20  228.38
   1  -2  -1 3958.23  249.64
  -1   2   1 3761.57  233.43
  -1   2   1 3570.77  226.70
  -1   2   1 3739.78  236.20
   1  -2   0 1909.89  104.94
   1  -2   0 1979.79  108.89
   1  -2   0 1880.79  102.90
   1  -2   0 1991.22  110.40
   1  -2   0 2023.45  109.46
  -1   2   0 1860.39  101.83
  -1   2   0 2054.40  108.32
  -1   2   0 1875.13  102.81
   1  -2   1 2208.10  126.97
   1  -2   1 2221.10  123.95
   1  -2   1 2238.59  124.51
   1  -2   1 2251.33  128.49
   1  -2   1 2122.90  120.24
  -1   2  -1 2018.37  112.83
  -1   2  -1 2205.71  124.11
  -1   2  -1 2468.69  135.41
  -1   2  -1 2322.80  131.54
  -1   2  -1 2109.53  120.45
   1  -2   2  196.55    8.17
   1  -2   2  216.42    9.94
   1  -2   2  201.42    8.52
   1  -2   2  216.84    8.81
  -1   2  -2  229.50    8.84
  -1   2  -2  196.63    8.71
  -1   2  -2  192.79    7.95
  -1   2  -2  201.72    8.44
  -1   2  -2  204.69    9.19
   1  -2   3  520.68   23.41
   1  -2   3  498.10   23.91
   1  -2   3  512.15   23.45
   1  -2   3  523.83   24.04
  -1   2  -3  476.64   21.19
  -1   2  -3  499.37   23.57
  -1   2  -3  499.07   23.08
  -1   2  -3  538.19   23.24
  -1   2  -3  464.88   20.53
   1  -2   4  852.79   42.93
   1  -2   4  888.72   45.92
   1  -2   4  917.64   44.19
   1  -2   4  933.37   46.94
  -1   2  -4  863.22   41.40
  -1   2  -4  802.94   38.72
  -1   2  -4  905.95   45.73
  -1   2  -4  858.56   44.12
   1  -2   5 1333.17   74.14
   1  -2   5 1325.12   72.97
   1  -2   5 1405.55   73.86
   1  -2   5 1335.36   69.64
   1  -2   5 1416.55   77.99
  -1   2  -5 1417.36   77.99
  -1   2  -5 1360.38   70.87
  -1   2  -5 1289.45   67.77
  -1   2  -5 1343.01   74.99
   1  -2   6   33.53    2.08
   1  -2   6   34.60    3.14
   1  -2   6   33.02    1.58
  -1   2  -6   36.73    2.72
  -1   2  -6   35.75    3.60
   1  -2   7   99.95    5.56
  -1   2  -7   99.29    6.98
  -1   2  -7  101.00    5.88
   1  -2   8  298.62   16.61
  -1   2  -8  300.63   17.42
  -1   2  -8  309.53   16.28
   1  -2   9    0.73    1.22
  -1   2  -9    0.91    2.03
  -1   2  -9    1.03    2.10
   1  -2  10    0.83    1.74
  -1   2 -10    0.85    1.13
  -1   2 -10    1.47    1.28
   1  -2  11   12.69    2.17
  -1   2 -11   12.92    2.58
  -1   2 -11   12.30    2.21
   1  -1 -13    6.53    2.32
   1  -1 -13    6.32    1.24
  -1   1  13    6.64    2.17
   1  -1 -12    2.34    1.38
   1  -1 -12    2.16    2.45
  -1   1  12    2.55    2.47
   1  -1 -11   20.63    2.53
   1  -1 -11   21.42    4.12
  -1   1  11   24.15    2.75
   1  -1 -10   33.78    4.35
   1  -1 -10   33.86    3.29
  -1   1  10   33.02    3.08
   1  -1  -9   63.95    5.35
   1  -1  -9   62.32    5.63
  -1   1   9   62.92    5.21
   1  -1  -8  164.10    9.48
   1  -1  -8  158.58    8.15
  -1   1   8  151.09    7.61
   1  -1  -7  162.08    7.08
   1  -1  -7  172.60    9.11
   1  -1  -7  176.57    8.23
  -1   1   7  162.73    6.81
  -1   1   7  179.28    9.73
  -1   1   7  170.46    8.76
   1  -1  -6  121.53    5.32
   1  -1  -6  122.37    6.38
   1  -1  -6  125.18    5.15
  -1   1   6  112.49    5.59
  -1   1   6  114.78    4.81
  -1   1   6  124.75    6.45
   1  -1  -5 4337.37  290.88
   1  -1  -5 4713.86  315.33
   1  -1  -5 4586.11  309.42
   1  -1  -5 4318.85  288.28
  -1   1   5 4604.23  308.41
  -1   1   5 4960.83  334.62
  -1   1   5 4383.17  293.91
  -1   1   5 4304.81  278.12
   1  -1  -4  435.47   19.00
   1  -1  -4  427.95   18.39
   1  -1  -4  424.17   17.73
   1  -1  -4  435.09   19.22
   1  -1  -4  446.30   18.64
  -1   1   4  436.86   17.33
  -1   1   4  401.79   17.64
  -1   1   4  441.63   19.47
  -1   1   4  454.74   20.37
   1  -1  -3   99.72    3.87
   1  -1  -3   90.36    3.33
   1  -1  -3   98.39    4.15
  -1   1   3   97.90    4.12
  -1   1   3  102.51    4.31
  -1   1   3   96.50    3.57
  -1   1   3  105.96    4.10
  -1   1   3   98.97    3.28
  -1   1   3   95.71    4.15
   1  -1  -2 1691.87   86.70
   1  -1  -2 1709.22   89.58
   1  -1  -2 1716.85   90.00
  -1   1   2 1567.20   81.55
  -1   1   2 1672.17   87.15
  -1   1   2 1582.45   82.93
  -1   1   2 1719.22   91.11
  -1   1   2 1696.18   87.19
   1  -1  -1 2004.76  108.49
   1  -1  -1 2035.54  108.76
   1  -1  -1 2031.02  110.78
  -1   1   1 1917.75  103.83
  -1   1   1 2102.02  109.56
  -1   1   1 2043.97  111.07
  -1   1   1 2022.04  106.66
  -1   1   1 1908.28  103.38
   1  -1   0 2379.73  134.14
   1  -1   0 2359.70  133.45
   1  -1   0 2376.11  133.32
   1  -1   0 2298.85  128.98
  -1   1   0 2461.18  137.90
  -1   1   0 2185.94  123.01
  -1   1   0 2488.31  138.89
  -1   1   0 2270.68  127.54
   1  -1   1 1007.68   49.95
   1  -1   1 1071.61   49.67
   1  -1   1 1040.74   52.01
   1  -1   1 1111.11   54.09
   1  -1   1 1138.76   54.24
  -1   1  -1 1019.46   48.87
  -1   1  -1 1056.08   51.27
  -1   1  -1 1022.64   49.35
  -1   1  -1 1122.02   54.42
   1  -1   2   81.21    2.92
   1  -1   2   84.39    4.24
   1  -1   2   85.12    3.44
   1  -1   2   86.93    4.33
  -1   1  -2   81.17    3.34
  -1   1  -2   79.70    2.90
  -1   1  -2   77.66    3.43
  -1   1  -2   82.48    3.28
  -1   1  -2   81.03    3.88
   1  -1   3 2267.49  132.22
   1  -1   3 2059.70  118.26
   1  -1   3 2337.10  134.56
   1  -1   3 2359.75  133.62
  -1   1  -3 2070.57  115.66
  -1   1  -3 2394.79  137.88
  -1   1  -3 2265.50  126.54
  -1   1  -3 2296.23  131.67
  -1   1  -3 2304.24  132.54
   1  -1   4   85.38    3.60
   1  -1   4   89.64    4.59
   1  -1   4   81.38    3.82
   1  -1   4   92.67    4.71
  -1   1  -4   84.41    3.26
  -1   1  -4   85.21    4.10
  -1   1  -4   86.83    4.25
  -1   1  -4   87.73    4.00
  -1   1  -4   79.88    3.09
   1  -1   5  168.38    8.15
   1  -1   5  179.87    8.87
   1  -1   5  165.89    7.28
   1  -1   5  178.91    7.92
  -1   1  -5  159.73    6.07
  -1   1  -5  169.15    7.83
  -1   1  -5  170.45    8.08
  -1   1  -5  165.60    6.40
  -1   1  -5  172.37    7.59
   1  -1   6  228.63   11.16
   1  -1   6  221.73   10.89
   1  -1   6  253.75   11.96
   1  -1   6  257.14   11.02
  -1   1  -6  238.59   11.45
  -1   1  -6  213.18    9.96
  -1   1  -6  230.63   11.39
   1  -1   7   63.99    3.71
  -1   1  -7   65.79    4.06
  -1   1  -7   70.42    4.46
   1  -1   8  427.49   22.90
  -1   1  -8  442.67   24.30
  -1   1  -8  428.07   24.36
   1  -1   9  306.85   17.38
  -1   1  -9  295.61   15.91
  -1   1  -9  309.39   18.57
   1  -1  10   17.48    3.23
  -1   1 -10   18.11    3.52
  -1   1 -10   19.30    2.55
   1  -1  11   25.77    2.44
  -1   1 -11   28.14    2.64
  -1   1 -11   27.54    2.56
   1  -1  12   20.95    1.76
  -1   1 -12   20.64    2.69
  -1   1 -12   22.00    2.71
   1   0 -12  110.91    6.92
   1   0 -12  116.40    6.43
  -1   0  12  112.92    7.72
   1   0 -11    7.80    1.99
   1   0 -11    8.49    1.80
  -1   0  11    7.97    3.32
   1   0 -10   46.15    3.66
   1   0 -10   43.62    5.28
  -1   0  10   46.53    3.94
   1   0  -9   21.48    3.76
   1   0  -9   21.90    4.10
  -1   0   9   20.10    3.80
   1   0  -8   86.43    5.15
   1   0  -8   85.18    4.97
  -1   0   8   84.88    5.04
   1   0  -7   10.22    2.18
   1   0  -7    9.86    1.23
   1   0  -7    8.77    2.22
  -1   0   7   10.05    1.19
  -1   0   7    9.62    2.26
   1   0  -6  541.19   26.20
   1   0  -6  631.74   29.97
   1   0  -6  648.30   31.56
   1   0  -6  689.53   33.57
  -1   0   6  613.02   30.70
  -1   0   6  620.71   29.61
  -1   0   6  653.92   32.93
   1   0  -5   47.08    2.28
   1   0  -5   50.09    2.58
   1   0  -5   50.31    2.69
   1   0  -5   50.08    2.34
  -1   0   5   51.68    2.72
  -1   0   5   48.47    2.49
  -1   0   5   51.96    2.69
   1   0  -4  471.87   20.87
   1   0  -4  513.05   22.55
   1   0  -4  487.53   22.40
   1   0  -4  503.85   21.65
   1   0  -4  502.31   22.16
  -1   0   4  497.38   22.24
  -1   0   4  492.26   22.02
   1   0  -3  720.80   33.02
   1   0  -3  770.63   35.39
   1   0  -3  740.89   34.70
   1   0  -3  751.45   34.62
  -1   0   3  763.62   35.59
  -1   0   3  719.43   33.63
  -1   0   3  795.06   35.48
   1   0  -2  160.25    5.13
   1   0  -2  139.07    5.24
   1   0  -2  147.40    5.31
   1   0  -2  139.68    5.31
   1   0  -2  140.49    5.43
  -1   0   2  136.43    5.08
  -1   0   2  140.41    5.85
  -1   0   2  147.67    5.60
   1   0  -1 2539.20  140.36
   1   0  -1 2416.74  137.07
   1   0  -1 2356.34  133.54
  -1   0   1 2562.10  142.73
  -1   0   1 2389.57  135.72
  -1   0   1 2329.43  130.02
  -1   0   1 2483.23  139.75
   1   0   0 4812.14  313.74
   1   0   0 5560.26  358.86
   1   0   0 4662.90  307.50
   1   0   0 4930.84  325.92
  -1   0   0 5195.97  342.11
  -1   0   0 4607.02  299.36
  -1   0   0 4732.94  312.49
  -1   0   0 4880.27  321.98
  -1   0   0 4490.70  293.01
   1   0   1 4130.49  259.84
   1   0   1 3655.31  230.40
   1   0   1 4073.80  251.03
   1   0   1 3857.08  238.50
  -1   0  -1 3498.40  220.48
  -1   0  -1 3420.06  212.47
  -1   0  -1 3685.46  231.75
  -1   0  -1 4114.91  251.85
  -1   0  -1 3885.57  240.21
   1   0   2 2957.07  177.83
   1   0   2 2693.85  161.51
   1   0   2 2921.95  169.76
   1   0   2 3086.36  180.97
   1   0   2 2942.35  169.48
  -1   0  -2 2794.47  164.61
  -1   0  -2 3050.46  175.93
  -1   0  -2 2799.98  168.05
  -1   0  -2 2738.64  163.46
   1   0   3  289.74   13.08
   1   0   3  288.48   11.99
   1   0   3  279.19   11.20
   1   0   3  295.28   12.39
  -1   0  -3  281.08   10.29
  -1   0  -3  286.34   10.50
  -1   0  -3  263.13   11.29
  -1   0  -3  281.63   12.05
  -1   0  -3  277.71   11.38
   1   0   4   74.93    3.42
   1   0   4   69.16    2.82
   1   0   4   74.84    3.17
   1   0   4   79.43    3.38
  -1   0  -4   66.24    2.19
  -1   0  -4   71.81    3.16
  -1   0  -4   71.46    2.40
  -1   0  -4   76.06    3.45
  -1   0  -4   71.21    4.23
   1   0   5  179.21    7.91
   1   0   5  176.48    7.71
   1   0   5  181.34    7.48
   1   0   5  171.02    7.57
  -1   0  -5  182.69    8.63
  -1   0  -5  163.99    8.55
  -1   0  -5  169.08    7.48
   1   0   6  593.86   26.86
   1   0   6  509.57   24.95
   1   0   6  504.47   23.77
  -1   0  -6  538.69   25.91
  -1   0  -6  513.74   24.56
  -1   0  -6  518.46   26.80
   1   0   7  246.11   11.82
   1   0   7  273.89   13.50
  -1   0  -7  248.62   12.02
  -1   0  -7  271.02   13.91
  -1   0  -7  272.04   14.86
   1   0   8  274.61   13.56
  -1   0  -8  283.68   15.04
  -1   0  -8  282.49   15.35
   1   0   9  519.43   28.31
  -1   0  -9  512.42   27.20
  -1   0  -9  507.49   29.59
   1   0  10   83.09    6.21
  -1   0 -10   86.72    6.81
  -1   0 -10   94.18    8.09
   1   0  11   36.55    3.11
  -1   0 -11   39.97    4.92
  -1   0 -11   35.93    3.10
   1   0  12   78.20    4.63
  -1   0 -12   79.42    4.90
  -1   0 -12   77.26    4.47
   1   1 -12   10.24    2.34
   1   1 -12   10.35    1.96
  -1  -1  12    9.63    1.74
   1   1 -11   45.76    4.73
   1   1 -11   48.56    3.38
  -1  -1  11   46.94    5.22
   1   1 -10    2.67    1.47
   1   1 -10    2.60    1.59
  -1  -1  10    2.79    2.98
   1   1  -9  397.44   21.09
   1   1  -9  412.15   23.28
  -1  -1   9  414.65   24.59
   1   1  -8  462.92   24.31
   1   1  -8  464.69   25.83
  -1  -1   8  477.78   25.79
   1   1  -7   44.87    3.12
  -1  -1   7   45.60    2.74
  -1  -1   7   44.11    4.24
   1   1  -6  334.26   15.84
   1   1  -6  320.45   14.93
   1   1  -6  331.32   15.01
  -1  -1   6  360.51   17.24
  -1  -1   6  330.75   16.09
  -1  -1   6  328.57   14.91
   1   1  -5  482.50   21.99
   1   1  -5  454.38   21.74
   1   1  -5  444.21   20.59
   1   1  -5  433.79   20.22
  -1  -1   5  467.98   20.73
  -1  -1   5  444.72   21.23
   1   1  -4   49.62    2.39
   1   1  -4   52.42    2.87
   1   1  -4   51.41    2.61
   1   1  -4   51.36    2.69
  -1  -1   4   51.30    2.61
  -1  -1   4   51.56    2.32
   1   1  -3  343.68   14.90
   1   1  -3  354.19   15.26
   1   1  -3  359.24   14.50
   1   1  -3  349.49   15.29
  -1  -1   3  336.89   14.70
  -1  -1   3  357.99   15.43
   1   1  -2  643.82   29.32
   1   1  -2  657.93   29.62
   1   1  -2  671.30   30.52
  -1  -1   2  707.08   31.08
  -1  -1   2  676.56   30.50
  -1  -1   2  682.49   31.80
   1   1  -1  107.82    3.45
   1   1  -1   99.94    3.61
   1   1  -1   96.43    3.62
   1   1  -1   99.39    3.89
  -1  -1   1  106.58    4.58
  -1  -1   1  104.74    3.49
  -1  -1   1   99.13    4.32
  -1  -1   1   94.61    3.53
   1   1   0  487.33   18.63
   1   1   0  504.28   21.00
   1   1   0  468.64   19.62
   1   1   0  481.37   20.25
  -1  -1   0  506.65   21.00
  -1  -1   0  494.11   20.77
  -1  -1   0  455.17   19.27
  -1  -1   0  494.45   20.63
   1   1   1 6173.18  425.95
   1   1   1 5722.53  394.17
   1   1   1 6387.10  434.86
  -1  -1  -1 6434.19  438.12
  -1  -1  -1 4549.78  303.93
  -1  -1  -1 6485.46  447.87
  -1  -1  -1 5654.22  388.58
  -1  -1  -1 5196.24  359.32
   1   1   2 5363.83  367.16
   1   1   2 5633.50  376.07
   1   1   2 5146.64  340.57
   1   1   2 4697.91  319.37
  -1  -1  -2 5678.17  375.59
  -1  -1  -2 5627.29  384.83
  -1  -1  -2 5108.28  341.48
  -1  -1  -2 5213.68  353.22
  -1  -1  -2 4867.29  332.16
   1   1   3 7384.55  530.10
   1   1   3 6090.60  441.18
   1   1   3 7229.38  526.13
  -1  -1  -3 7052.85  513.52
  -1  -1  -3 6568.91  473.69
  -1  -1  -3 7118.18  513.97
  -1  -1  -3 5851.04  426.29
   1   1   4  136.96    5.33
   1   1   4  138.57    6.53
   1   1   4  131.61    5.32
  -1  -1  -4  134.32    6.48
  -1  -1  -4  135.87    6.65
  -1  -1  -4  133.06    5.69
   1   1   5   16.90    1.07
   1   1   5   15.51    1.24
   1   1   5   17.37    1.10
  -1  -1  -5   16.86    1.36
  -1  -1  -5   16.62    1.16
  -1  -1  -5   18.21    1.05
  -1  -1  -5   14.90    2.18
   1   1   6   97.77    4.83
   1   1   6  100.89    4.73
   1   1   6   99.74    5.10
  -1  -1  -6   96.69    4.47
  -1  -1  -6   98.28    5.34
  -1  -1  -6   94.99    5.79
  -1  -1  -6  103.22    4.85
   1   1   7  159.82    7.31
   1   1   7  153.47    7.65
   1   1   7  169.33    7.24
  -1  -1  -7  162.17    7.73
  -1  -1  -7  157.46    8.14
  -1  -1  -7  159.31    7.19
  -1  -1  -7  155.20    9.10
   1   1   8    3.15    0.77
   1   1   8    3.49    1.03
  -1  -1  -8    3.08    2.60
  -1  -1  -8    3.50    0.88
  -1  -1  -8    3.69    1.20
   1   1   9  202.21   11.44
  -1  -1  -9  196.66   11.47
  -1  -1  -9  211.38   11.68
   1   1  10   34.37    3.93
  -1  -1 -10   35.95    3.09
  -1  -1 -10   36.91    5.27
   1   1  11    2.59    1.47
  -1  -1 -11    3.37    1.83
  -1  -1 -11    3.18    2.34
   1   1  12   60.18    4.05
  -1  -1 -12   58.96    3.91
  -1  -1 -12   63.72    5.97
   1   1  13   99.87    5.35
  -1  -1 -13   96.57    4.96
  -1  -1 -13  101.36    5.55
   1   2 -11   44.53    3.77
   1   2 -11   43.07    2.72
  -1  -2  11   43.90    4.54
   1   2 -10   49.15    4.57
   1   2 -10   47.61    3.36
  -1  -2  10   51.59    5.65
   1   2  -9  204.76   12.05
   1   2  -9  201.75   10.78
  -1  -2   9  203.08   11.83
   1   2  -8 1577.29   93.40
   1   2  -8 1499.18   88.67
  -1  -2   8 1623.77  101.29
   1   2  -7  725.27   39.40
   1   2  -7  715.64   38.83
  -1  -2   7  716.69   40.98
  -1  -2   7  687.00   34.25
   1   2  -6    2.95    1.11
   1   2  -6    2.60    1.10
   1   2  -6    6.61    1.25
  -1  -2   6    2.69    1.43
  -1  -2   6    2.91    1.20
   1   2  -5   36.84    2.25
   1   2  -5   36.10    2.72
   1   2  -5   34.12    2.36
   1   2  -5   34.31    2.64
  -1  -2   5   39.22    2.15
  -1  -2   5   38.21    2.69
   1   2  -4  158.06    6.96
   1   2  -4  164.04    7.70
   1   2  -4  156.78    6.91
   1   2  -4  164.71    7.38
  -1  -2   4  184.27    8.29
  -1  -2   4  170.10    8.01
   1   2  -3   49.29    2.65
   1   2  -3   50.16    2.35
   1   2  -3   49.13    2.32
   1   2  -3   48.69    2.74
  -1  -2   3   49.14    2.30
  -1  -2   3   46.21    2.08
  -1  -2   3   50.90    2.70
   1   2  -2  266.76   11.09
   1   2  -2  254.98   10.66
   1   2  -2  262.79   11.06
   1   2  -2  279.86   10.72
  -1  -2   2  271.39   11.56
  -1  -2   2  261.91   10.50
  -1  -2   2  264.06   12.22
   1   2  -1  708.77   33.04
   1   2  -1  705.66   31.50
   1   2  -1  683.77   31.95
   1   2  -1  676.85   28.46
  -1  -2   1  787.97   34.27
  -1  -2   1  763.25   35.16
  -1  -2   1  670.67   29.15
  -1  -2   1  704.96   31.37
  -1  -2   1  690.30   33.01
   1   2   0 2984.02  177.56
   1   2   0 2914.30  170.96
   1   2   0 3075.67  178.20
   1   2   0 2910.80  174.80
  -1  -2   0 2777.02  162.85
  -1  -2   0 2942.83  174.13
  -1  -2   0 3230.22  192.14
  -1  -2   0 3050.30  176.87
  -1  -2   0 2899.31  175.46
   1   2   1 2713.18  158.76
   1   2   1 2859.80  166.10
   1   2   1 2697.81  160.71
  -1  -2  -1 2839.84  164.77
  -1  -2  -1 2701.22  159.63
  -1  -2  -1 2723.18  161.80
  -1  -2  -1 2755.42  159.39
   1   2   2 4101.83  261.43
   1   2   2 3665.71  231.71
   1   2   2 3902.59  244.45
  -1  -2  -2 4139.48  255.64
  -1  -2  -2 4034.46  259.58
  -1  -2  -2 4052.69  256.32
  -1  -2  -2 3980.91  248.08
  -1  -2  -2 3707.05  229.28
  -1  -2  -2 3776.42  242.54
   1   2   3 8613.45  658.08
   1   2   3 7556.74  573.47
   1   2   3 8749.82  647.16
  -1  -2  -3 7960.54  607.27
  -1  -2  -3 8678.24  664.34
  -1  -2  -3 7464.61  562.27
  -1  -2  -3 8458.50  637.34
  -1  -2  -3 7975.79  610.29
   1   2   4  612.80   27.03
   1   2   4  569.32   26.32
  -1  -2  -4  600.22   29.04
  -1  -2  -4  585.42   25.91
  -1  -2  -4  626.90   27.55
  -1  -2  -4  568.24   26.95
  -1  -2  -4  553.15   25.39
   1   2   5  765.99   37.02
   1   2   5  799.44   37.00
   1   2   5  762.35   35.79
  -1  -2  -5  758.46   35.68
  -1  -2  -5  731.82   37.07
  -1  -2  -5  716.85   35.52
  -1  -2  -5  739.41   35.43
   1   2   6  573.82   27.81
   1   2   6  579.18   27.26
   1   2   6  610.88   27.85
  -1  -2  -6  554.75   25.98
  -1  -2  -6  560.53   26.22
  -1  -2  -6  544.53   26.61
  -1  -2  -6  512.91   25.75
   1   2   7  126.18    6.34
   1   2   7  121.59    5.58
   1   2   7  138.02    5.83
  -1  -2  -7  121.30    6.66
  -1  -2  -7  123.23    6.33
  -1  -2  -7  123.80    7.21
  -1  -2  -7  127.44    6.15
   1   2   8   12.54    1.73
   1   2   8   17.66    1.58
  -1  -2  -8   13.84    1.54
  -1  -2  -8   13.92    2.27
  -1  -2  -8   12.07    3.03
   1   2   9  279.36   13.82
  -1  -2  -9  284.33   15.23
  -1  -2  -9  276.85   14.46
  -1  -2  -9  284.41   15.06
   1   2  10   99.87    6.67
  -1  -2 -10  103.43    6.00
  -1  -2 -10  114.82    8.60
   1   2  11  154.08    8.43
  -1  -2 -11  164.31   11.33
  -1  -2 -11  156.81    9.62
   1   2  12   55.01    3.87
  -1  -2 -12   58.66    4.41
  -1  -2 -12   55.97    4.76
   1   2  13   93.43    5.31
  -1  -2 -13   88.79    4.77
  -1  -2 -13   93.68    5.43
   1   3 -10    1.17    1.39
   1   3 -10    1.59    1.56
  -1  -3  10    1.53    2.43
   1   3  -9   24.35    2.19
   1   3  -9   24.49    3.19
  -1  -3   9   24.50    3.09
   1   3  -8   51.11    3.58
   1   3  -8   47.15    3.30
  -1  -3   8   51.86    6.21
   1   3  -7  115.05    7.34
   1   3  -7  128.53    8.40
  -1  -3   7  127.11    9.87
  -1  -3   7  131.47    6.62
   1   3  -6  261.11   13.96
   1   3  -6  256.78   13.40
  -1  -3   6  258.56   12.54
  -1  -3   6  261.38   14.12
   1   3  -5   91.05    4.70
   1   3  -5   88.12    4.36
  -1  -3   5   94.79    4.48
  -1  -3   5   94.68    5.52
   1   3  -4    2.56    1.22
   1   3  -4    2.65    0.77
   1   3  -4    2.92    1.06
   1   3  -4    2.96    1.13
  -1  -3   4    0.00    0.64
  -1  -3   4    3.06    1.15
  -1  -3   4    2.34    1.25
   1   3  -3    2.92    0.67
   1   3  -3    2.31    0.75
   1   3  -3    2.73    0.54
   1   3  -3    4.71    0.81
  -1  -3   3    3.34    1.45
  -1  -3   3    5.98    0.65
  -1  -3   3    3.12    1.08
   1   3  -2  805.38   40.43
   1   3  -2  892.94   43.43
   1   3  -2  880.01   41.44
   1   3  -2  834.47   40.91
  -1  -3   2  832.84   37.63
  -1  -3   2  835.19   40.65
  -1  -3   2  989.66   47.46
  -1  -3   2  861.76   38.86
  -1  -3   2  879.52   45.41
   1   3  -1  227.18    8.45
   1   3  -1  208.14    8.86
   1   3  -1  215.53    9.68
   1   3  -1  215.95    7.87
   1   3  -1  213.17    8.77
  -1  -3   1  216.63    9.75
  -1  -3   1  252.50   10.22
  -1  -3   1  213.04    8.61
  -1  -3   1  212.33    8.38
   1   3   0 2920.71  171.42
   1   3   0 2643.01  159.35
   1   3   0 2940.39  177.96
   1   3   0 2646.38  155.06
  -1  -3   0 3156.70  187.13
  -1  -3   0 2987.51  178.63
  -1  -3   0 2701.63  159.08
  -1  -3   0 3090.94  178.04
  -1  -3   0 2882.11  176.30
   1   3   1  106.97    5.36
   1   3   1  115.66    4.33
   1   3   1  117.79    4.25
  -1  -3  -1  109.44    4.53
  -1  -3  -1  120.29    5.19
  -1  -3  -1  117.76    6.02
  -1  -3  -1  111.78    4.00
  -1  -3  -1  127.82    4.24
   1   3   2  868.26   40.65
   1   3   2  850.63   38.54
   1   3   2  856.24   41.92
  -1  -3  -2  845.53   37.97
  -1  -3  -2  803.92   39.44
  -1  -3  -2  834.75   38.19
  -1  -3  -2  831.49   40.75
  -1  -3  -2  864.78   38.90
   1   3   3 1182.18   59.54
   1   3   3 1062.76   51.23
   1   3   3 1124.30   58.64
  -1  -3  -3 1122.29   57.36
  -1  -3  -3 1051.15   50.14
  -1  -3  -3 1167.64   56.65
  -1  -3  -3 1105.82   53.08
  -1  -3  -3 1093.06   56.72
   1   3   4 1423.92   75.09
   1   3   4 1387.15   67.94
   1   3   4 1481.26   80.61
   1   3   4 1397.81   71.20
   1   3   4 1337.93   65.79
  -1  -3  -4 1438.63   75.23
  -1  -3  -4 1400.50   72.23
  -1  -3  -4 1404.93   76.60
  -1  -3  -4 1414.03   72.15
  -1  -3  -4 1410.89   75.57
   1   3   5  628.87   29.64
   1   3   5  642.31   31.53
   1   3   5  703.14   31.48
  -1  -3  -5  599.68   29.45
  -1  -3  -5  629.61   28.75
  -1  -3  -5  572.82   26.81
  -1  -3  -5  634.00   31.12
  -1  -3  -5  597.68   27.98
   1   3   6  853.27   39.39
   1   3   6  885.61   43.49
  -1  -3  -6  803.48   38.25
  -1  -3  -6  561.88   28.06
  -1  -3  -6  813.72   41.09
  -1  -3  -6  806.21   40.01
   1   3   7  465.50   21.98
   1   3   7  458.95   21.81
  -1  -3  -7  444.99   21.97
  -1  -3  -7  457.67   23.12
  -1  -3  -7  344.10   17.10
  -1  -3  -7  465.26   21.19
   1   3   8  351.37   16.57
  -1  -3  -8  331.51   17.49
  -1  -3  -8  339.46   17.78
  -1  -3  -8  335.88   16.70
   1   3   9  323.24   15.89
  -1  -3  -9  312.95   15.91
  -1  -3  -9  307.61   15.26
  -1  -3  -9  323.32   16.55
   1   3  10  462.42   25.18
  -1  -3 -10  492.63   27.53
   1   3  11  153.02    9.38
  -1  -3 -11  169.84   10.96
  -1  -3 -11  156.03    8.37
   1   3  12   23.00    2.45
  -1  -3 -12   25.37    2.72
  -1  -3 -12   23.76    2.27
   1   3  13   10.63    1.71
  -1  -3 -13   11.61    2.23
  -1  -3 -13   11.31    1.81
   1   4 -10   15.82    1.48
  -1  -4  10   19.75    3.19
   1   4  -9  109.29    5.49
  -1  -4   9  115.75    7.13
   1   4  -8   76.12    5.31
  -1  -4   8   84.61    7.49
   1   4  -7   49.67    3.36
  -1  -4   7   52.25    4.57
   1   4  -6   95.75    6.16
  -1  -4   6  103.92    6.82
  -1  -4   6   93.84    5.39
   1   4  -5  220.15   11.64
   1   4  -5  205.23   10.36
  -1  -4   5  233.97   12.83
  -1  -4   5  228.99   10.68
   1   4  -4  172.30    8.77
   1   4  -4  166.15    7.94
  -1  -4   4  175.39    8.94
  -1  -4   4  189.96   10.01
   1   4  -3   85.99    4.01
   1   4  -3   92.05    4.44
   1   4  -3   92.12    4.78
   1   4  -3   86.58    4.99
  -1  -4   3  100.45    5.52
  -1  -4   3   87.61    4.43
  -1  -4   3   94.02    5.27
   1   4  -2  349.83   16.47
   1   4  -2  388.81   16.78
   1   4  -2  385.55   17.58
   1   4  -2  400.96   18.28
  -1  -4   2  428.72   19.01
  -1  -4   2  363.63   16.21
  -1  -4   2  400.06   20.53
   1   4  -1 1706.23   97.92
   1   4  -1 1847.58   99.32
   1   4  -1 2007.37  111.00
   1   4  -1 1969.33  111.30
  -1  -4   1 1697.68   93.82
  -1  -4   1 1800.85   97.80
  -1  -4   1 1816.38  100.38
  -1  -4   1 2068.46  119.41
  -1  -4   1 2019.78  111.83
   1   4   0  418.54   19.37
   1   4   0  500.17   23.88
   1   4   0  517.24   21.16
   1   4   0  523.84   21.21
   1   4   0  521.81   21.89
  -1  -4   0  461.61   21.08
  -1  -4   0  554.98   24.49
  -1  -4   0  497.35   21.52
  -1  -4   0  532.52   26.49
   1   4   1  434.41   18.47
   1   4   1  444.27   21.17
  -1  -4  -1  390.74   18.10
  -1  -4  -1  488.94   21.50
  -1  -4  -1  434.07   21.40
  -1  -4  -1  420.35   17.84
   1   4   2  339.79   14.45
   1   4   2  347.82   15.93
  -1  -4  -2  390.10   16.00
  -1  -4  -2  348.97   14.20
  -1  -4  -2  327.92   15.34
  -1  -4  -2  331.12   16.36
   1   4   3  654.14   29.81
   1   4   3  649.44   31.49
   1   4   3  673.40   27.91
  -1  -4  -3  582.03   28.11
  -1  -4  -3  586.36   26.00
  -1  -4  -3  620.92   27.51
  -1  -4  -3  644.22   27.19
  -1  -4  -3  601.62   29.36
   1   4   4  164.02    5.88
   1   4   4  162.75    6.24
   1   4   4  173.16    8.09
   1   4   4  180.26    8.01
  -1  -4  -4  140.22    5.60
  -1  -4  -4  160.34    7.52
  -1  -4  -4  162.74    6.46
  -1  -4  -4  166.97    8.48
   1   4   5  694.71   33.43
   1   4   5  650.79   27.79
   1   4   5  636.97   32.09
   1   4   5  651.67   28.62
  -1  -4  -5  627.83   29.43
  -1  -4  -5  621.71   32.05
  -1  -4  -5  677.37   31.15
  -1  -4  -5  606.45   28.48
  -1  -4  -5  671.64   33.87
   1   4   6  113.66    5.67
   1   4   6  106.76    6.52
  -1  -4  -6  101.76    4.80
  -1  -4  -6  102.87    5.42
  -1  -4  -6  109.24    4.87
  -1  -4  -6  101.43    4.88
  -1  -4  -6   99.60    5.78
   1   4   7  352.51   16.70
   1   4   7  339.02   18.03
  -1  -4  -7  330.38   17.31
  -1  -4  -7  313.79   14.47
  -1  -4  -7  296.49   13.63
  -1  -4  -7  306.74   13.21
  -1  -4  -7  307.01   14.20
   1   4   8  134.28    7.27
  -1  -4  -8  129.80    8.10
  -1  -4  -8  146.71    6.98
  -1  -4  -8  133.86    6.90
   1   4   9   81.62    4.49
  -1  -4  -9   77.03    5.70
  -1  -4  -9   74.59    4.85
  -1  -4  -9   73.92    5.19
   1   4  10   28.82    2.55
  -1  -4 -10   29.15    3.50
  -1  -4 -10   25.56    2.25
  -1  -4 -10   26.63    2.48
   1   4  11  115.45    7.83
  -1  -4 -11  113.67    6.52
  -1  -4 -11  107.69    6.97
   1   4  12   41.15    4.53
  -1  -4 -12   37.29    3.63
  -1  -4 -12   41.63    4.19
   1   4  13   25.21    3.26
  -1  -4 -13   25.87    2.17
  -1  -4 -13   23.54    1.96
   1   4  14   11.26    2.39
  -1  -4 -14   22.73    2.11
  -1  -5   9   40.08    3.15
   1   5  -8   25.04    2.44
  -1  -5   8   28.02    4.43
   1   5  -7  100.83    5.53
   1   5  -7  103.23    5.37
  -1  -5   7  110.18    7.37
   1   5  -6  290.82   15.30
   1   5  -6  297.21   14.58
  -1  -5   6  315.22   18.10
   1   5  -5  222.50   11.82
  -1  -5   5  237.75   11.33
  -1  -5   5  244.93   15.91
   1   5  -4  336.67   17.12
  -1  -5   4  350.04   17.87
  -1  -5   4  373.64   21.99
   1   5  -3    0.29    0.98
  -1  -5   3    0.14    0.88
  -1  -5   3    0.48    1.31
   1   5  -2  281.18   12.76
  -1  -5   2  319.05   14.59
  -1  -5   2  264.89   12.06
  -1  -5   2  309.51   15.87
   1   5  -1  197.71   10.27
   1   5  -1  250.98   11.53
  -1  -5   1  264.61   11.70
  -1  -5   1  218.32    9.44
  -1  -5   1  247.98   13.42
   1   5   0   79.33    4.04
   1   5   0  104.30    4.53
   1   5   0  115.36    5.46
   1   5   0  100.55    3.88
  -1  -5   0  113.16    5.95
  -1  -5   0   97.21    4.67
  -1  -5   0  123.93    4.86
  -1  -5   0  116.74    5.21
   1   5   1  744.19   35.94
   1   5   1  667.93   30.03
  -1  -5  -1  792.21   36.89
  -1  -5  -1  461.48   23.39
  -1  -5  -1  651.52   29.56
  -1  -5  -1  681.07   34.16
   1   5   2  720.41   35.70
   1   5   2  718.13   33.08
  -1  -5  -2  649.35   32.86
  -1  -5  -2  718.43   33.98
  -1  -5  -2  668.37   31.01
  -1  -5  -2  683.01   35.79
   1   5   3  118.65    4.88
   1   5   3  116.92    5.72
  -1  -5  -3  108.21    5.26
  -1  -5  -3  111.60    5.67
  -1  -5  -3  111.94    4.39
   1   5   4  238.58   10.59
   1   5   4  242.87   10.25
   1   5   4  267.75   12.72
  -1  -5  -4  246.53   10.27
  -1  -5  -4  231.56   11.90
  -1  -5  -4  248.06   11.91
   1   5   5  381.56   16.15
   1   5   5  448.82   20.71
   1   5   5  437.45   22.46
  -1  -5  -5  402.71   19.67
  -1  -5  -5  393.33   19.54
  -1  -5  -5  395.35   17.58
   1   5   6   55.27    3.41
   1   5   6   57.38    4.67
  -1  -5  -6   50.72    2.64
  -1  -5  -6   51.39    4.42
  -1  -5  -6   47.98    2.67
  -1  -5  -6   50.71    3.19
  -1  -5  -7  399.07   19.15
  -1  -5  -7  417.84   21.58
  -1  -5  -7  443.50   22.07
  -1  -5  -7  429.42   20.06
   1   5   8  193.97    9.24
  -1  -5  -8  172.93    8.19
  -1  -5  -8  192.13   11.33
   1   5   9   63.73    4.64
  -1  -5  -9   57.43    3.94
  -1  -5  -9   61.88    5.36
  -1  -5  -9   59.84    4.00
   1   5  10   74.37    5.52
  -1  -5 -10   72.85    4.11
  -1  -5 -10   68.31    4.70
  -1  -5 -10   70.70    5.78
   1   5  11  499.12   25.98
  -1  -5 -11  486.72   25.57
  -1  -5 -11  493.52   26.85
  -1  -5 -11  453.31   23.23
   1   5  12  205.37   10.70
  -1  -5 -12  196.18   10.53
  -1  -5 -12  184.32    9.26
   1   5  13   50.32    3.36
  -1  -5 -13   44.65    3.20
  -1  -5 -13   43.58    2.60
   1   5  14    4.07    1.16
  -1  -6   8    6.16    2.41
   1   6  -7   50.29    2.88
   1   6  -7   55.28    3.32
  -1  -6   7   59.30    4.42
   1   6  -6    7.43    1.94
   1   6  -6    7.72    1.17
  -1  -6   6    7.62    2.34
   1   6  -5  114.83    6.52
   1   6  -5  120.46    6.48
  -1  -6   5  127.96    9.98
   1   6  -4   29.49    2.81
  -1  -6   4   36.76    5.38
   1   6  -3    3.59    1.39
  -1  -6   3    3.45    1.31
  -1  -6   3    3.96    3.08
   1   6  -2   46.37    2.57
  -1  -6   2   52.44    3.32
  -1  -6   2   51.73    4.11
   1   6  -1    1.52    0.94
  -1  -6   1    2.05    1.09
  -1  -6   1    1.05    0.91
  -1  -6   1    2.21    1.46
   1   6   0  241.85   10.55
  -1  -6   0  256.11   12.23
  -1  -6   0  285.10   13.01
  -1  -6   0  248.72   11.22
  -1  -6   0  239.24   10.84
  -1  -6   0  279.61   15.44
   1   6   1  455.06   20.30
   1   6   1  500.17   24.30
   1   6   1  436.58   19.63
  -1  -6  -1  431.16   21.35
  -1  -6  -1  517.55   23.93
  -1  -6  -1  433.73   19.94
  -1  -6  -1  477.63   24.48
   1   6   2  139.37    5.96
   1   6   2  157.15    7.65
   1   6   2  156.06    6.40
  -1  -6  -2  132.18    7.23
  -1  -6  -2  143.45    6.25
  -1  -6  -2  146.24    7.72
   1   6   3   26.61    1.95
   1   6   3   26.10    2.12
   1   6   3   24.92    1.49
   1   6   3   25.74    1.73
  -1  -6  -3   26.22    2.05
  -1  -6  -3   27.15    1.70
  -1  -6  -3   25.94    2.41
   1   6   4  159.77    7.29
   1   6   4  148.02    6.72
   1   6   4  150.86    7.64
   1   6   4  133.41    5.68
  -1  -6  -4  141.83    7.23
  -1  -6  -4  143.93    5.99
  -1  -6  -4  151.12    8.82
   1   6   5   91.69    4.70
   1   6   5   77.91    3.23
   1   6   5   73.82    3.36
   1   6   5   87.51    6.02
  -1  -6  -5   82.61    5.88
  -1  -6  -5   80.99    3.78
  -1  -6  -5   80.87    5.71
  -1  -6  -6   63.55    4.27
  -1  -6  -6   60.23    2.85
  -1  -6  -6   61.58    4.79
  -1  -6  -6   68.11    3.05
  -1  -6  -7  219.69   13.01
  -1  -6  -7  204.51    9.70
  -1  -6  -7  211.19    9.81
  -1  -6  -7  228.13   12.78
  -1  -6  -8  283.74   16.43
  -1  -6  -8  264.01   12.84
   1   6   9  141.11    7.23
  -1  -6  -9  143.91    8.34
  -1  -6  -9  129.95    7.04
   1   6  10  229.91   11.62
  -1  -6 -10  217.94   13.28
  -1  -6 -10  205.92   10.13
   1   6  11   95.26    6.74
  -1  -6 -11   82.28    4.47
  -1  -6 -11   85.38    6.41
   1   6  12  109.18    7.26
  -1  -6 -12   96.15    5.61
  -1  -6 -12   98.40    6.32
   1   6  13    3.50    1.84
  -1  -6 -13    1.34    1.16
   1   6  14   10.20    2.03
  -1  -7   7   13.29    2.54
   1   7  -6   61.02    3.53
  -1  -7   6   67.90    4.61
   1   7  -5   85.84    4.57
  -1  -7   5   93.87    7.66
   1   7  -4   53.68    4.73
  -1  -7   4   54.48    6.09
   1   7  -3  118.71    6.74
  -1  -7   3  113.54    9.16
   1   7  -2  159.60    8.77
  -1  -7   2  152.21   10.91
   1   7  -1   16.64    2.40
  -1  -7   1   15.21    2.55
   1   7   0   39.37    3.19
  -1  -7   0   38.88    3.49
   1   7   1   22.04    2.24
  -1  -7  -1   18.70    1.72
  -1  -7  -1   21.77    3.69
   1   7   2    8.15    1.50
  -1  -7  -2    7.92    1.35
  -1  -7  -2    8.74    2.97
   1   7   3   32.66    2.92
  -1  -7  -3   29.01    2.42
  -1  -7  -3   30.92    2.88
   1   7   4   57.92    2.97
  -1  -7  -4   57.90    4.73
  -1  -7  -4   68.30    5.65
   1   7   5  128.15    5.60
  -1  -7  -5  134.32    8.67
  -1  -7  -5  136.79    8.65
  -1  -7  -6   37.58    3.34
  -1  -7  -6   38.02    4.30
  -1  -7  -7  122.41    8.85
  -1  -7  -7  127.36    7.23
  -1  -7  -8   32.41    3.34
  -1  -7  -8   32.50    3.04
   1   7   9   67.73    4.12
  -1  -7  -9   67.60    6.56
   1   7  10  165.51    9.74
  -1  -7 -10  159.32   10.94
   1   7  11   11.08    2.71
  -1  -7 -11   10.73    2.04
   1   7  12   63.71    5.01
  -1  -7 -12   59.04    3.82
   1   7  13   39.75    2.76
   1   8  -5   20.62    1.49
  -1  -8   5   20.72    2.22
   1   8  -4   28.91    2.99
  -1  -8   4   28.14    4.15
   1   8  -3  108.82    5.94
  -1  -8   3  105.68    8.40
   1   8  -2   30.45    4.04
  -1  -8   2   31.28    4.78
   1   8  -1   19.22    3.64
  -1  -8   1   16.82    4.15
   1   8   0  176.91   10.83
  -1  -8   0  163.09    9.89
   1   8   1  186.99   11.14
  -1  -8  -1  179.72   12.23
   1   8   2  127.32    7.89
  -1  -8  -2  116.52    7.20
  -1  -8  -2  129.40    9.40
   1   8   3  106.90    5.59
  -1  -8  -3   96.01    6.70
  -1  -8  -3  124.05    9.34
   1   8   4  190.72    9.61
  -1  -8  -4  178.03   10.97
  -1  -8  -4  189.41   10.71
   1   8   5   17.67    1.82
  -1  -8  -5   17.72    3.76
  -1  -8  -5   19.93    3.92
  -1  -8  -6  188.68   10.83
  -1  -8  -6  190.25   11.93
  -1  -8  -7    5.68    3.22
  -1  -8  -7    5.24    1.77
  -1  -8  -8  188.23   11.15
  -1  -8  -8  186.92   10.51
   1   8   9  168.89    8.75
  -1  -8  -9  172.54   12.12
   1   8  10  100.46    6.61
  -1  -8 -10  102.89    6.78
   1   8  11   77.15    4.51
  -1  -8 -11   75.41    5.09
   1   8  12    6.58    1.39
  -1  -8 -12    6.99    1.50
   1   8  13   14.73    1.57
  -1  -8 -13   13.66    1.26
   1   9  -4   50.47    3.26
  -1  -9   4   46.77    2.92
   1   9  -3   24.96    1.97
  -1  -9   3   23.75    3.32
   1   9  -2   11.12    2.61
  -1  -9   2   11.25    3.09
   1   9  -1    0.72    1.87
  -1  -9   1    0.60    2.32
   1   9   0   74.22    4.66
  -1  -9   0   74.55    6.76
   1   9   1  190.29   11.05
  -1  -9  -1  187.05   11.02
   1   9   2   71.47    5.43
  -1  -9  -2   71.97    6.93
   1   9   3   62.16    4.63
  -1  -9  -3   54.01    3.78
  -1  -9  -3   60.52    4.97
   1   9   4  120.08    6.02
  -1  -9  -4  111.94    6.88
  -1  -9  -4  148.99   10.89
   1   9   5  347.29   17.09
  -1  -9  -5  354.40   19.42
  -1  -9  -5  346.44   19.08
  -1  -9  -6  121.14    9.23
  -1  -9  -6  115.06    8.58
  -1  -9  -7   13.45    3.97
  -1  -9  -7   12.61    2.27
  -1  -9  -8   78.17    5.85
  -1  -9  -8   78.57    5.30
   1   9   9  177.90    9.10
  -1  -9  -9  188.18   13.05
   1   9  10   38.10    3.59
  -1  -9 -10   39.28    3.78
   1   9  11   11.49    1.52
  -1  -9 -11   11.07    2.03
   1   9  12    2.57    1.00
  -1  -9 -12    1.80    1.86
   1  10  -2   36.46    3.22
  -1 -10   2   34.02    3.12
   1  10  -1   12.75    2.34
  -1 -10   1   12.47    2.59
   1  10   0    1.15    1.09
  -1 -10   0    1.05    1.97
   1  10   1   35.78    2.68
  -1 -10  -1   33.86    3.13
   1  10   2  136.58    7.06
  -1 -10  -2  138.77    8.08
   1  10   3   25.75    2.94
  -1 -10  -3   24.68    4.35
  -1 -10  -3   23.40    3.00
   1  10   4   71.02    3.89
  -1 -10  -4   68.16    5.60
  -1 -10  -4   73.86    5.75
   1  10   5  379.88   18.61
  -1 -10  -5  396.50   22.69
  -1 -10  -5  408.48   23.60
  -1 -10  -6    4.28    3.00
  -1 -10  -6    3.57    1.79
  -1 -10  -7  409.70   22.62
  -1 -10  -7  369.49   21.09
  -1 -10  -8   14.34    4.16
  -1 -10  -8   14.43    2.40
   1  10   9   51.78    3.15
  -1 -10  -9   54.83    4.50
   1  10  10    8.03    1.92
  -1 -10 -10    8.16    3.18
   1  10  11    1.22    1.29
  -1 -10 -11    1.32    1.27
   1  10  12   24.57    2.23
  -1 -10 -12   24.77    2.00
   1  11   1   31.75    2.15
  -1 -11  -1   31.37    2.14
   1  11   2   10.78    1.33
  -1 -11  -2   10.66    1.51
   1  11   3   67.15    4.19
  -1 -11  -3   69.32    5.11
   1  11   4   88.12    4.85
  -1 -11  -4   83.50    5.20
  -1 -11  -4   81.27    5.82
  -1 -11  -5  135.41    8.20
  -1 -11  -5  133.96    7.28
  -1 -11  -6   97.54    6.97
  -1 -11  -6   95.05    6.87
  -1 -11  -7  129.83    8.92
  -1 -11  -7  122.76    6.68
   1  11   8  245.68   11.50
  -1 -11  -8  265.78   14.18
   1  11   9    1.37    1.26
  -1 -11  -9    1.64    1.46
   1  11  10    4.11    0.81
  -1 -11 -10    3.42    2.35
   2 -10  -9   77.86    4.00
   2 -10  -8   34.80    2.57
   2 -10  -8   34.80    3.39
   2 -10  -7    6.12    2.44
   2 -10  -7    6.09    1.41
  -2  10   7    8.75    1.56
   2 -10  -6   78.80    4.91
  -2  10   6   74.13    4.01
  -2  10   6   78.07    4.14
   2 -10  -5   51.70    5.15
  -2  10   5   48.40    4.02
   2 -10  -4   16.08    3.15
  -2  10   4   14.98    1.83
   2 -10  -3    5.87    2.37
  -2  10   3    5.28    1.90
  -2  10   3    4.59    1.37
   2 -10  -2   29.69    2.50
  -2  10   2   26.73    2.94
  -2  10   2   28.48    2.36
   2 -10  -1  172.57    9.20
  -2  10   1  161.56    7.75
  -2  10   1  171.91    8.35
   2  -9 -10   77.08    5.16
   2  -9  -9   91.62    6.20
   2  -9  -9   88.05    5.53
   2  -9  -8   22.00    3.27
   2  -9  -8   21.49    2.35
  -2   9   8   19.34    1.49
   2  -9  -7   22.37    2.49
  -2   9   7   22.73    2.14
  -2   9   7   20.65    2.56
   2  -9  -6   44.37    4.85
  -2   9   6   44.28    4.18
  -2   9   6   44.93    4.05
   2  -9  -5   72.37    5.07
  -2   9   5   68.24    4.24
  -2   9   5   69.69    4.36
   2  -9  -4    5.21    2.95
  -2   9   4    4.30    2.47
   2  -9  -3   83.81    6.59
  -2   9   3   84.77    6.23
  -2   9   3   82.36    4.90
   2  -9  -2   24.88    2.58
  -2   9   2   25.36    2.44
  -2   9   2   26.04    3.44
   2  -9  -1   10.00    1.70
  -2   9   1    9.15    1.67
  -2   9   1    9.03    1.66
   2  -9   0   60.78    4.50
  -2   9   0   62.64    3.80
  -2   9   0   64.34    3.82
   2  -9   1   60.56    4.10
  -2   9  -1   58.91    3.48
  -2   9  -1   57.61    4.00
  -2   9  -2    3.26    1.21
  -2   9  -2    3.05    1.01
   2  -8 -11   14.38    1.66
   2  -8 -10   23.26    2.32
   2  -8  -9   44.57    3.77
   2  -8  -9   47.53    4.68
   2  -8  -8    4.17    2.13
   2  -8  -8    3.82    1.61
  -2   8   8    2.38    0.93
   2  -8  -7    2.59    2.33
  -2   8   7    3.31    1.30
  -2   8   7    2.71    1.09
   2  -8  -6    9.26    2.04
  -2   8   6   11.00    1.87
  -2   8   6   10.27    2.62
   2  -8  -5  243.57   14.71
  -2   8   5  283.04   15.65
  -2   8   5  254.06   13.45
   2  -8  -4  235.13   12.87
  -2   8   4  225.31   11.93
  -2   8   4  230.31   13.40
   2  -8  -3   25.44    3.97
  -2   8   3   23.15    2.54
   2  -8  -2    4.78    2.44
  -2   8   2    5.89    2.56
  -2   8   2    5.55    1.59
   2  -8  -1   15.90    2.08
  -2   8   1   15.53    3.27
  -2   8   1   17.13    3.20
   2  -8   0  139.59    7.51
  -2   8   0  147.46    8.99
  -2   8   0  145.41    7.93
   2  -8   1  108.04    6.55
  -2   8  -1  116.72    6.49
  -2   8  -1  114.50    7.11
   2  -8   2   46.85    3.51
  -2   8  -2   47.81    3.32
  -2   8  -2   45.58    2.83
   2  -8   3   34.37    2.33
  -2   8  -3   38.83    2.73
  -2   8  -3   35.05    2.53
  -2   8  -4    1.56    0.93
   2  -7 -12   68.18    3.72
   2  -7 -11   88.10    4.99
   2  -7 -10    1.35    2.06
   2  -7  -9  111.19    7.89
   2  -7  -8  105.72    6.96
   2  -7  -8  110.55    6.72
  -2   7   8  105.03    5.41
   2  -7  -7   44.19    4.21
  -2   7   7   48.86    3.90
  -2   7   7   47.86    3.40
   2  -7  -6   25.78    3.72
  -2   7   6   22.21    2.29
  -2   7   6   24.56    3.15
   2  -7  -5    9.49    1.85
  -2   7   5   11.94    2.68
  -2   7   5   10.02    1.76
   2  -7  -4   20.05    3.16
  -2   7   4   21.81    3.24
   2  -7  -3   91.31    5.37
  -2   7   3   88.53    5.18
  -2   7   3   88.81    5.32
   2  -7  -2   15.33    3.23
  -2   7   2   40.43    3.95
   2  -7  -1   24.76    3.13
  -2   7   1   23.56    3.35
  -2   7   1   24.05    2.44
   2  -7   0  237.05   12.96
  -2   7   0  243.86   14.00
  -2   7   0  239.53   12.46
   2  -7   1  237.54   12.74
  -2   7  -1  247.70   14.40
  -2   7  -1  237.34   12.22
   2  -7   2   47.75    3.75
  -2   7  -2   50.08    3.80
  -2   7  -2   52.42    4.26
   2  -7   3  127.16    6.93
  -2   7  -3  133.51    7.38
  -2   7  -3  126.78    6.97
  -2   7  -4   22.23    2.27
  -2   7  -5    8.35    1.45
   2  -6 -12    8.95    1.49
   2  -6 -11   17.54    3.00
   2  -6 -10   66.18    5.73
   2  -6  -9   44.09    4.84
   2  -6  -8  247.52   13.50
  -2   6   8  240.93   12.47
   2  -6  -7  417.37   22.24
  -2   6   7  463.26   23.37
  -2   6   7  435.19   22.59
   2  -6  -6   40.41    3.72
  -2   6   6   45.65    3.16
  -2   6   6   44.06    3.86
   2  -6  -5   37.39    3.73
  -2   6   5   36.64    3.77
  -2   6   5   38.23    2.84
   2  -6  -4   19.85    1.99
  -2   6   4   29.36    3.26
  -2   6   4   20.15    2.99
   2  -6  -3  112.00    6.53
  -2   6   3  112.32    5.96
  -2   6   3  115.30    6.18
   2  -6  -2   35.49    2.51
  -2   6   2   34.18    3.54
  -2   6   2   34.21    2.65
   2  -6  -1   75.52    5.08
  -2   6   1   70.92    5.29
  -2   6   1   69.41    4.17
   2  -6   0  228.95   11.75
  -2   6   0  232.05   11.93
  -2   6   0  232.02   11.64
   2  -6   1  592.96   30.71
  -2   6  -1  614.87   33.65
  -2   6  -1  582.50   30.22
   2  -6   2  314.46   16.10
  -2   6  -2  339.41   18.98
  -2   6  -2  314.57   15.76
   2  -6   3  335.07   17.05
  -2   6  -3  326.02   17.07
  -2   6  -3  290.58   14.39
   2  -6   4   60.03    3.26
  -2   6  -4   64.40    4.33
  -2   6  -5    2.93    1.43
  -2   6  -6    5.14    2.22
  -2   6  -7    0.49    1.38
   2  -5 -12    4.59    2.03
   2  -5 -12    3.81    0.82
   2  -5 -11    5.29    1.57
   2  -5 -11    6.62    2.45
   2  -5 -10  241.88   12.18
   2  -5 -10  258.57   13.48
   2  -5  -9   53.09    3.78
   2  -5  -9   54.08    4.00
   2  -5  -8 1114.21   63.16
   2  -5  -8 1107.65   58.76
  -2   5   8 1042.83   56.84
   2  -5  -7 1534.87   85.17
  -2   5   7 1562.50   89.66
   2  -5  -6  130.14    7.16
  -2   5   6  145.51    7.18
  -2   5   6  151.82    8.56
   2  -5  -5  407.66   20.59
  -2   5   5  461.85   22.73
  -2   5   5  448.32   22.89
   2  -5  -4  482.32   24.30
  -2   5   4  468.89   24.05
  -2   5   4  488.45   25.30
   2  -5  -3  237.79   11.06
  -2   5   3  239.59   11.42
  -2   5   3  243.85   11.78
   2  -5  -2   42.47    3.00
  -2   5   2   44.81    2.79
  -2   5   2   44.66    3.62
   2  -5  -1  146.78    6.77
  -2   5   1  151.65    8.29
  -2   5   1  140.31    6.95
   2  -5   0   82.27    4.83
  -2   5   0   80.83    5.45
  -2   5   0   76.54    4.16
   2  -5   1  363.56   17.71
  -2   5  -1  369.69   18.32
  -2   5  -1  333.60   17.22
   2  -5   2    2.36    1.60
  -2   5  -2    7.83    1.55
  -2   5  -2    2.15    1.66
   2  -5   3  313.84   15.44
  -2   5  -3  317.87   17.54
  -2   5  -3  294.07   14.25
   2  -5   4  372.12   18.44
  -2   5  -4  380.20   21.36
   2  -5   5   13.90    1.27
  -2   5  -5   13.89    3.51
  -2   5  -6  160.81   10.07
  -2   5  -7    1.32    1.91
  -2   5  -8    0.56    0.87
   2  -4 -13   14.72    1.50
   2  -4 -12    5.48    1.40
   2  -4 -12    5.79    1.18
   2  -4 -11   12.18    1.91
   2  -4 -11   12.60    1.66
   2  -4 -10   17.94    1.88
   2  -4 -10   17.58    3.31
   2  -4  -9   29.97    3.95
   2  -4  -9   29.43    2.99
   2  -4  -8   41.00    4.60
   2  -4  -8   42.20    3.35
  -2   4   8   38.84    3.07
   2  -4  -7   20.04    2.22
   2  -4  -7   19.93    1.45
  -2   4   7   19.63    2.38
   2  -4  -6   48.67    3.20
   2  -4  -6   51.00    2.39
  -2   4   6   53.19    3.11
  -2   4   6   50.86    3.67
   2  -4  -5  322.94   15.46
   2  -4  -5  345.96   16.43
  -2   4   5  370.39   17.35
  -2   4   5  365.07   18.04
   2  -4  -4  375.79   17.85
   2  -4  -4  429.38   20.29
   2  -4  -4  386.26   17.95
   2  -4  -4  423.45   20.26
  -2   4   4  399.18   17.72
  -2   4   4  403.93   19.12
  -2   4   4  410.89   19.75
   2  -4  -3  921.69   47.19
   2  -4  -3 1095.63   56.30
   2  -4  -3  918.90   47.18
   2  -4  -3 1010.67   53.77
  -2   4   3  964.18   49.95
  -2   4   3 1014.06   50.19
  -2   4   3 1004.22   53.27
   2  -4  -2   81.60    4.22
   2  -4  -2   77.56    4.12
  -2   4   2   81.77    3.75
  -2   4   2   84.25    4.02
  -2   4   2   82.11    4.10
  -2   4   2   84.83    5.01
   2  -4  -1  174.18    8.13
   2  -4  -1  168.92    9.32
   2  -4  -1  275.26   12.84
   2  -4  -1  179.42    7.86
  -2   4   1  267.20   12.17
  -2   4   1  181.51    8.90
  -2   4   1  180.27    9.07
  -2   4   1  172.02    7.56
   2  -4   0  599.32   31.01
   2  -4   0  643.32   32.76
   2  -4   0  597.87   29.08
   2  -4   0  646.75   30.52
  -2   4   0  631.07   29.96
  -2   4   0  630.74   31.74
  -2   4   0  611.66   29.84
  -2   4   0  560.94   26.49
   2  -4   1  369.43   16.75
   2  -4   1  431.60   21.47
   2  -4   1  396.90   18.62
  -2   4  -1  391.06   17.74
  -2   4  -1  381.43   18.33
  -2   4  -1  358.37   17.60
  -2   4  -1  347.85   16.24
   2  -4   2  340.03   15.89
   2  -4   2  307.34   13.66
  -2   4  -2  308.26   15.02
  -2   4  -2  293.43   13.83
  -2   4  -2  343.13   17.33
   2  -4   3  775.92   38.77
  -2   4  -3  765.08   39.61
  -2   4  -3  674.76   34.59
  -2   4  -3  670.65   33.90
   2  -4   4  108.64    5.73
  -2   4  -4  112.19    7.23
  -2   4  -4  103.92    5.66
   2  -4   5   91.39    4.38
  -2   4  -5   92.47    6.64
  -2   4  -5   83.90    5.02
   2  -4   6  255.90   12.04
  -2   4  -6  266.04   15.08
  -2   4  -6  245.02   12.60
  -2   4  -7  235.20   12.46
  -2   4  -8   16.35    1.98
  -2   4  -9   10.85    2.21
   2  -3 -12   30.55    3.39
   2  -3 -12   29.30    3.41
  -2   3  12   28.59    2.00
   2  -3 -11   85.23    5.04
   2  -3 -11   86.00    6.14
  -2   3  11   80.46    4.43
   2  -3 -10   29.19    2.61
   2  -3 -10   29.07    2.69
  -2   3  10   25.76    2.77
   2  -3  -9   22.28    2.34
   2  -3  -9   21.25    3.05
  -2   3   9   20.66    1.79
   2  -3  -8  137.58    8.40
   2  -3  -8  140.95    7.84
  -2   3   8  143.56    7.27
  -2   3   8  119.54    6.39
   2  -3  -7  187.27   10.38
   2  -3  -7  186.04    9.09
  -2   3   7  175.14    8.97
   2  -3  -6   41.65    2.75
   2  -3  -6   39.74    2.04
  -2   3   6   40.65    3.15
   2  -3  -5  307.88   14.06
   2  -3  -5  338.46   15.91
   2  -3  -5  325.20   15.49
  -2   3   5  345.09   14.71
  -2   3   5  320.66   15.39
  -2   3   5  320.73   15.69
   2  -3  -4  343.46   15.62
   2  -3  -4  409.15   18.54
   2  -3  -4  374.85   17.17
  -2   3   4  411.37   17.62
  -2   3   4  383.65   18.55
  -2   3   4  373.66   17.71
   2  -3  -3  277.36   11.80
   2  -3  -3  321.09   14.24
   2  -3  -3  294.90   13.38
   2  -3  -3  293.63   13.13
  -2   3   3  288.25   12.09
  -2   3   3  289.01   13.52
  -2   3   3  305.56   13.95
   2  -3  -2 2175.28  125.35
   2  -3  -2 1963.98  112.79
   2  -3  -2 2019.27  117.12
   2  -3  -2 1962.73  110.19
  -2   3   2 2010.03  113.21
  -2   3   2 1982.09  114.44
  -2   3   2 2006.78  116.65
   2  -3  -1  989.37   50.39
   2  -3  -1 1071.46   54.32
   2  -3  -1 1002.77   50.23
   2  -3  -1 1025.35   52.62
  -2   3   1 1028.77   53.28
  -2   3   1  954.91   48.08
   2  -3   0  491.43   23.60
   2  -3   0  529.38   25.94
   2  -3   0  534.55   25.21
   2  -3   0  526.47   23.74
  -2   3   0  548.09   24.72
  -2   3   0  519.62   25.10
  -2   3   0  491.32   23.65
  -2   3   0  489.28   22.83
   2  -3   1   91.96    5.74
   2  -3   1   87.58    4.26
   2  -3   1   90.43    4.68
   2  -3   1   83.15    4.16
  -2   3  -1   88.78    3.87
  -2   3  -1   83.11    4.59
  -2   3  -1   80.43    3.76
  -2   3  -1   80.51    4.04
   2  -3   2  141.90    6.79
   2  -3   2  148.43    8.36
   2  -3   2  149.21    6.95
   2  -3   2  147.88    6.84
  -2   3  -2  137.98    5.84
  -2   3  -2  143.39    6.66
  -2   3  -2  112.91    5.58
  -2   3  -2  133.65    6.01
   2  -3   3   99.39    4.99
   2  -3   3   81.82    4.31
   2  -3   3   86.51    4.52
  -2   3  -3   83.61    3.71
  -2   3  -3   88.76    5.31
  -2   3  -3   85.29    4.83
  -2   3  -3   79.75    4.10
   2  -3   4   16.61    1.92
  -2   3  -4   17.39    1.81
  -2   3  -4   17.11    1.63
   2  -3   5    5.43    1.31
  -2   3  -5    5.41    1.42
  -2   3  -5    5.31    1.23
   2  -3   6   14.20    1.18
  -2   3  -6   15.12    1.81
  -2   3  -6   16.24    2.06
  -2   3  -7   31.89    2.90
  -2   3  -7   30.96    2.54
  -2   3  -8    1.39    2.16
  -2   3  -8    1.97    1.73
  -2   3  -9   23.56    3.09
  -2   3  -9   22.49    2.43
  -2   3 -10   21.28    1.86
  -2   3 -10   22.73    2.53
   2  -2 -12   31.93    3.26
   2  -2 -12   29.96    2.61
  -2   2  12   31.17    2.91
   2  -2 -11   54.42    4.64
   2  -2 -11   51.72    3.79
  -2   2  11   56.46    4.49
   2  -2 -10  154.80    9.38
   2  -2 -10  154.28    8.45
  -2   2  10  147.59    7.84
   2  -2  -9   27.78    3.55
   2  -2  -9   29.62    2.58
  -2   2   9   24.25    2.86
   2  -2  -8   11.91    2.49
   2  -2  -8   11.67    1.72
  -2   2   8   10.90    1.70
  -2   2   8   10.42    1.34
   2  -2  -7    3.39    1.90
   2  -2  -7    3.82    1.02
  -2   2   7    6.38    1.52
  -2   2   7    4.04    1.35
   2  -2  -6   74.83    4.73
   2  -2  -6   83.99    3.73
  -2   2   6   64.58    3.47
  -2   2   6   74.86    3.79
   2  -2  -5  305.85   14.04
   2  -2  -5  297.62   14.17
  -2   2   5  258.62   11.51
  -2   2   5  322.90   13.65
  -2   2   5  293.29   13.13
  -2   2   5  312.70   14.98
   2  -2  -4   82.52    3.49
   2  -2  -4   81.61    4.17
   2  -2  -4   84.23    3.86
  -2   2   4   64.21    2.76
  -2   2   4   82.38    4.53
  -2   2   4   85.89    3.50
  -2   2   4   83.89    3.68
  -2   2   4   80.10    4.04
   2  -2  -3  343.16   14.18
   2  -2  -3  362.64   15.86
   2  -2  -3  351.59   15.68
  -2   2   3  322.22   12.89
  -2   2   3  364.22   15.34
  -2   2   3  356.89   15.94
  -2   2   3  341.81   14.01
  -2   2   3  343.88   15.54
   2  -2  -2  189.87    8.06
   2  -2  -2  201.63    8.68
   2  -2  -2  196.52    8.34
   2  -2  -2  186.03    7.63
  -2   2   2  191.75    7.89
  -2   2   2  191.60    8.04
  -2   2   2  198.47    8.71
   2  -2  -1  582.45   27.11
   2  -2  -1  591.63   27.05
   2  -2  -1  582.78   26.81
   2  -2  -1  580.42   26.07
  -2   2   1  563.27   26.89
  -2   2   1  544.61   25.36
   2  -2   0 1747.93   95.57
   2  -2   0 1691.95   93.11
   2  -2   0 1609.45   86.40
   2  -2   0 1622.27   90.15
  -2   2   0 1608.29   88.12
  -2   2   0 1645.02   89.82
  -2   2   0 1648.31   90.41
   2  -2   1  687.96   33.92
   2  -2   1  660.78   31.82
   2  -2   1  640.32   31.30
   2  -2   1  631.51   29.11
  -2   2  -1  631.25   30.25
  -2   2  -1  644.39   31.04
  -2   2  -1  620.03   29.61
   2  -2   2  128.24    7.09
   2  -2   2  125.76    5.66
   2  -2   2  122.97    5.44
  -2   2  -2  119.88    5.20
  -2   2  -2  117.29    5.67
  -2   2  -2   98.80    4.56
  -2   2  -2  114.59    5.70
   2  -2   3  382.00   17.43
   2  -2   3  376.62   18.35
   2  -2   3  393.62   18.07
  -2   2  -3  344.80   14.75
  -2   2  -3  360.15   16.65
  -2   2  -3  392.01   18.15
  -2   2  -3  346.19   15.46
   2  -2   4    1.75    1.08
   2  -2   4    1.81    0.83
   2  -2   4    2.04    0.73
   2  -2   4   -0.02    0.63
  -2   2  -4    1.55    1.29
  -2   2  -4    1.27    1.48
   2  -2   5  112.67    5.11
  -2   2  -5  125.93    7.43
  -2   2  -5  120.71    6.86
   2  -2   6   99.27    4.62
  -2   2  -6  106.24    7.01
  -2   2  -6  102.76    6.53
   2  -2   7    1.38    0.99
  -2   2  -7    1.40    1.93
  -2   2  -7    1.31    2.07
  -2   2  -8   22.94    3.54
  -2   2  -8   24.21    3.54
  -2   2  -9    3.23    1.35
  -2   2  -9    2.83    1.36
  -2   2 -10    2.12    1.78
  -2   2 -10    1.80    1.78
  -2   2 -11   51.87    2.74
  -2   2 -11   52.85    2.84
   2  -1 -12    0.59    0.80
   2  -1 -12    0.19    1.06
  -2   1  12    0.45    0.86
   2  -1 -11    4.96    1.65
   2  -1 -11    4.61    1.37
  -2   1  11    4.52    1.42
   2  -1 -10    2.31    2.44
   2  -1 -10    1.96    2.02
  -2   1  10    2.40    2.07
   2  -1  -9   20.74    3.12
   2  -1  -9   21.28    3.86
  -2   1   9   19.95    2.18
   2  -1  -8   67.52    4.04
   2  -1  -8   69.43    4.24
  -2   1   8   66.24    4.01
  -2   1   8   64.94    4.85
   2  -1  -7   59.21    4.22
   2  -1  -7   60.14    3.28
  -2   1   7   55.71    3.59
  -2   1   7   54.15    3.75
   2  -1  -6  195.46    9.20
   2  -1  -6  187.21    9.50
   2  -1  -6  193.82    8.46
  -2   1   6  188.23    9.35
  -2   1   6  191.53    9.67
  -2   1   6  173.06    8.08
   2  -1  -5   88.51    4.72
   2  -1  -5   89.04    4.72
  -2   1   5   84.04    4.24
  -2   1   5   79.90    3.62
   2  -1  -4  110.90    4.88
   2  -1  -4  108.27    5.30
   2  -1  -4  109.30    5.48
  -2   1   4   95.31    3.99
  -2   1   4  105.02    4.66
  -2   1   4  111.78    5.74
  -2   1   4  114.48    5.02
   2  -1  -3  309.19   12.39
   2  -1  -3  342.84   15.57
   2  -1  -3  336.97   14.89
  -2   1   3  356.24   15.34
  -2   1   3  320.13   13.93
  -2   1   3  323.58   13.50
  -2   1   3  316.62   13.27
  -2   1   3  341.61   15.26
   2  -1  -2   87.47    4.27
   2  -1  -2   89.76    3.96
   2  -1  -2   84.31    3.26
  -2   1   2   88.94    3.67
  -2   1   2   86.04    3.05
  -2   1   2   91.33    3.89
  -2   1   2   86.19    3.07
  -2   1   2   89.54    4.55
   2  -1  -1  100.89    4.30
   2  -1  -1  101.16    4.43
   2  -1  -1  102.22    4.74
   2  -1  -1   93.19    3.54
  -2   1   1   96.23    4.05
  -2   1   1  100.30    4.81
  -2   1   1   97.28    4.44
   2  -1   0  471.77   22.33
   2  -1   0  506.97   22.29
   2  -1   0  495.51   21.74
  -2   1   0  498.73   22.33
  -2   1   0  498.47   21.67
  -2   1   0  502.90   23.03
  -2   1   0  508.56   22.77
   2  -1   1  205.75    9.62
   2  -1   1  209.51    8.92
   2  -1   1  220.97    8.91
  -2   1  -1  200.45    8.42
  -2   1  -1  200.07    9.13
  -2   1  -1  206.12    9.37
  -2   1  -1  214.02    9.19
   2  -1   2  633.36   31.28
   2  -1   2  623.44   28.33
   2  -1   2  675.36   31.23
   2  -1   2  668.39   31.95
  -2   1  -2  696.54   33.13
  -2   1  -2  663.71   32.32
  -2   1  -2  602.40   27.98
  -2   1  -2  642.05   30.13
   2  -1   3   93.44    5.54
   2  -1   3   91.48    4.38
   2  -1   3   96.50    4.17
   2  -1   3   88.14    3.36
  -2   1  -3   86.98    3.52
  -2   1  -3  100.65    4.68
  -2   1  -3   86.04    4.27
  -2   1  -3   89.65    5.09
  -2   1  -3   82.32    3.29
   2  -1   4  104.42    6.22
   2  -1   4  102.01    5.51
   2  -1   4   94.79    4.39
   2  -1   4   94.89    4.02
  -2   1  -4  100.09    5.04
  -2   1  -4   91.78    4.30
  -2   1  -4   94.00    4.69
   2  -1   5    5.61    1.31
   2  -1   5    5.92    1.02
   2  -1   5    9.77    1.18
  -2   1  -5    6.06    1.41
  -2   1  -5    5.84    1.61
  -2   1  -5    5.66    1.83
  -2   1  -6   22.02    2.43
  -2   1  -6   23.57    2.37
  -2   1  -6   22.91    2.64
  -2   1  -7   27.41    2.10
  -2   1  -7   27.68    2.78
  -2   1  -7   25.34    3.14
   2  -1   8   84.16    4.01
  -2   1  -8   94.59    5.92
  -2   1  -8   92.61    5.34
  -2   1  -9  355.98   18.52
  -2   1  -9  375.70   21.39
  -2   1 -10    6.94    2.21
  -2   1 -10    6.88    2.71
  -2   1 -11    0.80    0.90
  -2   1 -11    1.05    1.08
   2   0 -12    3.50    1.21
  -2   0  12    1.57    1.64
   2   0 -11   20.44    1.87
   2   0 -11   20.20    3.50
  -2   0  11   20.01    3.22
   2   0 -10   42.75    3.57
   2   0 -10   45.46    4.07
  -2   0  10   42.05    3.49
   2   0  -9   54.54    4.08
   2   0  -9   53.87    4.61
  -2   0   9   53.73    5.25
   2   0  -8  216.40   10.94
   2   0  -8  214.05   10.97
  -2   0   8  214.35   10.54
  -2   0   8  218.94   11.49
   2   0  -7   30.63    3.00
   2   0  -7   30.11    3.04
  -2   0   7   29.36    2.68
  -2   0   7   29.31    2.43
   2   0  -6   31.43    2.67
   2   0  -6   33.33    2.74
  -2   0   6   31.24    2.66
  -2   0   6   32.43    3.00
   2   0  -5   82.59    3.92
   2   0  -5   90.50    3.96
   2   0  -5   91.23    4.82
   2   0  -5   84.56    4.18
  -2   0   5   85.82    4.73
  -2   0   5   68.60    4.10
  -2   0   5   88.36    4.60
   2   0  -4  425.82   19.92
   2   0  -4  463.34   21.37
   2   0  -4  434.01   20.74
  -2   0   4  473.10   21.84
  -2   0   4  498.00   21.66
  -2   0   4  422.98   20.05
   2   0  -3 1334.20   64.92
   2   0  -3 1345.92   70.44
   2   0  -3 1303.44   66.50
   2   0  -3 1363.07   72.06
   2   0  -3 1327.49   70.30
  -2   0   3 1322.03   69.47
  -2   0   3 1429.88   76.50
  -2   0   3 1304.02   67.76
   2   0  -2  992.86   46.92
   2   0  -2  990.02   50.08
   2   0  -2  991.22   49.83
   2   0  -2  941.86   43.73
  -2   0   2 1069.52   52.51
  -2   0   2  945.08   46.11
  -2   0   2  984.99   49.93
   2   0  -1   50.10    1.71
   2   0  -1   49.75    2.78
  -2   0   1   45.98    1.83
  -2   0   1   50.63    2.38
  -2   0   1   49.33    1.97
  -2   0   1   49.40    2.20
   2   0   0  258.60   11.80
   2   0   0  262.21   11.23
   2   0   0  252.83    9.98
  -2   0   0  252.56    9.78
  -2   0   0  249.39   10.43
  -2   0   0  252.05   10.52
  -2   0   0  251.79   10.97
   2   0   1  183.08    7.88
   2   0   1  177.56    6.90
  -2   0  -1  177.66    8.12
  -2   0  -1  170.38    6.55
  -2   0  -1  175.69    7.91
  -2   0  -1  178.13    7.15
   2   0   2  169.48    8.04
   2   0   2  148.73    6.82
   2   0   2  148.53    5.95
   2   0   2  144.59    5.02
   2   0   2  155.00    6.13
  -2   0  -2  145.30    6.47
  -2   0  -2  144.18    5.78
  -2   0  -2  148.81    7.13
  -2   0  -2  142.03    5.82
   2   0   3   80.78    4.89
   2   0   3   76.37    3.40
   2   0   3   70.86    2.66
   2   0   3   76.00    4.47
  -2   0  -3   72.15    3.62
  -2   0  -3   70.95    3.24
  -2   0  -3   74.91    4.42
  -2   0  -3   68.91    2.79
   2   0   4  593.38   28.84
   2   0   4  567.30   26.49
   2   0   4  555.06   25.72
   2   0   4  543.15   23.99
  -2   0  -4  565.75   27.07
  -2   0  -4  425.58   20.53
  -2   0  -4  564.92   27.09
   2   0   5  124.09    6.97
   2   0   5  123.10    5.83
   2   0   5  113.07    4.67
   2   0   5  121.85    5.59
  -2   0  -5  126.23    6.10
  -2   0  -5  124.36    7.05
  -2   0  -5   96.97    4.58
   2   0   6   28.91    1.90
   2   0   6   28.49    2.08
  -2   0  -6   29.78    2.02
  -2   0  -6   29.92    3.55
  -2   0  -6   29.78    2.92
   2   0   7  159.12    7.47
  -2   0  -7  169.57   10.31
  -2   0  -7  173.15    8.47
  -2   0  -7  166.67    8.36
   2   0   8  298.14   15.13
  -2   0  -8  297.96   15.64
  -2   0  -8  279.92   16.75
  -2   0  -8  291.21   15.67
   2   0   9  267.59   14.03
  -2   0  -9  273.08   15.06
  -2   0  -9  278.00   15.11
   2   0  10   74.23    4.27
  -2   0 -10   72.92    5.13
  -2   0 -10   71.33    4.32
  -2   0 -11   12.66    2.28
  -2   0 -11   13.22    3.08
  -2   0 -12   48.24    4.10
  -2   0 -12   44.11    2.46
   2   1 -11    4.05    1.36
   2   1 -11    2.12    2.00
  -2  -1  11    2.25    2.02
   2   1 -10    0.96    1.53
   2   1 -10    1.38    1.99
  -2  -1  10    0.80    2.18
   2   1  -9  236.54   13.69
   2   1  -9  239.53   13.08
  -2  -1   9  244.56   14.78
   2   1  -8    3.60    2.36
   2   1  -8    1.73    1.15
  -2  -1   8    1.59    1.37
  -2  -1   8    1.59    1.54
   2   1  -7   68.74    4.72
   2   1  -7   71.92    4.24
  -2  -1   7   75.65    4.87
  -2  -1   7   73.54    5.91
   2   1  -6  147.03    7.09
   2   1  -6  155.74    7.19
  -2  -1   6  148.68    7.69
  -2  -1   6  153.63    8.84
   2   1  -5  366.24   16.63
   2   1  -5  335.90   16.15
   2   1  -5  342.16   15.85
   2   1  -5  367.89   17.77
  -2  -1   5  358.59   16.64
  -2  -1   5  344.65   17.42
   2   1  -4  227.26    9.86
   2   1  -4  243.89   10.73
   2   1  -4  253.29   11.81
  -2  -1   4  256.03   11.92
  -2  -1   4  199.19    9.91
   2   1  -3  358.38   15.93
   2   1  -3  389.84   16.91
   2   1  -3  387.13   17.60
  -2  -1   3  381.65   17.98
  -2  -1   3  431.25   18.74
   2   1  -2  203.69    7.28
   2   1  -2  192.28    7.70
   2   1  -2  200.62    8.28
   2   1  -2  201.38    8.68
   2   1  -2  204.98    6.88
  -2  -1   2  215.64    9.23
  -2  -1   2  208.91    8.39
  -2  -1   2  183.92    8.40
   2   1  -1 1084.61   53.85
   2   1  -1 1153.46   56.53
   2   1  -1 1142.96   55.05
   2   1  -1 1182.43   59.80
  -2  -1   1 1182.59   60.58
  -2  -1   1 1124.25   56.02
  -2  -1   1 1128.42   57.35
  -2  -1   1 1169.18   57.29
   2   1   0 1865.05   97.60
   2   1   0 1864.38   97.34
   2   1   0 1819.94   98.20
   2   1   0 1927.03  107.86
   2   1   0 1856.21  102.72
  -2  -1   0 1853.16  102.28
  -2  -1   0 1822.55  100.12
  -2  -1   0 1929.49  106.66
  -2  -1   0 2022.38  111.91
   2   1   1  802.16   37.15
   2   1   1  836.50   41.06
   2   1   1  787.34   34.25
   2   1   1  817.27   38.49
  -2  -1  -1  801.29   38.62
  -2  -1  -1  774.20   33.40
  -2  -1  -1  845.25   40.08
  -2  -1  -1  812.03   37.81
  -2  -1  -1  811.92   38.06
   2   1   2  784.17   37.46
   2   1   2  788.85   34.66
   2   1   2  761.82   34.75
   2   1   2  669.29   31.38
  -2  -1  -2  727.38   36.04
  -2  -1  -2  722.93   31.77
  -2  -1  -2  792.85   37.48
  -2  -1  -2  766.28   35.07
  -2  -1  -2  765.76   34.93
   2   1   3  546.49   26.69
   2   1   3  521.17   22.48
   2   1   3  572.08   23.86
   2   1   3  564.31   26.88
  -2  -1  -3  515.60   25.23
  -2  -1  -3  482.96   21.00
  -2  -1  -3  551.15   25.40
  -2  -1  -3  468.61   20.08
   2   1   4 1155.69   61.15
   2   1   4 1113.82   55.47
   2   1   4 1093.28   54.35
   2   1   4 1128.86   59.37
  -2  -1  -4 1109.80   58.69
  -2  -1  -4 1133.84   59.03
  -2  -1  -4 1044.70   52.41
   2   1   5  277.06   13.18
   2   1   5  297.98   14.17
   2   1   5  255.20   11.06
  -2  -1  -5  248.65   12.68
  -2  -1  -5  249.73   11.30
  -2  -1  -5  270.70   12.99
   2   1   6  682.97   35.71
   2   1   6  622.30   29.98
   2   1   6  785.40   38.89
  -2  -1  -6  645.93   34.27
  -2  -1  -6  693.70   36.59
  -2  -1  -6  605.61   30.47
  -2  -1  -6  668.66   31.88
   2   1   7  159.63    7.73
  -2  -1  -7  158.95    9.65
  -2  -1  -7  163.93    8.31
  -2  -1  -7  157.75    8.12
   2   1   8  140.42    7.33
  -2  -1  -8  152.80   10.00
  -2  -1  -8  145.16    8.11
  -2  -1  -8  153.44    8.84
   2   1   9  341.87   16.86
  -2  -1  -9  334.25   16.89
  -2  -1  -9  345.04   20.34
  -2  -1  -9  336.91   17.04
   2   1  10  167.84    9.40
  -2  -1 -10  164.76    9.51
  -2  -1 -10  164.48    9.47
   2   1  11   12.56    2.34
  -2  -1 -11   10.88    1.50
  -2  -1 -11   12.45    3.29
   2   1  12   31.09    2.84
  -2  -1 -12   33.61    2.74
  -2  -1 -12   29.73    2.61
   2   2 -11    4.37    1.40
  -2  -2  11    2.43    1.89
   2   2 -10    6.09    1.51
   2   2 -10    6.14    1.34
  -2  -2  10    6.78    2.76
   2   2  -9   85.40    5.41
   2   2  -9   85.01    5.04
  -2  -2   9   91.63    5.97
   2   2  -8   56.63    4.87
   2   2  -8   60.04    3.68
  -2  -2   8   60.60    3.79
  -2  -2   8   62.85    6.33
   2   2  -7  767.12   42.10
   2   2  -7  720.30   39.07
  -2  -2   7  729.44   42.89
  -2  -2   7  781.24   41.21
   2   2  -6   18.00    1.79
   2   2  -6   16.01    1.55
  -2  -2   6   19.71    2.71
  -2  -2   6   18.00    2.31
   2   2  -5  613.98   30.65
   2   2  -5  677.22   32.81
  -2  -2   5  635.17   33.56
  -2  -2   5  730.95   35.99
   2   2  -4   49.11    2.55
   2   2  -4   45.84    2.63
   2   2  -4   48.12    2.25
   2   2  -4   47.52    3.33
  -2  -2   4   47.28    2.99
  -2  -2   4   52.35    3.71
   2   2  -3   11.37    1.04
   2   2  -3   12.15    1.47
   2   2  -3   12.45    1.74
  -2  -2   3   12.04    1.88
  -2  -2   3   12.22    1.27
  -2  -2   3   13.21    0.87
   2   2  -2  524.86   23.23
   2   2  -2  590.92   27.48
   2   2  -2  573.22   26.89
  -2  -2   2  558.97   26.74
  -2  -2   2  595.91   26.37
  -2  -2   2  543.77   26.17
   2   2  -1  104.75    3.73
   2   2  -1  104.88    3.64
   2   2  -1  119.80    5.27
   2   2  -1  114.87    4.98
  -2  -2   1  122.73    5.17
  -2  -2   1  114.29    4.42
  -2  -2   1   96.29    3.63
  -2  -2   1  111.85    4.98
   2   2   0 1117.89   55.54
   2   2   0 1076.35   53.85
   2   2   0 1098.03   55.20
   2   2   0 1117.14   56.23
  -2  -2   0 1168.39   58.27
  -2  -2   0 1091.29   54.69
  -2  -2   0 1051.37   53.87
  -2  -2   0 1088.06   54.36
   2   2   1 1154.69   58.05
   2   2   1 1101.63   56.09
   2   2   1 1087.96   54.49
   2   2   1 1109.87   55.90
  -2  -2  -1 1145.40   56.62
  -2  -2  -1 1077.70   55.22
  -2  -2  -1 1040.47   53.52
  -2  -2  -1 1078.97   53.73
   2   2   2  977.06   48.24
   2   2   2 1000.53   50.76
   2   2   2  914.32   45.74
   2   2   2  987.07   47.54
  -2  -2  -2 1007.47   48.30
  -2  -2  -2  921.43   47.24
  -2  -2  -2 1009.67   49.89
  -2  -2  -2  866.21   43.55
   2   2   3  996.87   51.09
   2   2   3  936.10   43.78
   2   2   3  974.15   48.25
  -2  -2  -3  910.41   40.97
  -2  -2  -3  902.12   46.86
  -2  -2  -3  848.95   42.73
  -2  -2  -3  916.72   42.76
  -2  -2  -3  924.44   41.25
  -2  -2  -3 1008.81   50.31
   2   2   4   78.08    4.00
   2   2   4   77.75    4.45
  -2  -2  -4   74.05    4.74
  -2  -2  -4   72.77    4.17
  -2  -2  -4   66.25    2.67
  -2  -2  -4   74.96    2.76
   2   2   5 2454.46  146.22
   2   2   5 2326.00  137.22
   2   2   5 2233.18  128.83
  -2  -2  -5 2280.13  137.18
  -2  -2  -5 2000.03  115.14
  -2  -2  -5 2150.87  127.56
  -2  -2  -5 2223.04  126.56
   2   2   6  275.18   14.15
   2   2   6  249.22   11.49
   2   2   6  282.26   13.32
  -2  -2  -6  262.34   14.18
  -2  -2  -6  240.78   12.64
  -2  -2  -6  233.73   10.69
  -2  -2  -6  252.87   10.98
   2   2   7   29.72    2.31
  -2  -2  -7   29.87    3.60
  -2  -2  -7   32.05    2.70
  -2  -2  -7   28.09    2.24
  -2  -2  -7   33.40    2.14
   2   2   8   12.52    1.89
  -2  -2  -8   13.80    3.07
  -2  -2  -8   12.48    2.86
  -2  -2  -8   11.21    1.30
   2   2   9  572.78   28.84
  -2  -2  -9  562.06   29.63
  -2  -2  -9  560.20   31.88
  -2  -2  -9  548.67   28.79
   2   2  10  157.45    9.00
  -2  -2 -10  160.05    9.11
  -2  -2 -10  146.65    8.40
  -2  -2 -10  145.76    8.48
   2   2  11   99.89    6.33
  -2  -2 -11  103.34    6.27
  -2  -2 -11   90.79    5.72
   2   2  12   11.44    2.10
  -2  -2 -12   11.06    1.25
  -2  -2 -12   13.25    2.86
   2   2  13   14.09    1.81
  -2  -2 -13   14.71    2.48
   2   3 -10   11.91    1.60
  -2  -3  10   12.85    2.78
   2   3  -9   20.82    1.81
  -2  -3   9   23.06    2.74
   2   3  -8   49.35    4.05
  -2  -3   8   54.15    3.34
  -2  -3   8   49.66    5.61
   2   3  -7  341.25   18.02
  -2  -3   7  373.64   18.57
  -2  -3   7  360.83   20.15
   2   3  -6 2624.65  167.47
  -2  -3   6 2718.31  171.14
  -2  -3   6 2594.12  171.49
   2   3  -5  348.40   16.57
  -2  -3   5  393.09   18.91
  -2  -3   5  357.64   19.17
   2   3  -4  229.18   10.10
  -2  -3   4  257.79   13.02
  -2  -3   4  241.08   12.42
   2   3  -3  344.21   15.84
   2   3  -3  322.47   14.16
   2   3  -3  323.46   15.96
  -2  -3   3  377.12   17.18
  -2  -3   3  318.71   15.87
   2   3  -2  102.71    4.74
   2   3  -2   99.84    5.45
  -2  -3   2  116.25    5.27
  -2  -3   2  105.95    6.25
   2   3  -1 1604.40   86.98
   2   3  -1 1589.21   87.48
  -2  -3   1 1591.68   86.38
  -2  -3   1 1352.89   71.13
  -2  -3   1 1499.78   83.67
   2   3   0  534.37   23.11
   2   3   0  520.06   24.03
   2   3   0  506.70   23.32
   2   3   0  525.68   24.28
  -2  -3   0  603.71   27.72
  -2  -3   0  483.97   21.25
  -2  -3   0  487.09   22.13
  -2  -3   0  500.62   24.13
   2   3   1  953.96   48.78
   2   3   1 1027.77   50.13
   2   3   1 1020.97   50.68
   2   3   1 1030.74   51.49
  -2  -3  -1  994.82   49.17
  -2  -3  -1  899.94   46.00
  -2  -3  -1  987.55   51.43
  -2  -3  -1  922.29   45.01
   2   3   2  276.93   11.73
   2   3   2  300.71   13.54
   2   3   2  282.84   13.21
   2   3   2  272.25   11.71
  -2  -3  -2  265.46   10.85
  -2  -3  -2  286.53   13.45
  -2  -3  -2  272.17   12.91
  -2  -3  -2  258.02   11.06
   2   3   3 1435.34   76.79
   2   3   3 1324.84   72.59
   2   3   3 1339.39   68.77
   2   3   3 1434.74   76.01
  -2  -3  -3 1379.89   75.84
  -2  -3  -3 1348.30   68.44
  -2  -3  -3 1296.59   68.52
  -2  -3  -3 1362.74   73.35
   2   3   4 1517.75   82.89
   2   3   4 1403.39   75.53
  -2  -3  -4 1413.01   70.22
  -2  -3  -4 1407.11   75.60
  -2  -3  -4 1452.38   80.05
  -2  -3  -4 1453.41   81.61
   2   3   5 1415.94   77.46
   2   3   5 1264.74   67.85
  -2  -3  -5 1344.22   74.87
  -2  -3  -5 1335.46   72.63
  -2  -3  -5 1355.67   74.44
   2   3   6 1132.41   61.71
   2   3   6 1132.95   58.81
  -2  -3  -6 1038.62   58.41
  -2  -3  -6  961.29   51.38
   2   3   7   97.53    5.17
  -2  -3  -7   98.21    6.11
  -2  -3  -7   99.36    5.78
   2   3   8  637.17   32.64
  -2  -3  -8  661.90   36.95
  -2  -3  -8  637.73   34.50
   2   3   9  196.57    9.75
  -2  -3  -9  198.31   11.98
  -2  -3  -9  200.69   10.99
   2   3  10  384.24   19.36
  -2  -3 -10  396.82   20.96
  -2  -3 -10  377.60   20.85
   2   3  11  187.58   10.56
  -2  -3 -11  189.85   10.24
  -2  -3 -11  169.73    9.44
   2   3  12   20.36    2.80
  -2  -3 -12   19.52    3.08
   2   3  13   39.42    3.21
  -2  -3 -13   39.72    2.64
  -2  -4   9   14.35    3.27
   2   4  -8   -0.03    0.76
  -2  -4   8   15.56    1.95
  -2  -4   7   77.08    4.74
  -2  -4   7   82.74    5.98
  -2  -4   6   83.61    5.58
  -2  -4   6   82.60    8.01
  -2  -4   5  285.32   14.23
  -2  -4   5  287.04   19.03
   2   4  -4   52.15    3.09
  -2  -4   4   57.08    4.58
  -2  -4   4   59.66    5.84
   2   4  -3    0.49    0.66
  -2  -4   3    1.48    2.05
  -2  -4   3    1.43    1.70
   2   4  -2   70.95    3.11
   2   4  -2   76.19    3.93
  -2  -4   2   77.77    4.07
  -2  -4   2   74.03    4.52
   2   4  -1  852.16   43.33
   2   4  -1  752.65   36.88
   2   4  -1  874.64   40.62
   2   4  -1  803.25   41.17
  -2  -4   1  918.32   45.43
  -2  -4   1  833.18   45.18
   2   4   0  227.76    9.75
   2   4   0  235.95   10.87
   2   4   0  233.11   11.31
   2   4   0  218.82    8.54
  -2  -4   0  229.41    9.93
  -2  -4   0  240.17    9.41
  -2  -4   0  235.70   12.54
  -2  -4   0  266.23   12.19
   2   4   1 1076.44   53.03
   2   4   1 1027.09   50.88
   2   4   1 1084.80   56.17
   2   4   1 1033.90   54.12
  -2  -4  -1  981.91   47.25
  -2  -4  -1 1178.69   58.80
  -2  -4  -1  993.83   51.41
  -2  -4  -1 1067.62   56.84
   2   4   2  476.42   20.94
   2   4   2  434.61   20.49
   2   4   2  414.21   18.19
   2   4   2  444.35   20.21
  -2  -4  -2  341.28   15.66
  -2  -4  -2  405.16   19.62
  -2  -4  -2  444.89   21.34
  -2  -4  -2  451.23   19.00
   2   4   3   98.94    4.82
   2   4   3   96.39    3.89
   2   4   3   98.41    4.92
   2   4   3   94.72    4.18
  -2  -4  -3   98.01    4.90
  -2  -4  -3   93.51    3.65
  -2  -4  -3   96.24    5.66
  -2  -4  -3   94.84    3.96
   2   4   4  857.34   43.26
   2   4   4  776.86   36.96
   2   4   4  753.04   39.11
  -2  -4  -4  763.91   39.72
  -2  -4  -4  784.99   35.83
  -2  -4  -4  764.03   36.93
  -2  -4  -4  828.20   42.97
   2   4   5  674.55   32.84
   2   4   5  609.88   28.13
  -2  -4  -5  564.70   27.34
  -2  -4  -5  614.07   32.59
  -2  -4  -5  605.37   30.80
   2   4   6  826.70   40.19
   2   4   6  935.12   48.90
  -2  -4  -6  825.88   45.57
  -2  -4  -6  778.05   40.01
  -2  -4  -6  796.96   42.63
   2   4   7  266.26   12.51
   2   4   7  298.54   13.31
  -2  -4  -7  304.51   15.78
  -2  -4  -7  300.09   14.70
   2   4   8  294.31   14.77
  -2  -4  -8  287.93   16.69
  -2  -4  -8  287.70   14.07
   2   4   9  215.31   11.44
  -2  -4  -9  216.72   13.44
  -2  -4  -9  212.01   10.80
   2   4  10  178.76    9.12
  -2  -4 -10  179.13   10.11
  -2  -4 -10  178.13    9.36
   2   4  11    5.09    1.40
  -2  -4 -11    5.19    2.24
  -2  -4 -11    5.34    2.24
   2   4  12   35.89    3.53
  -2  -4 -12   31.21    2.82
  -2  -4 -12   31.79    3.32
   2   4  13   29.28    2.91
  -2  -4 -13   27.16    2.66
   2   5  -8   20.97    1.65
  -2  -5   8   25.07    2.73
   2   5  -7    0.02    1.04
  -2  -5   7   44.57    3.79
  -2  -5   6   74.79    5.00
  -2  -5   6   76.50    7.45
  -2  -5   5  221.43   11.03
  -2  -5   5  220.22   14.77
  -2  -5   4  320.15   17.16
  -2  -5   4  304.04   19.16
  -2  -5   3    8.76    2.53
  -2  -5   3    7.49    3.22
  -2  -5   2  115.55    5.89
  -2  -5   2  117.55    8.40
  -2  -5   1  183.03    8.59
  -2  -5   1  178.97    9.81
   2   5   0   91.89    5.47
   2   5   0   83.70    5.15
  -2  -5   0   89.61    4.38
  -2  -5   0   90.73    6.45
   2   5   1  119.53    6.76
   2   5   1  111.68    4.59
   2   5   1  114.43    5.99
  -2  -5  -1  114.26    5.67
  -2  -5  -1  122.23    5.45
  -2  -5  -1  122.51    7.69
   2   5   2  253.44   10.84
   2   5   2  299.84   14.68
   2   5   2  252.81   11.57
  -2  -5  -2  233.88   11.56
  -2  -5  -2  198.54    9.25
  -2  -5  -2  272.88   13.28
   2   5   3  112.32    4.90
   2   5   3  108.49    5.60
   2   5   3  105.67    4.94
  -2  -5  -3   98.61    5.81
  -2  -5  -3  100.75    4.21
  -2  -5  -3  105.12    5.64
   2   5   4   58.12    3.42
   2   5   4   61.22    3.72
   2   5   4   57.97    2.51
  -2  -5  -4   58.04    4.39
  -2  -5  -4   56.12    2.24
  -2  -5  -4   60.19    3.68
   2   5   5  262.57   12.81
   2   5   5  253.96   13.92
  -2  -5  -5  221.87   12.64
  -2  -5  -5  234.73   11.80
  -2  -5  -6  518.30   27.40
  -2  -5  -6  524.10   26.73
  -2  -5  -7   31.89    4.26
  -2  -5  -7   33.02    2.70
   2   5   8   43.79    2.78
  -2  -5  -8   40.14    3.59
   2   5   9   61.14    4.51
  -2  -5  -9   57.65    5.82
  -2  -5  -9   54.11    3.76
   2   5  10    8.85    2.34
  -2  -5 -10    9.76    3.31
  -2  -5 -10    8.66    1.88
   2   5  11   94.34    6.23
  -2  -5 -11   93.84    5.79
  -2  -5 -11   88.26    4.70
   2   5  12   98.01    5.28
  -2  -5 -12   92.23    5.05
  -2  -5 -12   92.85    4.65
   2   5  13   26.01    2.07
  -2  -5 -13   23.92    1.93
   2   6  -7    0.99    1.06
  -2  -6   7    1.27    2.33
   2   6  -6    1.88    1.16
  -2  -6   6    2.52    2.90
  -2  -6   5   94.78    5.17
  -2  -6   5   94.77    6.84
  -2  -6   4   35.05    3.92
  -2  -6   4   34.96    3.92
  -2  -6   3   37.86    3.11
  -2  -6   3   35.38    3.87
  -2  -6   2  130.33    6.93
  -2  -6   2  116.65    9.37
  -2  -6   1  170.14    8.51
  -2  -6   1  159.49   10.96
  -2  -6   0  160.20    7.81
  -2  -6   0  154.98    9.01
  -2  -6  -1   14.75    1.58
  -2  -6  -1   14.08    3.45
   2   6   2  308.83   13.24
  -2  -6  -2  324.32   14.60
  -2  -6  -2  273.21   13.43
  -2  -6  -2  310.13   16.21
   2   6   3  430.47   19.81
  -2  -6  -3  364.99   18.57
  -2  -6  -3  407.54   18.83
  -2  -6  -3  416.72   21.60
   2   6   4  325.35   14.77
  -2  -6  -4  435.00   21.68
  -2  -6  -4  481.05   23.85
  -2  -6  -5    7.43    2.56
  -2  -6  -5    8.78    2.75
  -2  -6  -6   26.39    3.84
  -2  -6  -6   19.61    3.50
  -2  -6  -7  347.96   19.09
  -2  -6  -7  361.64   20.08
  -2  -6  -8  155.70   10.78
  -2  -6  -8  163.24    9.07
   2   6   9   73.27    4.31
  -2  -6  -9   71.69    5.26
   2   6  10   13.76    1.82
  -2  -6 -10   13.99    3.69
   2   6  11   13.51    2.74
  -2  -6 -11   14.06    3.44
   2   6  12   41.54    3.87
  -2  -6 -12   40.41    4.10
   2   6  13   32.36    3.17
  -2  -6 -13   27.09    2.40
   2   7  -6    9.52    1.12
  -2  -7   6   11.22    2.94
   2   7  -5   56.27    3.59
  -2  -7   5   54.62    4.48
   2   7  -4   12.81    2.09
  -2  -7   4   12.46    2.61
  -2  -7   3    6.56    1.65
  -2  -7   3    7.05    2.36
  -2  -7   2   46.55    3.41
  -2  -7   2   44.34    4.35
  -2  -7   1  123.69    8.07
  -2  -7   1  116.54    7.80
  -2  -7   0    0.92    1.90
  -2  -7   0    0.91    2.72
  -2  -7  -1   34.17    2.52
  -2  -7  -1   30.89    3.47
  -2  -7  -2  211.00    9.87
  -2  -7  -2  210.73   13.54
  -2  -7  -3   81.71    4.71
  -2  -7  -3   91.87    5.94
   2   7   4  140.75    6.34
  -2  -7  -4  128.10    7.17
  -2  -7  -4  138.31    8.22
  -2  -7  -5  114.01    7.93
  -2  -7  -5  126.05    8.70
  -2  -7  -6    5.94    2.93
  -2  -7  -6    6.58    2.97
  -2  -7  -7   33.55    3.48
  -2  -7  -7   33.36    3.13
  -2  -7  -8    4.36    1.77
  -2  -7  -8    3.96    3.19
   2   7   9   58.82    3.80
  -2  -7  -9   55.76    4.72
   2   7  10  188.69   10.78
  -2  -7 -10  180.30   12.35
   2   7  11   74.70    5.36
  -2  -7 -11   73.71    5.19
   2   7  12   10.16    1.53
  -2  -7 -12    8.87    1.77
   2   7  13    7.58    1.23
  -2  -7 -13    6.97    1.09
   2   8  -5    6.78    1.57
  -2  -8   5    5.88    1.57
   2   8  -4   20.62    2.92
  -2  -8   4   19.94    2.63
   2   8  -3    3.72    1.55
  -2  -8   3    3.69    3.06
   2   8  -2   31.29    3.08
  -2  -8   2   29.78    5.04
   2   8  -1   15.60    2.42
  -2  -8   1   16.11    2.89
   2   8   0  119.47    6.92
  -2  -8   0  119.01    8.00
   2   8   1   49.75    3.62
  -2  -8  -1   49.74    6.44
   2   8   2  172.78    8.80
  -2  -8  -2  168.40   10.37
   2   8   3   97.18    5.08
  -2  -8  -3   87.45    6.01
  -2  -8  -3  111.00    9.47
   2   8   4  326.39   15.76
  -2  -8  -4  291.45   16.68
  -2  -8  -4  325.56   18.10
  -2  -8  -5  169.19   10.99
  -2  -8  -5  192.41   13.28
  -2  -8  -6  107.28    8.28
  -2  -8  -6  106.07    8.60
  -2  -8  -7   48.93    4.29
  -2  -8  -7   49.97    4.12
  -2  -8  -8   18.34    4.44
  -2  -8  -8   18.05    2.63
   2   8   9   84.99    4.93
  -2  -8  -9   79.21    7.62
   2   8  10   45.74    4.23
  -2  -8 -10   43.90    4.08
   2   8  11   56.89    3.56
  -2  -8 -11   56.29    4.30
   2   8  12   52.74    3.25
  -2  -8 -12   50.69    4.60
   2   8  13   21.71    1.72
  -2  -8 -13   21.29    2.25
   2   9  -3   89.44    5.43
  -2  -9   3   88.94    6.50
   2   9  -2   50.79    3.26
  -2  -9   2   48.86    5.28
   2   9  -1   19.02    3.20
  -2  -9   1   17.13    3.98
   2   9   0   82.33    6.05
  -2  -9   0   80.47    7.47
   2   9   1   52.57    4.58
  -2  -9  -1   50.02    4.60
   2   9   2  211.86   11.55
  -2  -9  -2  222.03   14.72
   2   9   3   51.93    3.10
  -2  -9  -3   51.90    4.70
   2   9   4   17.62    2.06
  -2  -9  -4   14.16    3.06
  -2  -9  -4   56.86    6.04
  -2  -9  -5  129.34    8.88
  -2  -9  -5  130.33    8.62
  -2  -9  -6  220.39   12.56
  -2  -9  -6  225.41   14.95
  -2  -9  -7   56.51    4.65
  -2  -9  -7   55.21    4.68
  -2  -9  -8   64.32    6.62
  -2  -9  -8   63.24    4.75
   2   9   9  248.18   12.40
  -2  -9  -9  240.49   15.52
   2   9  10   38.79    3.79
  -2  -9 -10   37.94    3.64
   2   9  11   16.95    1.74
  -2  -9 -11   15.53    2.32
   2   9  12   32.96    2.25
  -2  -9 -12   31.56    3.50
   2  10  -1    8.65    1.26
  -2 -10   1    8.22    2.68
   2  10   0   46.49    3.73
  -2 -10   0   45.46    4.84
   2  10   1   14.76    2.41
  -2 -10  -1   17.46    3.59
   2  10   2   59.30    4.17
  -2 -10  -2   58.78    4.63
   2  10   3   63.56    3.40
  -2 -10  -3   63.89    6.59
   2  10   4   65.57    3.82
  -2 -10  -4   66.38    6.69
  -2 -10  -5   30.25    2.75
  -2 -10  -5   52.09    4.26
  -2 -10  -6   13.52    2.18
  -2 -10  -6   11.40    4.08
  -2 -10  -7  410.86   23.77
  -2 -10  -7  425.09   24.61
  -2 -10  -8  118.12    8.84
  -2 -10  -8  120.33    7.37
   2  10   9  112.34    5.94
  -2 -10  -9  107.85    6.70
   2  10  10   64.47    4.51
  -2 -10 -10   63.55    5.74
   2  10  11   48.83    2.82
  -2 -10 -11   50.31    3.43
   2  11   1    7.40    1.54
  -2 -11  -1    6.82    1.40
   2  11   2   24.35    1.58
  -2 -11  -2   23.27    2.28
  -2 -11  -3   26.20    2.50
  -2 -11  -4   13.95    3.15
  -2 -11  -5   17.97    2.34
  -2 -11  -6   49.57    3.06
  -2 -11  -6   54.08    5.17
  -2 -11  -7   57.18    3.59
  -2 -11  -7   59.17    3.97
   2  11   8   -0.06    1.22
  -2 -11  -8   42.79    2.41
   2  11   9    4.80    1.10
  -2 -11  -9    5.20    2.27
   3  -9  -8   24.60    2.73
   3  -9  -7   23.93    2.48
   3  -9  -7   24.46    2.08
  -3   9   7   24.87    2.28
   3  -9  -6    8.75    1.35
   3  -9  -6    0.08    1.27
  -3   9   6    8.54    1.21
   3  -9  -5   29.87    3.47
  -3   9   5   29.40    2.21
  -3   9   5   29.49    3.23
   3  -9  -4   48.24    3.54
  -3   9   4   47.09    4.22
  -3   9   4   72.86    4.57
   3  -9  -3    1.67    2.05
  -3   9   3    1.46    1.14
   3  -9  -2   42.64    3.87
  -3   9   2   40.74    3.51
  -3   9   2   43.67    2.91
   3  -9  -1   41.12    3.51
  -3   9   1   39.58    3.31
  -3   9   1   42.72    2.69
   3  -8  -9    0.55    0.92
   3  -8  -8   16.25    2.79
  -3   8   8   16.15    1.99
   3  -8  -7    9.45    1.39
   3  -8  -7   11.58    1.83
  -3   8   7   11.79    2.22
   3  -8  -6  108.10    6.86
  -3   8   6  108.09    5.79
  -3   8   6  109.60    5.94
   3  -8  -5    2.98    2.49
  -3   8   5    9.97    2.41
  -3   8   5    3.06    2.36
   3  -8  -4   50.35    3.59
  -3   8   4   48.63    3.37
  -3   8   4   51.31    3.68
   3  -8  -3   26.15    2.65
  -3   8   3   27.00    3.80
   3  -8  -2   96.95    6.91
  -3   8   2   87.44    5.08
  -3   8   2   92.33    6.56
   3  -8  -1    2.99    2.00
  -3   8   1    3.03    1.98
  -3   8   1    2.48    2.04
   3  -8   0    2.85    1.84
  -3   8   0    3.64    1.92
  -3   8   0    2.18    1.83
   3  -8   1   93.34    5.54
  -3   8  -1   97.18    5.06
  -3   8  -1   96.81    5.37
   3  -8   2    5.05    0.98
  -3   8  -2    5.09    1.09
   3  -7 -10   12.49    1.53
   3  -7  -9    5.73    1.40
  -3   7   9    5.37    1.28
   3  -7  -8    5.35    2.54
  -3   7   8    7.21    1.22
   3  -7  -7   96.98    5.79
  -3   7   7   99.87    6.46
   3  -7  -6  128.17    6.92
  -3   7   6  125.76    6.79
  -3   7   6  124.49    7.86
   3  -7  -5   29.80    2.57
  -3   7   5   31.64    2.77
  -3   7   5   30.75    2.85
   3  -7  -4  151.64    9.67
  -3   7   4  222.42   11.82
  -3   7   4  140.55    9.73
   3  -7  -3   51.01    3.68
  -3   7   3   67.08    4.23
  -3   7   3   54.02    5.39
   3  -7  -2  111.86    7.67
  -3   7   2  130.41    8.17
  -3   7   2  110.23    6.56
   3  -7  -1   10.17    2.93
  -3   7   1    9.93    1.81
  -3   7   1   10.89    1.86
   3  -7   0   19.50    2.96
  -3   7   0   19.85    3.19
  -3   7   0   18.50    2.10
   3  -7   1  138.36    8.02
  -3   7  -1  148.51    8.79
  -3   7  -1  137.24    7.11
   3  -7   2    1.83    1.50
  -3   7  -2    2.30    1.85
  -3   7  -2    0.86    1.31
   3  -7   3   24.61    1.83
  -3   7  -3   25.50    2.13
   3  -7   4   20.90    1.68
  -3   7  -4   23.58    2.49
   3  -6 -11    4.80    1.04
   3  -6 -10   15.58    1.73
   3  -6  -9   13.30    2.83
  -3   6   9   14.34    1.88
   3  -6  -8  103.87    7.26
  -3   6   8  106.36    6.37
   3  -6  -7   37.10    3.16
  -3   6   7   36.85    3.79
   3  -6  -6    9.87    2.28
  -3   6   6    9.56    1.67
  -3   6   6   10.13    1.78
   3  -6  -5  136.01    8.02
  -3   6   5  133.23    7.14
  -3   6   5  130.33    8.57
   3  -6  -4   73.12    4.36
  -3   6   4   77.25    5.75
  -3   6   4   76.84    4.99
   3  -6  -3    6.32    2.30
  -3   6   3   19.00    2.03
  -3   6   3    7.93    3.07
   3  -6  -2  106.40    5.92
  -3   6   2  152.77    8.66
  -3   6   2  108.24    6.46
   3  -6  -1   14.56    2.82
  -3   6   1   13.50    2.90
  -3   6   1   12.58    1.97
   3  -6   0   77.97    5.82
  -3   6   0   70.58    5.62
  -3   6   0   68.02    5.52
   3  -6   1  267.64   14.24
  -3   6  -1  283.42   14.48
  -3   6  -1  256.74   14.20
   3  -6   2  165.13    9.06
  -3   6  -2  159.57    7.95
  -3   6  -2  158.16    9.59
   3  -6   3    5.60    1.91
  -3   6  -3    2.43    2.31
   3  -6   4   80.40    4.13
  -3   6  -4   83.12    5.72
   3  -6   5    3.53    1.22
  -3   6  -5    2.69    1.75
   3  -5 -11   14.10    2.07
   3  -5 -11   12.67    1.29
   3  -5 -10    3.75    1.28
   3  -5 -10    4.24    1.88
   3  -5  -9   87.18    4.96
   3  -5  -9   80.90    5.86
  -3   5   9   80.74    4.63
   3  -5  -8   65.25    5.39
   3  -5  -8   64.69    3.33
  -3   5   8   64.60    4.59
   3  -5  -7  104.17    4.81
   3  -5  -7  106.94    6.18
  -3   5   7  110.78    6.09
  -3   5   6  163.40    8.42
  -3   5   6  161.11    8.77
   3  -5  -5  312.11   16.22
  -3   5   5  314.10   16.97
  -3   5   5  310.79   17.43
   3  -5  -4  532.16   27.62
  -3   5   4  505.29   26.89
  -3   5   4  534.81   28.20
   3  -5  -3   82.84    4.45
  -3   5   3   83.85    4.75
  -3   5   3   86.79    6.46
   3  -5  -2   56.69    4.04
  -3   5   2   89.44    4.70
  -3   5   2   61.75    4.18
   3  -5  -1   65.33    3.71
  -3   5   1   78.75    5.24
  -3   5   1   65.09    4.16
   3  -5   0   16.27    2.61
  -3   5   0   15.48    1.88
  -3   5   0   15.65    2.75
   3  -5   1  139.55    8.01
  -3   5  -1  131.98    8.03
  -3   5  -1  119.86    7.37
   3  -5   2   60.38    4.62
  -3   5  -2   58.71    3.85
  -3   5  -2   52.65    3.98
   3  -5   3   36.01    3.44
  -3   5  -3   34.22    2.85
   3  -5   4    3.32    1.07
  -3   5  -4    4.42    1.40
   3  -5   5  145.43    6.90
  -3   5  -5  150.64    7.78
   3  -5   6  164.64    7.87
  -3   5  -6  169.51    8.37
  -3   5  -7   11.83    1.89
   3  -4 -11    6.08    1.10
   3  -4 -11    6.84    1.13
   3  -4 -10    7.96    1.39
   3  -4 -10    8.05    1.36
   3  -4  -9   47.06    3.24
   3  -4  -9   45.87    2.86
  -3   4   9   45.70    2.65
   3  -4  -8   16.39    2.14
   3  -4  -8   17.14    2.06
  -3   4   8   17.53    1.81
   3  -4  -7  290.49   14.26
   3  -4  -7  282.18   15.63
  -3   4   7  295.67   16.10
   3  -4  -6  587.45   30.81
   3  -4  -6  614.92   29.92
  -3   4   6  633.42   34.64
  -3   4   5  907.06   45.45
  -3   4   5  819.42   44.51
  -3   4   5  874.18   47.75
   3  -4  -4    7.33    1.50
  -3   4   4    8.48    1.40
  -3   4   4    8.33    1.36
  -3   4   4    8.38    2.65
   3  -4  -3   75.14    4.46
  -3   4   3   75.89    3.96
  -3   4   3   74.84    4.01
  -3   4   3   75.02    4.57
   3  -4  -2   21.53    1.60
  -3   4   2   19.12    1.70
  -3   4   2   22.39    3.12
   3  -4  -1   73.47    4.39
  -3   4   1   74.38    3.59
  -3   4   1   95.23    5.36
  -3   4   1   76.70    4.46
   3  -4   0   30.56    2.09
  -3   4   0   30.54    2.22
  -3   4   0   29.03    2.31
  -3   4   0   28.91    1.81
   3  -4   1  158.28    7.49
  -3   4  -1  159.46    8.67
  -3   4  -1  141.68    7.99
  -3   4  -1  137.21    6.94
   3  -4   2  210.97   10.93
  -3   4  -2  214.18   10.58
  -3   4  -2  176.24    9.55
  -3   4  -2  202.64    9.53
   3  -4   3   14.61    2.46
  -3   4  -3   14.61    2.63
  -3   4  -3   13.02    1.92
   3  -4   4   73.99    4.05
  -3   4  -4   72.97    5.41
  -3   4  -4   72.07    4.53
   3  -4   5  195.96    9.34
  -3   4  -5  194.42    9.96
  -3   4  -5  189.40    9.72
   3  -4   6  121.76    6.59
  -3   4  -6  126.42    6.67
  -3   4  -6  126.09    6.55
   3  -4   7   59.37    2.82
  -3   4  -7   60.93    4.43
  -3   4  -8   25.44    1.75
   3  -3 -11    7.45    1.67
   3  -3 -11    7.85    1.43
   3  -3 -10   46.82    3.21
   3  -3 -10   43.14    3.57
   3  -3  -9   23.61    2.99
   3  -3  -9   24.68    2.22
   3  -3  -8    5.97    1.92
   3  -3  -8    5.65    1.41
  -3   3   8    8.19    1.93
   3  -3  -7  277.02   14.03
   3  -3  -7  272.61   13.44
  -3   3   7  291.35   14.56
   3  -3  -6    4.45    1.29
   3  -3  -6    4.63    0.95
  -3   3   6    4.92    1.52
  -3   3   5  598.47   28.85
  -3   3   5  602.43   32.90
  -3   3   4  304.71   13.64
  -3   3   4  281.24   13.87
  -3   3   4  301.51   15.10
   3  -3  -3  113.01    5.35
  -3   3   3  124.36    5.52
  -3   3   3  116.28    6.04
  -3   3   3  126.80    7.40
   3  -3  -2  271.25   12.74
  -3   3   2  295.25   14.12
  -3   3   2  383.20   17.51
  -3   3   2  300.80   14.82
   3  -3  -1  114.12    5.65
  -3   3   1  113.17    5.88
  -3   3   1  110.51    5.80
  -3   3   1  115.19    6.76
   3  -3   0   21.46    2.05
  -3   3   0   18.70    1.52
  -3   3   0   18.92    1.74
  -3   3   0   19.01    1.99
   3  -3   1    3.25    0.91
  -3   3  -1    4.04    0.95
  -3   3  -1    3.44    0.99
  -3   3  -1    3.44    0.94
   3  -3   2  419.26   19.82
  -3   3  -2  411.05   20.66
  -3   3  -2  399.98   19.36
  -3   3  -2  410.66   20.46
   3  -3   3   16.50    2.34
  -3   3  -3   15.89    1.64
  -3   3  -3   16.57    1.65
   3  -3   4  205.30    9.74
  -3   3  -4  195.75    9.80
  -3   3  -4  206.49   10.19
   3  -3   5  111.48    5.55
  -3   3  -5  106.29    6.58
  -3   3  -5  110.20    6.64
   3  -3   6  226.20   11.32
  -3   3  -6  207.88   11.41
  -3   3  -6  215.66   11.61
   3  -3   7  234.59   10.72
  -3   3  -7  226.58   12.11
  -3   3  -7  236.50   12.29
   3  -3   8   44.53    2.66
  -3   3  -8   46.85    2.79
  -3   3  -8   45.82    2.71
  -3   3  -9   55.62    3.26
  -3   3  -9   53.29    2.95
   3  -2 -11    8.32    1.55
   3  -2 -11    9.19    1.61
   3  -2 -10   51.85    3.76
   3  -2 -10   56.70    3.81
   3  -2  -9   39.82    3.53
   3  -2  -9   40.94    3.09
   3  -2  -8   13.15    2.64
   3  -2  -8   13.26    2.46
  -3   2   8   32.40    3.16
   3  -2  -7  293.51   14.99
   3  -2  -7  270.70   13.53
  -3   2   7  295.68   15.65
   3  -2  -6    9.02    1.34
   3  -2  -6   10.34    1.25
   3  -2  -5  251.46   12.21
  -3   2   5  285.74   12.89
  -3   2   5  275.72   13.86
  -3   2   4  101.38    4.67
  -3   2   4  104.95    6.60
   3  -2  -3    5.36    0.58
  -3   2   3    5.77    0.88
  -3   2   3    6.05    1.12
  -3   2   3    6.64    1.33
   3  -2  -2   79.72    3.42
  -3   2   2   88.14    4.14
  -3   2   2   86.23    5.29
  -3   2   2   80.86    4.05
   3  -2  -1  324.90   15.64
   3  -2  -1  343.07   15.84
   3  -2  -1  300.12   13.24
  -3   2   1  291.46   13.64
  -3   2   1  321.21   15.24
  -3   2   1  359.62   17.03
   3  -2   0  134.68    6.79
   3  -2   0  137.91    7.33
   3  -2   0  121.16    5.87
  -3   2   0  132.68    7.03
  -3   2   0  166.95    8.10
   3  -2   1   58.76    3.43
   3  -2   1   59.44    2.93
  -3   2  -1   56.04    3.25
  -3   2  -1   59.37    3.66
  -3   2  -1   59.36    3.17
   3  -2   2   40.31    2.81
   3  -2   2   40.98    2.36
  -3   2  -2   40.10    2.51
  -3   2  -2   38.56    2.66
  -3   2  -2   39.65    2.54
  -3   2  -2   39.85    2.71
   3  -2   3   70.70    3.68
  -3   2  -3   65.56    3.39
  -3   2  -3   69.17    4.68
   3  -2   4   84.24    4.32
  -3   2  -4   78.48    4.66
  -3   2  -4   83.93    5.61
   3  -2   5  136.18    6.63
  -3   2  -5  125.58    7.06
  -3   2  -5  137.82    7.30
   3  -2   6  113.14    6.44
  -3   2  -6  102.77    5.47
  -3   2  -6  110.45    6.18
   3  -2   7   16.84    2.28
  -3   2  -7   17.49    1.74
  -3   2  -7   18.29    2.11
   3  -2   8   38.59    2.77
  -3   2  -8   37.48    3.29
  -3   2  -8   41.06    3.02
   3  -2   9  100.13    4.20
  -3   2  -9  105.27    5.56
  -3   2  -9  116.56    6.65
  -3   2 -10    3.12    0.84
   3  -1 -11   20.46    2.07
   3  -1 -10   49.13    3.58
   3  -1 -10   45.97    2.65
   3  -1  -9  118.74    6.69
   3  -1  -9  121.76    7.87
  -3   1   9  121.86    6.45
   3  -1  -8  332.88   17.16
   3  -1  -8  371.61   19.86
  -3   1   8  343.61   17.65
   3  -1  -7   12.34    2.42
   3  -1  -7   11.30    2.01
   3  -1  -6   53.77    3.08
   3  -1  -6   58.43    3.21
   3  -1  -5  254.97   12.57
  -3   1   5  267.54   13.36
  -3   1   5  290.41   13.16
   3  -1  -4   85.28    4.58
  -3   1   4   95.92    4.47
  -3   1   4  137.30    7.52
  -3   1   3   27.60    2.26
   3  -1  -2   93.62    5.70
   3  -1  -2   80.91    3.47
  -3   1   2   92.14    4.86
  -3   1   2   79.63    3.60
   3  -1  -1  294.80   14.91
   3  -1  -1  302.87   13.62
   3  -1  -1  264.76   11.55
  -3   1   1  262.97   11.41
  -3   1   1  282.17   13.15
  -3   1   1  310.86   14.64
   3  -1   0   26.26    2.13
   3  -1   0   22.99    1.61
   3  -1   0   23.99    2.24
   3  -1   0   22.98    1.35
  -3   1   0   22.90    1.20
  -3   1   0   22.06    2.25
   3  -1   1  132.70    6.63
   3  -1   1  124.87    5.54
   3  -1   1  132.67    6.38
  -3   1  -1  122.89    5.38
  -3   1  -1  112.87    5.69
  -3   1  -1  129.23    6.71
   3  -1   2  218.58    9.55
   3  -1   2  200.87    9.11
   3  -1   2  227.20   11.08
  -3   1  -2  230.28   10.88
  -3   1  -2  205.07    9.18
  -3   1  -2  219.49   10.32
  -3   1  -2  215.54    9.97
   3  -1   3  259.59   11.91
  -3   1  -3  270.62   13.09
  -3   1  -3  244.38   10.86
  -3   1  -3  271.39   13.85
  -3   1  -4  216.50   10.79
  -3   1  -4  194.02    9.28
  -3   1  -4  216.33   10.69
  -3   1  -5   88.58    5.05
  -3   1  -5   73.99    3.78
  -3   1  -5   83.44    4.87
  -3   1  -6  109.31    7.29
  -3   1  -6   97.54    5.51
   3  -1   7    7.71    1.28
  -3   1  -7    6.62    1.76
  -3   1  -7    7.57    2.73
   3  -1   8  106.27    5.13
  -3   1  -8   94.72    4.94
  -3   1  -8  107.20    7.44
   3  -1   9   84.05    3.89
  -3   1  -9   84.62    4.26
  -3   1  -9   92.60    5.40
  -3   1 -10   31.97    2.24
  -3   1 -10   37.49    3.55
   3   0 -11   37.56    3.55
   3   0 -10    8.02    2.70
   3   0  -9  259.00   14.93
  -3   0   9  255.02   11.70
   3   0  -8  158.99    8.38
  -3   0   8  154.62    7.64
   3   0  -7  240.47   11.82
  -3   0   7  244.45   13.08
   3   0  -6   36.18    2.34
  -3   0   6   34.01    3.61
  -3   0   5  126.29    6.60
  -3   0   4   39.63    3.89
  -3   0   4   43.80    3.06
  -3   0   3   37.98    2.62
  -3   0   3   35.39    2.51
   3   0  -2  399.67   19.29
   3   0  -2  383.28   18.67
  -3   0   2  381.29   17.90
  -3   0   2  416.50   20.70
   3   0  -1   83.09    4.44
   3   0  -1   80.35    3.87
   3   0  -1   74.45    3.00
  -3   0   1   79.87    4.63
  -3   0   1   83.14    4.16
   3   0   0  508.30   26.04
   3   0   0  508.24   24.53
  -3   0   0  548.17   26.42
   3   0   1   99.82    4.30
  -3   0  -1   93.23    4.94
  -3   0  -1   99.93    4.71
  -3   0  -1   75.75    4.09
   3   0   2  113.04    4.76
   3   0   2  115.59    7.08
  -3   0  -2  122.98    6.81
  -3   0  -2  118.14    5.72
  -3   0  -2  111.76    5.29
   3   0   3  954.14   51.69
  -3   0  -3  953.54   50.67
  -3   0  -3  919.88   49.48
  -3   0  -4   72.41    4.30
  -3   0  -4   70.60    4.12
  -3   0  -5   54.01    3.65
  -3   0  -5   53.75    4.54
  -3   0  -6  188.14   11.28
  -3   0  -6  179.62   10.95
  -3   0  -7   70.72    5.61
  -3   0  -7   74.18    6.35
  -3   0  -8  141.81    7.68
  -3   0  -8  138.42    9.60
   3   0   9   18.64    1.55
  -3   0  -9   18.73    3.50
   3   0  10   93.64    4.60
  -3   0 -10  103.44    5.86
  -3   0 -11   31.66    3.32
   3   1 -10    0.89    1.02
  -3  -1  10    0.71    1.11
   3   1  -9   55.01    4.79
  -3  -1   9   53.27    2.65
  -3  -1   9   49.61    3.20
   3   1  -8  160.74    9.57
  -3  -1   8  172.75    8.31
  -3  -1   8  160.95    9.56
   3   1  -7    3.32    2.03
  -3  -1   7    2.44    1.23
  -3  -1   7    1.88    1.87
   3   1  -6  170.48    9.17
  -3  -1   6  180.32   10.43
   3   1  -5  191.60    8.85
  -3  -1   5  190.21    9.58
  -3  -1   4  208.40   11.32
  -3  -1   4  216.09    9.66
  -3  -1   3  286.42   13.81
  -3  -1   3  298.62   13.25
   3   1  -2  239.57   11.54
   3   1  -2  231.93   11.59
  -3  -1   2  237.73   12.12
  -3  -1   2  236.13   10.36
   3   1  -1  928.11   49.82
   3   1  -1  922.22   47.45
  -3  -1   1  971.88   50.02
  -3  -1   1  959.92   48.50
   3   1   0  312.05   14.45
   3   1   0  344.71   15.54
  -3  -1   0  340.91   15.47
  -3  -1   0  303.30   13.80
  -3  -1   0  338.75   15.28
   3   1   1 1110.89   58.22
   3   1   1 1185.49   62.95
   3   1   1 1137.32   57.11
  -3  -1  -1  875.30   45.57
  -3  -1  -1  838.22   44.18
  -3  -1  -1 1185.42   60.27
   3   1   2  271.92   12.91
   3   1   2  260.96   13.06
   3   1   2  259.61   11.24
  -3  -1  -2  232.52   10.44
  -3  -1  -2  259.28   12.92
  -3  -1  -2  259.19   13.12
   3   1   3   30.83    2.49
   3   1   3   31.05    2.49
  -3  -1  -3   28.80    2.26
  -3  -1  -3   30.01    2.91
  -3  -1  -4    6.40    1.41
  -3  -1  -4    5.39    1.29
  -3  -1  -5  253.03   13.92
  -3  -1  -5  242.23   13.10
  -3  -1  -6   37.01    4.19
  -3  -1  -6   38.40    4.14
  -3  -1  -7  251.09   13.23
  -3  -1  -7  249.43   14.71
  -3  -1  -8  236.23   12.60
  -3  -1  -8  223.98   13.82
  -3  -1  -9    8.42    2.48
  -3  -1  -9    9.03    3.12
  -3  -1 -10   49.69    4.83
   3   1  11  108.77    4.90
  -3  -1 -11  114.78    6.26
  -3  -1 -12   37.13    3.26
   3   2 -10   11.58    1.22
   3   2  -9   21.96    1.98
  -3  -2   9   20.92    1.31
  -3  -2   9   21.61    2.75
   3   2  -8   23.67    2.22
  -3  -2   8   22.66    1.79
  -3  -2   8   21.72    2.22
   3   2  -7  131.34    6.81
  -3  -2   7  148.36    7.51
  -3  -2   7  130.50    7.40
   3   2  -6  359.04   18.35
  -3  -2   6  425.46   22.34
  -3  -2   6  341.87   19.35
   3   2  -5   21.80    2.41
  -3  -2   5   22.13    2.35
  -3  -2   5   18.97    2.92
   3   2  -4   92.29    4.31
  -3  -2   4   94.39    6.47
  -3  -2   4   78.77    4.53
   3   2  -3   67.70    3.43
  -3  -2   3   72.29    4.09
  -3  -2   3   72.91    3.82
  -3  -2   3   62.69    4.12
   3   2  -2   53.19    2.66
  -3  -2   2   60.71    4.25
  -3  -2   2   55.65    2.64
  -3  -2   2   51.98    2.85
   3   2  -1  154.29    6.33
   3   2  -1  164.78    8.60
   3   2  -1  168.64    7.85
  -3  -2   1  172.87    7.96
  -3  -2   1  164.69    7.07
  -3  -2   1  157.47    7.13
   3   2   0  315.14   14.33
   3   2   0  338.38   16.87
   3   2   0  338.83   15.51
  -3  -2   0  328.51   14.64
  -3  -2   0  331.60   15.14
  -3  -2   0  311.04   13.66
   3   2   1   84.91    3.99
   3   2   1   84.79    4.36
   3   2   1   92.43    4.45
  -3  -2  -1   61.84    3.05
  -3  -2  -1   78.37    3.73
  -3  -2  -1   79.12    3.67
   3   2   2  200.73    9.51
   3   2   2  199.81    9.39
   3   2   2  200.53    8.80
  -3  -2  -2  185.32    7.91
  -3  -2  -2  178.69    8.97
  -3  -2  -2  189.36    8.57
   3   2   3  920.95   48.97
   3   2   3  927.28   48.41
  -3  -2  -3  904.24   48.98
  -3  -2  -3  925.07   47.65
   3   2   4   41.87    3.02
   3   2   4   38.54    2.76
  -3  -2  -4   38.02    3.84
  -3  -2  -4   37.79    3.29
  -3  -2  -5  315.98   17.48
  -3  -2  -5  316.92   15.42
  -3  -2  -6  101.88    7.11
  -3  -2  -6  102.64    6.39
  -3  -2  -7   31.56    2.99
  -3  -2  -7   34.54    3.95
  -3  -2  -8  225.45   13.73
  -3  -2  -8  216.37   13.06
  -3  -2  -9   88.33    5.46
  -3  -2  -9   87.29    6.87
  -3  -2 -10  117.02    7.67
  -3  -2 -10  114.17    8.04
   3   2  11   -0.01    0.61
  -3  -2 -11    7.67    1.86
  -3  -2 -12   19.71    2.66
   3   3  -9    1.71    0.66
  -3  -3   9    0.83    1.50
   3   3  -8    9.23    1.24
  -3  -3   8    8.53    1.09
  -3  -3   8    7.95    1.66
   3   3  -7   43.42    2.84
  -3  -3   7   47.63    2.94
  -3  -3   7   43.54    4.45
   3   3  -6  193.05    9.37
  -3  -3   6  223.92   12.24
  -3  -3   6  195.17   11.95
   3   3  -5  121.24    6.48
  -3  -3   5  134.38    8.40
  -3  -3   5  113.08    7.87
   3   3  -4  644.27   32.28
  -3  -3   4  796.76   42.34
  -3  -3   4  623.19   35.00
   3   3  -3   48.92    2.46
  -3  -3   3   49.74    3.36
  -3  -3   3   46.55    4.06
  -3  -3   2   12.90    2.39
  -3  -3   2   11.80    1.28
  -3  -3   2   11.69    1.52
   3   3  -1  243.48   11.27
  -3  -3   1  271.63   13.54
  -3  -3   1  250.43   11.08
  -3  -3   1  241.05   12.40
   3   3   0   92.34    4.57
  -3  -3   0  101.45    4.82
  -3  -3   0   94.24    4.49
  -3  -3   0   92.00    5.22
  -3  -3  -1  712.91   34.94
  -3  -3  -1  759.33   37.08
  -3  -3  -1  742.76   37.23
  -3  -3  -1  716.05   36.46
  -3  -3  -2  238.50   10.67
  -3  -3  -2  225.44   10.58
  -3  -3  -2  220.92   10.03
  -3  -3  -2  218.77   10.10
  -3  -3  -3  174.87    9.35
  -3  -3  -3  179.22    8.43
  -3  -3  -3  181.16    8.61
   3   3   4  121.02    5.90
  -3  -3  -4  118.07    7.20
  -3  -3  -4  119.30    5.66
  -3  -3  -4  118.45    5.78
  -3  -3  -5  131.17    8.06
  -3  -3  -5  109.32    6.25
  -3  -3  -6   67.33    4.54
  -3  -3  -6   66.02    3.78
  -3  -3  -7  302.00   16.32
  -3  -3  -7  285.29   15.25
  -3  -3  -8  472.06   27.24
  -3  -3  -8  483.92   26.51
  -3  -3  -9   47.70    3.91
  -3  -3  -9   49.14    4.78
  -3  -3 -10  422.91   23.49
  -3  -3 -10  429.30   23.43
  -3  -3 -11   46.89    4.02
  -3  -3 -11   44.56    3.12
   3   3  12    0.03    0.54
  -3  -3 -12   13.27    1.20
  -3  -4   8    4.46    0.73
  -3  -4   8    2.45    2.04
  -3  -4   7   16.54    1.60
  -3  -4   7   15.77    2.20
  -3  -4   6   82.30    5.62
  -3  -4   6   80.21    5.44
  -3  -4   5   33.28    3.77
  -3  -4   5   30.74    3.17
   3   4  -4   60.30    3.65
  -3  -4   4   66.29    5.79
  -3  -4   4   58.09    4.42
   3   4  -3  720.93   36.28
  -3  -4   3  847.24   43.98
  -3  -4   3  708.05   39.62
   3   4  -2  197.00    8.42
  -3  -4   2  206.29   11.29
  -3  -4   2  190.65   11.32
  -3  -4   1   68.43    4.99
  -3  -4   1   66.36    2.81
  -3  -4   1   61.61    3.98
   3   4   0   58.04    3.61
  -3  -4   0   58.59    4.11
  -3  -4   0   54.35    2.64
  -3  -4   0   52.91    4.22
  -3  -4  -1   98.20    4.41
  -3  -4  -1  116.71    5.96
  -3  -4  -1  104.38    6.23
  -3  -4  -2   42.26    2.30
  -3  -4  -2   46.03    2.74
  -3  -4  -2   44.87    3.20
  -3  -4  -2   43.29    3.40
  -3  -4  -3    3.60    1.10
  -3  -4  -3    3.90    1.50
  -3  -4  -3    3.12    0.93
   3   4   4   27.58    2.37
  -3  -4  -4   26.29    2.31
  -3  -4  -4   26.17    2.52
  -3  -4  -4   25.94    1.99
  -3  -4  -5   50.21    3.64
  -3  -4  -5   51.37    2.74
  -3  -4  -5   51.11    3.51
  -3  -4  -6    7.28    2.80
  -3  -4  -6    5.56    1.56
   3   4   7   93.51    5.03
  -3  -4  -7   96.91    7.61
  -3  -4  -7   91.18    4.85
   3   4   8  400.06   19.27
  -3  -4  -8  423.91   23.51
  -3  -4  -8  395.89   20.00
   3   4   9  150.59    7.30
  -3  -4  -9  163.80   11.23
  -3  -4  -9  151.92    8.70
   3   4  10   71.16    3.79
  -3  -4 -10   71.09    4.93
  -3  -4 -10   71.26    4.16
   3   4  11    6.56    1.56
  -3  -4 -11    6.90    2.29
  -3  -4 -11    5.79    1.25
  -3  -4 -12   86.56    4.96
  -3  -4 -12   96.80    5.40
  -3  -5   7    4.86    0.93
  -3  -5   7    4.60    1.48
  -3  -5   6   23.39    2.91
  -3  -5   6   24.09    3.87
  -3  -5   5  129.73    7.90
  -3  -5   5  118.62    8.94
  -3  -5   4  188.18    9.65
  -3  -5   4  174.98   11.93
  -3  -5   3  648.96   33.71
  -3  -5   3  626.72   36.88
  -3  -5   2  210.42   11.94
  -3  -5   2  206.45   13.13
  -3  -5   1   74.29    5.50
  -3  -5   1   65.34    4.63
  -3  -5   0  488.03   24.79
  -3  -5   0  436.63   24.50
  -3  -5  -1    6.11    1.83
  -3  -5  -1    6.77    2.48
  -3  -5  -2  253.12   11.81
  -3  -5  -2  247.57   12.67
  -3  -5  -3  289.80   15.22
  -3  -5  -3  304.89   15.31
  -3  -5  -4  127.39    7.86
  -3  -5  -4  134.37    7.94
  -3  -5  -5  102.92    7.09
  -3  -5  -5  101.82    6.23
  -3  -5  -6  203.79   11.23
  -3  -5  -6  198.29   10.77
  -3  -5  -7  344.83   19.05
   3   5   8  423.64   21.50
  -3  -5  -8  439.51   26.39
   3   5   9  138.40    6.87
  -3  -5  -9  145.14    8.94
   3   5  10    9.62    1.28
  -3  -5 -10   10.32    3.51
  -3  -5 -10    9.33    1.80
   3   5  11   47.97    2.74
  -3  -5 -11   50.11    3.68
  -3  -5 -11   48.64    3.25
  -3  -5 -12   36.24    2.50
  -3  -5 -12   33.79    1.87
  -3  -6   6   73.45    5.74
  -3  -6   5    9.65    2.34
  -3  -6   5    8.52    1.99
  -3  -6   4   49.13    3.46
  -3  -6   4   42.52    3.91
  -3  -6   3  116.45    6.44
  -3  -6   3  110.56    7.28
  -3  -6   2  244.89   13.85
  -3  -6   2  227.52   13.27
  -3  -6   1   82.40    5.96
  -3  -6   1   78.46    7.12
  -3  -6   0  110.00    6.76
  -3  -6   0  104.73    6.69
  -3  -6  -1  251.27   12.79
  -3  -6  -1  240.39   14.74
  -3  -6  -2  244.59   11.96
  -3  -6  -2  248.95   13.35
  -3  -6  -3  149.86    8.58
  -3  -6  -3  183.00   11.79
  -3  -6  -4  644.57   35.71
  -3  -6  -4  694.82   38.91
  -3  -6  -5   44.78    4.65
  -3  -6  -5   50.94    4.86
  -3  -6  -6    2.44    2.46
  -3  -6  -6    2.51    1.30
  -3  -6  -7  266.61   15.02
  -3  -6  -7  281.90   14.59
   3   6   8  317.28   15.51
  -3  -6  -8  306.74   17.51
   3   6   9   71.34    4.75
  -3  -6  -9   68.27    7.13
   3   6  10   47.36    3.63
  -3  -6 -10   50.67    4.34
   3   6  11   63.99    4.14
  -3  -6 -11   65.01    5.67
  -3  -6 -12   33.63    3.52
   3   7  -5   15.95    1.82
  -3  -7   5   15.52    1.98
   3   7  -4   -0.21    1.72
  -3  -7   4   32.11    2.53
  -3  -7   3   38.49    2.95
  -3  -7   3   36.35    4.89
  -3  -7   2   49.38    4.61
  -3  -7   2   46.38    4.18
  -3  -7   1  107.89    7.10
  -3  -7   1   93.58    6.55
  -3  -7   0   23.49    3.21
  -3  -7   0   23.31    4.43
  -3  -7  -1    6.84    2.10
  -3  -7  -1    7.71    3.22
  -3  -7  -2   30.67    2.81
  -3  -7  -2   32.96    3.31
  -3  -7  -3   23.03    4.28
  -3  -7  -4  170.86   10.20
  -3  -7  -4  194.55   12.20
  -3  -7  -5    4.35    2.65
  -3  -7  -5   10.54    2.04
  -3  -7  -6   94.34    7.39
  -3  -7  -6  100.17    6.01
  -3  -7  -7   39.51    5.00
  -3  -7  -7   43.62    4.52
   3   7   8    0.16    1.01
  -3  -7  -8    4.68    1.73
   3   7   9  111.41    5.81
  -3  -7  -9  112.57    7.37
   3   7  10  334.10   16.30
  -3  -7 -10  324.28   19.72
   3   7  11  115.95    5.71
  -3  -7 -11  116.92    8.47
   3   7  12   43.43    2.39
  -3  -7 -12   44.22    3.04
   3   8  -4    4.51    1.79
  -3  -8   4    1.82    1.95
   3   8  -3    8.26    1.64
  -3  -8   3    6.95    2.84
   3   8  -2   22.71    2.45
  -3  -8   2   21.58    4.00
   3   8  -1    0.01    1.38
  -3  -8   1    7.77    2.65
   3   8   0   -0.07    1.48
  -3  -8   0   33.15    3.61
   3   8   1    0.29    1.36
  -3  -8  -1   18.82    2.34
   3   8   2   92.77    5.12
  -3  -8  -2  170.66   10.76
  -3  -8  -3   81.00    5.97
  -3  -8  -4  194.41   14.20
  -3  -8  -5  434.92   24.38
  -3  -8  -5  488.91   26.79
  -3  -8  -6  324.09   18.81
  -3  -8  -6  335.53   19.80
  -3  -8  -7    7.88    3.05
  -3  -8  -7    7.94    3.07
  -3  -8  -8    1.74    1.58
  -3  -8  -8    1.62    1.38
   3   8   9   40.10    2.71
  -3  -8  -9   40.24    3.71
   3   8  10   39.44    2.65
  -3  -8 -10   41.51    4.91
   3   8  11    8.48    1.79
  -3  -8 -11    7.68    1.82
  -3  -8 -12   43.33    2.90
   3   9  -2   10.71    2.24
  -3  -9   2   10.25    2.63
   3   9  -1   13.28    2.55
  -3  -9   1   12.25    3.17
   3   9   0    7.65    2.26
  -3  -9   0    7.18    3.10
   3   9   1   21.06    2.78
  -3  -9  -1   19.35    4.00
   3   9   2   81.04    4.92
  -3  -9  -2   75.35    5.54
  -3  -9  -3  134.85    9.89
  -3  -9  -4    8.19    3.61
  -3  -9  -5   29.64    4.61
  -3  -9  -6   12.11    2.73
  -3  -9  -6   13.23    2.18
  -3  -9  -7    3.24    2.41
  -3  -9  -7    3.76    2.47
  -3  -9  -8   16.98    2.32
  -3  -9  -8   18.53    2.34
   3   9   9   50.85    3.08
  -3  -9  -9   46.83    3.77
   3   9  10   54.24    3.81
  -3  -9 -10   50.51    4.88
   3   9  11    4.08    1.45
  -3  -9 -11    4.31    1.36
   3  10   0    1.00    1.12
  -3 -10   0    0.72    1.79
   3  10   1    2.23    1.22
  -3 -10  -1    1.94    2.17
  -3 -10  -2   16.59    3.23
  -3 -10  -3   20.13    2.43
  -3 -10  -4   11.18    2.13
  -3 -10  -5   68.54    5.93
  -3 -10  -6   42.79    2.69
  -3 -10  -6   52.65    3.89
  -3 -10  -7   56.68    3.48
  -3 -10  -7   64.57    5.38
  -3 -10  -8   80.52    5.56
   3  10   9    4.14    1.01
  -3 -10  -9    2.49    2.05
   3  10  10    9.90    1.14
  -3 -10 -10    9.69    1.51
  -3 -11  -4    0.24    0.87
  -3 -11  -5    0.24    1.53
  -3 -11  -6    7.73    2.17
   3  11   7    0.01    0.62
   4  -8  -4   18.33    1.48
  -4   8   4   16.94    2.25
   4  -8  -3   21.50    2.54
  -4   8   3   18.43    2.24
  -4   7   7  144.13    6.87
   4  -7  -6   81.30    4.93
  -4   7   6   96.55    5.95
   4  -7  -5   59.61    3.12
   4  -7  -5   56.85    3.27
  -4   7   5   63.34    3.80
   4  -7  -4   12.35    2.05
  -4   7   4   15.00    1.38
  -4   7   4   12.38    2.65
   4  -7  -3    5.95    1.23
  -4   7   3    4.98    1.38
   4  -7  -2   50.80    3.85
  -4   7   2   48.40    2.72
  -4   7   2   51.19    3.21
   4  -7  -1    6.19    1.26
  -4   7   1    5.26    1.54
  -4   7   1    6.23    1.18
   4  -7   0   15.98    1.66
  -4   7   0   14.99    1.86
  -4   7   0   14.12    1.33
   4  -7   1   24.24    1.89
  -4   7  -1   24.48    1.98
  -4   6   8    1.22    1.26
   4  -6  -7   22.58    1.79
  -4   6   7   29.37    2.24
   4  -6  -6   41.42    3.38
  -4   6   6   50.22    4.41
   4  -6  -5   16.17    1.67
  -4   6   5   18.44    2.17
   4  -6  -4   31.21    2.22
  -4   6   4   30.23    2.06
  -4   6   4   32.34    3.82
   4  -6  -3    7.63    1.30
  -4   6   3    8.02    1.62
   4  -6  -2   30.75    3.29
  -4   6   2   29.23    2.58
   4  -6  -1   34.41    3.35
  -4   6   1   34.27    3.51
  -4   6   1   34.04    3.02
   4  -6   0   77.32    4.33
  -4   6   0   70.79    3.73
  -4   6   0   69.98    4.79
   4  -6   1   19.48    1.91
  -4   6  -1   16.07    2.04
  -4   6  -1   16.39    1.47
   4  -6   2   39.10    2.57
  -4   6  -2   34.67    2.57
   4  -6   3    8.43    1.73
  -4   6  -3    7.08    1.25
  -4   5   9   20.10    1.32
   4  -5  -8    3.26    0.95
  -4   5   8    3.67    1.01
   4  -5  -7   44.69    3.39
   4  -5  -7   55.75    3.05
  -4   5   7   59.66    3.66
   4  -5  -6  114.79    6.61
  -4   5   6  142.17    8.80
   4  -5  -5   26.67    2.16
  -4   5   5   34.61    2.99
  -4   5   4   54.12    3.01
  -4   5   4   63.88    5.47
   4  -5  -3   19.06    2.49
  -4   5   3   26.75    2.48
  -4   5   3   18.64    2.33
   4  -5  -2   12.67    1.55
  -4   5   2   11.91    1.91
   4  -5  -1   62.62    4.59
  -4   5   1   53.24    3.09
  -4   5   1   56.57    4.76
   4  -5   0   22.75    2.71
  -4   5   0   20.14    2.34
  -4   5   0   20.54    2.90
   4  -5   1   45.88    3.00
  -4   5  -1   41.47    3.17
  -4   5  -1   40.13    3.38
   4  -5   2   53.16    3.28
  -4   5  -2   48.11    2.74
   4  -5   3   35.73    3.18
  -4   5  -3   30.85    1.95
   4  -5   4    1.77    1.36
  -4   5  -4    1.93    0.64
   4  -5   5   24.56    1.65
   4  -4  -9   18.25    2.10
  -4   4   9   17.65    1.31
   4  -4  -8   13.74    1.32
  -4   4   8   14.17    1.57
   4  -4  -7   72.28    3.60
  -4   4   7   80.39    5.71
   4  -4  -6  194.77    9.42
  -4   4   6  213.37   12.30
   4  -4  -5   77.81    3.78
  -4   4   5   81.40    5.12
  -4   4   4  100.47    4.65
  -4   4   4  102.00    7.36
   4  -4  -3   93.83    5.25
  -4   4   3  101.15    4.68
  -4   4   3   88.88    5.11
  -4   4   3  101.13    7.27
   4  -4  -2   73.10    4.62
  -4   4   2   67.75    4.05
  -4   4   2   61.34    3.31
  -4   4   2   64.76    4.26
   4  -4  -1   21.94    1.80
  -4   4   1   21.00    1.52
  -4   4   1   20.99    2.26
   4  -4   0  125.65    7.11
  -4   4   0  119.09    6.27
  -4   4   0  110.27    6.03
  -4   4   0  110.57    7.05
   4  -4   1  107.89    6.44
  -4   4  -1  102.73    5.04
  -4   4  -1   98.45    4.96
  -4   4  -1   98.16    6.04
   4  -4   2  106.39    6.37
  -4   4  -2   98.67    5.32
  -4   4  -2   97.81    4.88
   4  -4   3  122.28    7.05
  -4   4  -3  104.59    5.67
  -4   4  -3  116.22    6.06
   4  -4   4   58.27    4.12
  -4   4  -4   52.11    3.32
  -4   4  -4   53.16    3.23
   4  -4   5   25.11    2.58
  -4   4  -5   21.84    1.78
   4  -4   6    4.53    0.86
   4  -3  -9   56.03    4.04
  -4   3   9   93.42    4.50
   4  -3  -8   15.31    2.45
  -4   3   8   31.23    2.97
   4  -3  -7   11.03    1.38
  -4   3   7   11.46    1.78
   4  -3  -6  174.95    8.22
  -4   3   6  173.60    9.36
   4  -3  -5    0.04    0.93
  -4   3   5   19.57    2.60
  -4   3   4  118.76    6.37
  -4   3   4  121.17    7.12
  -4   3   3  330.79   15.61
  -4   3   3  331.80   18.84
   4  -3  -2  195.27    9.04
  -4   3   2  207.79    9.81
  -4   3   2  213.59   12.50
   4  -3  -1   68.54    4.22
  -4   3   1   66.44    4.37
  -4   3   1   64.81    4.10
   4  -3   0   34.52    2.28
  -4   3   0   35.17    2.40
  -4   3   0   33.59    2.61
   4  -3   1   65.65    3.67
  -4   3  -1   59.08    3.52
  -4   3  -1   67.42    4.68
   4  -3   2  121.29    6.99
  -4   3  -2  114.69    5.89
   4  -3   3    7.76    2.26
  -4   3  -3    6.37    1.89
   4  -3   4   22.08    2.99
  -4   3  -4   21.39    2.70
   4  -3   5   19.40    2.64
  -4   3  -5   18.01    2.39
   4  -3   6    1.24    0.85
  -4   3  -6    1.72    1.28
   4  -3   7   18.72    2.03
  -4   3  -7   14.97    1.61
   4  -2  -9   39.28    3.86
  -4   2   9   91.55    3.92
   4  -2  -8   78.92    5.41
  -4   2   8   86.00    4.53
   4  -2  -7   50.04    3.18
  -4   2   7   75.71    5.25
   4  -2  -6  244.84   12.28
  -4   2   6  584.42   27.60
  -4   2   5   43.76    3.54
  -4   2   5   46.55    2.86
  -4   2   4   26.63    4.16
  -4   2   4   23.60    2.77
  -4   2   3  269.03   13.75
  -4   2   3  288.90   15.13
  -4   2   2  464.44   22.75
  -4   2   2  481.38   25.15
   4  -2  -1   71.83    3.49
  -4   2   1   75.46    5.48
   4  -2   0  313.72   15.12
  -4   2   0  317.98   16.53
  -4   2   0  304.87   16.09
   4  -2   1   24.32    1.82
  -4   2  -1   23.32    2.64
  -4   2  -1   25.43    2.15
   4  -2   2    2.69    1.00
  -4   2  -2    2.36    1.79
   4  -2   3   46.09    3.83
  -4   2  -3   49.46    4.32
   4  -2   4  146.91    8.50
  -4   2  -4  145.17    7.69
   4  -2   5  220.81   10.68
  -4   2  -5  218.49   11.10
   4  -2   6    2.79    1.12
  -4   2  -6    2.56    1.16
   4  -2   7   57.05    3.79
  -4   2  -7   56.44    3.39
   4  -2   8  139.55    6.13
  -4   2  -8  144.03    6.71
   4  -1  -9   40.92    3.97
  -4   1   9   41.64    2.27
   4  -1  -8   80.24    5.48
  -4   1   8   83.75    4.40
   4  -1  -7   23.90    2.13
  -4   1   7   24.51    2.26
   4  -1  -6  343.19   17.34
  -4   1   6  581.71   29.22
  -4   1   5  109.00    6.32
  -4   1   4  419.63   22.89
  -4   1   4  372.06   18.95
  -4   1   3  170.49    9.04
  -4   1   3  160.11    7.72
  -4   1   2  307.04   14.88
  -4   1   2  351.88   19.11
  -4   1   1  563.52   29.58
  -4   1   1  500.30   25.89
   4  -1   0  298.98   13.71
  -4   1   0  416.68   21.00
  -4   1   0  303.28   15.12
   4  -1   1  190.05    9.24
  -4   1  -1  171.27    8.36
  -4   1  -1  187.63    9.33
   4  -1   2    7.59    1.16
  -4   1  -2    6.23    2.21
   4  -1   3   59.47    3.44
  -4   1  -3   63.08    3.95
   4  -1   4   32.69    2.46
  -4   1  -4   30.30    3.72
   4  -1   5  344.58   17.06
  -4   1  -5  346.33   19.16
   4  -1   6  131.10    6.76
  -4   1  -6  128.19    8.29
   4  -1   7  227.62   11.65
  -4   1  -7  225.67   12.80
   4  -1   8   86.19    4.22
  -4   1  -8   92.30    6.04
   4  -1   9   97.56    4.75
  -4   1  -9   99.37    4.95
   4   0  -9   41.72    2.81
  -4   0   9   42.16    2.58
   4   0  -8  108.68    5.75
  -4   0   8  121.24    6.76
   4   0  -7   55.10    3.36
  -4   0   7   58.15    4.57
   4   0  -6    0.83    1.47
  -4   0   6    0.64    1.23
   4   0  -5   77.39    4.33
  -4   0   5  117.80    7.53
  -4   0   4   50.23    3.67
  -4   0   4   52.18    3.09
  -4   0   3  185.39   10.72
  -4   0   2   62.69    3.52
  -4   0   2   16.57    1.74
  -4   0   1   24.49    2.23
  -4   0   1   25.93    2.95
   4   0   0    4.50    1.03
  -4   0   0    4.80    1.15
  -4   0   0    5.81    1.28
   4   0   1   32.69    1.92
  -4   0  -1   33.19    2.74
  -4   0  -1   35.88    2.59
   4   0   2   24.54    1.79
  -4   0  -2   24.17    2.98
   4   0   3    0.02    0.94
  -4   0  -3   10.28    1.43
   4   0   4    0.00    1.16
  -4   0  -4   39.98    2.94
  -4   0  -5  114.73    7.72
  -4   0  -6   90.62    5.54
   4   0   7  132.22    6.79
  -4   0  -7  123.79    7.05
   4   0   8   22.16    1.88
  -4   0  -8   21.33    2.30
   4   0   9   30.61    2.53
  -4   0  -9   31.05    3.43
   4   0  10   51.92    2.71
  -4   0 -10   55.09    3.77
   4   1  -9    1.05    1.48
   4   1  -8    4.68    2.09
  -4  -1   8    4.96    1.73
   4   1  -7   21.53    2.89
  -4  -1   7   23.07    3.10
   4   1  -6  127.18    6.44
  -4  -1   6  130.51    7.04
   4   1  -5   15.94    1.65
  -4  -1   5   17.51    3.42
  -4  -1   4  198.86   10.54
  -4  -1   4  218.91   10.20
  -4  -1   3   15.17    3.10
  -4  -1   3   16.43    2.26
  -4  -1   2    9.53    1.63
  -4  -1   2   10.36    1.86
  -4  -1   1   22.33    2.02
  -4  -1   1   21.88    1.75
  -4  -1   0  198.88    9.61
  -4  -1   0  195.35   10.11
  -4  -1  -1   86.20    4.90
  -4  -1  -2  179.81    8.83
  -4  -1  -2  172.38    9.54
  -4  -1  -3    5.34    2.07
  -4  -1  -3    6.02    1.41
  -4  -1  -4   68.52    5.28
  -4  -1  -4   66.75    5.06
  -4  -1  -5   76.22    5.99
  -4  -1  -5   77.71    5.87
  -4  -1  -6  215.98   12.84
  -4  -1  -6  208.05   11.07
  -4  -1  -7   30.79    2.98
  -4  -1  -7   26.53    2.71
   4   1   8   -0.07    1.40
  -4  -1  -8   40.15    2.49
   4   1   9   35.76    2.36
  -4  -1  -9   35.15    2.80
   4   1  10   20.02    2.01
  -4  -1 -10   21.07    2.76
   4   2  -8    7.04    1.75
  -4  -2   8    7.53    1.56
   4   2  -7   11.15    2.03
  -4  -2   7   12.92    2.46
   4   2  -6   20.84    2.40
  -4  -2   6   23.12    3.33
   4   2  -5  179.51    9.42
  -4  -2   5  189.86    9.99
   4   2  -4    4.78    1.04
  -4  -2   4    3.93    2.46
  -4  -2   3   28.99    2.65
  -4  -2   3   27.42    1.88
  -4  -2   2   13.38    1.87
  -4  -2   2   14.47    1.36
  -4  -2   1    0.26    1.47
  -4  -2   1    0.58    1.16
  -4  -2   0    4.94    1.81
  -4  -2   0    4.03    1.49
  -4  -2  -1   13.47    1.50
  -4  -2  -1   19.69    2.15
  -4  -2  -2  158.35    8.34
  -4  -2  -2  166.65    8.22
  -4  -2  -3  423.98   21.78
  -4  -2  -3  439.73   22.91
  -4  -2  -4   59.42    4.00
  -4  -2  -4   58.09    3.64
  -4  -2  -5   45.19    3.52
  -4  -2  -5   41.14    3.91
  -4  -2  -6   31.25    3.06
  -4  -2  -6   29.25    3.59
  -4  -2  -7   27.19    4.37
  -4  -2  -7   25.09    2.51
  -4  -2  -8   11.66    3.10
  -4  -2  -8   12.01    1.86
  -4  -2  -9   39.51    3.10
  -4  -2  -9   37.13    2.85
   4   2  10   45.67    2.63
  -4  -2 -10   44.69    3.83
   4   2  11   15.65    1.54
  -4  -2 -11   15.08    2.04
  -4  -3   7   26.27    2.68
   4   3  -6    7.45    1.58
  -4  -3   6    6.38    2.24
   4   3  -5   16.46    2.01
  -4  -3   5   21.34    2.31
   4   3  -4   42.47    3.07
  -4  -3   4   45.62    4.62
   4   3  -3   90.20    4.37
  -4  -3   3   96.63    5.65
  -4  -3   2   62.79    4.05
  -4  -3   2   58.51    2.94
  -4  -3   1   48.88    4.17
  -4  -3   1   50.91    2.65
  -4  -3   0  133.92    6.83
  -4  -3   0  134.78    7.46
  -4  -3  -1  166.44    8.72
  -4  -3  -1  140.23    7.33
  -4  -3  -2  234.65   11.88
  -4  -3  -3  137.20    7.90
  -4  -3  -3  139.70    6.84
  -4  -3  -4    4.13    2.23
  -4  -3  -4    3.86    1.82
  -4  -3  -5  160.28   10.19
  -4  -3  -5  164.64    8.26
  -4  -3  -6   49.56    4.97
  -4  -3  -6   51.04    4.07
  -4  -3  -7   53.37    5.46
  -4  -3  -7   54.61    4.51
  -4  -3  -8  244.53   13.45
  -4  -3  -8  240.74   12.36
  -4  -3  -9    3.50    2.61
  -4  -3  -9    3.15    1.24
  -4  -3 -10   56.38    3.63
  -4  -3 -10   55.00    4.13
   4   3  11   18.41    1.38
  -4  -3 -11   17.41    2.08
  -4  -4   7   20.40    2.17
  -4  -4   6   39.77    3.44
  -4  -4   5   40.80    2.90
  -4  -4   4   32.63    4.07
   4   4  -3   18.90    1.81
  -4  -4   3   20.75    2.33
   4   4  -2  212.87    9.53
  -4  -4   2  232.49   11.82
  -4  -4   1  144.70    8.56
  -4  -4   1  137.87    6.04
  -4  -4   0  104.35    6.30
  -4  -4   0   92.33    4.22
  -4  -4  -1   85.90    4.51
  -4  -4  -1   86.45    5.11
  -4  -4  -2   17.34    1.87
  -4  -4  -3  167.20    8.14
  -4  -4  -3  156.96    8.87
  -4  -4  -4    3.68    1.28
  -4  -4  -4    3.55    0.89
  -4  -4  -5   69.98    4.52
  -4  -4  -5   65.06    4.05
  -4  -4  -6   39.82    3.42
  -4  -4  -6   39.34    2.55
  -4  -4  -7   42.51    3.65
  -4  -4  -7   41.05    2.67
  -4  -4  -8   67.19    6.27
  -4  -4  -8   64.64    4.34
  -4  -4  -9  204.23   11.10
  -4  -4  -9  188.84    9.90
  -4  -4 -10   41.96    4.36
  -4  -4 -10   37.56    2.93
  -4  -4 -11  122.51    6.16
  -4  -4 -11  119.98    5.36
  -4  -5   6   41.85    3.21
  -4  -5   5    6.09    1.35
  -4  -5   4   75.96    5.52
  -4  -5   3   94.43    5.32
  -4  -5   2    2.30    2.00
  -4  -5   1  370.19   19.47
  -4  -5   0  278.91   14.71
  -4  -5  -1   53.74    3.70
  -4  -5  -4  312.29   15.88
  -4  -5  -5   63.86    5.14
  -4  -5  -6   48.52    4.85
  -4  -5  -7   10.02    2.04
  -4  -5  -8   15.90    2.40
  -4  -5  -9    0.70    2.26
  -4  -5 -10   63.86    4.23
  -4  -5 -10   59.38    3.29
  -4  -5 -11   15.04    2.84
  -4  -6   5   10.24    1.29
  -4  -6   4    6.98    2.14
  -4  -6   4    5.66    1.05
  -4  -6   3   36.47    2.72
  -4  -6   3   29.07    3.05
  -4  -6   2   14.38    2.73
  -4  -6   2   12.16    1.67
  -4  -6   1  158.08    8.80
  -4  -6   1  133.01    7.31
  -4  -6   0  256.37   13.34
  -4  -6  -1   12.32    2.02
  -4  -6  -5  104.87    6.97
  -4  -6  -6    3.46    2.37
  -4  -6  -7  114.80    7.97
  -4  -6  -8   27.27    3.93
  -4  -6  -9    1.88    1.49
  -4  -6 -10  212.59   12.60
  -4  -6 -11  136.87    7.06
  -4  -7   3   34.04    2.28
  -4  -7   3   29.31    2.66
  -4  -7   2  137.60    7.54
  -4  -7   2  112.78    6.78
  -4  -7   1   36.20    3.40
  -4  -7   1   28.82    3.40
  -4  -7   0  233.43   11.90
  -4  -7   0  199.50   11.48
  -4  -7  -1  200.12    9.85
  -4  -7  -1  163.68    8.88
  -4  -7  -2    0.49    1.69
  -4  -7  -3   18.01    1.98
  -4  -7  -4    5.35    1.93
  -4  -7  -5   20.02    2.67
  -4  -7  -6    1.18    1.78
  -4  -7  -6    0.81    0.88
  -4  -7  -7   50.06    4.76
  -4  -7  -8   40.02    4.19
  -4  -7  -9  142.95    7.85
  -4  -7 -10   20.00    3.18
  -4  -7 -11   13.39    1.66
   4   8  -2   12.39    1.49
   4   8  -1   39.55    2.56
  -4  -8   1   33.45    2.36
   4   8   0   54.45    3.10
  -4  -8   0   48.82    3.20
   4   8   1   40.99    2.49
  -4  -8  -1   40.12    3.88
  -4  -8  -2   15.08    2.76
  -4  -8  -3   87.78    5.04
  -4  -8  -4    0.71    1.60
  -4  -8  -5   42.92    3.73
  -4  -8  -6   16.68    2.28
  -4  -8  -6   17.30    1.72
   4   8   7   63.33    3.12
  -4  -8  -7   56.06    4.29
  -4  -8  -8   11.83    2.45
  -4  -8  -9   26.56    2.32
  -4  -8 -10   42.19    3.68
  -4  -9  -1   21.69    1.80
  -4  -9  -2   62.51    3.58
  -4  -9  -3   85.12    5.28
  -4  -9  -4    1.64    1.05
  -4  -9  -5   31.10    3.08
  -4  -9  -6   29.18    2.15
  -4  -9  -7   15.53    1.30
  -4  -9  -8   46.87    2.62
  -4  -9  -9   12.43    1.33
  -4 -10  -4   16.46    1.65
  -4 -10  -5   13.34    1.21
  -5   5   5   72.47    4.61
  -5   5   4   56.17    4.12
  -5   5   3   22.82    1.86
   5  -5  -2   18.46    1.16
  -5   5   2   21.80    1.67
   5  -5  -1   19.67    1.36
  -5   5   1   17.77    1.36
   5  -5   0    0.76    0.69
   5  -5   1    1.24    1.27
   5  -4  -6   58.72    2.74
  -5   4   6   81.80    4.90
   5  -4  -5   66.99    3.38
  -5   4   5   67.11    3.86
   5  -4  -4   19.71    1.23
  -5   4   4   20.78    2.97
  -5   4   3  127.13    6.52
  -5   4   2   13.80    1.58
  -5   4   2   13.95    1.11
   5  -4  -1   20.57    2.04
  -5   4   1   19.57    1.65
  -5   4   1   18.59    1.61
   5  -4   0    9.16    1.10
  -5   4   0    7.60    0.75
  -5   4   0    7.37    0.96
   5  -4   1    1.66    1.45
  -5   4  -1    2.22    0.74
   5  -4   2   16.62    2.15
  -5   4  -2   12.25    1.03
   5  -4   3   31.75    2.86
   5  -3  -7   26.11    1.62
  -5   3   7   26.98    2.66
   5  -3  -6   22.57    1.52
  -5   3   6   23.21    2.80
   5  -3  -5   85.66    4.51
  -5   3   5   87.39    4.82
   5  -3  -4   18.62    1.48
  -5   3   4   17.93    2.95
  -5   3   3   37.87    2.18
  -5   3   3   35.91    3.90
  -5   3   2   92.35    5.07
  -5   3   2   83.51    4.72
  -5   3   1   37.08    2.29
  -5   3   1   32.62    2.39
   5  -3   0   15.18    1.78
  -5   3   0   16.37    2.13
  -5   3   0   15.52    1.46
   5  -3   1   53.45    2.89
  -5   3  -1   51.73    2.73
   5  -3   2   72.01    3.67
  -5   3  -2   63.16    3.64
   5  -3   3    0.51    0.75
  -5   3  -3    0.36    1.02
   5  -3   4   80.75    3.96
  -5   3  -4   77.25    3.99
   5  -2  -7   16.15    2.06
   5  -2  -6   44.87    2.54
  -5   2   6   44.58    2.90
   5  -2  -5   76.62    3.84
  -5   2   5   78.98    5.80
   5  -2  -4    0.05    0.92
  -5   2   4    9.26    1.41
  -5   2   3   86.65    6.03
  -5   2   3   94.26    5.32
  -5   2   2   20.26    1.81
  -5   2   2   18.93    2.98
  -5   2   1  278.48   11.41
  -5   2   1   62.97    5.05
   5  -2   0  335.97   15.32
  -5   2   0  338.96   16.36
  -5   2   0  329.41   16.72
   5  -2   1   79.85    4.51
  -5   2  -1   73.03    5.20
   5  -2   2   75.87    3.86
  -5   2  -2   77.74    5.35
   5  -2   3  120.19    5.75
  -5   2  -3  123.30    6.11
   5  -2   4  122.68    5.82
  -5   2  -4  121.17    5.86
   5  -2   5  125.53    5.81
  -5   2  -5  118.40    6.13
   5  -2   6   41.10    2.86
  -5   2  -6   40.08    2.08
   5  -1  -7   21.73    1.71
   5  -1  -6    4.40    1.14
  -5   1   6   37.23    2.72
   5  -1  -5   66.55    3.50
  -5   1   5   69.37    4.10
  -5   1   4   97.50    6.57
  -5   1   3    8.13    1.63
  -5   1   3    7.73    1.99
  -5   1   2   15.66    1.91
  -5   1   2   16.03    1.72
  -5   1   1   86.01    5.84
  -5   1   1  119.25    7.00
  -5   1   0  127.99    7.26
  -5   1   0  147.47    7.38
   5  -1   1   56.84    2.90
  -5   1  -1   69.92    5.36
   5  -1   2    0.80    1.16
  -5   1  -2    0.78    1.06
   5  -1   3   71.79    4.39
  -5   1  -3   68.56    4.91
   5  -1   4   13.18    2.08
  -5   1  -4   12.14    2.57
   5  -1   5   82.65    4.96
  -5   1  -5   85.39    5.42
   5  -1   6   80.71    4.74
  -5   1  -6   79.01    4.86
   5  -1   7   44.04    2.30
  -5   1  -7   43.42    3.04
   5   0  -7    2.53    0.88
  -5   0   7    3.45    0.98
   5   0  -6    6.77    1.10
  -5   0   6    7.54    1.38
   5   0  -5   10.98    2.22
  -5   0   5   68.69    4.17
   5   0  -4   57.66    3.38
  -5   0   4   92.42    4.87
  -5   0   3  135.34    7.22
  -5   0   3   53.62    3.35
  -5   0   2  123.35    6.87
  -5   0   2   62.13    3.75
  -5   0   1  228.91   11.11
  -5   0   1  104.87    7.12
  -5   0   0  244.23   12.67
  -5   0   0  267.85   13.10
  -5   0  -1  439.01   23.83
   5   0   2   11.05    1.13
  -5   0  -2   11.36    1.83
   5   0   3   17.92    1.51
  -5   0  -3   19.12    2.88
   5   0   4    9.52    1.89
  -5   0  -4    9.81    2.52
   5   0   5    6.95    1.73
  -5   0  -5    5.94    1.33
   5   0   6   11.75    1.35
  -5   0  -6   11.87    1.50
   5   0   7   44.31    2.45
  -5   0  -7   40.13    2.50
   5   1  -6   27.34    2.57
  -5  -1   6   29.76    2.23
   5   1  -5   23.61    1.84
  -5  -1   5   26.47    2.25
   5   1  -4    7.87    1.21
  -5  -1   4    9.06    2.47
  -5  -1   3  187.84   10.92
  -5  -1   3  193.16    9.09
  -5  -1   2   72.39    4.24
  -5  -1   2   64.88    4.48
  -5  -1   1  117.39    6.11
  -5  -1   1  121.47    5.98
  -5  -1   0   30.73    2.20
  -5  -1   0   41.62    2.79
  -5  -1  -1   73.04    5.28
  -5  -1  -2  111.12    6.19
   5   1   3  180.09    8.86
  -5  -1  -3  180.50   10.13
   5   1   4   12.75    1.38
  -5  -1  -4   13.17    2.78
   5   1   5   39.51    2.51
  -5  -1  -5   38.44    2.73
   5   1   6   12.91    2.12
  -5  -1  -6   11.16    1.52
   5   1   7   13.19    2.04
  -5  -1  -7   11.57    1.42
   5   1   8   69.24    3.33
  -5  -1  -8   61.14    3.20
  -5  -2   6    4.32    1.66
   5   2  -5   17.27    1.91
  -5  -2   5   21.26    1.98
   5   2  -4   62.29    3.93
  -5  -2   4   66.86    4.92
   5   2  -3   55.66    3.04
  -5  -2   3   56.48    3.65
  -5  -2   2   24.36    2.24
  -5  -2   2   27.45    1.92
  -5  -2   1   50.59    4.11
  -5  -2   1   57.36    3.92
  -5  -2   0   25.64    2.61
  -5  -2   0   26.37    2.63
  -5  -2  -1    0.96    0.87
  -5  -2  -2    8.75    2.53
   5   2   3  271.50   12.45
  -5  -2  -3  296.97   14.53
   5   2   4   73.32    3.77
  -5  -2  -4   76.43    5.24
   5   2   5   78.90    4.08
  -5  -2  -5   81.93    5.56
   5   2   6   72.35    3.81
  -5  -2  -6   66.05    3.80
   5   2   7   49.80    2.81
  -5  -2  -7   41.09    2.63
   5   2   8   34.97    2.16
  -5  -2  -8   30.94    2.06
  -5  -3   5    0.59    0.85
   5   3  -4   49.57    2.89
  -5  -3   4   59.98    4.47
   5   3  -3   20.93    1.86
  -5  -3   3   21.53    2.08
   5   3  -2   88.20    4.15
  -5  -3   2   87.50    5.70
  -5  -3   1  145.88    8.07
  -5  -3   1  147.33    6.65
  -5  -3   0  115.29    6.36
  -5  -3   0  118.55    5.63
  -5  -3  -1  124.68    6.67
  -5  -3  -2   86.41    4.35
  -5  -3  -3   18.51    2.61
   5   3   4    6.49    1.11
  -5  -3  -4   47.18    2.32
  -5  -3  -5   47.30    3.49
  -5  -3  -6   63.35    4.27
   5   3   7    0.08    0.84
  -5  -3  -7    2.30    0.81
   5   3   8    6.28    1.07
  -5  -3  -8    5.12    0.93
   5   3   9   15.99    1.35
  -5  -3  -9   14.58    1.62
  -5  -4   4   20.80    2.52
  -5  -4   3    1.47    0.96
  -5  -4   2   11.24    2.14
   5   4  -1   49.19    2.36
  -5  -4   1   52.29    3.88
  -5  -4   0   21.13    2.33
  -5  -4   0   20.95    1.31
  -5  -4  -1   96.69    4.80
  -5  -4  -2   58.29    3.39
  -5  -4  -3   17.92    1.34
  -5  -4  -4   40.59    2.69
  -5  -4  -5  107.06    4.99
  -5  -4  -5   99.35    5.14
  -5  -4  -6   27.94    1.76
  -5  -4  -6   27.32    2.20
  -5  -4  -7   38.21    2.54
  -5  -4  -7   42.18    2.82
  -5  -4  -8   19.64    1.66
   5   4   9   35.30    2.07
  -5  -5   3   41.44    2.43
  -5  -5   2    3.76    1.55
  -5  -5   1   84.17    4.81
  -5  -5   0   52.32    3.28
  -5  -5  -6   65.93    3.57
  -5  -5  -7    1.19    0.89
  -5  -5  -8   22.80    1.87
   5   5   9   -0.02    0.50
  -5  -6   2    0.77    1.06
  -5  -6   1    7.66    1.48
  -5  -6   0    8.78    1.39
  -5  -6  -6    4.58    0.83
  -5  -6  -7   11.89    1.72
  -5  -6  -8    6.18    0.98
  -6   1   0   11.69    1.67
  -6   0   1    3.51    0.86
  -6   0   0   15.02    1.87
  -6   0  -1    4.61    0.93
  -6   0  -2   13.83    1.24
   6   1  -1   -0.05    0.59
  -6  -1   0    0.12    0.67
  -6  -1  -1   24.93    2.52
  -6  -1  -2   45.85    2.62
  -6  -1  -3  116.22    5.76
   6   2  -1   88.31    3.79
   6   2   0   -0.10    0.54
  -6  -2  -1  107.12    5.60
  -6  -2  -2  114.96    5.10
  -6  -2  -3   60.02    2.98
  -6  -2  -4   14.92    1.57
  -6  -3  -2    2.48    0.66
  -6  -3  -3   27.24    1.91
  -6  -3  -4   82.38    3.27
   0   0   0    0.00    0.00
;
_shelx_hkl_checksum              79840
loop_
_space_group_symop_operation_xyz
'x, y, z'
loop_
_atom_site_label
_atom_site_type_symbol
_atom_site_fract_x
_atom_site_fract_y
_atom_site_fract_z
_atom_site_U_iso_or_equiv
_atom_site_adp_type
_atom_site_occupancy
_atom_site_site_symmetry_order
_atom_site_calc_flag
_atom_site_refinement_flags_posn
_atom_site_refinement_flags_adp
O1 O -0.0299(7) 0.6043(4) 0.7439(3) 0.0621(11) Uani 1 1 d . .
O2 O 0.2955(7) 0.4230(3) 0.8202(2) 0.0468(8) Uani 1 1 d . .
O3 O 0.3116(6) 0.4989(4) 0.1766(2) 0.0435(7) Uani 1 1 d . .
O4 O 0.6442(5) 0.6195(3) 0.1873(2) 0.0333(6) Uani 1 1 d . .
C1 C 0.2183(7) 0.5092(4) 0.6079(3) 0.0284(8) Uani 1 1 d . .
C2 C 0.2957(7) 0.3861(4) 0.5878(3) 0.0272(8) Uani 1 1 d . .
C3 C 0.2475(7) 0.2338(4) 0.6756(3) 0.0291(8) Uani 1 1 d . .
C4 C 0.0313(8) 0.2089(5) 0.7601(3) 0.0374(9) Uani 1 1 d . .
H4 H -0.0855 0.2902 0.7620 0.045 Uiso 1 1 calc R U
C5 C -0.0139(9) 0.0667(5) 0.8409(4) 0.0438(11) Uani 1 1 d . .
H5 H -0.1590 0.0507 0.8991 0.053 Uiso 1 1 calc R U
C6 C 0.1539(10) -0.0519(5) 0.8365(4) 0.0446(11) Uani 1 1 d . .
H6 H 0.1277 -0.1491 0.8940 0.053 Uiso 1 1 calc R U
C7 C 0.3578(9) -0.0298(5) 0.7495(4) 0.0396(10) Uani 1 1 d . .
H7 H 0.4668 -0.1124 0.7454 0.048 Uiso 1 1 calc R U
C8 C 0.4077(7) 0.1127(4) 0.6668(3) 0.0294(8) Uani 1 1 d . .
C9 C 0.6202(7) 0.1376(4) 0.5694(3) 0.0278(8) Uani 1 1 d . .
C10 C 0.8187(8) 0.0252(4) 0.5742(3) 0.0320(8) Uani 1 1 d . .
H10 H 0.8148 -0.0696 0.6400 0.038 Uiso 1 1 calc R U
C11 C 1.0219(8) 0.0499(4) 0.4843(4) 0.0344(9) Uani 1 1 d . .
H11 H 1.1550 -0.0278 0.4888 0.041 Uiso 1 1 calc R U
C12 C 1.0303(8) 0.1875(4) 0.3883(4) 0.0313(8) Uani 1 1 d . .
H12 H 1.1694 0.2048 0.3270 0.038 Uiso 1 1 calc R U
C13 C 0.8342(7) 0.3000(4) 0.3820(3) 0.0268(8) Uani 1 1 d . .
H13 H 0.8423 0.3946 0.3165 0.032 Uiso 1 1 calc R U
C14 C 0.6244(7) 0.2774(4) 0.4701(3) 0.0248(7) Uani 1 1 d . .
C15 C 0.4247(7) 0.4008(4) 0.4663(3) 0.0230(7) Uani 1 1 d . .
C16 C 0.3629(7) 0.5243(4) 0.3651(3) 0.0239(7) Uani 1 1 d . .
C17 C 0.1905(7) 0.6575(4) 0.3741(3) 0.0256(8) Uani 1 1 d . .
H17 H 0.0007 0.6571 0.3592 0.031 Uiso 1 1 calc R U
C18 C 0.2975(7) 0.8019(4) 0.2897(3) 0.0265(8) Uani 1 1 d . .
C19 C 0.2451(8) 0.8889(4) 0.1666(4) 0.0343(9) Uani 1 1 d . .
H19 H 0.1216 0.8635 0.1248 0.041 Uiso 1 1 calc R U
C20 C 0.3777(9) 1.0146(5) 0.1052(4) 0.0408(10) Uani 1 1 d . .
H20 H 0.3461 1.0747 0.0205 0.049 Uiso 1 1 calc R U
C21 C 0.5544(9) 1.0517(5) 0.1670(4) 0.0427(10) Uani 1 1 d . .
H21 H 0.6441 1.1371 0.1241 0.051 Uiso 1 1 calc R U
C22 C 0.6029(8) 0.9661(4) 0.2911(4) 0.0376(9) Uani 1 1 d . .
H22 H 0.7231 0.9930 0.3333 0.045 Uiso 1 1 calc R U
C23 C 0.4729(7) 0.8407(4) 0.3524(3) 0.0294(8) Uani 1 1 d . .
C24 C 0.4832(7) 0.7312(4) 0.4858(3) 0.0285(8) Uani 1 1 d . .
H24A H 0.4837 0.7813 0.5426 0.034 Uiso 1 1 calc R U
H24B H 0.6409 0.6582 0.4995 0.034 Uiso 1 1 calc R U
C25 C 0.2270(7) 0.6581(4) 0.5026(3) 0.0264(8) Uani 1 1 d . .
H25 H 0.0785 0.7256 0.5173 0.032 Uiso 1 1 calc R U
C26 C 0.4367(7) 0.5424(4) 0.2342(3) 0.0255(7) Uani 1 1 d . .
C27 C 0.7132(10) 0.6544(6) 0.0579(4) 0.0496(12) Uani 1 1 d . .
H27A H 0.5905 0.7365 0.0063 0.074 Uiso 1 1 calc R U
H27B H 0.7018 0.5679 0.0399 0.074 Uiso 1 1 calc R U
H27C H 0.8939 0.6826 0.0398 0.074 Uiso 1 1 calc R U
C28 C 0.1400(8) 0.5165(5) 0.7301(3) 0.0355(9) Uani 1 1 d . .
C29 C 0.2380(16) 0.4287(7) 0.9397(4) 0.079(2) Uani 1 1 d . .
H29A H 0.2380 0.5303 0.9317 0.118 Uiso 1 1 calc R U
H29B H 0.3730 0.3648 0.9975 0.118 Uiso 1 1 calc R U
H29C H 0.0640 0.3948 0.9711 0.118 Uiso 1 1 calc R U
loop_
_atom_site_aniso_label
_atom_site_aniso_U_11
_atom_site_aniso_U_22
_atom_site_aniso_U_33
_atom_site_aniso_U_23
_atom_site_aniso_U_13
_atom_site_aniso_U_12
O1 0.072(3) 0.071(2) 0.0385(17) -0.0276(17) 0.0083(16) 0.022(2)
O2 0.070(2) 0.0465(18) 0.0290(14) -0.0224(13) -0.0100(13) 0.0077(15)
O3 0.0448(17) 0.065(2) 0.0306(14) -0.0267(14) 0.0029(12) -0.0179(15)
O4 0.0342(15) 0.0352(14) 0.0274(13) -0.0095(11) 0.0071(11) -0.0083(11)
C1 0.0266(19) 0.036(2) 0.0248(17) -0.0144(15) 0.0005(14) -0.0041(15)
C2 0.0260(19) 0.0333(19) 0.0202(16) -0.0093(14) 0.0015(13) -0.0021(15)
C3 0.030(2) 0.039(2) 0.0195(16) -0.0112(16) -0.0013(14) -0.0101(17)
C4 0.036(2) 0.053(2) 0.0256(18) -0.0173(18) 0.0023(16) -0.013(2)
C5 0.042(2) 0.060(3) 0.0250(19) -0.0091(19) 0.0080(17) -0.025(2)
C6 0.054(3) 0.045(2) 0.0258(19) -0.0001(17) -0.0006(18) -0.025(2)
C7 0.050(3) 0.035(2) 0.029(2) -0.0063(17) -0.0033(17) -0.0113(19)
C8 0.033(2) 0.033(2) 0.0200(16) -0.0059(15) -0.0069(14) -0.0093(16)
C9 0.033(2) 0.0278(18) 0.0260(17) -0.0127(15) -0.0049(15) -0.0058(15)
C10 0.038(2) 0.0260(18) 0.0321(19) -0.0103(15) -0.0102(16) -0.0034(16)
C11 0.032(2) 0.030(2) 0.047(2) -0.0226(18) -0.0087(17) 0.0031(16)
C12 0.030(2) 0.0325(19) 0.035(2) -0.0186(16) 0.0023(15) -0.0033(16)
C13 0.028(2) 0.0261(18) 0.0275(18) -0.0116(15) -0.0006(14) -0.0047(15)
C14 0.0287(19) 0.0250(18) 0.0245(17) -0.0126(14) -0.0021(14) -0.0054(14)
C15 0.0199(17) 0.0271(18) 0.0272(18) -0.0146(15) 0.0007(13) -0.0085(14)
C16 0.0227(18) 0.0275(17) 0.0238(17) -0.0123(14) 0.0018(13) -0.0054(14)
C17 0.0225(17) 0.0297(18) 0.0262(17) -0.0136(15) -0.0009(13) 0.0002(15)
C18 0.0244(18) 0.0265(18) 0.0302(18) -0.0146(15) -0.0006(14) 0.0023(14)
C19 0.035(2) 0.034(2) 0.033(2) -0.0125(17) -0.0077(16) 0.0035(17)
C20 0.046(2) 0.033(2) 0.034(2) -0.0056(17) -0.0032(17) 0.0013(18)
C21 0.045(3) 0.032(2) 0.045(2) -0.0093(18) 0.0001(19) -0.0075(19)
C22 0.035(2) 0.034(2) 0.047(2) -0.0186(19) -0.0050(18) -0.0050(17)
C23 0.0294(19) 0.0273(18) 0.0340(19) -0.0165(16) -0.0026(15) 0.0039(15)
C24 0.0255(18) 0.0329(18) 0.0320(19) -0.0180(16) -0.0050(14) -0.0002(15)
C25 0.0252(18) 0.0303(17) 0.0259(17) -0.0151(15) -0.0001(14) 0.0020(14)
C26 0.0258(18) 0.0246(17) 0.0245(17) -0.0092(14) 0.0009(14) 0.0002(14)
C27 0.046(3) 0.063(3) 0.031(2) -0.012(2) 0.0146(19) -0.010(2)
C28 0.039(2) 0.040(2) 0.0284(19) -0.0164(17) 0.0031(16) -0.0019(18)
C29 0.143(6) 0.062(3) 0.031(2) -0.027(2) -0.019(3) 0.028(4)
loop_
_atom_type_symbol
_atom_type_description
_atom_type_scat_dispersion_real
_atom_type_scat_dispersion_imag
_atom_type_scat_source
C C 0.0181 0.0091 'International Tables Vol C Tables 4.2.6.8 and 6.1.1.4'
H H 0.0000 0.0000 'International Tables Vol C Tables 4.2.6.8 and 6.1.1.4'
O O 0.0492 0.0322 'International Tables Vol C Tables 4.2.6.8 and 6.1.1.4'
loop_
_geom_angle_atom_site_label_1
_geom_angle_atom_site_label_2
_geom_angle_atom_site_label_3
_geom_angle
C28 O2 C29 115.1(4)
C26 O4 C27 116.4(3)
C2 C1 C28 126.6(3)
C2 C1 C25 119.7(3)
C28 C1 C25 113.5(3)
C1 C2 C15 118.9(3)
C1 C2 C3 125.0(3)
C15 C2 C3 116.0(3)
C4 C3 C8 119.4(4)
C4 C3 C2 120.8(4)
C8 C3 C2 119.6(3)
C5 C4 C3 120.6(4)
C5 C4 H4 119.7
C3 C4 H4 119.7
C6 C5 C4 119.6(4)
C6 C5 H5 120.2
C4 C5 H5 120.2
C7 C6 C5 120.4(4)
C7 C6 H6 119.8
C5 C6 H6 119.8
C6 C7 C8 121.0(4)
C6 C7 H7 119.5
C8 C7 H7 119.5
C7 C8 C3 118.7(4)
C7 C8 C9 121.4(3)
C3 C8 C9 119.8(3)
C10 C9 C14 119.2(3)
C10 C9 C8 121.1(3)
C14 C9 C8 119.7(3)
C11 C10 C9 121.0(3)
C11 C10 H10 119.5
C9 C10 H10 119.5
C12 C11 C10 120.1(3)
C12 C11 H11 120.0
C10 C11 H11 120.0
C11 C12 C13 119.5(4)
C11 C12 H12 120.2
C13 C12 H12 120.2
C12 C13 C14 121.6(3)
C12 C13 H13 119.2
C14 C13 H13 119.2
C13 C14 C9 118.5(3)
C13 C14 C15 121.0(3)
C9 C14 C15 120.3(3)
C16 C15 C14 125.6(3)
C16 C15 C2 119.0(3)
C14 C15 C2 115.4(3)
C15 C16 C26 124.5(3)
C15 C16 C17 121.7(3)
C26 C16 C17 113.7(3)
C18 C17 C16 111.7(3)
C18 C17 C25 100.4(3)
C16 C17 C25 108.5(3)
C18 C17 H17 111.9
C16 C17 H17 111.9
C25 C17 H17 111.9
C19 C18 C23 120.9(4)
C19 C18 C17 128.7(3)
C23 C18 C17 110.4(3)
C18 C19 C20 118.7(4)
C18 C19 H19 120.7
C20 C19 H19 120.7
C21 C20 C19 120.3(4)
C21 C20 H20 119.8
C19 C20 H20 119.8
C20 C21 C22 121.0(4)
C20 C21 H21 119.5
C22 C21 H21 119.5
C23 C22 C21 119.0(4)
C23 C22 H22 120.5
C21 C22 H22 120.5
C22 C23 C18 120.1(3)
C22 C23 C24 130.1(4)
C18 C23 C24 109.8(3)
C23 C24 C25 102.2(3)
C23 C24 H24A 111.3
C25 C24 H24A 111.3
C23 C24 H24B 111.3
C25 C24 H24B 111.3
H24A C24 H24B 109.2
C1 C25 C24 116.0(3)
C1 C25 C17 113.7(3)
C24 C25 C17 104.1(3)
C1 C25 H25 107.5
C24 C25 H25 107.5
C17 C25 H25 107.5
O3 C26 O4 124.2(3)
O3 C26 C16 123.0(3)
O4 C26 C16 112.7(3)
O4 C27 H27A 109.5
O4 C27 H27B 109.5
H27A C27 H27B 109.5
O4 C27 H27C 109.5
H27A C27 H27C 109.5
H27B C27 H27C 109.5
O1 C28 O2 123.6(4)
O1 C28 C1 124.0(4)
O2 C28 C1 112.2(3)
O2 C29 H29A 109.5
O2 C29 H29B 109.5
H29A C29 H29B 109.5
O2 C29 H29C 109.5
H29A C29 H29C 109.5
H29B C29 H29C 109.5
loop_
_geom_bond_atom_site_label_1
_geom_bond_atom_site_label_2
_geom_bond_distance
O1 C28 1.202(5)
O2 C28 1.334(5)
O2 C29 1.442(5)
O3 C26 1.203(5)
O4 C26 1.336(4)
O4 C27 1.448(4)
C1 C2 1.350(5)
C1 C28 1.496(5)
C1 C25 1.504(5)
C2 C15 1.489(4)
C2 C3 1.489(5)
C3 C4 1.400(5)
C3 C8 1.405(5)
C4 C5 1.386(6)
C4 H4 0.9500
C5 C6 1.386(7)
C5 H5 0.9500
C6 C7 1.373(6)
C6 H6 0.9500
C7 C8 1.401(5)
C7 H7 0.9500
C8 C9 1.481(5)
C9 C10 1.398(5)
C9 C14 1.412(5)
C10 C11 1.391(6)
C10 H10 0.9500
C11 C12 1.383(5)
C11 H11 0.9500
C12 C13 1.387(5)
C12 H12 0.9500
C13 C14 1.402(5)
C13 H13 0.9500
C14 C15 1.482(5)
C15 C16 1.346(5)
C16 C26 1.505(4)
C16 C17 1.534(5)
C17 C18 1.520(5)
C17 C25 1.551(5)
C17 H17 1.0000
C18 C19 1.386(5)
C18 C23 1.392(5)
C19 C20 1.397(6)
C19 H19 0.9500
C20 C21 1.380(7)
C20 H20 0.9500
C21 C22 1.389(6)
C21 H21 0.9500
C22 C23 1.388(6)
C22 H22 0.9500
C23 C24 1.510(5)
C24 C25 1.538(5)
C24 H24A 0.9900
C24 H24B 0.9900
C25 H25 1.0000
C27 H27A 0.9800
C27 H27B 0.9800
C27 H27C 0.9800
C29 H29A 0.9800
C29 H29B 0.9800
C29 H29C 0.9800
