#------------------------------------------------------------------------------
#$Date: 2016-06-11 05:21:04 +0300 (Sat, 11 Jun 2016) $
#$Revision: 183358 $
#$URL: file:///home/coder/svn-repositories/cod/cif/1/54/34/1543419.cif $
#------------------------------------------------------------------------------
#
# This file is available in the Crystallography Open Database (COD),
# http://www.crystallography.net/. The original data for this entry
# were provided by IUCr Journals, http://journals.iucr.org/.
#
# The file may be used within the scientific community so long as
# proper attribution is given to the journal article from which the
# data were obtained.
#
data_1543419
loop_
_publ_author_name
'Bern\`es, Sylvain'
'Tiburcio, Jorge'
'Torrens, Hugo'
_publ_section_title
;
 <i>cis</i>-Dichlorido(6,11-dihydrodibenzo[<i>b</i>,<i>f</i>][1,4]dithiocine-\k^2^<i>S</i>,<i>S</i>')palladium(II)
;
_journal_coeditor_code           SJ4043
_journal_issue                   6
_journal_name_full               IUCrData
_journal_page_first              x160852
_journal_paper_doi               10.1107/S241431461600852X
_journal_volume                  1
_journal_year                    2016
_chemical_formula_iupac          '[Pd Cl2 (C14 H12 S2)]'
_chemical_formula_moiety         'C14 H12 Cl2 Pd S2'
_chemical_formula_sum            'C14 H12 Cl2 Pd S2'
_chemical_formula_weight         421.66
_chemical_name_systematic
<i>cis</i>-Dichlorido(6,11-dihydrodibenzo[<i>b</i>,<i>f</i>][1,4]dithiocine-\k^2^<i>S</i>,<i>S</i>')palladium(II)
_space_group_crystal_system      triclinic
_space_group_IT_number           2
_space_group_name_Hall           '-P 1'
_space_group_name_H-M_alt        'P -1'
_symmetry_space_group_name_Hall  '-P 1'
_symmetry_space_group_name_H-M   'P -1'
_atom_sites_solution_hydrogens   geom
_atom_sites_solution_primary     direct
_atom_sites_solution_secondary   difmap
_audit_creation_method           SHELXL-2014/7
_cell_angle_alpha                82.454(6)
_cell_angle_beta                 77.443(6)
_cell_angle_gamma                82.281(4)
_cell_formula_units_Z            2
_cell_length_a                   8.1594(6)
_cell_length_b                   9.2419(6)
_cell_length_c                   10.4393(7)
_cell_measurement_reflns_used    78
_cell_measurement_temperature    297.0(10)
_cell_measurement_theta_max      13.00
_cell_measurement_theta_min      4.18
_cell_volume                     757.16(9)
_computing_cell_refinement
;
XSCANS (Bruker, 1997)
;
_computing_data_collection
;
XSCANS (Bruker, 1997)
;
_computing_data_reduction
;
XSCANS (Bruker, 1997)
;
_computing_molecular_graphics
;
SHELXTL (Sheldrick, 2008)
;
_computing_publication_material
;
SHELXL2014 (Sheldrick, 2015)
;
_computing_structure_refinement
;
SHELXL2014 (Sheldrick, 2015)
;
_computing_structure_solution
;
SHELXS2013 (Sheldrick, 2008)
;
_diffrn_ambient_temperature      297.0(10)
_diffrn_measured_fraction_theta_full 1.000
_diffrn_measured_fraction_theta_max 1.000
_diffrn_measurement_device_type  'Bruker P4'
_diffrn_measurement_method       '\w scans'
_diffrn_radiation_monochromator  graphite
_diffrn_radiation_type           MoK\a
_diffrn_radiation_wavelength     0.71073
_diffrn_reflns_av_R_equivalents  0.0236
_diffrn_reflns_limit_h_max       1
_diffrn_reflns_limit_h_min       -11
_diffrn_reflns_limit_k_max       12
_diffrn_reflns_limit_k_min       -12
_diffrn_reflns_limit_l_max       14
_diffrn_reflns_limit_l_min       -14
_diffrn_reflns_number            4833
_diffrn_reflns_theta_full        25.242
_diffrn_reflns_theta_max         28.999
_diffrn_reflns_theta_min         2.010
_diffrn_standards_decay_%        1
_diffrn_standards_interval_count 97
_diffrn_standards_number         3
_exptl_absorpt_coefficient_mu    1.835
_exptl_absorpt_correction_T_max  0.337
_exptl_absorpt_correction_T_min  0.304
_exptl_absorpt_correction_type   psi-scan
_exptl_absorpt_process_details
;
(XSCANS; Bruker, 1997)
;
_exptl_crystal_colour            Orange
_exptl_crystal_density_diffrn    1.849
_exptl_crystal_description       prism
_exptl_crystal_F_000             416
_exptl_crystal_size_max          0.20
_exptl_crystal_size_mid          0.12
_exptl_crystal_size_min          0.10
_refine_diff_density_max         0.477
_refine_diff_density_min         -0.528
_refine_ls_extinction_coef       0.0065(6)
_refine_ls_extinction_expression Fc^*^=kFc[1+0.001xFc^2^\l^3^/sin(2\q)]^-1/4^
_refine_ls_extinction_method
;
SHELXL2014 (Sheldrick, 2015)
;
_refine_ls_goodness_of_fit_ref   1.026
_refine_ls_hydrogen_treatment    constr
_refine_ls_matrix_type           full
_refine_ls_number_constraints    0
_refine_ls_number_parameters     173
_refine_ls_number_reflns         4021
_refine_ls_number_restraints     0
_refine_ls_restrained_S_all      1.026
_refine_ls_R_factor_all          0.0477
_refine_ls_R_factor_gt           0.0318
_refine_ls_shift/su_max          0.000
_refine_ls_shift/su_mean         0.000
_refine_ls_structure_factor_coef Fsqd
_refine_ls_weighting_details
'w=1/[\s^2^(Fo^2^)+(0.0264P)^2^+0.1995P] where P=(Fo^2^+2Fc^2^)/3'
_refine_ls_weighting_scheme      calc
_refine_ls_wR_factor_gt          0.0693
_refine_ls_wR_factor_ref         0.0759
_reflns_number_gt                3154
_reflns_number_total             4021
_reflns_threshold_expression     'I > 2\s(I)'
_cod_data_source_file            sj4043sup1.cif
_cod_data_source_block           I
_cod_database_code               1543419
_shelx_hkl_file
;
 -11   0  -2    8.18    2.48
 -11   0  -3    1.47    2.28
 -11  -1  -4    0.91    1.73
 -11  -1  -3    1.43    2.28
 -11  -1  -2   20.14    3.26
 -11  -1  -1   20.64    3.39
 -11  -2  -2   -0.19    1.67
 -11  -2  -3    2.71    2.04
 -11  -2  -4   -0.01    1.70
 -11  -2  -5    3.48    1.69
 -11  -3  -4   13.69    2.54
 -11  -3  -3    3.30    2.06
 -11  -3  -2    1.00    1.78
 -10   3   1    0.21    1.33
 -10   2   2   10.85    2.05
 -10   2   1    2.83    1.54
 -10   1   1    2.45    1.21
 -10   1   2   -2.17    1.18
 -10   0   3    0.68    1.42
 -10   0   2    6.47    2.32
 -10   0   1   12.77    2.76
 -10  -1   1    1.12    1.71
 -10  -1   2   -0.57    1.29
 -10  -1   3    2.33    2.11
 -10  -2   3   12.95    2.86
 -10  -2   2    2.85    1.73
 -10  -2   1   -0.40    1.69
 -10  -3   1   16.38    3.12
 -10  -3   2    1.85    2.40
 -10  -4   2   24.46    3.42
 -10  -4   1   60.37    4.33
 -10  -5   1   14.32    3.08
 -10  -6   0    8.42    2.50
 -10  -6  -1    3.83    2.00
 -10  -6  -2    0.07    1.22
 -10  -6  -3   -0.96    1.24
 -10  -6  -4    1.81    2.01
 -10  -6  -5   32.19    3.28
 -10  -6  -6   51.48    4.28
 -10  -5  -7   38.01    4.14
 -10  -5  -6   24.14    3.01
 -10  -5  -5    1.17    1.83
 -10  -5  -4   -0.02    1.41
 -10  -5  -3    1.08    1.82
 -10  -5  -2    0.61    1.37
 -10  -5  -1   11.12    3.26
 -10  -5   0   24.44    3.17
 -10  -4   0   48.28    3.76
 -10  -4  -1    7.66    2.45
 -10  -4  -2   -0.57    1.30
 -10  -4  -3    6.11    1.77
 -10  -4  -4   12.34    2.20
 -10  -4  -5    6.34    2.45
 -10  -4  -6    2.93    1.28
 -10  -4  -7    4.70    2.86
 -10  -4  -8   17.32    3.00
 -10  -3  -8    1.26    1.68
 -10  -3  -7   -1.82    1.27
 -10  -3  -6   -0.55    1.29
 -10  -3  -5    6.73    2.05
 -10  -3  -4   18.54    2.75
 -10  -3  -3    9.29    3.21
 -10  -3  -2   38.59    3.63
 -10  -3  -1   45.59    3.73
 -10  -3   0   30.42    3.20
 -10  -2   0    6.07    2.60
 -10  -2  -1   19.40    2.68
 -10  -2  -2    7.84    2.13
 -10  -2  -3    3.67    1.80
 -10  -2  -4    2.46    2.19
 -10  -2  -5   -0.85    1.13
 -10  -2  -6    2.92    2.68
 -10  -2  -7   43.27    3.60
 -10  -2  -8   67.87    5.29
 -10  -1  -8   35.35    3.55
 -10  -1  -7   13.30    2.68
 -10  -1  -6    4.70    1.90
 -10  -1  -5   14.96    2.32
 -10  -1  -4    9.39    2.06
 -10  -1  -3   -1.41    1.19
 -10  -1  -2   21.23    2.88
 -10  -1  -1   10.36    2.57
 -10  -1   0    7.36    2.03
 -10   0   0   43.75    4.06
 -10   0  -1   70.54    4.54
 -10   0  -2   51.12    3.60
 -10   0  -3    1.25    1.74
 -10   0  -4   -0.34    1.11
 -10   0  -5    2.88    1.71
 -10   0  -6    4.98    1.74
 -10   0  -7    0.87    1.55
 -10   0  -8    0.51    1.63
 -10   1  -7   -0.21    1.89
 -10   1  -6    7.73    1.86
 -10   1  -5   28.09    3.77
 -10   1  -4   21.96    3.26
 -10   1  -3   34.91    3.24
 -10   1  -2   33.73    3.13
 -10   1  -1   36.84    3.61
 -10   1   0    8.69    2.58
 -10   2   0    3.61    1.57
 -10   2  -1    1.27    2.52
 -10   2  -2   11.02    2.79
 -10   2  -3   20.71    2.88
 -10   2  -4   27.73    3.62
 -10   2  -5   11.71    3.18
 -10   2  -6    1.55    1.69
 -10   2  -7    7.68    2.96
 -10   3  -5    1.80    1.74
 -10   3  -4    0.64    1.95
 -10   3  -3    0.94    2.00
 -10   3  -2    3.27    1.81
 -10   3  -1   -0.89    1.41
 -10   3   0    2.08    1.66
  -9  -7   1   22.36    3.16
  -9  -7   2    8.35    2.59
  -9  -6   3    1.42    1.83
  -9  -6   2    6.53    2.57
  -9  -6   1   33.16    3.04
  -9  -5   1   -0.54    1.57
  -9  -5   2    2.30    2.10
  -9  -5   3    0.69    1.33
  -9  -5   4   -0.54    1.11
  -9  -4   4    0.87    2.03
  -9  -4   3   20.91    2.89
  -9  -4   2   29.93    3.22
  -9  -4   1    8.71    2.25
  -9  -3   1    7.13    2.54
  -9  -3   2    4.41    1.86
  -9  -3   3    4.41    1.89
  -9  -3   4    6.41    2.35
  -9  -3   5   15.04    2.58
  -9  -2   5    1.85    1.71
  -9  -2   4    2.33    1.77
  -9  -2   3    0.45    1.31
  -9  -2   2    2.93    2.18
  -9  -2   1   13.34    2.36
  -9  -1   1    1.19    1.50
  -9  -1   2    0.33    1.42
  -9  -1   3    0.04    1.43
  -9  -1   4   21.83    2.81
  -9  -1   5   34.71    3.70
  -9   0   5   36.46    4.16
  -9   0   4   28.51    3.18
  -9   0   3    5.58    1.85
  -9   0   2    8.54    1.85
  -9   0   1    0.85    1.22
  -9   1   1   33.13    3.01
  -9   1   2   37.97    3.52
  -9   1   3   29.26    2.88
  -9   1   4   17.71    3.09
  -9   1   5   11.46    3.14
  -9   2   5   -1.42    1.36
  -9   2   4    2.09    2.54
  -9   2   3   12.63    2.23
  -9   2   2    0.74    1.61
  -9   2   1    0.53    1.46
  -9   3   1   -0.06    1.44
  -9   3   2   27.05    2.78
  -9   3   3   34.76    3.74
  -9   3   4   21.18    3.11
  -9   4   3   33.79    3.58
  -9   4   2   10.01    2.25
  -9   4   1    0.85    1.45
  -9   5   1   16.22    2.61
  -9   5   2   12.35    2.79
  -9   5  -5    0.25    1.93
  -9   5  -4    4.33    1.86
  -9   5  -3    8.21    2.11
  -9   5  -2    5.15    2.05
  -9   5  -1    3.01    2.75
  -9   5   0    7.75    2.04
  -9   4   0    2.36    1.54
  -9   4  -1    5.44    1.83
  -9   4  -2    3.91    1.96
  -9   4  -3    1.26    1.61
  -9   4  -4    1.46    1.83
  -9   4  -5    4.59    2.34
  -9   4  -6   10.56    2.65
  -9   4  -7   11.35    3.00
  -9   3  -8    8.63    2.53
  -9   3  -7    7.61    2.62
  -9   3  -6   10.64    2.36
  -9   3  -5   44.49    3.49
  -9   3  -4   46.12    3.74
  -9   3  -3   18.82    2.37
  -9   3  -2    7.89    3.05
  -9   3  -1   16.43    2.47
  -9   3   0   11.08    2.35
  -9   2   0    0.76    1.79
  -9   2  -1   16.08    2.34
  -9   2  -2   29.84    2.94
  -9   2  -3   85.90    4.56
  -9   2  -4  115.82    4.89
  -9   2  -5   74.64    4.27
  -9   2  -6    0.63    2.00
  -9   2  -7    0.28    1.64
  -9   2  -8   -1.45    1.25
  -9   2  -9    4.22    2.03
  -9   1  -9   13.84    2.67
  -9   1  -8    4.54    2.72
  -9   1  -7    7.52    2.16
  -9   1  -6    0.52    1.28
  -9   1  -5   36.82    2.97
  -9   1  -4   19.37    2.66
  -9   1  -3   11.49    2.18
  -9   1  -2    7.93    2.14
  -9   1  -1    9.12    1.98
  -9   1   0   28.87    2.62
  -9   0   0   24.19    2.69
  -9   0  -1   30.24    2.75
  -9   0  -2    0.43    0.95
  -9   0  -3   13.57    2.41
  -9   0  -4   25.13    2.54
  -9   0  -5   18.11    2.77
  -9   0  -6   -0.11    1.58
  -9   0  -7    8.20    2.75
  -9   0  -8    3.86    2.50
  -9   0  -9    3.69    2.44
  -9   0 -10   37.29    3.64
  -9  -1 -10   -0.14    1.99
  -9  -1  -9   14.05    3.08
  -9  -1  -8   26.20    2.82
  -9  -1  -7   35.73    2.98
  -9  -1  -6   12.20    2.33
  -9  -1  -5   32.08    3.05
  -9  -1  -4   35.09    2.27
  -9  -1  -3   39.94    2.13
  -9  -1  -2   31.99    1.93
  -9  -1  -1   30.07    1.89
  -9  -1   0    5.89    1.73
  -9  -2   0   36.90    3.17
  -9  -2  -1  117.79    4.65
  -9  -2  -2  214.26    6.07
  -9  -2  -3  126.00    4.92
  -9  -2  -4   15.23    1.48
  -9  -2  -5    0.33    1.27
  -9  -2  -6   -0.23    1.21
  -9  -2  -7   -1.17    1.55
  -9  -2  -8   14.80    2.39
  -9  -2  -9   -0.58    2.14
  -9  -2 -10    2.08    1.97
  -9  -3 -10   51.13    4.03
  -9  -3  -9   59.91    4.32
  -9  -3  -8   16.55    3.42
  -9  -3  -7    2.30    2.23
  -9  -3  -6   -0.65    1.22
  -9  -3  -5   -1.34    1.33
  -9  -3  -4   21.08    2.69
  -9  -3  -3   65.90    3.77
  -9  -3  -2   95.41    4.35
  -9  -3  -1   21.47    2.51
  -9  -3   0    7.60    2.46
  -9  -4   0   -0.05    1.42
  -9  -4  -1    9.88    2.78
  -9  -4  -2   14.66    2.36
  -9  -4  -3    7.37    2.01
  -9  -4  -4    6.84    2.36
  -9  -4  -5    0.85    1.42
  -9  -4  -6    0.44    1.27
  -9  -4  -7    6.41    2.99
  -9  -4  -8   40.49    3.48
  -9  -4  -9   95.64    5.10
  -9  -4 -10   78.60    5.14
  -9  -5 -10   14.09    2.94
  -9  -5  -9   18.98    2.98
  -9  -5  -8    6.64    2.28
  -9  -5  -7   13.14    2.40
  -9  -5  -6   21.96    2.76
  -9  -5  -5   48.54    3.62
  -9  -5  -4   31.60    3.02
  -9  -5  -3   15.08    2.86
  -9  -5  -2   35.11    3.33
  -9  -5  -1   49.68    3.44
  -9  -5   0   11.96    2.83
  -9  -6   0   87.03    4.63
  -9  -6  -1   85.56    5.06
  -9  -6  -2   24.66    3.14
  -9  -6  -3    3.27    2.32
  -9  -6  -4    2.64    1.61
  -9  -6  -5   19.64    2.74
  -9  -6  -6   16.43    3.14
  -9  -6  -7    8.16    2.39
  -9  -6  -8   -1.11    2.05
  -9  -6  -9   11.18    2.92
  -9  -7  -8   35.67    3.91
  -9  -7  -7   34.05    3.66
  -9  -7  -6    1.66    2.03
  -9  -7  -5    3.16    1.71
  -9  -7  -4   -1.14    1.36
  -9  -7  -3   -0.61    1.38
  -9  -7  -2   13.57    3.39
  -9  -7  -1   41.89    3.89
  -9  -7   0   42.38    3.69
  -9  -8   0   -1.11    1.42
  -9  -8  -1    1.06    1.54
  -9  -8  -2    7.95    2.43
  -9  -8  -3    1.06    1.50
  -9  -8  -4   -0.65    1.32
  -9  -8  -5    3.24    2.41
  -9  -8  -6   26.92    3.05
  -8   7   1    2.95    2.24
  -8   6   3   15.48    2.70
  -8   6   2   43.56    3.80
  -8   6   1   40.61    3.44
  -8   5   1   31.04    3.29
  -8   5   2   23.34    3.06
  -8   5   3   21.32    3.03
  -8   5   4   20.44    2.81
  -8   5   5    8.47    2.95
  -8   4   6    5.92    2.73
  -8   4   5    6.76    2.61
  -8   4   4   15.63    2.67
  -8   4   3    9.92    3.07
  -8   4   2    2.27    1.67
  -8   4   1    0.47    1.22
  -8   3   1   19.30    2.54
  -8   3   2    6.86    2.37
  -8   3   3    8.50    2.58
  -8   3   4    1.02    1.48
  -8   3   5    3.71    2.19
  -8   3   6    0.44    1.67
  -8   2   7   -1.39    1.46
  -8   2   6    6.52    3.02
  -8   2   5   25.87    2.85
  -8   2   4   27.98    3.43
  -8   2   3  109.41    4.89
  -8   2   2  119.75    4.64
  -8   2   1   68.98    2.59
  -8   1   1   20.30    1.95
  -8   1   2  108.33    4.63
  -8   1   3   65.97    3.76
  -8   1   4   26.04    2.88
  -8   1   5   30.33    3.06
  -8   1   6   11.78    2.47
  -8   1   7    2.25    1.88
  -8   0   7   14.78    2.88
  -8   0   6   31.59    2.94
  -8   0   5   18.45    2.74
  -8   0   4    4.21    2.13
  -8   0   3    7.21    1.25
  -8   0   2    6.72    1.34
  -8   0   1   12.72    1.64
  -8  -1   1   18.39    1.66
  -8  -1   2   43.17    2.26
  -8  -1   3   36.90    1.96
  -8  -1   4   -0.52    1.70
  -8  -1   5    1.74    1.43
  -8  -1   6    1.22    1.89
  -8  -1   7   -0.19    1.45
  -8  -2   7   10.95    2.41
  -8  -2   6   41.69    3.64
  -8  -2   5   62.16    4.02
  -8  -2   4   67.26    4.28
  -8  -2   3   26.77    2.62
  -8  -2   2   11.28    1.46
  -8  -2   1   -1.08    1.30
  -8  -3   1    2.14    1.47
  -8  -3   2   17.43    1.56
  -8  -3   3  113.94    4.82
  -8  -3   4  128.80    5.01
  -8  -3   5   69.37    4.41
  -8  -3   6   32.69    3.84
  -8  -4   6    0.56    1.88
  -8  -4   5    2.39    1.75
  -8  -4   4    0.56    1.79
  -8  -4   3   10.96    2.14
  -8  -4   2   13.52    2.17
  -8  -4   1    2.71    1.23
  -8  -5   1   35.02    3.02
  -8  -5   2    8.32    1.89
  -8  -5   3    9.24    2.19
  -8  -5   4   10.73    2.16
  -8  -5   5   14.11    2.65
  -8  -6   5   16.95    2.61
  -8  -6   4    2.90    2.01
  -8  -6   3    4.70    2.11
  -8  -6   2   14.73    2.66
  -8  -6   1   51.59    3.38
  -8  -7   1    1.95    1.82
  -8  -7   2    0.81    1.58
  -8  -7   3   -1.92    1.76
  -8  -7   4    9.70    2.21
  -8  -8   2    1.29    1.84
  -8  -8   1   10.97    2.97
  -8  -9   1    1.13    2.49
  -8  -9  -7    0.91    2.27
  -8  -9  -6   -1.65    1.27
  -8  -9  -5    2.51    2.24
  -8  -9  -4   10.81    2.33
  -8  -9  -3   43.15    3.85
  -8  -9  -2   85.00    4.96
  -8  -9  -1   45.41    4.00
  -8  -9   0   11.90    3.05
  -8  -8   0   54.36    3.98
  -8  -8  -1  119.57    5.87
  -8  -8  -2   83.85    4.25
  -8  -8  -3   12.97    2.88
  -8  -8  -4   -0.23    1.13
  -8  -8  -5    1.64    1.62
  -8  -8  -6   20.85    2.64
  -8  -8  -7   47.88    3.72
  -8  -8  -8   23.84    2.87
  -8  -8  -9   -1.24    1.74
  -8  -7 -10   19.01    3.24
  -8  -7  -9   20.40    3.21
  -8  -7  -8   29.20    3.05
  -8  -7  -7   33.83    3.27
  -8  -7  -6   15.46    2.68
  -8  -7  -5   16.14    2.43
  -8  -7  -4    6.52    2.01
  -8  -7  -3   13.06    2.29
  -8  -7  -2   11.63    2.42
  -8  -7  -1    1.11    1.73
  -8  -7   0   -0.31    1.80
  -8  -6   0   80.39    4.19
  -8  -6  -1   22.60    2.48
  -8  -6  -2   -0.20    1.55
  -8  -6  -3    0.12    1.58
  -8  -6  -4    4.79    1.68
  -8  -6  -5   11.81    2.00
  -8  -6  -6    0.37    1.47
  -8  -6  -7   -0.05    1.87
  -8  -6  -8    7.03    2.07
  -8  -6  -9   61.99    4.08
  -8  -6 -10  106.57    5.64
  -8  -5 -11   26.20    3.83
  -8  -5 -10   15.08    3.15
  -8  -5  -9   13.58    3.00
  -8  -5  -8    1.85    1.81
  -8  -5  -7    2.05    1.62
  -8  -5  -6   -0.02    1.29
  -8  -5  -5   31.38    1.97
  -8  -5  -4   94.69    2.94
  -8  -5  -3  116.97    5.45
  -8  -5  -2   84.83    2.80
  -8  -5  -1   23.66    1.76
  -8  -5   0   42.76    2.15
  -8  -4   0    0.24    1.28
  -8  -4  -1   48.26    2.35
  -8  -4  -2  148.34    5.71
  -8  -4  -3  233.54    7.55
  -8  -4  -4  158.64    6.44
  -8  -4  -5   35.97    2.17
  -8  -4  -6    2.24    1.14
  -8  -4  -7    1.48    1.87
  -8  -4  -8   33.33    2.99
  -8  -4  -9   69.00    4.19
  -8  -4 -10   16.60    3.21
  -8  -4 -11   -0.23    1.78
  -8  -3 -11   16.57    2.76
  -8  -3 -10   36.88    3.42
  -8  -3  -9   53.25    3.93
  -8  -3  -8   43.75    3.00
  -8  -3  -7   13.31    1.65
  -8  -3  -6    7.30    1.15
  -8  -3  -5   72.57    2.86
  -8  -3  -4   60.25    2.60
  -8  -3  -3   14.02    1.65
  -8  -3  -2    3.14    1.17
  -8  -3  -1    9.70    1.61
  -8  -3   0    4.05    1.20
  -8  -2   0   19.13    1.73
  -8  -2  -1  109.37    3.82
  -8  -2  -2   96.20    3.48
  -8  -2  -3    3.95    1.94
  -8  -2  -4    3.55    1.24
  -8  -2  -5    9.98    1.52
  -8  -2  -6    2.35    1.24
  -8  -2  -7    5.65    1.37
  -8  -2  -8    4.07    2.17
  -8  -2  -9    9.87    2.56
  -8  -2 -10    8.96    2.43
  -8  -2 -11   46.50    4.27
  -8  -1 -11   15.51    2.49
  -8  -1 -10    4.31    2.18
  -8  -1  -9    1.69    2.06
  -8  -1  -8    0.68    1.29
  -8  -1  -7    4.88    1.31
  -8  -1  -6   94.11    3.45
  -8  -1  -5  142.17    6.14
  -8  -1  -4   49.45    2.36
  -8  -1  -3   89.48    3.52
  -8  -1  -2   78.18    2.93
  -8  -1  -1   29.28    2.18
  -8  -1   0   15.89    1.64
  -8   0   0    2.25    1.18
  -8   0  -1   52.91    2.56
  -8   0  -2   28.94    2.18
  -8   0  -3   70.27    2.79
  -8   0  -4  175.71    7.04
  -8   0  -5  287.59    8.32
  -8   0  -6  121.12    5.41
  -8   0  -7   19.19    1.71
  -8   0  -8    3.19    1.74
  -8   0  -9    0.78    1.24
  -8   0 -10    4.30    1.69
  -8   0 -11    4.83    2.28
  -8   1 -11   51.39    4.14
  -8   1 -10   26.91    3.89
  -8   1  -9   10.52    2.39
  -8   1  -8   12.95    2.16
  -8   1  -7   19.90    2.78
  -8   1  -6   26.17    1.89
  -8   1  -5   51.34    2.38
  -8   1  -4   22.29    1.68
  -8   1  -3    5.18    1.81
  -8   1  -2    5.75    1.84
  -8   1  -1    1.07    1.71
  -8   1   0    2.67    1.56
  -8   2   0    5.25    1.26
  -8   2  -1    0.04    1.16
  -8   2  -2    4.70    1.23
  -8   2  -3   28.62    2.06
  -8   2  -4   46.34    2.14
  -8   2  -5   11.82    1.43
  -8   2  -6    6.32    2.42
  -8   2  -7   17.21    2.46
  -8   2  -8   11.70    2.90
  -8   2  -9    4.02    2.64
  -8   2 -10   11.75    2.30
  -8   3 -10    2.30    2.67
  -8   3  -9    0.82    1.57
  -8   3  -8    9.40    2.42
  -8   3  -7   24.11    2.55
  -8   3  -6   25.44    2.66
  -8   3  -5   16.46    2.47
  -8   3  -4   38.36    2.01
  -8   3  -3   68.66    2.64
  -8   3  -2   27.92    1.90
  -8   3  -1   29.99    1.94
  -8   3   0   20.92    2.15
  -8   4   0    2.65    2.58
  -8   4  -1    2.13    2.01
  -8   4  -2    1.70    1.57
  -8   4  -3    7.42    2.21
  -8   4  -4   13.89    2.22
  -8   4  -5   55.52    3.94
  -8   4  -6   74.10    4.51
  -8   4  -7   68.64    4.58
  -8   4  -8   58.23    4.57
  -8   4  -9    7.18    3.16
  -8   5  -8   13.83    3.26
  -8   5  -7   25.80    3.54
  -8   5  -6   20.12    3.14
  -8   5  -5   22.32    2.71
  -8   5  -4   15.61    2.75
  -8   5  -3   15.59    2.35
  -8   5  -2   -0.34    1.61
  -8   5  -1   22.43    2.60
  -8   5   0   36.64    3.39
  -8   6   0   37.32    4.12
  -8   6  -1    9.63    2.73
  -8   6  -2    0.11    1.59
  -8   6  -3   -0.58    1.51
  -8   6  -4   -0.26    1.36
  -8   6  -5    7.32    2.01
  -8   6  -6   12.99    3.69
  -8   7  -4   11.28    2.57
  -8   7  -3    7.83    2.04
  -8   7  -2   11.08    2.53
  -8   7  -1   13.94    3.35
  -8   7   0    7.64    3.11
  -7 -10   1    0.98    1.76
  -7  -9   1    0.48    1.74
  -7  -9   2    2.37    2.29
  -7  -9   3   10.55    2.32
  -7  -8   4    4.06    2.57
  -7  -8   3    3.34    1.91
  -7  -8   2    0.31    1.31
  -7  -8   1    4.00    1.92
  -7  -7   1    1.85    1.58
  -7  -7   2    1.00    1.48
  -7  -7   3    1.19    1.69
  -7  -7   4   -0.78    1.46
  -7  -7   5    0.78    1.55
  -7  -6   6   30.27    3.71
  -7  -6   5   24.46    3.67
  -7  -6   4    2.84    1.70
  -7  -6   3    9.56    2.04
  -7  -6   2   50.98    2.36
  -7  -6   1   32.97    2.18
  -7  -5   1   19.85    1.72
  -7  -5   2  100.85    5.00
  -7  -5   3  133.61    5.37
  -7  -5   4   64.15    3.78
  -7  -5   5   36.29    3.36
  -7  -5   6   16.96    2.79
  -7  -5   7    4.21    2.55
  -7  -4   7    2.42    1.47
  -7  -4   6   15.18    2.56
  -7  -4   5   20.00    2.81
  -7  -4   4   55.70    2.29
  -7  -4   3   70.45    3.02
  -7  -4   2   74.60    2.88
  -7  -4   1   23.37    2.03
  -7  -3   1    3.32    1.30
  -7  -3   2   21.12    2.10
  -7  -3   3   -0.65    1.04
  -7  -3   4   24.64    1.85
  -7  -3   5    8.98    2.42
  -7  -3   6   -0.87    1.38
  -7  -3   7   -0.30    1.12
  -7  -3   8    1.70    2.13
  -7  -2   8    1.42    1.99
  -7  -2   7    1.01    1.46
  -7  -2   6   33.33    2.99
  -7  -2   5  102.98    4.63
  -7  -2   4  153.87    5.97
  -7  -2   3   14.29    1.54
  -7  -2   2   10.75    1.48
  -7  -2   1    9.98    1.60
  -7  -1   1  185.88    7.94
  -7  -1   2  264.98    8.87
  -7  -1   3   76.66    2.85
  -7  -1   4   62.32    2.94
  -7  -1   5   54.40    2.31
  -7  -1   6    9.36    2.19
  -7  -1   7    2.41    1.94
  -7  -1   8    0.10    1.37
  -7   0   8    9.56    2.39
  -7   0   7    8.62    2.15
  -7   0   6   -0.79    1.36
  -7   0   5   10.70    1.52
  -7   0   4   19.59    2.06
  -7   0   3  133.97    6.40
  -7   0   2  152.64    6.97
  -7   0   1  140.61    5.17
  -7   1   1    0.58    1.28
  -7   1   2   25.96    1.90
  -7   1   3    4.43    1.40
  -7   1   4    1.55    1.16
  -7   1   5    0.80    1.21
  -7   1   6    0.90    1.79
  -7   1   7   17.69    2.55
  -7   1   8   54.76    4.56
  -7   2   8   10.01    2.31
  -7   2   7    5.91    1.85
  -7   2   6    7.91    1.91
  -7   2   5   13.03    2.46
  -7   2   4   38.42    2.14
  -7   2   3  117.47    5.48
  -7   2   2  106.56    3.57
  -7   2   1   16.50    1.99
  -7   3   1   71.57    2.79
  -7   3   2   68.95    2.94
  -7   3   3   59.68    2.44
  -7   3   4   21.74    1.67
  -7   3   5    8.94    2.46
  -7   3   6    7.30    1.89
  -7   3   7   14.60    2.78
  -7   3   8   -0.73    1.64
  -7   4   7    1.09    1.83
  -7   4   6    7.05    2.21
  -7   4   5    2.93    1.86
  -7   4   4   -1.87    0.98
  -7   4   3    8.35    1.52
  -7   4   2   74.33    2.68
  -7   4   1   99.29    3.57
  -7   5   1    3.02    1.62
  -7   5   2    4.70    1.57
  -7   5   3   15.74    2.85
  -7   5   4   -0.74    1.44
  -7   5   5    6.66    1.96
  -7   5   6   24.68    3.19
  -7   5   7   28.05    3.39
  -7   6   6    7.55    2.66
  -7   6   5    4.13    2.03
  -7   6   4    6.39    1.87
  -7   6   3    5.83    1.86
  -7   6   2   31.28    3.01
  -7   6   1   47.60    3.55
  -7   7   1   27.84    3.07
  -7   7   2   15.56    3.03
  -7   7   3   10.20    2.24
  -7   7   4    7.85    2.21
  -7   8   2    6.63    2.22
  -7   8   1   11.99    2.78
  -7   8   0    7.13    2.06
  -7   8  -1   27.45    3.08
  -7   8  -2   31.34    3.98
  -7   8  -3   15.15    3.20
  -7   8  -4    8.76    2.35
  -7   7  -6   -0.95    1.95
  -7   7  -5   -0.47    2.07
  -7   7  -4    2.29    2.73
  -7   7  -3    7.70    2.25
  -7   7  -2   24.55    2.91
  -7   7  -1   32.23    3.50
  -7   7   0   32.65    3.30
  -7   6   0   35.06    2.96
  -7   6  -1   -1.06    1.21
  -7   6  -2   -0.22    1.45
  -7   6  -3    2.28    1.84
  -7   6  -4    2.62    2.25
  -7   6  -5    6.56    2.38
  -7   6  -6   13.40    2.39
  -7   6  -7   15.99    3.18
  -7   6  -8   14.11    3.11
  -7   5  -9   17.12    3.26
  -7   5  -8   29.65    3.75
  -7   5  -7   43.36    3.82
  -7   5  -6   62.68    4.15
  -7   5  -5   53.51    3.56
  -7   5  -4   11.41    1.99
  -7   5  -3   10.99    1.48
  -7   5  -2   16.40    1.97
  -7   5  -1    6.52    1.38
  -7   5   0    0.68    1.51
  -7   4   0  127.40    6.12
  -7   4  -1  123.59    3.65
  -7   4  -2   57.76    2.58
  -7   4  -3    9.95    1.46
  -7   4  -4    2.56    1.57
  -7   4  -5    1.84    1.35
  -7   4  -6   61.13    3.59
  -7   4  -7   35.79    3.41
  -7   4  -8    3.78    1.88
  -7   4  -9    0.19    1.65
  -7   4 -10    3.04    1.91
  -7   3 -11    2.98    2.35
  -7   3 -10   13.16    2.50
  -7   3  -9   10.32    3.02
  -7   3  -8   20.82    2.41
  -7   3  -7    7.30    1.26
  -7   3  -6    1.99    1.09
  -7   3  -5    7.90    1.56
  -7   3  -4    2.21    1.17
  -7   3  -3    0.09    1.37
  -7   3  -2   40.82    2.28
  -7   3  -1  139.14    4.47
  -7   3   0   86.13    2.92
  -7   2   0    1.82    1.48
  -7   2  -1    0.23    1.36
  -7   2  -2    5.48    1.36
  -7   2  -3    4.61    1.14
  -7   2  -4   22.46    2.03
  -7   2  -5   61.86    2.61
  -7   2  -6   77.62    3.07
  -7   2  -7   95.09    3.10
  -7   2  -8  163.24    5.81
  -7   2  -9   74.83    4.66
  -7   2 -10    4.32    1.95
  -7   2 -11    0.02    1.58
  -7   1 -12    1.69    1.68
  -7   1 -11   -0.31    1.72
  -7   1 -10    5.27    2.14
  -7   1  -9   39.07    3.01
  -7   1  -8   39.42    2.12
  -7   1  -7   68.11    2.65
  -7   1  -6  112.50    4.01
  -7   1  -5  153.69    7.10
  -7   1  -4  137.36    4.60
  -7   1  -3   68.08    2.98
  -7   1  -2   18.00    1.71
  -7   1  -1   78.04    2.75
  -7   1   0   35.48    2.12
  -7   0   0   38.40    2.14
  -7   0  -1    0.43    1.07
  -7   0  -2    1.68    1.26
  -7   0  -3   32.93    2.14
  -7   0  -4  154.97    7.72
  -7   0  -5  278.83    9.71
  -7   0  -6   71.17    3.04
  -7   0  -7    2.05    1.08
  -7   0  -8    3.03    1.33
  -7   0  -9    1.33    2.01
  -7   0 -10    2.46    1.84
  -7   0 -11   11.91    2.38
  -7   0 -12   12.29    2.94
  -7  -1 -12   51.24    4.43
  -7  -1 -11   54.98    4.19
  -7  -1 -10    3.17    2.27
  -7  -1  -9    1.24    1.13
  -7  -1  -8   22.75    1.94
  -7  -1  -7   44.43    2.47
  -7  -1  -6    4.54    1.34
  -7  -1  -5    5.96    1.50
  -7  -1  -4    4.56    1.38
  -7  -1  -3   40.16    2.14
  -7  -1  -2    5.42    1.30
  -7  -1  -1   64.60    2.59
  -7  -1   0  180.07    8.21
  -7  -2   0   19.37    1.89
  -7  -2  -1    2.32    1.24
  -7  -2  -2    7.15    1.29
  -7  -2  -3    0.76    1.07
  -7  -2  -4   73.62    3.04
  -7  -2  -5  359.32   10.62
  -7  -2  -6  210.62    8.26
  -7  -2  -7  181.55    7.20
  -7  -2  -8   34.62    2.06
  -7  -2  -9    0.38    1.06
  -7  -2 -10   -1.36    1.17
  -7  -2 -11   16.67    2.99
  -7  -2 -12   42.53    4.18
  -7  -3 -12    3.75    2.50
  -7  -3 -11    0.38    1.38
  -7  -3 -10    0.63    1.35
  -7  -3  -9    5.73    1.48
  -7  -3  -8   39.90    2.31
  -7  -3  -7   73.41    2.83
  -7  -3  -6  158.21    7.11
  -7  -3  -5   86.10    2.95
  -7  -3  -4   69.86    3.14
  -7  -3  -3  266.33    9.83
  -7  -3  -2  157.65    7.54
  -7  -3  -1   21.20    1.90
  -7  -3   0    2.78    1.06
  -7  -4   0   -0.25    1.07
  -7  -4  -1   21.96    1.88
  -7  -4  -2  204.61    8.32
  -7  -4  -3  235.63    8.59
  -7  -4  -4  127.35    4.36
  -7  -4  -5    9.53    1.71
  -7  -4  -6    1.07    1.16
  -7  -4  -7    4.52    1.33
  -7  -4  -8    2.40    1.06
  -7  -4  -9    0.72    1.37
  -7  -4 -10    1.75    2.08
  -7  -4 -11   14.19    2.46
  -7  -4 -12   36.99    3.95
  -7  -5 -12   28.06    3.83
  -7  -5 -11   62.27    4.62
  -7  -5 -10   86.10    4.62
  -7  -5  -9   61.27    3.92
  -7  -5  -8    4.25    1.50
  -7  -5  -7   -0.52    1.46
  -7  -5  -6    2.02    1.22
  -7  -5  -5   35.84    2.00
  -7  -5  -4   -0.83    1.58
  -7  -5  -3   17.63    1.62
  -7  -5  -2   10.78    1.66
  -7  -5  -1    0.96    1.00
  -7  -5   0    0.79    1.20
  -7  -6   0    3.31    1.31
  -7  -6  -1   20.70    1.66
  -7  -6  -2   67.38    2.68
  -7  -6  -3  100.01    3.45
  -7  -6  -4  191.98    6.83
  -7  -6  -5  146.61    6.24
  -7  -6  -6   25.80    1.87
  -7  -6  -7    3.82    1.11
  -7  -6  -8    2.00    1.82
  -7  -6  -9   15.65    2.51
  -7  -6 -10   70.17    4.40
  -7  -6 -11   23.22    3.59
  -7  -7 -11    5.91    2.99
  -7  -7 -10   -0.55    1.70
  -7  -7  -9   -0.19    1.56
  -7  -7  -8    2.19    1.87
  -7  -7  -7   16.77    2.61
  -7  -7  -6   58.86    3.94
  -7  -7  -5  120.15    4.90
  -7  -7  -4   96.43    4.94
  -7  -7  -3   87.21    2.83
  -7  -7  -2   68.84    2.72
  -7  -7  -1   29.91    1.92
  -7  -7   0   18.32    1.58
  -7  -8   0   56.77    3.77
  -7  -8  -1  107.41    5.24
  -7  -8  -2   54.29    3.69
  -7  -8  -3    3.65    2.29
  -7  -8  -4    0.23    1.52
  -7  -8  -5   12.58    2.65
  -7  -8  -6    7.44    2.41
  -7  -8  -7    1.19    1.32
  -7  -8  -8    0.90    1.72
  -7  -8  -9    7.35    2.01
  -7  -8 -10   19.79    2.83
  -7  -9  -9   41.65    3.61
  -7  -9  -8   34.10    3.44
  -7  -9  -7   12.61    2.55
  -7  -9  -6    0.79    1.68
  -7  -9  -5   -0.26    1.24
  -7  -9  -4    1.49    1.60
  -7  -9  -3    2.55    2.20
  -7  -9  -2    1.29    1.46
  -7  -9  -1    6.50    2.13
  -7  -9   0    4.40    2.11
  -7 -10   0    0.83    1.96
  -7 -10  -1   22.91    3.01
  -7 -10  -2   33.53    3.16
  -7 -10  -3   22.38    3.26
  -7 -10  -4   11.64    2.63
  -7 -10  -5    0.51    1.84
  -7 -10  -6    0.77    1.78
  -7 -10  -7   14.85    3.14
  -6   9   1   14.81    2.63
  -6   9   2   13.32    2.85
  -6   9   3    2.50    2.51
  -6   8   5   12.11    3.32
  -6   8   4    8.11    2.73
  -6   8   3   11.24    2.43
  -6   8   2    2.54    2.18
  -6   8   1    2.89    1.64
  -6   7   1    2.40    1.74
  -6   7   2    8.33    2.30
  -6   7   3   13.22    2.58
  -6   7   4   27.24    3.35
  -6   7   5   27.58    3.36
  -6   7   6   24.85    3.57
  -6   6   7   41.91    3.89
  -6   6   6   27.62    3.26
  -6   6   5    8.40    2.66
  -6   6   4   -1.02    1.24
  -6   6   3    4.06    1.71
  -6   6   2    0.90    0.98
  -6   6   1    0.82    0.93
  -6   5   1   73.55    2.91
  -6   5   2   55.67    2.37
  -6   5   3   10.73    1.48
  -6   5   4    3.02    1.04
  -6   5   5    0.65    1.33
  -6   5   6   15.18    2.43
  -6   5   7   28.66    3.34
  -6   5   8    7.85    2.31
  -6   4   9    4.16    2.10
  -6   4   8   12.37    3.13
  -6   4   7   24.95    2.84
  -6   4   6   12.22    2.71
  -6   4   5   20.76    1.85
  -6   4   4   22.75    1.69
  -6   4   3    0.71    1.01
  -6   4   2    7.78    1.44
  -6   4   1   67.49    2.74
  -6   3   1   20.93    1.76
  -6   3   2   -0.13    1.17
  -6   3   3    2.39    1.41
  -6   3   4   59.93    2.50
  -6   3   5   83.90    2.78
  -6   3   6   86.73    2.80
  -6   3   7   48.60    3.54
  -6   3   8   21.82    2.97
  -6   3   9   22.79    2.83
  -6   2   9   60.60    4.12
  -6   2   8   65.51    3.61
  -6   2   7   15.02    2.35
  -6   2   6    5.37    1.54
  -6   2   5    3.91    1.30
  -6   2   4   23.88    1.72
  -6   2   3   12.02    1.48
  -6   2   2   15.72    1.81
  -6   2   1   54.82    2.67
  -6   1   1  237.43    9.73
  -6   1   2  141.93    5.06
  -6   1   3   78.16    3.18
  -6   1   4    8.75    1.27
  -6   1   5    4.76    1.28
  -6   1   6    5.98    1.33
  -6   1   7    1.29    1.49
  -6   1   8   30.62    3.17
  -6   1   9   27.13    2.95
  -6   1  10    8.55    3.05
  -6   0  10    5.41    2.91
  -6   0   9    0.76    1.48
  -6   0   8    0.25    1.53
  -6   0   7    6.48    2.05
  -6   0   6   12.92    1.50
  -6   0   5   14.93    1.65
  -6   0   4    6.74    1.24
  -6   0   3  113.16    3.94
  -6   0   2  551.09   14.55
  -6   0   1  481.80   14.22
  -6  -1   1   97.37    3.79
  -6  -1   2  102.54    4.15
  -6  -1   3   -0.09    1.34
  -6  -1   4   -1.15    1.20
  -6  -1   5    3.69    1.28
  -6  -1   6   33.78    2.25
  -6  -1   7   37.69    3.23
  -6  -1   8   56.47    3.96
  -6  -1   9   62.50    4.18
  -6  -2   9   15.39    2.27
  -6  -2   8   23.99    3.01
  -6  -2   7   56.74    3.41
  -6  -2   6   59.15    2.55
  -6  -2   5   14.33    1.58
  -6  -2   4    3.79    1.22
  -6  -2   3   71.67    2.62
  -6  -2   2   95.08    3.49
  -6  -2   1   92.60    3.89
  -6  -3   1  165.80    6.09
  -6  -3   2  203.14    9.17
  -6  -3   3   66.04    2.72
  -6  -3   4   30.38    2.01
  -6  -3   5    2.42    1.70
  -6  -3   6    0.65    0.96
  -6  -3   7    0.31    1.55
  -6  -3   8    0.87    1.44
  -6  -3   9    0.78    1.95
  -6  -4   9    2.62    2.03
  -6  -4   8    5.64    1.88
  -6  -4   7    2.20    1.63
  -6  -4   6    6.13    2.00
  -6  -4   5   74.77    2.69
  -6  -4   4  265.64    8.18
  -6  -4   3  189.33    7.74
  -6  -4   2  109.85    4.18
  -6  -4   1   16.15    2.00
  -6  -5   1    2.35    1.11
  -6  -5   2   28.62    2.15
  -6  -5   3  121.78    5.89
  -6  -5   4   78.63    2.83
  -6  -5   5    8.40    1.33
  -6  -5   6    1.10    1.42
  -6  -5   7    3.15    2.58
  -6  -5   8   23.02    3.50
  -6  -6   7   23.64    2.86
  -6  -6   6    0.28    1.41
  -6  -6   5    6.36    1.80
  -6  -6   4   13.02    1.49
  -6  -6   3   14.34    1.65
  -6  -6   2   25.05    1.87
  -6  -6   1   22.83    1.77
  -6  -7   1   99.32    5.03
  -6  -7   2  113.64    5.10
  -6  -7   3   88.14    4.52
  -6  -7   4   44.03    3.29
  -6  -7   5   22.58    2.87
  -6  -7   6    0.06    1.74
  -6  -7   7   -1.89    1.22
  -6  -8   6   33.93    3.76
  -6  -8   5   68.64    4.61
  -6  -8   4   29.79    3.29
  -6  -8   3    3.01    2.07
  -6  -8   2   20.17    2.53
  -6  -8   1   58.93    3.49
  -6  -9   1    2.17    1.69
  -6  -9   2    2.59    1.49
  -6  -9   3    1.22    1.66
  -6  -9   4   12.29    2.39
  -6 -10   3    5.32    1.92
  -6 -10   2   -0.79    1.22
  -6 -10   1    6.66    1.83
  -6 -11  -6    5.53    2.34
  -6 -11  -5    3.47    1.74
  -6 -11  -4    3.59    2.83
  -6 -11  -3   10.99    2.90
  -6 -11  -2   17.69    2.76
  -6 -11  -1    5.26    1.86
  -6 -11   0    2.04    1.64
  -6 -10   0    1.12    2.00
  -6 -10  -1   66.79    4.10
  -6 -10  -2  108.03    5.14
  -6 -10  -3   61.15    4.45
  -6 -10  -4   13.16    2.70
  -6 -10  -5    6.03    2.33
  -6 -10  -6    7.11    2.67
  -6 -10  -7   11.95    3.35
  -6 -10  -8   15.31    3.15
  -6  -9 -10    7.27    2.05
  -6  -9  -9    3.32    1.80
  -6  -9  -8    8.86    2.58
  -6  -9  -7   37.41    3.44
  -6  -9  -6   46.27    3.81
  -6  -9  -5   53.19    3.59
  -6  -9  -4   36.15    3.15
  -6  -9  -3   54.17    3.71
  -6  -9  -2   54.08    3.50
  -6  -9  -1    6.74    2.16
  -6  -9   0   -0.66    1.07
  -6  -8   0   60.95    2.43
  -6  -8  -1   14.41    1.69
  -6  -8  -2    1.04    0.87
  -6  -8  -3    4.30    1.22
  -6  -8  -4   39.33    2.27
  -6  -8  -5   80.57    2.73
  -6  -8  -6   49.58    3.39
  -6  -8  -7   11.74    2.13
  -6  -8  -8   -1.15    1.21
  -6  -8  -9    0.91    1.49
  -6  -8 -10   35.70    3.98
  -6  -8 -11   49.60    4.37
  -6  -7 -11   54.14    4.44
  -6  -7 -10   17.60    2.96
  -6  -7  -9   -0.18    1.66
  -6  -7  -8    6.22    1.70
  -6  -7  -7    0.89    1.13
  -6  -7  -6   -0.19    1.60
  -6  -7  -5    5.63    1.22
  -6  -7  -4   18.38    1.74
  -6  -7  -3    6.48    1.27
  -6  -7  -2    2.16    1.15
  -6  -7  -1    6.81    1.29
  -6  -7   0   76.58    2.83
  -6  -6   0    1.54    1.14
  -6  -6  -1   17.79    1.63
  -6  -6  -2   35.39    2.06
  -6  -6  -3  240.12    9.19
  -6  -6  -4  367.09   10.64
  -6  -6  -5  196.07    7.73
  -6  -6  -6   46.40    2.49
  -6  -6  -7    1.15    1.00
  -6  -6  -8    8.50    1.32
  -6  -6  -9   11.53    2.43
  -6  -6 -10    2.43    2.03
  -6  -6 -11    2.72    1.96
  -6  -6 -12   12.38    2.86
  -6  -5 -12    0.52    1.56
  -6  -5 -11    0.98    1.74
  -6  -5 -10   20.69    2.39
  -6  -5  -9   46.66    2.28
  -6  -5  -8   73.83    2.72
  -6  -5  -7   97.08    3.72
  -6  -5  -6  159.57    7.29
  -6  -5  -5  148.08    4.97
  -6  -5  -4  161.60    7.93
  -6  -5  -3  125.65    4.61
  -6  -5  -2   18.16    1.86
  -6  -5  -1    0.72    1.11
  -6  -5   0    2.05    1.07
  -6  -4   0   19.92    1.66
  -6  -4  -1   42.63    2.22
  -6  -4  -2   65.93    2.70
  -6  -4  -3   15.34    1.76
  -6  -4  -4   19.88    1.82
  -6  -4  -5  236.94    9.49
  -6  -4  -6   68.19    2.78
  -6  -4  -7  111.86    4.31
  -6  -4  -8  130.38    6.33
  -6  -4  -9   30.76    1.97
  -6  -4 -10    0.50    1.40
  -6  -4 -11    1.53    1.32
  -6  -4 -12   18.28    2.76
  -6  -4 -13   67.17    5.07
  -6  -3 -13   94.74    5.19
  -6  -3 -12   57.28    4.03
  -6  -3 -11    9.90    2.51
  -6  -3 -10    1.51    1.28
  -6  -3  -9    1.97    1.60
  -6  -3  -8    7.97    1.34
  -6  -3  -7    3.19    1.61
  -6  -3  -6   59.46    2.53
  -6  -3  -5   51.07    2.30
  -6  -3  -4   13.32    1.54
  -6  -3  -3    1.44    1.10
  -6  -3  -2   69.77    3.45
  -6  -3  -1  191.78    9.38
  -6  -3   0  206.61    9.63
  -6  -2   0  153.47    5.60
  -6  -2  -1  129.18    4.82
  -6  -2  -2   45.50    2.24
  -6  -2  -3   18.14    1.71
  -6  -2  -4    7.18    1.45
  -6  -2  -5  318.64   11.44
  -6  -2  -6  472.33   13.23
  -6  -2  -7  139.92    4.83
  -6  -2  -8   12.09    1.77
  -6  -2  -9   -0.78    1.32
  -6  -2 -10    1.63    1.41
  -6  -2 -11    1.04    1.61
  -6  -2 -12    2.07    1.96
  -6  -2 -13    9.10    2.31
  -6  -1 -13    0.74    1.22
  -6  -1 -12    3.59    2.56
  -6  -1 -11   19.37    2.83
  -6  -1 -10   27.42    1.80
  -6  -1  -9   49.78    2.34
  -6  -1  -8   67.80    2.92
  -6  -1  -7  202.87    8.45
  -6  -1  -6  297.63   10.57
  -6  -1  -5  308.01   11.26
  -6  -1  -4   55.14    2.37
  -6  -1  -3    1.03    1.04
  -6  -1  -2    0.87    1.01
  -6  -1  -1   38.61    1.89
  -6  -1   0   15.55    1.45
  -6   0   0  151.26    5.60
  -6   0  -1   12.67    1.32
  -6   0  -2    2.72    1.04
  -6   0  -3   -0.65    0.98
  -6   0  -4    2.98    1.34
  -6   0  -5    4.65    1.23
  -6   0  -6   16.69    1.89
  -6   0  -7   50.27    2.67
  -6   0  -8  154.37    6.70
  -6   0  -9  162.03    6.49
  -6   0 -10   70.17    4.15
  -6   0 -11   27.84    2.92
  -6   0 -12    0.57    1.27
  -6   0 -13    2.45    2.50
  -6   1 -12   -1.00    1.27
  -6   1 -11    8.01    2.24
  -6   1 -10   16.08    2.58
  -6   1  -9    0.66    1.22
  -6   1  -8    1.45    1.17
  -6   1  -7    0.56    1.24
  -6   1  -6    0.61    1.40
  -6   1  -5    0.32    1.37
  -6   1  -4   70.29    3.08
  -6   1  -3  142.31    5.33
  -6   1  -2  166.42    5.96
  -6   1  -1  257.42   10.80
  -6   1   0  156.57    5.75
  -6   2   0   74.77    3.35
  -6   2  -1  137.72    5.22
  -6   2  -2  128.99    4.79
  -6   2  -3  108.96    4.46
  -6   2  -4    0.68    1.20
  -6   2  -5    2.95    1.56
  -6   2  -6   59.94    2.45
  -6   2  -7  185.31    7.33
  -6   2  -8  194.27    6.84
  -6   2  -9   73.83    2.69
  -6   2 -10    7.92    2.25
  -6   2 -11    0.81    1.72
  -6   2 -12    4.08    2.65
  -6   3 -12    7.95    2.30
  -6   3 -11    5.38    1.90
  -6   3 -10   11.93    2.15
  -6   3  -9   95.05    4.52
  -6   3  -8  159.62    5.61
  -6   3  -7  125.70    5.84
  -6   3  -6   88.12    3.21
  -6   3  -5   42.36    2.22
  -6   3  -4   20.24    1.66
  -6   3  -3   33.37    1.95
  -6   3  -2   -0.28    1.12
  -6   3  -1   10.58    1.59
  -6   3   0   14.20    1.67
  -6   4   0  246.38    8.65
  -6   4  -1  200.49    8.59
  -6   4  -2   50.35    2.40
  -6   4  -3    0.67    1.38
  -6   4  -4    6.08    1.56
  -6   4  -5    7.76    1.84
  -6   4  -6    0.80    0.95
  -6   4  -7   12.65    1.85
  -6   4  -8   15.01    2.29
  -6   4  -9   33.56    3.28
  -6   4 -10   29.43    3.45
  -6   4 -11   38.56    3.92
  -6   5 -10    0.29    1.74
  -6   5  -9    0.45    1.93
  -6   5  -8    6.79    2.72
  -6   5  -7   -0.34    1.03
  -6   5  -6   10.00    1.37
  -6   5  -5   34.94    2.09
  -6   5  -4   50.52    2.41
  -6   5  -3   25.80    2.00
  -6   5  -2   85.58    3.03
  -6   5  -1  130.07    6.43
  -6   5   0  104.85    3.45
  -6   6   0    3.16    1.10
  -6   6  -1   49.92    2.33
  -6   6  -2   98.43    4.83
  -6   6  -3   87.98    2.94
  -6   6  -4   41.49    2.16
  -6   6  -5   36.89    3.09
  -6   6  -6    2.33    2.00
  -6   6  -7   -0.92    1.10
  -6   6  -8    3.29    1.87
  -6   6  -9   31.13    3.59
  -6   7  -8   14.31    2.91
  -6   7  -7   10.38    2.24
  -6   7  -6    0.67    2.42
  -6   7  -5    9.40    2.77
  -6   7  -4    3.71    2.54
  -6   7  -3    3.69    1.70
  -6   7  -2   16.68    2.64
  -6   7  -1    8.19    2.42
  -6   7   0    9.28    2.39
  -6   8   0   14.26    2.37
  -6   8  -1   53.11    4.15
  -6   8  -2   65.50    4.69
  -6   8  -3   25.72    3.18
  -6   8  -4    1.31    1.83
  -6   8  -5    2.02    2.11
  -6   8  -6    2.89    2.73
  -6   9  -4    9.71    3.10
  -6   9  -3   17.26    2.85
  -6   9  -2   22.94    3.48
  -6   9  -1   26.77    3.19
  -6   9   0    2.50    3.07
  -5 -11   1    2.52    1.79
  -5 -11   2    3.51    3.00
  -5 -10   4   39.50    3.98
  -5 -10   3   23.28    3.07
  -5 -10   2   13.31    2.65
  -5 -10   1   16.37    2.42
  -5  -9   1   14.67    2.47
  -5  -9   2   16.48    2.59
  -5  -9   3   29.42    2.80
  -5  -9   4   14.06    2.35
  -5  -9   5    0.91    1.54
  -5  -8   7   51.63    4.35
  -5  -8   6   30.57    3.39
  -5  -8   5    4.91    2.44
  -5  -8   4    0.30    1.26
  -5  -8   3    0.81    1.29
  -5  -8   2    0.80    1.63
  -5  -8   1    7.17    1.32
  -5  -7   1   71.22    3.07
  -5  -7   2  142.46    6.45
  -5  -7   3   91.80    3.09
  -5  -7   4    9.65    1.50
  -5  -7   5    0.08    1.22
  -5  -7   6   -0.11    1.47
  -5  -7   7   12.97    3.03
  -5  -7   8   10.64    2.87
  -5  -6   8   -0.66    1.35
  -5  -6   7    0.62    1.67
  -5  -6   6    1.43    1.32
  -5  -6   5    4.21    1.27
  -5  -6   4   65.17    2.93
  -5  -6   3  209.55    7.76
  -5  -6   2  394.29   11.43
  -5  -6   1  221.02    8.96
  -5  -5   1  141.14    5.20
  -5  -5   2  179.00    8.19
  -5  -5   3   33.21    2.06
  -5  -5   4   -0.24    1.33
  -5  -5   5   10.59    1.48
  -5  -5   6    0.80    1.21
  -5  -5   7    2.17    1.78
  -5  -5   8   14.89    2.55
  -5  -5   9   40.75    3.77
  -5  -4  10   30.10    3.55
  -5  -4   9   58.35    3.90
  -5  -4   8   34.60    3.55
  -5  -4   7   14.40    2.35
  -5  -4   6   15.63    1.75
  -5  -4   5   31.19    2.18
  -5  -4   4  177.76    8.01
  -5  -4   3   17.17    1.74
  -5  -4   2   11.73    1.39
  -5  -4   1    7.22    1.25
  -5  -3   1  242.30   11.07
  -5  -3   2  105.10    4.00
  -5  -3   3   -1.09    1.18
  -5  -3   4   83.61    3.05
  -5  -3   5  141.17    6.62
  -5  -3   6   82.20    2.89
  -5  -3   7   21.48    1.70
  -5  -3   8   28.69    2.93
  -5  -3   9   29.21    2.83
  -5  -3  10    5.43    2.31
  -5  -2  10   -0.72    1.25
  -5  -2   9    2.01    1.23
  -5  -2   8    1.20    1.72
  -5  -2   7    2.09    1.44
  -5  -2   6   -0.66    1.10
  -5  -2   5    6.17    1.44
  -5  -2   4    1.86    0.96
  -5  -2   3    3.67    1.00
  -5  -2   2  354.51   13.10
  -5  -2   1  857.85   20.72
  -5  -1   1  143.41    5.55
  -5  -1   2   13.41    1.45
  -5  -1   3   25.28    1.65
  -5  -1   4    0.24    0.97
  -5  -1   5    3.19    1.36
  -5  -1   6   39.10    2.15
  -5  -1   7  170.86    6.46
  -5  -1   8  174.99    5.65
  -5  -1   9   35.31    2.97
  -5  -1  10    3.94    1.80
  -5   0  11    3.28    1.95
  -5   0  10   26.62    3.07
  -5   0   9   86.34    4.75
  -5   0   8  169.56    5.87
  -5   0   7  115.97    5.81
  -5   0   6   54.73    2.65
  -5   0   5    6.76    1.33
  -5   0   4   37.53    2.30
  -5   0   3  115.54    4.73
  -5   0   2   70.87    2.86
  -5   0   1    1.86    1.26
  -5   1   1   37.26    1.80
  -5   1   2   40.81    1.95
  -5   1   3   67.11    2.93
  -5   1   4   89.65    3.63
  -5   1   5  111.06    4.19
  -5   1   6  129.78    4.57
  -5   1   7   72.65    2.66
  -5   1   8   16.43    1.67
  -5   1   9    2.02    2.19
  -5   1  10   -0.46    1.61
  -5   1  11   -1.09    1.23
  -5   2  10   16.48    2.56
  -5   2   9    8.46    2.42
  -5   2   8   -0.59    1.13
  -5   2   7   12.55    1.58
  -5   2   6    2.51    1.15
  -5   2   5    1.09    1.14
  -5   2   4   34.19    1.92
  -5   2   3   19.74    1.73
  -5   2   2   25.71    1.81
  -5   2   1   63.44    2.73
  -5   3   1   42.14    2.12
  -5   3   2   92.38    3.68
  -5   3   3    6.12    1.31
  -5   3   4   10.60    1.48
  -5   3   5   61.64    2.56
  -5   3   6  117.22    3.91
  -5   3   7   44.20    2.52
  -5   3   8   11.38    2.11
  -5   3   9    6.56    2.24
  -5   3  10    4.65    2.50
  -5   4  10    3.48    1.98
  -5   4   9    7.75    2.10
  -5   4   8   33.01    2.95
  -5   4   7  100.66    4.38
  -5   4   6  164.34    6.66
  -5   4   5  118.04    4.10
  -5   4   4   59.26    2.84
  -5   4   3   -0.60    0.93
  -5   4   2    5.61    1.55
  -5   4   1   36.05    2.06
  -5   5   1   72.41    2.82
  -5   5   2   67.80    2.62
  -5   5   3   51.81    2.34
  -5   5   4   98.47    3.47
  -5   5   5   88.14    3.04
  -5   5   6   52.92    2.51
  -5   5   7    5.17    2.72
  -5   5   8    2.58    1.63
  -5   5   9    3.43    2.93
  -5   6   9    2.05    2.18
  -5   6   8    6.38    1.83
  -5   6   7   -0.04    1.53
  -5   6   6    7.16    1.89
  -5   6   5    8.65    1.48
  -5   6   4    9.01    1.41
  -5   6   3   16.08    1.60
  -5   6   2   36.47    2.26
  -5   6   1   31.33    1.98
  -5   7   1   12.17    1.78
  -5   7   2    2.07    0.92
  -5   7   3   15.16    1.90
  -5   7   4   46.32    3.44
  -5   7   5   26.94    3.11
  -5   7   6    7.68    2.18
  -5   7   7    4.65    1.63
  -5   7   8   12.45    2.94
  -5   8   7    4.99    2.70
  -5   8   6   24.49    3.22
  -5   8   5   51.94    3.82
  -5   8   4   74.43    4.24
  -5   8   3   35.55    3.38
  -5   8   2    3.20    2.47
  -5   8   1    2.37    1.61
  -5   9   1   11.03    2.46
  -5   9   2   14.92    2.65
  -5   9   3   20.24    2.88
  -5   9   4   11.84    2.91
  -5   9   5   14.25    2.98
  -5  10   3   11.68    2.49
  -5  10   2    3.92    2.48
  -5  10   1   11.28    2.44
  -5  10   0   10.06    3.37
  -5  10  -1    7.47    2.69
  -5  10  -2    4.12    2.49
  -5  10  -3    3.32    2.30
  -5   9  -6   -1.54    1.86
  -5   9  -5   -0.45    1.85
  -5   9  -4    0.84    1.56
  -5   9  -3    0.14    1.54
  -5   9  -2    3.01    2.64
  -5   9  -1   15.35    3.20
  -5   9   0   13.63    3.02
  -5   8   0   10.90    2.07
  -5   8  -1    4.62    2.05
  -5   8  -2    5.90    1.60
  -5   8  -3    0.66    1.67
  -5   8  -4   10.03    2.07
  -5   8  -5   18.40    2.77
  -5   8  -6   19.46    2.99
  -5   8  -7   24.61    3.54
  -5   8  -8    6.59    3.67
  -5   7  -9    9.48    2.55
  -5   7  -8    5.84    2.49
  -5   7  -7    1.71    1.73
  -5   7  -6    3.42    2.15
  -5   7  -5   44.40    3.23
  -5   7  -4   66.58    2.67
  -5   7  -3  117.12    5.66
  -5   7  -2  123.03    5.64
  -5   7  -1   57.09    2.47
  -5   7   0    4.59    1.32
  -5   6   0    1.40    1.46
  -5   6  -1   25.53    1.90
  -5   6  -2   78.95    3.13
  -5   6  -3  132.87    6.45
  -5   6  -4  218.56    7.32
  -5   6  -5   47.14    2.25
  -5   6  -6    0.18    1.10
  -5   6  -7    5.93    1.81
  -5   6  -8   10.56    2.72
  -5   6  -9   -1.40    1.31
  -5   6 -10    0.44    1.59
  -5   5 -11   71.48    4.53
  -5   5 -10   46.31    3.63
  -5   5  -9   50.80    4.11
  -5   5  -8   17.57    2.25
  -5   5  -7   18.08    1.99
  -5   5  -6    3.42    1.35
  -5   5  -5   11.65    1.66
  -5   5  -4    1.85    1.12
  -5   5  -3   51.69    2.39
  -5   5  -2   65.84    2.60
  -5   5  -1   -0.08    1.56
  -5   5   0   39.94    2.06
  -5   4   0   20.13    1.66
  -5   4  -1   15.74    1.59
  -5   4  -2   43.18    2.20
  -5   4  -3   60.95    2.53
  -5   4  -4   31.86    1.90
  -5   4  -5   79.07    2.82
  -5   4  -6  104.52    3.75
  -5   4  -7   19.69    1.86
  -5   4  -8    0.52    1.50
  -5   4  -9   59.85    3.51
  -5   4 -10   65.26    4.15
  -5   4 -11   63.70    4.59
  -5   4 -12   33.91    3.69
  -5   3 -12    4.22    2.11
  -5   3 -11   -0.12    1.42
  -5   3 -10   13.80    2.58
  -5   3  -9    0.29    1.13
  -5   3  -8    9.57    1.59
  -5   3  -7   44.49    2.53
  -5   3  -6   78.12    3.59
  -5   3  -5   64.91    3.11
  -5   3  -4   72.51    2.77
  -5   3  -3  149.79    5.54
  -5   3  -2  319.64   12.61
  -5   3  -1  155.91    5.77
  -5   3   0   40.91    2.01
  -5   2   0  446.07   14.46
  -5   2  -1 1048.43   22.43
  -5   2  -2  688.96   18.59
  -5   2  -3  182.42    6.59
  -5   2  -4    7.38    1.39
  -5   2  -5   49.47    2.30
  -5   2  -6    0.79    1.14
  -5   2  -7    1.16    1.33
  -5   2  -8    1.31    1.69
  -5   2  -9   23.61    1.94
  -5   2 -10   22.51    2.39
  -5   2 -11   24.56    2.71
  -5   2 -12   18.98    3.18
  -5   2 -13   29.51    3.74
  -5   1 -13   12.33    2.89
  -5   1 -12    4.75    2.11
  -5   1 -11   24.26    2.94
  -5   1 -10  112.75    5.38
  -5   1  -9  260.11    8.36
  -5   1  -8  233.46    8.55
  -5   1  -7   36.25    2.07
  -5   1  -6   11.70    1.65
  -5   1  -5   18.18    1.68
  -5   1  -4    1.50    1.02
  -5   1  -3   46.90    2.05
  -5   1  -2  310.06   12.51
  -5   1  -1  142.25    5.45
  -5   1   0    8.24    1.11
  -5   0   0   18.40    1.68
  -5   0  -1  144.34    5.50
  -5   0  -2   93.12    3.68
  -5   0  -3  232.69   11.33
  -5   0  -4  118.59    4.58
  -5   0  -5   13.37    1.41
  -5   0  -6   30.01    1.83
  -5   0  -7   56.28    2.68
  -5   0  -8  240.14    9.19
  -5   0  -9  313.30    9.59
  -5   0 -10  129.58    5.89
  -5   0 -11   10.03    2.05
  -5   0 -12    2.55    2.09
  -5   0 -13    1.22    1.87
  -5  -1 -13   -0.05    1.42
  -5  -1 -12    1.20    1.42
  -5  -1 -11    7.07    2.77
  -5  -1 -10   -0.71    1.51
  -5  -1  -9   46.90    2.43
  -5  -1  -8   33.72    2.44
  -5  -1  -7   20.90    1.84
  -5  -1  -6   41.33    2.06
  -5  -1  -5  140.97    5.31
  -5  -1  -4  206.67   10.74
  -5  -1  -3  186.97    6.61
  -5  -1  -2  169.98    6.72
  -5  -1  -1  425.13   14.74
  -5  -1   0  310.43   12.50
  -5  -2   0  738.10   19.27
  -5  -2  -1  272.82   12.63
  -5  -2  -2   23.68    1.45
  -5  -2  -3    2.07    1.11
  -5  -2  -4   45.21    2.06
  -5  -2  -5   92.05    3.71
  -5  -2  -6   21.83    1.64
  -5  -2  -7    4.42    1.23
  -5  -2  -8   49.50    2.45
  -5  -2  -9   63.92    2.78
  -5  -2 -10   40.57    2.26
  -5  -2 -11   64.73    3.83
  -5  -2 -12   15.97    2.53
  -5  -2 -13    2.71    1.95
  -5  -3 -13   16.36    2.86
  -5  -3 -12   23.76    3.43
  -5  -3 -11   33.90    3.01
  -5  -3 -10   16.04    1.66
  -5  -3  -9   64.79    2.65
  -5  -3  -8  185.31    8.27
  -5  -3  -7  316.08   11.10
  -5  -3  -6  151.48    5.70
  -5  -3  -5  186.80    6.39
  -5  -3  -4   13.27    1.34
  -5  -3  -3    0.41    1.02
  -5  -3  -2    5.07    1.01
  -5  -3  -1   81.13    3.66
  -5  -3   0  435.88   14.87
  -5  -4   0   20.19    1.70
  -5  -4  -1   59.66    2.54
  -5  -4  -2   22.34    1.77
  -5  -4  -3    4.26    1.09
  -5  -4  -4   46.38    2.09
  -5  -4  -5   53.42    2.44
  -5  -4  -6  551.04   15.01
  -5  -4  -7  704.71   15.63
  -5  -4  -8  289.73    9.63
  -5  -4  -9   59.63    2.80
  -5  -4 -10    2.68    1.12
  -5  -4 -11    1.28    1.62
  -5  -4 -12   -1.30    1.40
  -5  -4 -13    0.56    1.58
  -5  -5 -13   31.12    3.65
  -5  -5 -12    0.25    1.36
  -5  -5 -11    4.87    1.57
  -5  -5 -10    2.84    1.01
  -5  -5  -9    1.39    1.27
  -5  -5  -8   25.49    1.89
  -5  -5  -7   12.63    1.52
  -5  -5  -6   56.47    2.45
  -5  -5  -5   11.67    1.61
  -5  -5  -4   51.04    2.22
  -5  -5  -3  177.84    6.23
  -5  -5  -2  209.18   10.00
  -5  -5  -1  119.43    4.44
  -5  -5   0   97.49    3.56
  -5  -6   0   37.72    2.07
  -5  -6  -1    7.81    1.47
  -5  -6  -2   53.98    2.63
  -5  -6  -3   93.79    4.02
  -5  -6  -4   67.95    3.00
  -5  -6  -5    9.45    1.71
  -5  -6  -6    2.90    1.06
  -5  -6  -7    8.62    1.33
  -5  -6  -8   71.11    2.85
  -5  -6  -9   79.60    2.80
  -5  -6 -10   10.26    2.09
  -5  -6 -11   -0.21    1.42
  -5  -6 -12    2.31    2.45
  -5  -7 -12    3.74    2.90
  -5  -7 -11   19.39    3.70
  -5  -7 -10   49.75    3.84
  -5  -7  -9   26.54    2.86
  -5  -7  -8   15.61    1.83
  -5  -7  -7   51.36    2.48
  -5  -7  -6  175.48    6.75
  -5  -7  -5  178.69    7.04
  -5  -7  -4   38.57    2.56
  -5  -7  -3    0.21    1.61
  -5  -7  -2   11.55    1.42
  -5  -7  -1    7.11    1.48
  -5  -7   0   24.42    2.24
  -5  -8   0    4.71    1.40
  -5  -8  -1   -0.76    1.53
  -5  -8  -2   -0.75    1.14
  -5  -8  -3   29.74    2.23
  -5  -8  -4  136.65    5.98
  -5  -8  -5  220.97    7.47
  -5  -8  -6  166.37    5.94
  -5  -8  -7   33.58    2.37
  -5  -8  -8    4.33    2.40
  -5  -8  -9    4.80    1.92
  -5  -8 -10   15.23    2.81
  -5  -8 -11    5.39    2.00
  -5  -9 -10   -0.84    1.46
  -5  -9  -9    2.72    2.26
  -5  -9  -8    5.37    2.67
  -5  -9  -7    7.58    2.28
  -5  -9  -6   30.29    3.28
  -5  -9  -5   72.26    4.08
  -5  -9  -4   37.97    1.99
  -5  -9  -3   10.18    1.95
  -5  -9  -2   11.10    1.47
  -5  -9  -1   33.42    2.04
  -5  -9   0   58.12    2.32
  -5 -10   0   26.83    3.53
  -5 -10  -1   35.97    3.41
  -5 -10  -2   13.23    2.42
  -5 -10  -3    1.61    1.79
  -5 -10  -4    1.67    2.31
  -5 -10  -5   10.35    2.17
  -5 -10  -6    7.07    2.07
  -5 -10  -7    8.43    2.28
  -5 -10  -8   -1.16    1.31
  -5 -10  -9   -2.06    1.23
  -5 -11  -7   18.92    3.01
  -5 -11  -6   11.68    2.36
  -5 -11  -5   13.50    2.74
  -5 -11  -4   22.56    2.86
  -5 -11  -3   22.68    2.79
  -5 -11  -2    3.72    2.01
  -5 -11  -1    3.47    2.23
  -5 -11   0    9.61    3.09
  -4  10   5   14.25    2.62
  -4  10   4    8.31    2.16
  -4  10   3   26.34    3.27
  -4  10   2   52.69    4.00
  -4  10   1   48.35    4.22
  -4   9   1   24.51    2.77
  -4   9   2   31.58    3.19
  -4   9   3   17.23    3.11
  -4   9   4   15.19    2.59
  -4   9   5   12.96    2.78
  -4   9   6   10.16    3.28
  -4   9   7    3.88    2.15
  -4   8   8    8.75    2.37
  -4   8   7    1.30    1.61
  -4   8   6    2.90    2.18
  -4   8   5   16.78    2.65
  -4   8   4    6.42    2.70
  -4   8   3    0.68    0.97
  -4   8   2    4.39    1.63
  -4   8   1    7.91    1.71
  -4   7   1   45.11    2.35
  -4   7   2   70.57    2.74
  -4   7   3   43.94    2.51
  -4   7   4   10.92    1.38
  -4   7   5   10.44    1.52
  -4   7   6   26.15    2.69
  -4   7   7   16.87    2.32
  -4   7   8    0.28    1.48
  -4   7   9    7.24    2.41
  -4   6  10    0.79    1.46
  -4   6   9   -0.58    1.20
  -4   6   8    2.30    1.66
  -4   6   7    0.71    1.23
  -4   6   6   44.90    2.27
  -4   6   5   94.86    3.25
  -4   6   4  216.29    8.03
  -4   6   3  272.77    8.98
  -4   6   2  181.24    8.23
  -4   6   1   46.10    2.27
  -4   5   1    2.18    1.04
  -4   5   2  120.75    4.60
  -4   5   3  134.87    5.04
  -4   5   4  118.13    4.17
  -4   5   5   26.16    1.83
  -4   5   6   15.80    1.77
  -4   5   7   29.66    1.87
  -4   5   8   68.98    3.98
  -4   5   9   12.02    2.20
  -4   5  10    8.25    2.31
  -4   4  11   32.92    3.54
  -4   4  10    8.06    2.37
  -4   4   9    0.52    1.39
  -4   4   8   14.52    1.54
  -4   4   7   52.64    2.31
  -4   4   6   62.98    2.58
  -4   4   5   14.43    1.65
  -4   4   4    1.77    1.08
  -4   4   3    6.43    1.21
  -4   4   2   29.60    1.71
  -4   4   1   75.41    2.82
  -4   3   1  121.55    4.61
  -4   3   2   98.23    3.58
  -4   3   3   44.31    2.15
  -4   3   4  123.49    4.67
  -4   3   5   56.29    2.73
  -4   3   6    3.15    1.46
  -4   3   7   -0.03    1.11
  -4   3   8    2.27    1.36
  -4   3   9    1.82    1.77
  -4   3  10    1.00    1.49
  -4   3  11   34.11    3.44
  -4   2  11    3.36    2.11
  -4   2  10    1.06    1.24
  -4   2   9   18.64    2.41
  -4   2   8   21.44    1.64
  -4   2   7   80.05    3.11
  -4   2   6  248.69    9.51
  -4   2   5  397.40   12.70
  -4   2   4  509.71   14.55
  -4   2   3   41.98    2.05
  -4   2   2    9.09    1.07
  -4   2   1    3.04    1.08
  -4   1   1   31.52    1.74
  -4   1   2   27.45    1.46
  -4   1   3  197.67    6.98
  -4   1   4  470.87   14.90
  -4   1   5  361.28   12.10
  -4   1   6  191.18    8.62
  -4   1   7   53.20    2.44
  -4   1   8   31.47    2.08
  -4   1   9   20.89    1.53
  -4   1  10    5.32    2.64
  -4   1  11    6.20    2.23
  -4   0  11    2.56    1.96
  -4   0  10   19.04    2.33
  -4   0   9   54.07    2.39
  -4   0   8   76.24    2.83
  -4   0   7    2.73    1.40
  -4   0   6    1.04    1.20
  -4   0   5   -0.64    0.98
  -4   0   4    4.81    1.07
  -4   0   3   -0.17    1.16
  -4   0   2    3.63    0.84
  -4   0   1    4.00    1.09
  -4  -1   1  494.04   16.23
  -4  -1   2  333.47   13.52
  -4  -1   3   88.11    3.82
  -4  -1   4   38.50    1.94
  -4  -1   5   93.00    3.77
  -4  -1   6   92.34    3.62
  -4  -1   7   11.74    1.47
  -4  -1   8    2.30    1.03
  -4  -1   9   -0.02    1.41
  -4  -1  10   -1.24    1.06
  -4  -1  11   -0.05    1.21
  -4  -2  11    0.30    1.59
  -4  -2  10    2.05    1.95
  -4  -2   9   14.53    2.44
  -4  -2   8   85.13    2.90
  -4  -2   7  186.20    7.50
  -4  -2   6  291.39   10.26
  -4  -2   5  133.54    4.69
  -4  -2   4   13.35    1.51
  -4  -2   3   15.72    1.32
  -4  -2   2  196.04    7.29
  -4  -2   1  324.33   13.88
  -4  -3   1    3.08    0.88
  -4  -3   2    3.34    1.13
  -4  -3   3   13.53    1.66
  -4  -3   4   23.12    1.63
  -4  -3   5   28.75    2.06
  -4  -3   6  199.25    8.14
  -4  -3   7  236.40    8.10
  -4  -3   8  118.99    5.24
  -4  -3   9   17.59    2.28
  -4  -3  10    3.24    1.82
  -4  -3  11    0.64    1.84
  -4  -4  10   23.95    3.21
  -4  -4   9   -0.48    1.37
  -4  -4   8    0.48    1.56
  -4  -4   7    7.49    1.28
  -4  -4   6   62.27    2.82
  -4  -4   5   22.21    1.73
  -4  -4   4    0.71    1.05
  -4  -4   3    0.72    0.76
  -4  -4   2   63.96    2.72
  -4  -4   1  306.42   12.22
  -4  -5   1  131.85    5.00
  -4  -5   2   70.66    3.27
  -4  -5   3    0.20    0.88
  -4  -5   4   60.66    2.50
  -4  -5   5   40.71    2.22
  -4  -5   6   16.83    1.68
  -4  -5   7   13.52    1.37
  -4  -5   8   25.13    2.55
  -4  -5   9    0.56    1.56
  -4  -5  10    8.07    1.98
  -4  -6   9   42.00    3.72
  -4  -6   8   66.19    4.27
  -4  -6   7   26.20    2.56
  -4  -6   6    0.23    1.18
  -4  -6   5    3.14    1.10
  -4  -6   4  196.86    7.85
  -4  -6   3  245.07    9.05
  -4  -6   2   36.00    1.96
  -4  -6   1   -0.74    0.98
  -4  -7   1   33.25    1.98
  -4  -7   2    2.74    1.30
  -4  -7   3    6.81    1.51
  -4  -7   4    4.95    1.31
  -4  -7   5    1.13    0.97
  -4  -7   6    0.47    1.91
  -4  -7   7   65.45    4.11
  -4  -7   8   79.19    5.40
  -4  -8   7   10.99    2.77
  -4  -8   6    6.22    1.86
  -4  -8   5    3.73    1.50
  -4  -8   4    1.04    1.41
  -4  -8   3   20.04    1.84
  -4  -8   2  159.79    6.55
  -4  -8   1  265.87    8.50
  -4  -9   1  138.84    5.36
  -4  -9   2  101.69    4.76
  -4  -9   3   19.90    2.52
  -4  -9   4    7.08    1.92
  -4  -9   5   15.51    2.49
  -4  -9   6    0.48    2.24
  -4 -10   5   25.25    3.31
  -4 -10   4   15.64    3.24
  -4 -10   3    0.60    1.20
  -4 -10   2    0.26    1.31
  -4 -10   1    2.28    1.62
  -4 -11   1   -0.49    1.36
  -4 -11   2    6.20    2.08
  -4 -11   3    0.29    1.71
  -4 -12   0    3.12    1.82
  -4 -12  -1    6.49    1.98
  -4 -12  -2   29.00    3.19
  -4 -12  -3   26.12    3.05
  -4 -12  -4    1.65    2.04
  -4 -12  -5   -0.58    1.26
  -4 -11  -8   15.49    2.64
  -4 -11  -7   15.34    2.58
  -4 -11  -6   24.58    3.00
  -4 -11  -5   24.89    2.92
  -4 -11  -4    7.99    2.62
  -4 -11  -3    8.80    2.37
  -4 -11  -2   15.23    2.78
  -4 -11  -1   17.27    2.42
  -4 -11   0   10.33    2.06
  -4 -10   0   10.37    2.60
  -4 -10  -1   15.55    2.69
  -4 -10  -2    2.43    1.73
  -4 -10  -3   -0.07    1.59
  -4 -10  -4    2.38    1.82
  -4 -10  -5   64.61    4.16
  -4 -10  -6  163.53    5.86
  -4 -10  -7  115.74    5.33
  -4 -10  -8   35.25    3.50
  -4 -10  -9    1.41    2.11
  -4  -9 -11   17.77    2.95
  -4  -9 -10   13.52    2.57
  -4  -9  -9    4.13    2.25
  -4  -9  -8    2.83    2.46
  -4  -9  -7   28.80    3.12
  -4  -9  -6   53.23    2.75
  -4  -9  -5   25.05    1.77
  -4  -9  -4    1.39    1.11
  -4  -9  -3    7.60    1.46
  -4  -9  -2    5.00    1.20
  -4  -9  -1   38.59    2.41
  -4  -9   0  116.42    5.23
  -4  -8   0  121.95    4.32
  -4  -8  -1    6.04    1.33
  -4  -8  -2    2.97    1.06
  -4  -8  -3   38.18    2.15
  -4  -8  -4  154.30    7.09
  -4  -8  -5   48.75    2.80
  -4  -8  -6   17.62    1.54
  -4  -8  -7    0.11    1.15
  -4  -8  -8    3.82    1.72
  -4  -8  -9    9.70    2.07
  -4  -8 -10    2.01    1.62
  -4  -8 -11    0.60    1.52
  -4  -7 -12   -0.21    1.46
  -4  -7 -11    0.34    1.85
  -4  -7 -10    9.15    2.16
  -4  -7  -9   61.60    2.47
  -4  -7  -8  108.33    3.44
  -4  -7  -7   62.76    2.68
  -4  -7  -6   96.80    3.73
  -4  -7  -5   40.53    2.10
  -4  -7  -4   99.42    3.55
  -4  -7  -3  111.78    4.34
  -4  -7  -2   31.17    2.10
  -4  -7  -1   18.21    1.69
  -4  -7   0   59.66    2.45
  -4  -6   0   -0.12    1.15
  -4  -6  -1    1.40    1.16
  -4  -6  -2    0.07    1.38
  -4  -6  -3   10.87    1.46
  -4  -6  -4    4.58    1.15
  -4  -6  -5   10.51    1.41
  -4  -6  -6   95.73    3.94
  -4  -6  -7  257.96    8.99
  -4  -6  -8  282.28    8.96
  -4  -6  -9  160.08    6.08
  -4  -6 -10   38.05    3.00
  -4  -6 -11    2.42    1.84
  -4  -6 -12    0.39    1.43
  -4  -6 -13    8.05    2.69
  -4  -5 -13   38.23    4.18
  -4  -5 -12    7.10    2.81
  -4  -5 -11    6.17    1.83
  -4  -5 -10   20.03    1.74
  -4  -5  -9  193.93    7.19
  -4  -5  -8  266.81    9.26
  -4  -5  -7   54.55    2.47
  -4  -5  -6    7.91    1.38
  -4  -5  -5    1.74    1.19
  -4  -5  -4   40.11    2.09
  -4  -5  -3   54.73    2.42
  -4  -5  -2  242.71   11.27
  -4  -5  -1  446.40   15.03
  -4  -5   0  348.90   13.23
  -4  -4   0  833.57   21.13
  -4  -4  -1  972.83   22.68
  -4  -4  -2  637.51   18.12
  -4  -4  -3   44.58    1.85
  -4  -4  -4    1.56    0.89
  -4  -4  -5   26.86    1.85
  -4  -4  -6  101.22    4.19
  -4  -4  -7   34.34    1.97
  -4  -4  -8    4.09    1.60
  -4  -4  -9    2.46    1.18
  -4  -4 -10    0.69    1.07
  -4  -4 -11   17.87    2.28
  -4  -4 -12   21.35    2.92
  -4  -4 -13   12.50    2.80
  -4  -3 -14   -1.83    1.56
  -4  -3 -13    1.56    1.60
  -4  -3 -12    1.84    1.87
  -4  -3 -11    6.06    1.19
  -4  -3 -10   39.04    2.50
  -4  -3  -9   98.47    3.80
  -4  -3  -8   66.05    2.65
  -4  -3  -7  192.50    9.05
  -4  -3  -6  295.00   12.10
  -4  -3  -5  199.38    7.12
  -4  -3  -4   28.22    1.73
  -4  -3  -3   53.38    2.51
  -4  -3  -2  142.28    5.78
  -4  -3  -1  491.93   16.82
  -4  -3   0   89.20    3.56
  -4  -2   0  331.20   13.81
  -4  -2  -1    2.37    0.99
  -4  -2  -2    0.87    0.71
  -4  -2  -3   22.38    1.40
  -4  -2  -4   41.15    1.84
  -4  -2  -5   40.75    1.99
  -4  -2  -6   55.84    2.54
  -4  -2  -7    8.51    1.52
  -4  -2  -8   64.55    2.67
  -4  -2  -9  343.50   10.82
  -4  -2 -10  385.99   10.02
  -4  -2 -11  205.92    6.61
  -4  -2 -12   13.70    2.80
  -4  -2 -13    1.02    1.29
  -4  -2 -14    0.27    1.55
  -4  -1 -14    2.53    2.65
  -4  -1 -13    2.10    1.82
  -4  -1 -12    9.65    1.78
  -4  -1 -11   94.45    4.66
  -4  -1 -10  190.54    7.33
  -4  -1  -9  175.13    8.10
  -4  -1  -8   70.34    3.07
  -4  -1  -7    0.90    0.92
  -4  -1  -6   10.43    1.39
  -4  -1  -5    1.73    1.40
  -4  -1  -4  143.01    5.67
  -4  -1  -3  486.57   16.54
  -4  -1  -2  724.50   20.37
  -4  -1  -1  252.10   12.55
  -4  -1   0   76.76    2.70
  -4   0   0   29.97    1.53
  -4   0  -1  613.76   18.43
  -4   0  -2  969.21   22.98
  -4   0  -3 1118.93   24.36
  -4   0  -4  730.88   19.62
  -4   0  -5   -0.82    0.87
  -4   0  -6    1.18    1.22
  -4   0  -7   15.38    1.54
  -4   0  -8   49.58    2.41
  -4   0  -9   11.41    1.55
  -4   0 -10   -0.55    1.10
  -4   0 -11    3.86    1.19
  -4   0 -12    3.55    1.85
  -4   0 -13   29.95    2.99
  -4   1 -13    0.18    1.27
  -4   1 -12    8.08    2.87
  -4   1 -11   13.69    2.33
  -4   1 -10   47.23    2.46
  -4   1  -9   66.47    2.75
  -4   1  -8  165.17    7.91
  -4   1  -7  104.19    3.97
  -4   1  -6   91.03    3.59
  -4   1  -5   22.37    1.55
  -4   1  -4  168.86    6.50
  -4   1  -3  761.29   20.04
  -4   1  -2  518.72   17.30
  -4   1  -1   59.60    2.74
  -4   1   0    4.45    1.00
  -4   2   0   73.92    3.20
  -4   2  -1  118.60    4.92
  -4   2  -2  135.64    5.38
  -4   2  -3    1.37    1.27
  -4   2  -4    6.60    1.09
  -4   2  -5   62.80    2.85
  -4   2  -6  129.21    4.88
  -4   2  -7  105.02    3.97
  -4   2  -8    8.68    1.37
  -4   2  -9   30.16    2.02
  -4   2 -10   48.72    2.33
  -4   2 -11   78.46    4.43
  -4   2 -12  115.80    5.41
  -4   2 -13   49.17    4.05
  -4   3 -12   92.22    5.27
  -4   3 -11   89.99    4.55
  -4   3 -10   12.41    1.34
  -4   3  -9   38.43    2.09
  -4   3  -8   17.19    1.63
  -4   3  -7    1.52    1.03
  -4   3  -6   83.72    3.13
  -4   3  -5   61.12    2.57
  -4   3  -4  116.97    4.28
  -4   3  -3   97.21    3.36
  -4   3  -2  140.79    5.10
  -4   3  -1  107.52    4.22
  -4   3   0  394.88   14.34
  -4   4   0   12.12    1.46
  -4   4  -1   41.00    1.98
  -4   4  -2  185.82    6.42
  -4   4  -3  242.21   10.79
  -4   4  -4  762.87   17.91
  -4   4  -5  544.65   14.40
  -4   4  -6   55.91    2.46
  -4   4  -7    3.05    1.29
  -4   4  -8   18.73    1.69
  -4   4  -9    1.99    1.71
  -4   4 -10   10.03    2.78
  -4   4 -11    3.33    1.35
  -4   4 -12    3.53    2.07
  -4   5 -11   15.91    2.81
  -4   5 -10   23.45    3.00
  -4   5  -9   58.66    3.89
  -4   5  -8    7.29    1.21
  -4   5  -7    9.88    1.51
  -4   5  -6   88.53    3.75
  -4   5  -5  126.08    4.53
  -4   5  -4   46.80    2.30
  -4   5  -3   59.62    2.55
  -4   5  -2   61.51    2.72
  -4   5  -1  108.64    4.43
  -4   5   0    2.01    1.05
  -4   6   0   -0.05    1.17
  -4   6  -1   14.11    1.71
  -4   6  -2   63.88    2.52
  -4   6  -3   30.63    2.28
  -4   6  -4    5.31    1.36
  -4   6  -5   18.36    1.71
  -4   6  -6    3.99    1.18
  -4   6  -7   21.39    1.90
  -4   6  -8   28.23    2.61
  -4   6  -9   37.24    3.42
  -4   6 -10   17.07    2.92
  -4   7  -9    6.62    2.18
  -4   7  -8    4.85    1.88
  -4   7  -7    6.29    1.68
  -4   7  -6   23.37    2.53
  -4   7  -5   17.35    1.61
  -4   7  -4   23.39    1.88
  -4   7  -3   37.78    2.10
  -4   7  -2   47.87    2.27
  -4   7  -1   42.96    2.27
  -4   7   0   22.34    1.88
  -4   8   0   10.53    1.50
  -4   8  -1   27.18    2.08
  -4   8  -2   29.71    1.98
  -4   8  -3   17.11    1.67
  -4   8  -4   12.32    2.34
  -4   8  -5   61.16    3.61
  -4   8  -6   63.99    3.87
  -4   8  -7   49.18    3.94
  -4   8  -8   21.77    3.27
  -4   9  -7   30.03    3.65
  -4   9  -6   38.23    3.68
  -4   9  -5   38.30    3.40
  -4   9  -4   19.03    2.62
  -4   9  -3   14.20    2.51
  -4   9  -2   13.61    2.35
  -4   9  -1    1.66    1.50
  -4   9   0   13.76    2.38
  -4  10   0   24.74    2.89
  -4  10  -1   -0.22    1.42
  -4  10  -2    1.70    1.68
  -4  10  -3   -0.11    1.43
  -4  10  -4   -0.40    1.30
  -4  10  -5    1.58    1.42
  -3 -12   1    4.43    2.19
  -3 -11   1   37.56    3.33
  -3 -11   2   10.47    2.54
  -3 -11   3    0.42    1.57
  -3 -11   4    0.42    1.54
  -3 -10   6   23.74    3.29
  -3 -10   5   13.80    2.65
  -3 -10   4    3.56    2.57
  -3 -10   3   -1.28    1.07
  -3 -10   2   12.98    2.54
  -3 -10   1   72.32    4.28
  -3  -9   1    2.55    1.22
  -3  -9   2   17.71    1.67
  -3  -9   3   13.47    1.49
  -3  -9   4    0.65    1.59
  -3  -9   5    1.42    1.59
  -3  -9   6   29.17    3.12
  -3  -9   7   66.92    4.54
  -3  -8   8   18.35    3.26
  -3  -8   7   30.03    3.35
  -3  -8   6   11.95    2.43
  -3  -8   5    0.94    1.28
  -3  -8   4    8.17    1.83
  -3  -8   3   90.72    3.43
  -3  -8   2  120.17    3.99
  -3  -8   1   72.57    3.09
  -3  -7   1  176.46    5.94
  -3  -7   2  144.75    4.90
  -3  -7   3    5.20    1.33
  -3  -7   4    6.89    1.32
  -3  -7   5    1.29    1.01
  -3  -7   6    1.08    0.96
  -3  -7   7    2.26    1.35
  -3  -7   8    0.37    1.80
  -3  -7   9   16.03    3.28
  -3  -6  10   23.96    3.05
  -3  -6   9   37.32    3.51
  -3  -6   8   22.87    2.78
  -3  -6   7   12.49    1.60
  -3  -6   6   22.52    2.09
  -3  -6   5   31.37    2.20
  -3  -6   4   30.47    2.07
  -3  -6   3   18.44    1.61
  -3  -6   2   12.75    1.35
  -3  -6   1    3.64    0.99
  -3  -5   1    9.81    1.18
  -3  -5   2    3.32    1.06
  -3  -5   3   41.87    2.08
  -3  -5   4  469.05   13.89
  -3  -5   5  265.07    9.73
  -3  -5   6  239.58    8.68
  -3  -5   7  100.70    3.36
  -3  -5   8   33.10    2.31
  -3  -5   9    8.65    2.72
  -3  -5  10   -0.16    1.55
  -3  -4  11   22.82    2.93
  -3  -4  10    0.88    1.24
  -3  -4   9    1.45    1.48
  -3  -4   8   25.01    1.90
  -3  -4   7   68.10    2.65
  -3  -4   6  231.90    9.18
  -3  -4   5  330.89   11.82
  -3  -4   4   50.71    2.22
  -3  -4   3   49.32    2.39
  -3  -4   2   11.66    1.19
  -3  -4   1  268.93   12.39
  -3  -3   1  414.96   15.57
  -3  -3   2   63.45    2.64
  -3  -3   3    7.13    1.09
  -3  -3   4   17.73    1.50
  -3  -3   5   27.34    1.83
  -3  -3   6    9.73    1.45
  -3  -3   7   54.47    2.78
  -3  -3   8   36.38    2.21
  -3  -3   9    1.01    1.03
  -3  -3  10   -0.05    1.14
  -3  -3  11   13.92    2.69
  -3  -2  12   26.50    2.97
  -3  -2  11    0.05    1.35
  -3  -2  10    2.79    1.85
  -3  -2   9   26.38    1.77
  -3  -2   8  200.88    7.26
  -3  -2   7  199.09    8.45
  -3  -2   6  108.49    4.53
  -3  -2   5   37.05    1.82
  -3  -2   4   22.49    1.41
  -3  -2   3   46.95    1.97
  -3  -2   2   69.07    3.07
  -3  -2   1   -0.34    0.63
  -3  -1   1    3.31    0.78
  -3  -1   2   74.69    2.82
  -3  -1   3  885.22   21.38
  -3  -1   4  718.08   18.75
  -3  -1   5  223.57   10.66
  -3  -1   6  137.55    5.14
  -3  -1   7   82.04    3.10
  -3  -1   8   49.64    2.33
  -3  -1   9   11.48    1.48
  -3  -1  10    1.54    1.31
  -3  -1  11    5.78    2.57
  -3  -1  12    5.48    2.01
  -3   0  12    8.18    2.34
  -3   0  11   17.69    2.59
  -3   0  10   39.20    2.96
  -3   0   9    8.33    1.38
  -3   0   8    5.26    1.20
  -3   0   7   10.42    1.39
  -3   0   6  100.58    3.87
  -3   0   5  247.67   11.39
  -3   0   4  911.84   21.33
  -3   0   3  746.48   19.77
  -3   0   2  209.37    7.37
  -3   0   1   10.92    0.94
  -3   1   1   29.25    1.33
  -3   1   2  164.39    5.82
  -3   1   3   24.93    1.42
  -3   1   4   42.38    2.03
  -3   1   5   16.15    1.69
  -3   1   6   16.48    1.59
  -3   1   7   12.33    1.41
  -3   1   8    9.39    1.40
  -3   1   9   15.70    1.71
  -3   1  10   90.42    4.10
  -3   1  11  137.85    5.40
  -3   1  12   48.05    4.27
  -3   2  12   23.56    2.88
  -3   2  11   53.88    3.56
  -3   2  10   18.87    2.49
  -3   2   9    3.14    1.22
  -3   2   8    3.07    1.17
  -3   2   7   63.22    2.53
  -3   2   6  284.60   11.28
  -3   2   5  344.77   12.66
  -3   2   4  125.91    4.80
  -3   2   3   17.41    1.22
  -3   2   2    5.96    1.34
  -3   2   1    3.97    0.85
  -3   3   1  407.64   15.16
  -3   3   2  521.21   16.65
  -3   3   3  389.27   14.00
  -3   3   4  468.78   15.08
  -3   3   5  114.78    4.81
  -3   3   6   60.35    2.35
  -3   3   7   29.97    1.94
  -3   3   8   41.40    2.11
  -3   3   9   10.79    1.56
  -3   3  10   11.98    2.12
  -3   3  11    0.25    1.37
  -3   3  12    0.27    1.86
  -3   4  12   13.15    2.67
  -3   4  11   13.02    2.56
  -3   4  10    5.89    2.28
  -3   4   9    3.89    1.06
  -3   4   8    5.57    1.68
  -3   4   7    7.94    1.34
  -3   4   6   92.70    3.50
  -3   4   5  117.58    4.36
  -3   4   4  103.41    4.10
  -3   4   3  226.64   10.72
  -3   4   2  575.23   17.01
  -3   4   1  487.45   15.65
  -3   5   1  175.40    5.96
  -3   5   2   51.50    2.28
  -3   5   3    0.45    0.95
  -3   5   4    1.41    0.90
  -3   5   5    0.95    1.50
  -3   5   6    2.96    1.16
  -3   5   7    5.25    1.16
  -3   5   8   67.07    2.88
  -3   5   9   49.82    3.35
  -3   5  10   79.93    4.47
  -3   5  11   34.97    3.82
  -3   6  11   17.00    2.70
  -3   6  10   32.73    3.15
  -3   6   9   54.55    3.74
  -3   6   8  104.07    4.64
  -3   6   7   -0.66    1.29
  -3   6   6   -0.01    1.25
  -3   6   5   14.30    1.60
  -3   6   4  126.86    4.33
  -3   6   3  108.74    3.77
  -3   6   2   67.57    2.71
  -3   6   1    1.01    0.97
  -3   7   1   76.65    2.83
  -3   7   2   64.74    2.68
  -3   7   3   76.99    2.81
  -3   7   4  101.17    3.51
  -3   7   5   63.22    2.53
  -3   7   6   26.83    2.16
  -3   7   7    3.45    1.67
  -3   7   8    5.96    2.43
  -3   7   9    6.36    1.78
  -3   7  10    0.24    1.23
  -3   8   9    2.20    2.13
  -3   8   8    0.41    1.32
  -3   8   7    0.26    1.31
  -3   8   6    1.84    1.51
  -3   8   5    6.86    1.29
  -3   8   4    2.38    1.15
  -3   8   3   39.61    2.39
  -3   8   2   93.60    3.54
  -3   8   1  133.17    6.69
  -3   9   1    8.89    1.44
  -3   9   2    4.56    1.17
  -3   9   3   26.61    2.89
  -3   9   4   14.91    2.43
  -3   9   5   -1.03    1.07
  -3   9   6    5.25    2.36
  -3   9   7   24.13    3.29
  -3   9   8   31.26    3.38
  -3  10   6    3.85    2.76
  -3  10   5    0.71    1.56
  -3  10   4    0.29    1.41
  -3  10   3    5.63    1.98
  -3  10   2   19.70    3.00
  -3  10   1   17.76    2.76
  -3  11   1   10.72    3.14
  -3  11   2   24.40    3.12
  -3  11   3   12.64    2.56
  -3  11   4   12.15    2.28
  -3  11  -3    0.29    1.64
  -3  11  -2    7.70    2.58
  -3  11  -1    5.93    1.96
  -3  11   0    8.13    3.09
  -3  10   0   11.61    2.17
  -3  10  -1   -0.06    1.11
  -3  10  -2   12.61    2.19
  -3  10  -3    8.40    2.96
  -3  10  -4   12.84    2.39
  -3  10  -5   18.29    2.97
  -3  10  -6   12.39    3.34
  -3   9  -7   21.88    3.35
  -3   9  -6   38.39    3.53
  -3   9  -5   38.69    3.74
  -3   9  -4   20.82    2.66
  -3   9  -3    3.16    1.85
  -3   9  -2    4.19    1.88
  -3   9  -1   15.39    1.53
  -3   9   0   26.97    2.00
  -3   8   0  185.07    7.31
  -3   8  -1  110.62    4.19
  -3   8  -2   21.14    1.93
  -3   8  -3    1.41    1.17
  -3   8  -4    4.73    1.46
  -3   8  -5    8.99    1.71
  -3   8  -6   21.03    2.97
  -3   8  -7    3.07    1.81
  -3   8  -8    1.54    1.66
  -3   8  -9    5.78    2.08
  -3   7 -10    5.00    2.48
  -3   7  -9    8.26    2.27
  -3   7  -8   25.38    3.09
  -3   7  -7   52.25    3.77
  -3   7  -6   13.95    1.74
  -3   7  -5   15.62    1.54
  -3   7  -4   26.12    1.81
  -3   7  -3    7.19    1.57
  -3   7  -2    2.09    1.39
  -3   7  -1   48.27    2.33
  -3   7   0  109.37    4.10
  -3   6   0    1.88    1.21
  -3   6  -1   43.39    2.13
  -3   6  -2   49.38    2.36
  -3   6  -3   59.92    2.45
  -3   6  -4   22.61    1.74
  -3   6  -5   80.61    3.15
  -3   6  -6  101.95    3.45
  -3   6  -7  149.71    5.92
  -3   6  -8  137.44    5.24
  -3   6  -9   29.27    3.13
  -3   6 -10    2.55    1.91
  -3   6 -11    1.93    2.63
  -3   5 -12    4.79    2.49
  -3   5 -11    0.20    2.10
  -3   5 -10   -0.77    1.32
  -3   5  -9    1.19    1.62
  -3   5  -8   18.10    1.72
  -3   5  -7   37.64    2.05
  -3   5  -6   45.76    2.26
  -3   5  -5  163.64    5.72
  -3   5  -4  329.92   11.97
  -3   5  -3  236.86   10.50
  -3   5  -2  151.72    5.85
  -3   5  -1   48.80    2.42
  -3   5   0   10.34    1.40
  -3   4   0  111.84    4.31
  -3   4  -1  140.42    5.83
  -3   4  -2    6.30    1.01
  -3   4  -3   89.28    3.87
  -3   4  -4  134.69    5.18
  -3   4  -5   69.97    3.14
  -3   4  -6   67.21    2.69
  -3   4  -7   -0.79    1.36
  -3   4  -8   19.22    1.84
  -3   4  -9   47.63    2.20
  -3   4 -10   30.15    2.75
  -3   4 -11   37.36    3.51
  -3   4 -12   16.67    2.50
  -3   3 -13   28.03    3.43
  -3   3 -12   51.49    3.75
  -3   3 -11   67.96    4.13
  -3   3 -10   47.69    2.31
  -3   3  -9   21.81    1.76
  -3   3  -8   13.57    1.55
  -3   3  -7  103.71    3.70
  -3   3  -6  385.79   12.82
  -3   3  -5  197.49    6.87
  -3   3  -4   12.57    1.41
  -3   3  -3   15.82    1.26
  -3   3  -2   26.84    1.46
  -3   3  -1  113.30    4.60
  -3   3   0  349.87   13.78
  -3   2   0    3.48    1.17
  -3   2  -1    2.00    0.79
  -3   2  -2  303.37   12.70
  -3   2  -3  113.08    4.75
  -3   2  -4  292.56   12.80
  -3   2  -5  756.71   19.57
  -3   2  -6  595.23   16.85
  -3   2  -7  225.08    9.94
  -3   2  -8   11.42    1.63
  -3   2  -9    3.76    1.18
  -3   2 -10   13.79    1.58
  -3   2 -11   12.10    2.17
  -3   2 -12    8.20    2.17
  -3   2 -13    1.13    1.90
  -3   1 -13   68.93    5.02
  -3   1 -12   45.20    3.31
  -3   1 -11   10.37    1.57
  -3   1 -10    4.90    1.28
  -3   1  -9   45.29    2.35
  -3   1  -8    1.49    1.05
  -3   1  -7   74.42    3.43
  -3   1  -6  300.98   12.50
  -3   1  -5  217.33   11.12
  -3   1  -4  582.05   17.46
  -3   1  -3  427.72   15.68
  -3   1  -2  555.23   16.56
  -3   1  -1  338.23   13.09
  -3   1   0  195.67    7.17
  -3   0   0    5.86    0.84
  -3   0  -1  454.92   14.14
  -3   0  -2 1410.14   25.27
  -3   0  -3  500.13   16.18
  -3   0  -4   34.14    1.45
  -3   0  -5   33.99    1.57
  -3   0  -6    9.64    1.24
  -3   0  -7   29.09    1.85
  -3   0  -8   23.08    1.87
  -3   0  -9   67.51    2.90
  -3   0 -10   49.82    2.49
  -3   0 -11   43.18    2.19
  -3   0 -12   96.58    4.74
  -3   0 -13  119.64    5.34
  -3   0 -14   39.65    4.18
  -3  -1 -14    9.11    2.71
  -3  -1 -13   13.57    2.55
  -3  -1 -12   33.98    3.24
  -3  -1 -11   81.83    3.01
  -3  -1 -10  231.10    8.20
  -3  -1  -9  248.61    9.49
  -3  -1  -8  126.55    4.73
  -3  -1  -7   14.02    1.38
  -3  -1  -6   66.97    3.33
  -3  -1  -5   14.02    1.38
  -3  -1  -4  100.09    4.48
  -3  -1  -3  161.07    5.85
  -3  -1  -2    8.97    0.89
  -3  -1  -1    4.02    0.79
  -3  -1   0    0.44    0.90
  -3  -2   0   34.53    1.46
  -3  -2  -1  373.66   13.74
  -3  -2  -2  436.62   14.75
  -3  -2  -3 1496.62   28.28
  -3  -2  -4 2175.53   34.36
  -3  -2  -5  389.55   15.08
  -3  -2  -6    2.49    0.93
  -3  -2  -7   15.72    1.40
  -3  -2  -8   15.88    1.45
  -3  -2  -9   88.30    3.66
  -3  -2 -10   54.45    2.50
  -3  -2 -11   11.89    1.74
  -3  -2 -12    5.81    2.55
  -3  -2 -13    3.09    1.75
  -3  -2 -14    2.85    2.16
  -3  -3 -14   -0.72    1.77
  -3  -3 -13    6.77    2.32
  -3  -3 -12   50.08    3.92
  -3  -3 -11  143.18    5.85
  -3  -3 -10   39.05    2.39
  -3  -3  -9    3.16    1.66
  -3  -3  -8   -0.66    1.05
  -3  -3  -7   22.89    1.80
  -3  -3  -6   45.20    2.20
  -3  -3  -5  282.89   12.62
  -3  -3  -4  594.97   18.37
  -3  -3  -3  555.77   17.60
  -3  -3  -2  597.68   18.70
  -3  -3  -1  247.27    8.42
  -3  -3   0  178.42    6.92
  -3  -4   0  998.42   23.23
  -3  -4  -1  446.74   15.61
  -3  -4  -2   73.78    3.29
  -3  -4  -3    4.70    0.92
  -3  -4  -4   14.85    1.31
  -3  -4  -5    0.14    0.79
  -3  -4  -6    4.94    1.61
  -3  -4  -7    6.92    1.30
  -3  -4  -8   15.04    1.62
  -3  -4  -9   81.54    2.93
  -3  -4 -10  141.94    6.17
  -3  -4 -11  239.69    6.68
  -3  -4 -12   89.20    4.69
  -3  -4 -13   12.36    2.77
  -3  -5 -13    0.36    2.13
  -3  -5 -12   25.75    3.41
  -3  -5 -11   55.63    3.49
  -3  -5 -10   76.29    2.88
  -3  -5  -9  117.51    4.26
  -3  -5  -8  130.01    4.90
  -3  -5  -7  229.83    9.79
  -3  -5  -6  129.38    5.06
  -3  -5  -5   17.04    1.59
  -3  -5  -4    1.02    0.92
  -3  -5  -3   62.06    2.28
  -3  -5  -2   85.30    2.98
  -3  -5  -1   56.54    2.52
  -3  -5   0   38.58    2.00
  -3  -6   0  100.68    4.11
  -3  -6  -1  386.95   13.90
  -3  -6  -2  697.20   18.40
  -3  -6  -3  373.04   13.32
  -3  -6  -4    2.77    1.10
  -3  -6  -5    7.69    1.40
  -3  -6  -6   69.72    2.91
  -3  -6  -7  154.17    4.98
  -3  -6  -8  153.97    7.09
  -3  -6  -9   46.69    2.42
  -3  -6 -10    5.15    1.27
  -3  -6 -11   -0.63    1.24
  -3  -6 -12   -0.68    1.64
  -3  -6 -13    4.08    1.98
  -3  -7 -12    2.73    1.96
  -3  -7 -11    1.62    1.69
  -3  -7 -10   13.71    2.44
  -3  -7  -9   81.65    3.24
  -3  -7  -8   33.80    2.40
  -3  -7  -7    1.06    1.26
  -3  -7  -6   11.11    1.59
  -3  -7  -5    0.18    1.52
  -3  -7  -4  118.77    4.65
  -3  -7  -3  191.89    9.30
  -3  -7  -2  323.91   11.90
  -3  -7  -1  179.35    8.95
  -3  -7   0  104.20    3.93
  -3  -8   0   74.62    3.14
  -3  -8  -1   32.74    2.06
  -3  -8  -2   10.99    1.64
  -3  -8  -3   11.02    1.62
  -3  -8  -4   27.72    2.13
  -3  -8  -5    0.97    1.37
  -3  -8  -6    1.50    1.06
  -3  -8  -7   14.04    1.58
  -3  -8  -8   80.57    2.80
  -3  -8  -9  174.83    6.18
  -3  -8 -10  129.54    5.45
  -3  -8 -11   37.10    3.73
  -3  -8 -12    0.27    1.50
  -3  -9 -11   13.15    2.83
  -3  -9 -10   23.78    2.99
  -3  -9  -9   24.87    3.22
  -3  -9  -8   49.53    3.38
  -3  -9  -7   61.83    3.62
  -3  -9  -6  101.68    3.22
  -3  -9  -5   34.12    2.07
  -3  -9  -4   11.44    1.78
  -3  -9  -3    0.17    0.97
  -3  -9  -2    1.51    1.10
  -3  -9  -1    4.92    1.30
  -3  -9   0   10.17    1.54
  -3 -10   0  139.29    5.22
  -3 -10  -1   50.34    2.25
  -3 -10  -2    3.96    1.25
  -3 -10  -3    2.04    1.00
  -3 -10  -4   14.92    2.14
  -3 -10  -5   41.02    3.28
  -3 -10  -6   42.30    3.31
  -3 -10  -7   16.50    2.71
  -3 -10  -8    7.30    2.60
  -3 -10  -9    0.87    1.88
  -3 -10 -10    1.25    1.92
  -3 -11  -8    5.15    2.34
  -3 -11  -7    3.84    1.97
  -3 -11  -6    0.72    1.28
  -3 -11  -5    3.48    1.59
  -3 -11  -4    8.92    2.41
  -3 -11  -3   16.17    2.73
  -3 -11  -2   29.33    3.00
  -3 -11  -1   64.92    4.00
  -3 -11   0   82.65    4.58
  -3 -12   0    9.33    2.19
  -3 -12  -1   10.74    2.54
  -3 -12  -2    4.55    2.05
  -3 -12  -3    0.95    1.76
  -3 -12  -4    1.28    1.74
  -3 -12  -5    4.97    2.03
  -2  11   1    7.15    1.93
  -2  11   2    0.53    1.20
  -2  11   3    3.30    2.65
  -2  11   4   14.63    2.70
  -2  11   5   15.20    3.08
  -2  11   6   19.14    3.12
  -2  10   8   23.89    3.02
  -2  10   7   31.05    3.52
  -2  10   6    4.34    2.12
  -2  10   5    2.13    1.86
  -2  10   4    2.19    1.61
  -2  10   3    1.97    1.79
  -2  10   2    6.96    2.01
  -2  10   1   23.19    2.69
  -2   9   1  102.96    3.58
  -2   9   2   63.56    2.87
  -2   9   3   23.09    1.70
  -2   9   4   10.71    1.27
  -2   9   5    6.77    1.85
  -2   9   6    1.60    1.33
  -2   9   7    6.80    2.10
  -2   9   8    8.49    2.44
  -2   9   9   -1.86    1.26
  -2   8  10    4.74    2.48
  -2   8   9   18.93    2.44
  -2   8   8   39.71    3.19
  -2   8   7   52.28    3.66
  -2   8   6   51.76    2.48
  -2   8   5   55.01    2.37
  -2   8   4    7.67    1.60
  -2   8   3    1.44    1.27
  -2   8   2   23.24    1.93
  -2   8   1   99.04    3.79
  -2   7   1    4.52    1.58
  -2   7   2    2.52    1.03
  -2   7   3    8.41    1.39
  -2   7   4   10.22    1.67
  -2   7   5   66.10    2.91
  -2   7   6   90.85    3.17
  -2   7   7   74.49    2.79
  -2   7   8   89.62    4.43
  -2   7   9   41.69    3.50
  -2   7  10   21.95    2.94
  -2   7  11    1.51    2.17
  -2   6  11   36.86    3.30
  -2   6  10   77.26    4.25
  -2   6   9   47.70    3.53
  -2   6   8   49.22    2.30
  -2   6   7    5.34    1.15
  -2   6   6    1.69    1.37
  -2   6   5    2.53    1.11
  -2   6   4    2.75    1.24
  -2   6   3   32.91    1.94
  -2   6   2  127.06    4.97
  -2   6   1  111.61    4.35
  -2   5   1  344.08   12.86
  -2   5   2  337.85   12.97
  -2   5   3  199.07    6.99
  -2   5   4   84.29    3.83
  -2   5   5   67.96    2.94
  -2   5   6   91.40    3.76
  -2   5   7    3.96    1.22
  -2   5   8    0.99    1.37
  -2   5   9   20.06    1.95
  -2   5  10   45.18    3.25
  -2   5  11    3.77    2.10
  -2   5  12   -0.94    1.33
  -2   4  12    2.18    2.14
  -2   4  11    8.49    2.05
  -2   4  10   19.39    2.22
  -2   4   9   23.81    1.73
  -2   4   8  174.86    7.07
  -2   4   7   23.45    1.76
  -2   4   6    2.53    1.10
  -2   4   5    0.16    0.94
  -2   4   4  330.39   12.77
  -2   4   3  673.53   18.65
  -2   4   2  889.37   21.59
  -2   4   1  405.13   15.02
  -2   3   1   50.39    2.07
  -2   3   2  230.01    7.94
  -2   3   3    9.92    1.11
  -2   3   4   92.25    4.07
  -2   3   5   10.40    1.26
  -2   3   6   41.75    2.15
  -2   3   7  216.13    8.98
  -2   3   8  279.46    9.45
  -2   3   9   95.48    3.33
  -2   3  10   95.62    4.68
  -2   3  11   50.55    3.54
  -2   3  12   27.30    2.98
  -2   2  13   17.52    3.19
  -2   2  12   56.52    3.91
  -2   2  11  119.25    4.88
  -2   2  10   75.38    2.64
  -2   2   9   24.89    1.99
  -2   2   8    5.76    1.47
  -2   2   7   84.98    3.56
  -2   2   6   15.95    1.34
  -2   2   5    1.37    0.83
  -2   2   4    2.61    0.83
  -2   2   3   44.46    1.79
  -2   2   2 1078.02   22.49
  -2   2   1 1717.31   26.75
  -2   1   1  443.05   12.87
  -2   1   2  192.98    6.63
  -2   1   3  545.29   16.64
  -2   1   4  911.73   21.72
  -2   1   5  183.63    6.52
  -2   1   6   50.37    2.32
  -2   1   7    0.58    0.99
  -2   1   8    5.99    1.44
  -2   1   9    1.26    1.01
  -2   1  10    7.71    1.24
  -2   1  11   52.27    3.44
  -2   1  12   19.95    2.79
  -2   1  13   14.64    2.48
  -2   0  13    0.15    1.33
  -2   0  12    6.49    2.14
  -2   0  11   27.73    2.79
  -2   0  10   30.50    2.31
  -2   0   9   59.85    2.41
  -2   0   8   18.42    1.87
  -2   0   7    4.19    0.99
  -2   0   6   75.59    2.89
  -2   0   5  438.24   14.95
  -2   0   4 1200.86   25.25
  -2   0   3  801.11   19.78
  -2   0   2  129.02    5.14
  -2   0   1    4.11    0.63
  -2  -1   1   54.48    2.25
  -2  -1   2   28.42    1.26
  -2  -1   3  193.73    7.14
  -2  -1   4  130.57    5.21
  -2  -1   5  251.54    7.89
  -2  -1   6   39.11    2.11
  -2  -1   7    1.69    0.85
  -2  -1   8   35.81    2.13
  -2  -1   9  139.97    6.07
  -2  -1  10  128.45    5.34
  -2  -1  11   74.87    4.13
  -2  -1  12   22.83    2.84
  -2  -2  12   33.84    3.26
  -2  -2  11   17.97    2.43
  -2  -2  10   34.74    1.94
  -2  -2   9   43.17    2.14
  -2  -2   8   77.27    3.31
  -2  -2   7    5.14    1.14
  -2  -2   6   45.20    2.16
  -2  -2   5   44.89    2.35
  -2  -2   4  237.85   11.56
  -2  -2   3  537.64   16.98
  -2  -2   2  634.57   17.43
  -2  -2   1  139.45    5.28
  -2  -3   1  563.49   16.98
  -2  -3   2  793.67   20.74
  -2  -3   3  840.67   21.36
  -2  -3   4  367.95   14.23
  -2  -3   5  203.23    7.21
  -2  -3   6  146.52    5.44
  -2  -3   7   31.13    1.94
  -2  -3   8    0.20    1.03
  -2  -3   9    2.32    1.24
  -2  -3  10    0.16    1.00
  -2  -3  11    0.01    1.09
  -2  -3  12    1.68    2.08
  -2  -4  11    0.96    1.70
  -2  -4  10    1.49    1.53
  -2  -4   9    0.93    1.15
  -2  -4   8   20.91    1.75
  -2  -4   7  189.75    7.87
  -2  -4   6  389.43   12.85
  -2  -4   5  296.80   11.59
  -2  -4   4  152.01    5.82
  -2  -4   3   50.17    2.58
  -2  -4   2  108.79    4.61
  -2  -4   1  107.18    4.28
  -2  -5   1    1.89    0.84
  -2  -5   2   23.18    1.72
  -2  -5   3    1.58    0.81
  -2  -5   4   -1.68    0.73
  -2  -5   5   19.25    1.65
  -2  -5   6  116.27    4.20
  -2  -5   7   57.54    2.48
  -2  -5   8    2.82    1.04
  -2  -5   9    1.08    1.24
  -2  -5  10   10.64    2.98
  -2  -5  11   46.59    4.06
  -2  -6  10   29.32    3.26
  -2  -6   9    9.85    2.67
  -2  -6   8    0.30    0.93
  -2  -6   7    2.57    1.33
  -2  -6   6   13.01    1.46
  -2  -6   5   99.48    4.16
  -2  -6   4  151.21    5.42
  -2  -6   3    4.25    1.49
  -2  -6   2    7.90    1.05
  -2  -6   1   24.07    1.64
  -2  -7   1    2.61    0.95
  -2  -7   2    2.68    0.97
  -2  -7   3  126.36    4.60
  -2  -7   4  294.47   10.00
  -2  -7   5   92.17    3.45
  -2  -7   6   63.46    2.91
  -2  -7   7   25.29    2.51
  -2  -7   8   16.96    2.27
  -2  -7   9    0.18    1.36
  -2  -7  10    2.03    2.02
  -2  -8   9   25.12    3.39
  -2  -8   8   55.62    4.48
  -2  -8   7   57.02    3.77
  -2  -8   6   21.03    2.37
  -2  -8   5   11.82    1.56
  -2  -8   4   57.67    2.50
  -2  -8   3  101.43    3.60
  -2  -8   2   52.78    2.36
  -2  -8   1   12.83    1.70
  -2  -9   1   51.82    2.76
  -2  -9   2    6.58    1.62
  -2  -9   3    5.67    1.17
  -2  -9   4   -0.71    1.03
  -2  -9   5    3.71    1.81
  -2  -9   6    6.86    2.13
  -2  -9   7   14.31    2.81
  -2  -9   8   13.87    3.02
  -2 -10   6    4.59    2.49
  -2 -10   5    0.44    1.07
  -2 -10   4    2.36    1.98
  -2 -10   3    2.32    1.45
  -2 -10   2   25.63    2.67
  -2 -10   1   86.97    4.30
  -2 -11   1   13.16    2.84
  -2 -11   2    7.89    2.15
  -2 -11   3    5.28    1.99
  -2 -11   4    9.83    2.28
  -2 -12   2    0.64    1.92
  -2 -12   1   -1.05    1.50
  -2 -12   0   14.29    2.57
  -2 -12  -1   17.87    2.67
  -2 -12  -2    3.41    1.96
  -2 -12  -3    1.45    1.54
  -2 -12  -4   -0.93    1.37
  -2 -12  -5   -0.14    1.86
  -2 -12  -6   19.51    3.37
  -2 -11  -8   19.89    3.17
  -2 -11  -7   25.92    3.24
  -2 -11  -6   23.49    2.98
  -2 -11  -5    0.69    1.45
  -2 -11  -4    1.40    1.54
  -2 -11  -3    4.47    2.06
  -2 -11  -2   -0.63    1.65
  -2 -11  -1    0.26    1.49
  -2 -11   0    4.35    1.88
  -2 -10   0  140.75    5.56
  -2 -10  -1   67.22    2.67
  -2 -10  -2   12.49    1.51
  -2 -10  -3    8.94    1.59
  -2 -10  -4   38.99    2.20
  -2 -10  -5   13.21    2.25
  -2 -10  -6   -0.05    1.61
  -2 -10  -7    2.53    1.38
  -2 -10  -8    3.40    1.96
  -2 -10  -9   23.22    3.07
  -2 -10 -10   38.48    3.69
  -2  -9 -11    2.31    1.86
  -2  -9 -10    0.46    1.81
  -2  -9  -9    0.79    1.40
  -2  -9  -8    8.36    2.64
  -2  -9  -7   15.84    2.44
  -2  -9  -6   19.61    1.75
  -2  -9  -5   26.29    1.92
  -2  -9  -4  164.00    6.70
  -2  -9  -3  167.38    6.81
  -2  -9  -2  112.44    3.61
  -2  -9  -1   24.40    1.97
  -2  -9   0   38.07    2.19
  -2  -8   0   20.50    1.67
  -2  -8  -1   72.16    2.86
  -2  -8  -2  128.16    4.67
  -2  -8  -3  272.69    9.87
  -2  -8  -4   89.18    3.10
  -2  -8  -5    1.72    0.95
  -2  -8  -6    4.69    1.12
  -2  -8  -7   16.90    1.78
  -2  -8  -8   63.36    2.52
  -2  -8  -9   78.30    4.25
  -2  -8 -10   32.20    3.12
  -2  -8 -11   13.34    3.13
  -2  -8 -12    7.44    2.93
  -2  -7 -12   17.36    2.60
  -2  -7 -11   60.60    3.81
  -2  -7 -10  105.61    4.59
  -2  -7  -9  172.15    6.00
  -2  -7  -8   92.97    3.36
  -2  -7  -7   18.03    1.79
  -2  -7  -6    4.02    1.82
  -2  -7  -5    4.91    1.39
  -2  -7  -4    6.50    1.50
  -2  -7  -3    0.94    1.00
  -2  -7  -2   16.29    1.65
  -2  -7  -1  101.80    4.20
  -2  -7   0  115.27    4.29
  -2  -6   0  235.81   11.43
  -2  -6  -1  557.89   16.73
  -2  -6  -2  497.20   15.90
  -2  -6  -3  144.71    5.57
  -2  -6  -4   88.04    3.61
  -2  -6  -5   14.60    1.46
  -2  -6  -6   11.45    1.43
  -2  -6  -7    1.67    1.15
  -2  -6  -8    2.67    1.09
  -2  -6  -9   17.86    1.90
  -2  -6 -10    8.62    1.31
  -2  -6 -11   56.20    3.94
  -2  -6 -12   92.09    5.05
  -2  -6 -13   49.85    4.38
  -2  -5 -13   11.20    3.08
  -2  -5 -12   13.77    2.99
  -2  -5 -11    9.86    2.16
  -2  -5 -10    3.11    1.38
  -2  -5  -9    8.74    1.51
  -2  -5  -8    8.31    1.42
  -2  -5  -7   79.01    3.10
  -2  -5  -6  238.90   10.36
  -2  -5  -5  280.28   12.11
  -2  -5  -4  202.46    7.17
  -2  -5  -3  386.72   14.67
  -2  -5  -2  629.99   18.63
  -2  -5  -1  374.32   14.25
  -2  -5   0   95.46    3.96
  -2  -4   0   84.11    3.57
  -2  -4  -1   24.39    1.32
  -2  -4  -2    3.86    0.97
  -2  -4  -3   92.92    3.64
  -2  -4  -4  770.02   20.29
  -2  -4  -5  642.94   17.97
  -2  -4  -6  232.66   11.14
  -2  -4  -7   14.89    1.53
  -2  -4  -8   -0.18    1.28
  -2  -4  -9   54.57    2.66
  -2  -4 -10  121.82    3.94
  -2  -4 -11  106.42    4.69
  -2  -4 -12   56.09    3.96
  -2  -4 -13    1.53    1.63
  -2  -3 -14   21.77    3.02
  -2  -3 -13   30.33    3.57
  -2  -3 -12   72.57    4.21
  -2  -3 -11  189.93    6.25
  -2  -3 -10  208.35    7.63
  -2  -3  -9   53.51    2.35
  -2  -3  -8    2.74    1.54
  -2  -3  -7    0.38    0.90
  -2  -3  -6  145.42    5.35
  -2  -3  -5   43.19    1.87
  -2  -3  -4    2.95    1.11
  -2  -3  -3   10.85    1.09
  -2  -3  -2   33.04    1.38
  -2  -3  -1   -0.02    0.66
  -2  -3   0  190.36    7.01
  -2  -2   0  380.97   12.30
  -2  -2  -1   47.13    1.65
  -2  -2  -2  695.41   16.47
  -2  -2  -3 1286.78   23.96
  -2  -2  -4 1290.46   26.14
  -2  -2  -5  196.81    7.36
  -2  -2  -6   73.42    3.59
  -2  -2  -7   24.26    1.67
  -2  -2  -8    0.09    1.01
  -2  -2  -9   20.51    1.71
  -2  -2 -10   39.00    2.25
  -2  -2 -11   28.25    2.08
  -2  -2 -12   15.21    2.36
  -2  -2 -13   52.34    4.00
  -2  -2 -14   59.82    4.29
  -2  -1 -14   23.64    3.88
  -2  -1 -13   16.30    3.06
  -2  -1 -12   -0.89    1.17
  -2  -1 -11    1.55    1.11
  -2  -1 -10   20.66    1.80
  -2  -1  -9    2.30    1.08
  -2  -1  -8  152.56    5.56
  -2  -1  -7  207.66    7.20
  -2  -1  -6  213.46    7.44
  -2  -1  -5  295.28   12.92
  -2  -1  -4 1740.11   29.38
  -2  -1  -3 1427.21   24.17
  -2  -1  -2  810.14   16.38
  -2  -1  -1   88.30    3.48
  -2  -1   0    6.87    0.87
  -2   0   0    0.25    0.59
  -2   0  -1   96.20    3.57
  -2   0  -2   66.14    2.73
  -2   0  -3  110.70    4.43
  -2   0  -4   11.58    1.02
  -2   0  -5  222.49    7.99
  -2   0  -6  792.41   20.58
  -2   0  -7  809.33   19.55
  -2   0  -8  212.93    9.61
  -2   0  -9    0.13    1.08
  -2   0 -10    0.24    1.02
  -2   0 -11    0.89    1.45
  -2   0 -12   60.95    3.68
  -2   0 -13   35.59    3.41
  -2   0 -14    9.21    2.32
  -2   1 -13  109.84    5.35
  -2   1 -12  123.29    5.04
  -2   1 -11   61.01    2.47
  -2   1 -10   17.63    1.63
  -2   1  -9   14.33    2.02
  -2   1  -8    3.77    1.17
  -2   1  -7  116.73    4.70
  -2   1  -6   27.92    1.54
  -2   1  -5    4.38    0.99
  -2   1  -4   20.95    1.21
  -2   1  -3    1.46    0.70
  -2   1  -2   12.98    0.99
  -2   1  -1   61.87    2.76
  -2   1   0 2507.44   27.62
  -2   2   0 1748.08   25.91
  -2   2  -1   16.60    0.96
  -2   2  -2   19.50    1.13
  -2   2  -3    7.15    0.91
  -2   2  -4  421.59   15.17
  -2   2  -5  624.42   17.50
  -2   2  -6  505.58   15.51
  -2   2  -7   68.22    3.11
  -2   2  -8   10.85    1.37
  -2   2  -9   35.56    2.21
  -2   2 -10    1.02    1.22
  -2   2 -11   32.55    1.97
  -2   2 -12   30.73    3.35
  -2   2 -13   23.88    3.35
  -2   3 -13   -1.01    1.39
  -2   3 -12    1.24    2.07
  -2   3 -11    0.28    1.42
  -2   3 -10   16.25    1.73
  -2   3  -9   56.67    2.70
  -2   3  -8   93.79    3.78
  -2   3  -7  172.69    5.95
  -2   3  -6  291.70   11.93
  -2   3  -5  611.77   17.28
  -2   3  -4  355.29   13.71
  -2   3  -3   56.81    2.52
  -2   3  -2   73.62    3.07
  -2   3  -1   13.10    1.02
  -2   3   0    2.61    0.75
  -2   4   0  147.35    5.78
  -2   4  -1   55.35    2.01
  -2   4  -2    0.12    0.87
  -2   4  -3   19.19    1.39
  -2   4  -4   23.72    1.56
  -2   4  -5  135.44    5.22
  -2   4  -6  104.82    4.27
  -2   4  -7   97.26    3.63
  -2   4  -8  126.91    4.51
  -2   4  -9  213.56    7.35
  -2   4 -10   57.30    3.80
  -2   4 -11    4.77    2.21
  -2   4 -12    0.15    1.37
  -2   5 -12   -0.11    1.79
  -2   5 -11   -1.70    1.15
  -2   5 -10   25.30    2.64
  -2   5  -9   46.14    2.34
  -2   5  -8   28.99    2.07
  -2   5  -7    5.70    1.27
  -2   5  -6   -1.27    1.12
  -2   5  -5   27.15    1.95
  -2   5  -4    6.19    1.16
  -2   5  -3   53.61    2.26
  -2   5  -2  169.00    6.32
  -2   5  -1  184.24    6.77
  -2   5   0  355.03   13.31
  -2   6   0  121.54    4.81
  -2   6  -1  297.29   11.97
  -2   6  -2  251.58   10.58
  -2   6  -3   45.38    2.20
  -2   6  -4   13.27    1.49
  -2   6  -5    0.67    1.13
  -2   6  -6   71.61    2.95
  -2   6  -7  102.52    3.61
  -2   6  -8   57.99    2.54
  -2   6  -9    2.26    2.17
  -2   6 -10   -0.12    1.30
  -2   6 -11    1.10    1.75
  -2   7 -10    4.56    2.18
  -2   7  -9    6.86    2.13
  -2   7  -8   76.64    4.32
  -2   7  -7  134.10    5.43
  -2   7  -6  101.78    3.55
  -2   7  -5   71.26    2.74
  -2   7  -4   23.16    1.86
  -2   7  -3   31.62    2.33
  -2   7  -2   38.77    2.20
  -2   7  -1    7.65    1.34
  -2   7   0    0.74    1.22
  -2   8   0  176.86    7.56
  -2   8  -1   52.95    2.45
  -2   8  -2    2.66    1.19
  -2   8  -3    3.52    1.49
  -2   8  -4    6.88    1.32
  -2   8  -5   20.58    1.93
  -2   8  -6   38.33    2.89
  -2   8  -7   24.82    2.89
  -2   8  -8   10.41    2.77
  -2   8  -9   14.59    3.44
  -2   9  -8   -0.75    1.45
  -2   9  -7    2.60    2.13
  -2   9  -6    3.68    2.34
  -2   9  -5    0.47    1.18
  -2   9  -4   10.12    2.04
  -2   9  -3   21.02    1.92
  -2   9  -2   47.46    2.28
  -2   9  -1   54.77    2.73
  -2   9   0  114.47    3.60
  -2  10   0   31.22    2.97
  -2  10  -1   14.17    2.86
  -2  10  -2   27.85    2.97
  -2  10  -3   55.68    3.97
  -2  10  -4   32.99    3.69
  -2  10  -5    2.08    1.70
  -2  10  -6    1.25    1.32
  -2  11  -4    2.71    2.25
  -2  11  -3    2.40    2.98
  -2  11  -2    0.38    1.71
  -2  11  -1    1.80    1.91
  -2  11   0   -2.05    1.14
  -1 -12   2    0.59    1.29
  -1 -12   1    4.31    2.19
  -1 -11   1    2.14    1.48
  -1 -11   2   10.45    2.66
  -1 -11   3   10.43    2.78
  -1 -11   4    5.08    1.84
  -1 -11   5    6.59    2.28
  -1 -10   6   39.52    3.86
  -1 -10   5   12.87    2.47
  -1 -10   4   13.04    2.94
  -1 -10   3   41.79    3.41
  -1 -10   2   43.69    3.13
  -1 -10   1   28.08    1.84
  -1  -9   1   22.94    1.88
  -1  -9   2   60.89    2.62
  -1  -9   3   86.23    3.08
  -1  -9   4   62.17    2.45
  -1  -9   5    9.02    2.36
  -1  -9   6   13.24    2.42
  -1  -9   7    9.98    2.80
  -1  -9   8   -0.98    1.50
  -1  -8   9   20.06    2.79
  -1  -8   8    9.48    2.72
  -1  -8   7   -0.29    0.99
  -1  -8   6    0.97    1.38
  -1  -8   5   -0.08    1.33
  -1  -8   4   36.79    2.05
  -1  -8   3    4.92    1.37
  -1  -8   2   -0.47    1.31
  -1  -8   1   12.46    1.71
  -1  -7   1   23.38    1.81
  -1  -7   2   32.09    1.89
  -1  -7   3   60.68    2.62
  -1  -7   4  149.72    5.12
  -1  -7   5  112.23    3.79
  -1  -7   6   73.58    2.80
  -1  -7   7    8.65    1.64
  -1  -7   8    0.93    1.49
  -1  -7   9    7.19    2.21
  -1  -7  10   21.81    3.44
  -1  -6  11    0.05    1.76
  -1  -6  10   -0.42    1.20
  -1  -6   9    0.09    1.10
  -1  -6   8    2.15    1.03
  -1  -6   7    3.17    1.74
  -1  -6   6  190.51    7.89
  -1  -6   5  371.75   11.78
  -1  -6   4  409.21   12.53
  -1  -6   3   89.10    3.74
  -1  -6   2   19.17    1.48
  -1  -6   1   55.04    2.22
  -1  -5   1  446.87   15.95
  -1  -5   2  211.78    7.68
  -1  -5   3  142.46    5.90
  -1  -5   4  156.29    5.88
  -1  -5   5  106.08    4.35
  -1  -5   6    9.29    1.46
  -1  -5   7    5.81    1.29
  -1  -5   8    4.19    1.20
  -1  -5   9    2.83    1.26
  -1  -5  10    9.35    2.11
  -1  -5  11   37.40    3.51
  -1  -4  12   65.90    4.81
  -1  -4  11   44.41    3.75
  -1  -4  10   14.99    2.18
  -1  -4   9   13.40    1.56
  -1  -4   8  135.42    6.44
  -1  -4   7  144.90    7.37
  -1  -4   6   37.75    2.04
  -1  -4   5    3.11    1.25
  -1  -4   4    0.14    0.75
  -1  -4   3   38.45    2.05
  -1  -4   2  265.02   12.69
  -1  -4   1  568.91   17.98
  -1  -3   1   21.84    1.14
  -1  -3   2  354.07   13.64
  -1  -3   3  552.04   17.43
  -1  -3   4   56.90    2.23
  -1  -3   5   32.82    1.89
  -1  -3   6   12.00    1.45
  -1  -3   7   37.86    1.96
  -1  -3   8  168.30    7.23
  -1  -3   9  114.26    5.71
  -1  -3  10   68.14    2.80
  -1  -3  11   39.17    3.00
  -1  -3  12   12.46    2.38
  -1  -2  13    1.16    1.61
  -1  -2  12    0.51    1.25
  -1  -2  11    0.72    1.30
  -1  -2  10    3.98    1.17
  -1  -2   9    6.07    1.52
  -1  -2   8   10.51    1.56
  -1  -2   7    2.98    1.38
  -1  -2   6    5.11    1.01
  -1  -2   5   38.20    1.85
  -1  -2   4 1495.31   28.18
  -1  -2   3 3130.83   39.08
  -1  -2   2 1368.61   23.52
  -1  -2   1  415.01   11.87
  -1  -1   1  254.28    7.84
  -1  -1   2  651.77   14.43
  -1  -1   3  643.35   16.71
  -1  -1   4  402.41   14.90
  -1  -1   5    1.27    0.75
  -1  -1   6   17.33    1.52
  -1  -1   7    1.13    0.79
  -1  -1   8    1.32    1.62
  -1  -1   9   75.61    2.93
  -1  -1  10  190.59    6.55
  -1  -1  11  114.24    4.60
  -1  -1  12   15.57    2.34
  -1  -1  13    3.79    2.07
  -1   0  13    3.73    1.69
  -1   0  12   32.27    3.19
  -1   0  11  198.17    5.93
  -1   0  10  251.44    7.74
  -1   0   9  139.18    6.89
  -1   0   8   13.12    1.45
  -1   0   7   47.78    1.96
  -1   0   6  224.07   10.57
  -1   0   5  178.06    6.57
  -1   0   4    4.62    0.78
  -1   0   3   11.23    0.87
  -1   0   2  354.44   10.18
  -1   0   1  398.05    9.13
  -1   1   1  452.33   10.38
  -1   1   2 2308.14   25.97
  -1   1   3   97.90    3.86
  -1   1   4    5.57    0.79
  -1   1   5  109.80    4.38
  -1   1   6  265.64   11.71
  -1   1   7  318.57   12.20
  -1   1   8  213.25    8.87
  -1   1   9   61.74    2.52
  -1   1  10   82.36    2.90
  -1   1  11   14.08    1.45
  -1   1  12    0.14    1.07
  -1   1  13    0.08    1.73
  -1   2  13   30.85    3.45
  -1   2  12    4.67    1.87
  -1   2  11    0.50    1.27
  -1   2  10    6.97    1.26
  -1   2   9    1.90    1.23
  -1   2   8  102.69    3.90
  -1   2   7   53.32    2.32
  -1   2   6  109.68    4.26
  -1   2   5   11.59    1.14
  -1   2   4  115.48    4.97
  -1   2   3  137.56    5.31
  -1   2   2  414.09   12.72
  -1   2   1 1659.65   22.89
  -1   3   1 1488.79   25.25
  -1   3   2 1000.03   22.10
  -1   3   3   62.86    2.84
  -1   3   4   10.36    1.21
  -1   3   5   16.48    1.31
  -1   3   6   13.10    1.29
  -1   3   7  143.76    5.03
  -1   3   8  155.72    5.22
  -1   3   9  125.35    4.16
  -1   3  10   60.32    2.47
  -1   3  11    0.75    1.54
  -1   3  12   -0.45    1.13
  -1   3  13    4.08    2.20
  -1   4  13    1.44    1.49
  -1   4  12    8.73    2.30
  -1   4  11   15.12    2.91
  -1   4  10  113.69    5.08
  -1   4   9  191.99    7.16
  -1   4   8  493.35   12.63
  -1   4   7  182.89    8.63
  -1   4   6   29.57    1.79
  -1   4   5    0.35    0.82
  -1   4   4    7.28    1.18
  -1   4   3   18.16    1.19
  -1   4   2    2.81    0.93
  -1   4   1   62.83    2.93
  -1   5   1    3.47    1.23
  -1   5   2    8.88    1.12
  -1   5   3   21.57    1.72
  -1   5   4  307.89   12.21
  -1   5   5  198.53    6.77
  -1   5   6  114.54    4.55
  -1   5   7  103.78    4.07
  -1   5   8  160.67    6.83
  -1   5   9   53.30    2.37
  -1   5  10   18.21    2.01
  -1   5  11    0.43    1.20
  -1   5  12    2.34    1.66
  -1   6  12    4.54    1.90
  -1   6  11    5.18    2.34
  -1   6  10    8.87    2.24
  -1   6   9    0.11    0.94
  -1   6   8    8.30    1.32
  -1   6   7   11.74    1.46
  -1   6   6   36.07    2.33
  -1   6   5  123.67    4.29
  -1   6   4   90.86    3.38
  -1   6   3   11.42    1.29
  -1   6   2    9.00    1.33
  -1   6   1  132.18    4.96
  -1   7   1   90.26    3.66
  -1   7   2   83.26    3.36
  -1   7   3   63.73    2.81
  -1   7   4    3.83    1.79
  -1   7   5   -0.67    1.18
  -1   7   6   42.02    2.53
  -1   7   7   67.08    2.62
  -1   7   8   19.23    1.67
  -1   7   9    2.59    1.59
  -1   7  10    1.69    1.79
  -1   7  11   11.22    2.88
  -1   8  11    3.84    1.62
  -1   8  10    8.71    2.82
  -1   8   9    9.13    2.49
  -1   8   8   41.37    3.46
  -1   8   7  169.44    5.89
  -1   8   6  163.46    6.65
  -1   8   5   58.09    2.48
  -1   8   4    2.63    1.24
  -1   8   3    2.50    1.08
  -1   8   2   -0.10    1.02
  -1   8   1    1.38    1.22
  -1   9   1    9.51    1.81
  -1   9   2   44.18    2.38
  -1   9   3   46.70    2.39
  -1   9   4   37.85    2.12
  -1   9   5   47.47    2.61
  -1   9   6   48.83    3.40
  -1   9   7   55.44    3.88
  -1   9   8   36.92    3.38
  -1   9   9    8.44    2.05
  -1   9  10    7.71    2.19
  -1  10   8    0.32    1.50
  -1  10   7    0.86    1.74
  -1  10   6    2.48    2.42
  -1  10   5   19.58    2.57
  -1  10   4   55.99    3.82
  -1  10   3   31.84    3.02
  -1  10   2   14.31    2.30
  -1  10   1    8.41    2.04
  -1  11   1   17.90    2.86
  -1  11   2    9.25    2.16
  -1  11   3    1.37    1.56
  -1  11   4   14.43    2.54
  -1  11   5    3.68    2.61
  -1  11   6    0.00    1.47
  -1  11   7    0.86    1.44
  -1  12   4   24.79    3.29
  -1  12   3    1.13    1.84
  -1  12   2    4.18    1.65
  -1  12   1    1.71    2.04
  -1  12   0    4.62    1.85
  -1  12  -1    4.19    2.21
  -1  11  -5    0.87    2.57
  -1  11  -4   18.63    2.85
  -1  11  -3   60.33    4.67
  -1  11  -2   44.10    4.20
  -1  11  -1   32.99    3.35
  -1  11   0   26.09    3.22
  -1  10   0    4.89    1.57
  -1  10  -1   15.59    2.27
  -1  10  -2   68.45    4.39
  -1  10  -3   65.60    4.24
  -1  10  -4   28.16    3.57
  -1  10  -5   -0.05    1.41
  -1  10  -6    4.50    2.09
  -1  10  -7    1.56    1.78
  -1   9  -8   13.17    3.77
  -1   9  -7    8.72    2.08
  -1   9  -6   16.50    2.52
  -1   9  -5   12.56    2.86
  -1   9  -4    1.46    1.23
  -1   9  -3    0.95    1.34
  -1   9  -2    0.22    0.91
  -1   9  -1    1.09    1.13
  -1   9   0    0.30    0.99
  -1   8   0   14.74    1.63
  -1   8  -1    7.67    1.37
  -1   8  -2   23.50    1.85
  -1   8  -3   60.67    2.69
  -1   8  -4  116.09    5.82
  -1   8  -5   59.80    2.98
  -1   8  -6   18.96    1.69
  -1   8  -7    2.38    2.15
  -1   8  -8    1.17    1.65
  -1   8  -9   20.69    2.98
  -1   7 -10   -1.96    1.38
  -1   7  -9    1.17    1.60
  -1   7  -8    1.05    1.61
  -1   7  -7   -1.01    1.23
  -1   7  -6   23.54    2.07
  -1   7  -5   33.69    2.15
  -1   7  -4   17.13    1.91
  -1   7  -3   40.36    2.18
  -1   7  -2  155.68    5.78
  -1   7  -1  264.17   10.39
  -1   7   0  292.54   11.54
  -1   6   0  844.86   19.87
  -1   6  -1  832.42   20.28
  -1   6  -2  224.01   10.63
  -1   6  -3   38.66    2.24
  -1   6  -4    3.97    1.17
  -1   6  -5   19.65    1.79
  -1   6  -6   21.94    1.84
  -1   6  -7   39.80    2.39
  -1   6  -8   17.72    1.79
  -1   6  -9   14.39    2.47
  -1   6 -10   23.39    2.88
  -1   6 -11   16.19    2.96
  -1   5 -12    3.63    2.55
  -1   5 -11    9.20    2.36
  -1   5 -10   34.23    3.23
  -1   5  -9  119.09    5.53
  -1   5  -8  291.54    9.01
  -1   5  -7  188.59    8.37
  -1   5  -6   18.90    1.70
  -1   5  -5   18.25    1.87
  -1   5  -4   10.91    1.33
  -1   5  -3   23.57    1.79
  -1   5  -2   28.16    1.78
  -1   5  -1  100.75    4.44
  -1   5   0   18.53    1.33
  -1   4   0    2.27    0.76
  -1   4  -1  267.99   12.63
  -1   4  -2  826.81   21.28
  -1   4  -3  619.51   18.52
  -1   4  -4   42.23    2.04
  -1   4  -5    6.45    1.04
  -1   4  -6   15.06    1.68
  -1   4  -7  116.61    4.56
  -1   4  -8  256.19    9.42
  -1   4  -9  125.85    4.09
  -1   4 -10   13.47    1.66
  -1   4 -11   -1.32    1.37
  -1   4 -12    7.48    3.29
  -1   3 -13    3.42    2.59
  -1   3 -12    2.56    1.58
  -1   3 -11    8.11    2.31
  -1   3 -10   15.66    1.59
  -1   3  -9    3.06    1.16
  -1   3  -8    5.07    1.99
  -1   3  -7   20.40    1.85
  -1   3  -6   38.66    2.03
  -1   3  -5   10.02    1.16
  -1   3  -4  317.02   13.56
  -1   3  -3  441.29   15.91
  -1   3  -2  249.19   11.54
  -1   3  -1  184.81    6.58
  -1   3   0 1057.49   21.43
  -1   2   0 3600.22   32.80
  -1   2  -1   29.47    1.10
  -1   2  -2    1.52    0.65
  -1   2  -3    0.48    0.69
  -1   2  -4    5.55    0.93
  -1   2  -5   30.72    1.72
  -1   2  -6   37.64    2.01
  -1   2  -7   30.53    1.87
  -1   2  -8    6.10    1.36
  -1   2  -9  171.71    7.27
  -1   2 -10  173.07    6.57
  -1   2 -11   67.23    4.01
  -1   2 -12    1.42    1.89
  -1   2 -13    5.87    2.21
  -1   1 -13    4.06    1.81
  -1   1 -12   10.20    2.67
  -1   1 -11   13.89    1.49
  -1   1 -10   19.25    1.77
  -1   1  -9   33.54    2.02
  -1   1  -8  147.93    5.60
  -1   1  -7  765.57   18.63
  -1   1  -6 1022.35   22.69
  -1   1  -5  650.42   19.24
  -1   1  -4   33.91    1.52
  -1   1  -3   21.68    1.03
  -1   1  -2  221.77    8.14
  -1   1  -1   -0.03    0.40
  -1   1   0  125.45    5.45
  -1   0   0  453.46    8.25
  -1   0  -1   52.14    1.83
  -1   0  -2  451.47   10.75
  -1   0  -3   83.27    3.36
  -1   0  -4   19.15    1.16
  -1   0  -5  422.20   15.05
  -1   0  -6  981.80   22.84
  -1   0  -7  832.22   19.49
  -1   0  -8  212.47    9.17
  -1   0  -9    0.65    1.36
  -1   0 -10   44.05    2.15
  -1   0 -11    0.91    1.01
  -1   0 -12   17.84    2.47
  -1   0 -13   34.18    3.21
  -1   0 -14   12.14    2.94
  -1  -1 -14   84.96    5.79
  -1  -1 -13   96.01    5.28
  -1  -1 -12   10.68    2.41
  -1  -1 -11    0.29    1.07
  -1  -1 -10    1.10    0.95
  -1  -1  -9   50.25    2.44
  -1  -1  -8   -0.92    0.78
  -1  -1  -7    4.63    1.03
  -1  -1  -6  125.06    5.24
  -1  -1  -5   56.68    2.35
  -1  -1  -4   97.49    4.13
  -1  -1  -3   96.57    3.43
  -1  -1  -2  330.07    9.37
  -1  -1  -1  856.72   12.81
  -1  -1   0 2273.38   20.05
  -1  -2   0   18.53    0.83
  -1  -2  -1  102.34    3.64
  -1  -2  -2  218.65    9.11
  -1  -2  -3    0.54    0.67
  -1  -2  -4    1.41    0.72
  -1  -2  -5    8.15    0.92
  -1  -2  -6  197.83    6.82
  -1  -2  -7  302.11   12.07
  -1  -2  -8  214.62    9.52
  -1  -2  -9   82.42    3.01
  -1  -2 -10   35.08    2.10
  -1  -2 -11    3.80    1.19
  -1  -2 -12   34.22    2.92
  -1  -2 -13   57.74    4.11
  -1  -2 -14   40.88    3.89
  -1  -3 -14   -0.48    1.76
  -1  -3 -13   -0.12    1.37
  -1  -3 -12   13.61    2.17
  -1  -3 -11   13.41    1.48
  -1  -3 -10   46.56    2.54
  -1  -3  -9   60.44    2.55
  -1  -3  -8  227.63    9.51
  -1  -3  -7  138.37    5.04
  -1  -3  -6  250.92   11.33
  -1  -3  -5  439.80   15.45
  -1  -3  -4 1184.30   25.62
  -1  -3  -3  203.50    7.23
  -1  -3  -2   44.01    1.69
  -1  -3  -1   57.36    2.52
  -1  -3   0   10.01    0.83
  -1  -4   0   22.63    1.24
  -1  -4  -1    2.89    0.87
  -1  -4  -2   90.84    3.27
  -1  -4  -3  427.11   15.45
  -1  -4  -4 1341.74   26.84
  -1  -4  -5  833.26   20.65
  -1  -4  -6  251.13   11.33
  -1  -4  -7   35.44    1.85
  -1  -4  -8    2.27    1.01
  -1  -4  -9    0.21    1.14
  -1  -4 -10    0.31    1.25
  -1  -4 -11    8.25    1.42
  -1  -4 -12    5.40    2.03
  -1  -4 -13    7.85    2.32
  -1  -5 -13   47.77    4.11
  -1  -5 -12  127.67    5.70
  -1  -5 -11  139.58    5.38
  -1  -5 -10   29.53    2.06
  -1  -5  -9    1.78    1.25
  -1  -5  -8   28.80    2.07
  -1  -5  -7    5.59    1.16
  -1  -5  -6    1.16    1.23
  -1  -5  -5  124.83    4.97
  -1  -5  -4  251.86   12.34
  -1  -5  -3   88.30    4.14
  -1  -5  -2   35.60    1.62
  -1  -5  -1   45.36    1.69
  -1  -5   0  378.94   14.45
  -1  -6   0  261.73   12.05
  -1  -6  -1   57.45    2.79
  -1  -6  -2   19.56    1.52
  -1  -6  -3    1.02    0.95
  -1  -6  -4   65.92    2.81
  -1  -6  -5  131.46    4.82
  -1  -6  -6  149.35    5.40
  -1  -6  -7   73.08    3.01
  -1  -6  -8    1.54    1.10
  -1  -6  -9    2.91    1.17
  -1  -6 -10   14.94    1.50
  -1  -6 -11   61.53    4.21
  -1  -6 -12   95.23    5.35
  -1  -6 -13   20.78    3.64
  -1  -7 -12    1.63    2.13
  -1  -7 -11   11.36    2.38
  -1  -7 -10   21.87    2.70
  -1  -7  -9   21.53    1.65
  -1  -7  -8   39.37    2.14
  -1  -7  -7  114.72    4.04
  -1  -7  -6  141.05    4.91
  -1  -7  -5   67.79    2.60
  -1  -7  -4   97.40    4.01
  -1  -7  -3  245.72   10.56
  -1  -7  -2  203.04    9.41
  -1  -7  -1   55.89    2.63
  -1  -7   0    1.48    1.10
  -1  -8   0   14.11    1.81
  -1  -8  -1   41.56    2.21
  -1  -8  -2  399.78   12.00
  -1  -8  -3  421.71   12.23
  -1  -8  -4  224.68    8.71
  -1  -8  -5   36.82    2.27
  -1  -8  -6   27.44    2.10
  -1  -8  -7   26.04    1.83
  -1  -8  -8   13.04    1.52
  -1  -8  -9    0.68    1.45
  -1  -8 -10    0.70    1.33
  -1  -8 -11    1.58    2.03
  -1  -9 -10   50.91    4.06
  -1  -9  -9   48.86    3.72
  -1  -9  -8    2.33    1.74
  -1  -9  -7    9.29    1.75
  -1  -9  -6    7.45    1.73
  -1  -9  -5    5.11    1.75
  -1  -9  -4   30.95    2.03
  -1  -9  -3    4.70    1.65
  -1  -9  -2   16.32    1.84
  -1  -9  -1   45.07    2.30
  -1  -9   0   43.38    2.29
  -1 -10   0    5.33    1.50
  -1 -10  -1    0.97    1.29
  -1 -10  -2    2.96    1.37
  -1 -10  -3   11.05    1.37
  -1 -10  -4   39.87    2.10
  -1 -10  -5    9.55    2.06
  -1 -10  -6    2.69    1.69
  -1 -10  -7   -1.49    1.18
  -1 -10  -8    7.59    2.16
  -1 -10  -9   31.72    4.03
  -1 -11  -8   13.04    2.67
  -1 -11  -7    9.98    2.41
  -1 -11  -6   20.15    2.80
  -1 -11  -5   11.71    2.47
  -1 -11  -4   34.56    3.39
  -1 -11  -3   27.99    3.09
  -1 -11  -2   19.42    3.02
  -1 -11  -1   22.06    2.68
  -1 -11   0   13.60    2.65
  -1 -12   0   41.54    3.97
  -1 -12  -1   55.08    4.67
  -1 -12  -2   24.90    3.04
  -1 -12  -3    6.29    3.20
  -1 -12  -4   17.93    2.86
  -1 -12  -5   17.26    2.67
   0  12   5    2.14    2.06
   0  12   4   -0.13    1.61
   0  12   3   -1.78    1.21
   0  12   2    5.49    2.15
   0  12   1   13.52    2.51
   0  11   1    3.96    2.97
   0  11   2    9.68    1.93
   0  11   3   20.75    2.62
   0  11   4   77.33    4.72
   0  11   5   33.31    3.23
   0  11   6    6.86    2.77
   0  11   7   11.28    3.14
   0  10   9    3.36    1.90
   0  10   8   16.58    2.77
   0  10   7   16.77    2.48
   0  10   6   17.82    2.69
   0  10   5   39.97    3.28
   0  10   4  136.76    5.36
   0  10   3  131.12    5.43
   0  10   2   52.67    2.39
   0  10   1   -0.99    1.07
   0   9   1   21.49    2.16
   0   9   2    0.52    1.01
   0   9   3   46.26    2.28
   0   9   4   67.29    2.67
   0   9   5   22.78    1.83
   0   9   6   25.67    2.12
   0   9   7   25.62    2.63
   0   9   8   17.69    2.64
   0   9   9   13.84    2.51
   0   9  10   24.08    2.95
   0   8  11   11.58    2.88
   0   8  10    0.15    1.35
   0   8   9    8.64    2.00
   0   8   8    8.35    1.97
   0   8   7   17.80    1.63
   0   8   6    2.05    1.15
   0   8   5    1.64    1.03
   0   8   4    9.22    1.50
   0   8   3   18.53    1.58
   0   8   2   42.19    2.65
   0   8   1   73.75    3.08
   0   7   1   99.55    3.43
   0   7   2  110.82    4.17
   0   7   3   60.56    2.53
   0   7   4  114.94    4.24
   0   7   5  121.35    4.20
   0   7   6   28.45    2.07
   0   7   7   16.53    1.62
   0   7   8   17.90    1.70
   0   7   9    6.04    1.22
   0   7  10    3.09    2.31
   0   7  11    4.17    2.50
   0   7  12   25.65    3.08
   0   6  12    0.40    1.40
   0   6  11   -0.64    1.13
   0   6  10   17.72    2.36
   0   6   9   18.24    1.83
   0   6   8   36.89    2.15
   0   6   7  232.59    8.66
   0   6   6  554.95   14.62
   0   6   5  554.29   15.54
   0   6   4  154.39    5.84
   0   6   3    3.36    0.93
   0   6   2    4.12    1.11
   0   6   1    1.05    1.07
   0   5   1    7.81    1.23
   0   5   2   71.82    2.76
   0   5   3    1.41    0.89
   0   5   4  258.62   11.90
   0   5   5  276.53   11.82
   0   5   6  322.76   11.45
   0   5   7  113.96    4.44
   0   5   8   42.48    2.46
   0   5   9   15.56    1.55
   0   5  10   24.53    1.83
   0   5  11   25.29    2.83
   0   5  12   31.84    3.20
   0   5  13    8.96    2.00
   0   4  13    6.75    2.72
   0   4  12    4.56    1.90
   0   4  11   13.87    2.09
   0   4  10   76.82    2.78
   0   4   9   42.82    2.24
   0   4   8    8.22    1.44
   0   4   7    0.76    1.02
   0   4   6   -0.03    0.93
   0   4   5   74.30    3.05
   0   4   4  119.79    4.71
   0   4   3  106.54    4.42
   0   4   2   73.93    3.02
   0   4   1    3.11    0.77
   0   3   1  194.14    9.03
   0   3   2  259.66   11.09
   0   3   3  323.14   13.35
   0   3   4  654.08   18.44
   0   3   5  134.87    5.16
   0   3   6  178.26    6.31
   0   3   7  111.34    4.24
   0   3   8   97.93    3.59
   0   3   9   -0.19    1.14
   0   3  10    0.47    0.85
   0   3  11    4.18    1.06
   0   3  12    0.23    1.44
   0   3  13   16.37    2.79
   0   2  13    3.46    1.60
   0   2  12   -0.18    1.14
   0   2  11   -0.21    0.97
   0   2  10   27.85    1.86
   0   2   9   52.01    2.40
   0   2   8  787.91   17.34
   0   2   7  862.59   19.42
   0   2   6  287.41   12.80
   0   2   5    7.36    1.02
   0   2   4    0.04    0.52
   0   2   3  181.83    6.16
   0   2   2 1289.97   20.22
   0   2   1   15.17    0.79
   0   1   1  893.05   12.00
   0   1   2  363.29    9.57
   0   1   3    9.58    0.74
   0   1   4   55.41    1.95
   0   1   5    3.41    0.81
   0   1   6  243.66   11.38
   0   1   7  760.68   18.31
   0   1   8  282.45   10.75
   0   1   9   79.56    3.16
   0   1  10   36.59    1.92
   0   1  11   27.31    2.00
   0   1  12   37.75    2.99
   0   1  13   13.48    2.83
   0   0  13   19.89    2.88
   0   0  12   16.61    2.12
   0   0  11   56.96    2.32
   0   0  10   43.36    2.34
   0   0   9   38.79    2.19
   0   0   8    3.03    0.93
   0   0   7   20.25    1.53
   0   0   6   14.65    1.28
   0   0   5   10.56    1.11
   0   0   4   22.21    1.08
   0   0   3    1.57    0.71
   0   0   2   84.08    3.20
   0   0   1 1833.64   13.87
   0  -1   1  170.66    5.93
   0  -1   2  379.33   10.26
   0  -1   3  125.99    4.74
   0  -1   4  498.21   15.50
   0  -1   5  230.23    7.82
   0  -1   6  153.43    5.50
   0  -1   7  102.70    4.00
   0  -1   8   77.28    3.21
   0  -1   9   41.70    2.10
   0  -1  10   18.29    1.77
   0  -1  11    4.01    1.03
   0  -1  12    3.90    2.45
   0  -1  13    2.04    2.06
   0  -2  13   -0.39    1.20
   0  -2  12    1.07    1.11
   0  -2  11   54.00    3.43
   0  -2  10  200.24    6.90
   0  -2   9  373.72   10.59
   0  -2   8  200.94    8.87
   0  -2   7   32.69    1.79
   0  -2   6   51.20    2.10
   0  -2   5  170.99    6.56
   0  -2   4   81.37    3.44
   0  -2   3  394.08   13.71
   0  -2   2  146.93    5.33
   0  -2   1    2.82    0.54
   0  -3   1  498.80   14.89
   0  -3   2  810.13   19.83
   0  -3   3   66.18    3.08
   0  -3   4   12.42    1.14
   0  -3   5   81.98    3.83
   0  -3   6    2.27    0.83
   0  -3   7   40.12    2.11
   0  -3   8  195.96    8.69
   0  -3   9  286.21    9.07
   0  -3  10  169.92    5.99
   0  -3  11   26.68    2.75
   0  -3  12    2.68    1.80
   0  -3  13    2.28    2.09
   0  -4  12    8.90    2.21
   0  -4  11    2.40    1.32
   0  -4  10   11.55    2.56
   0  -4   9    4.13    1.23
   0  -4   8   -0.24    1.18
   0  -4   7    0.47    1.02
   0  -4   6    0.36    0.75
   0  -4   5   19.47    1.42
   0  -4   4   75.32    3.46
   0  -4   3  859.40   21.66
   0  -4   2 1005.37   23.45
   0  -4   1 1031.95   23.80
   0  -5   1  418.69   15.25
   0  -5   2  810.14   20.69
   0  -5   3  367.98   13.68
   0  -5   4   37.07    2.06
   0  -5   5   53.49    2.23
   0  -5   6   88.27    3.83
   0  -5   7   53.82    2.55
   0  -5   8   34.18    2.04
   0  -5   9    9.03    1.26
   0  -5  10   10.57    2.06
   0  -5  11    2.04    2.03
   0  -5  12    0.74    1.34
   0  -6  11   52.77    4.16
   0  -6  10   46.64    3.57
   0  -6   9    4.89    1.41
   0  -6   8   23.05    1.95
   0  -6   7   74.87    3.08
   0  -6   6   91.90    3.76
   0  -6   5   69.06    3.00
   0  -6   4   38.21    2.07
   0  -6   3   12.24    1.36
   0  -6   2    3.95    0.91
   0  -6   1   20.17    1.47
   0  -7   1   52.66    2.23
   0  -7   2   26.64    1.90
   0  -7   3   46.38    2.32
   0  -7   4   75.81    3.33
   0  -7   5    0.86    1.61
   0  -7   6   27.47    1.99
   0  -7   7   12.39    1.50
   0  -7   8    1.43    1.91
   0  -7   9    5.89    2.11
   0  -7  10   30.48    3.62
   0  -8   9   11.19    2.23
   0  -8   8   -0.15    1.27
   0  -8   7    4.14    1.78
   0  -8   6    3.30    1.12
   0  -8   5   70.04    2.77
   0  -8   4  276.46    8.30
   0  -8   3  204.13    8.34
   0  -8   2   67.70    2.75
   0  -8   1   18.07    1.65
   0  -9   1   20.41    2.20
   0  -9   2   41.58    2.45
   0  -9   3  125.52    5.55
   0  -9   4   97.83    4.53
   0  -9   5   17.49    2.14
   0  -9   6    4.27    1.92
   0  -9   7    1.53    1.64
   0  -9   8   -0.10    1.45
   0 -10   7   27.14    3.47
   0 -10   6    5.05    2.01
   0 -10   5    4.81    1.97
   0 -10   4   -0.61    0.81
   0 -10   3    1.90    1.62
   0 -10   2    0.14    1.25
   0 -10   1    0.96    1.08
   0 -11   1    9.29    2.13
   0 -11   2   10.16    2.44
   0 -11   3    6.36    2.13
   0 -11   4    1.20    1.71
   0 -11   5   -0.87    0.84
   0 -12   2    3.59    2.62
   0 -12   1   13.16    2.59
   0 -12   0   20.16    2.72
   0 -12  -1   10.67    2.59
   0 -12  -2    3.94    2.83
   0 -12  -3   -0.65    1.31
   0 -12  -4    1.06    1.70
   0 -12  -5   -1.49    1.60
   0 -11  -7    9.41    3.02
   0 -11  -6    6.03    2.20
   0 -11  -5   31.02    3.09
   0 -11  -4   82.46    4.82
   0 -11  -3   16.03    2.62
   0 -11  -2    6.40    2.00
   0 -11  -1    8.08    2.19
   0 -11   0    7.99    2.41
   0 -10   0    4.12    1.34
   0 -10  -1    0.21    0.98
   0 -10  -2   59.05    2.44
   0 -10  -3  141.83    5.51
   0 -10  -4  134.18    5.33
   0 -10  -5   33.55    3.01
   0 -10  -6   17.78    2.59
   0 -10  -7    6.19    2.41
   0 -10  -8   12.99    2.66
   0 -10  -9    1.81    1.84
   0  -9 -10   20.60    2.74
   0  -9  -9   21.03    2.60
   0  -9  -8   15.08    2.99
   0  -9  -7   20.17    2.54
   0  -9  -6   18.98    1.68
   0  -9  -5   24.89    2.23
   0  -9  -4   69.33    2.92
   0  -9  -3   43.19    2.32
   0  -9  -2    3.14    1.48
   0  -9  -1   20.91    2.04
   0  -9   0   22.01    1.88
   0  -8   0   86.03    3.43
   0  -8  -1   75.18    2.71
   0  -8  -2   42.77    2.21
   0  -8  -3   17.36    1.79
   0  -8  -4   11.13    1.59
   0  -8  -5    1.08    1.32
   0  -8  -6    1.51    1.08
   0  -8  -7   19.20    1.96
   0  -8  -8    6.43    2.08
   0  -8  -9    5.76    1.89
   0  -8 -10    0.80    1.85
   0  -8 -11   10.82    2.41
   0  -7 -12   34.13    3.46
   0  -7 -11    3.69    1.77
   0  -7 -10    4.13    2.67
   0  -7  -9    7.25    1.36
   0  -7  -8   18.07    2.01
   0  -7  -7   17.44    1.60
   0  -7  -6   29.19    1.94
   0  -7  -5  117.47    4.37
   0  -7  -4  115.30    3.94
   0  -7  -3   62.49    2.83
   0  -7  -2  118.09    4.84
   0  -7  -1  116.05    4.41
   0  -7   0  128.68    4.79
   0  -6   0    0.07    1.37
   0  -6  -1    0.46    0.80
   0  -6  -2    3.67    1.06
   0  -6  -3    2.54    0.97
   0  -6  -4  172.63    6.10
   0  -6  -5  544.55   15.18
   0  -6  -6  561.32   14.22
   0  -6  -7  220.42    8.81
   0  -6  -8   42.72    2.20
   0  -6  -9   19.55    2.00
   0  -6 -10   18.74    2.64
   0  -6 -11    2.20    1.99
   0  -6 -12   -1.22    1.55
   0  -5 -13   12.34    2.79
   0  -5 -12   32.90    3.39
   0  -5 -11   24.24    2.75
   0  -5 -10   26.30    1.80
   0  -5  -9   13.83    1.67
   0  -5  -8   37.42    2.05
   0  -5  -7  113.67    4.14
   0  -5  -6  315.05   11.75
   0  -5  -5  304.17   12.15
   0  -5  -4  256.64   11.63
   0  -5  -3    3.59    0.94
   0  -5  -2   61.90    3.33
   0  -5  -1    7.19    1.11
   0  -5   0  107.77    4.24
   0  -4   0  274.33   12.17
   0  -4  -1    3.28    0.80
   0  -4  -2   68.51    2.85
   0  -4  -3  107.68    4.36
   0  -4  -4  110.64    4.85
   0  -4  -5   69.48    2.95
   0  -4  -6    1.44    0.95
   0  -4  -7    0.64    1.03
   0  -4  -8    8.02    1.49
   0  -4  -9   41.26    2.17
   0  -4 -10   75.79    2.97
   0  -4 -11   13.67    2.08
   0  -4 -12    3.96    1.82
   0  -4 -13   12.64    2.40
   0  -3 -13   25.52    3.03
   0  -3 -12    2.81    2.05
   0  -3 -11    4.95    1.72
   0  -3 -10   -0.10    1.14
   0  -3  -9   -0.06    1.20
   0  -3  -8   91.41    3.35
   0  -3  -7  108.97    4.56
   0  -3  -6  179.23    6.86
   0  -3  -5  148.63    5.73
   0  -3  -4  638.94   18.65
   0  -3  -3  320.44   12.59
   0  -3  -2  276.96   11.23
   0  -3  -1  192.72    9.09
   0  -3   0  371.51   12.14
   0  -2   0   50.33    1.89
   0  -2  -1   15.97    0.82
   0  -2  -2 1283.67   20.11
   0  -2  -3  179.39    5.88
   0  -2  -4    1.11    0.74
   0  -2  -5    7.70    1.02
   0  -2  -6  291.88   12.41
   0  -2  -7  831.39   19.47
   0  -2  -8  761.10   17.18
   0  -2  -9   50.16    2.39
   0  -2 -10   29.11    1.87
   0  -2 -11    0.40    1.26
   0  -2 -12    0.95    1.45
   0  -2 -13    1.28    2.41
   0  -1 -13   19.42    2.69
   0  -1 -12   32.70    3.07
   0  -1 -11   25.39    1.73
   0  -1 -10   39.27    2.35
   0  -1  -9   80.10    2.79
   0  -1  -8  278.80   10.78
   0  -1  -7  772.89   18.79
   0  -1  -6  230.33   11.14
   0  -1  -5    6.44    0.90
   0  -1  -4   53.20    2.46
   0  -1  -3    6.11    0.69
   0  -1  -2  357.55    9.50
   0  -1  -1  908.20   11.74
   0  -1   0  566.30    8.30
   0   0  -1 1826.90   13.76
   0   0  -2   81.68    3.10
   0   0  -3    0.04    0.49
   0   0  -4   22.12    1.16
   0   0  -5   11.67    1.05
   0   0  -6   14.88    1.24
   0   0  -7   20.89    1.50
   0   0  -8    5.28    0.96
   0   0  -9   39.79    2.11
   0   0 -10   42.62    2.21
   0   0 -11   54.37    2.36
   0   0 -12   15.93    2.55
   0   0 -13   19.46    3.42
   0   1 -13   -1.69    1.38
   0   1 -12    8.49    1.95
   0   1 -11    2.73    1.44
   0   1 -10   17.74    1.87
   0   1  -9   41.30    2.24
   0   1  -8   73.97    3.02
   0   1  -7  101.57    3.79
   0   1  -6  161.87    6.01
   0   1  -5  199.46    7.39
   0   1  -4  465.33   15.07
   0   1  -3  109.60    4.12
   0   1  -2  370.91   10.09
   0   1  -1  158.01    5.56
   0   1   0  577.98    8.52
   0   2   0   49.13    1.83
   0   2  -1    1.91    0.54
   0   2  -2  133.82    5.11
   0   2  -3  388.76   13.85
   0   2  -4   82.67    4.09
   0   2  -5  166.22    6.25
   0   2  -6   51.70    2.25
   0   2  -7   35.06    1.86
   0   2  -8  204.75    8.74
   0   2  -9  389.15   10.75
   0   2 -10  205.17    6.78
   0   2 -11   51.98    3.43
   0   2 -12   -1.11    1.16
   0   2 -13    0.82    1.61
   0   3 -13    1.71    1.58
   0   3 -12    0.04    1.63
   0   3 -11   26.94    2.94
   0   3 -10  157.63    5.88
   0   3  -9  270.28    9.01
   0   3  -8  227.07    9.09
   0   3  -7   36.92    2.19
   0   3  -6    0.16    0.85
   0   3  -5   83.85    3.89
   0   3  -4    9.59    1.11
   0   3  -3   61.62    2.59
   0   3  -2  794.85   19.76
   0   3  -1  499.64   14.59
   0   3   0  360.66   11.87
   0   4   0  259.54   12.11
   0   4  -1 1054.78   23.71
   0   4  -2 1022.45   23.76
   0   4  -3  843.32   21.79
   0   4  -4   79.13    3.48
   0   4  -5   20.12    1.68
   0   4  -6    0.10    0.92
   0   4  -7    0.92    0.99
   0   4  -8    1.47    1.20
   0   4  -9    5.00    1.22
   0   4 -10   10.92    2.04
   0   4 -11    2.63    1.91
   0   4 -12    7.56    2.32
   0   5 -12   -0.05    1.56
   0   5 -11    0.82    1.91
   0   5 -10    9.76    2.10
   0   5  -9    6.66    1.24
   0   5  -8   30.47    2.12
   0   5  -7   56.12    2.85
   0   5  -6   78.64    3.13
   0   5  -5   51.40    2.40
   0   5  -4   42.31    2.15
   0   5  -3  334.82   13.81
   0   5  -2  781.48   20.42
   0   5  -1  453.24   15.50
   0   5   0  114.37    4.54
   0   6   0    1.78    0.95
   0   6  -1   20.35    1.59
   0   6  -2    2.54    1.03
   0   6  -3   13.66    1.49
   0   6  -4   37.44    2.15
   0   6  -5   64.25    2.84
   0   6  -6   88.47    3.44
   0   6  -7   75.69    3.12
   0   6  -8   19.82    1.68
   0   6  -9    1.36    1.84
   0   6 -10   40.69    3.81
   0   6 -11   53.57    4.64
   0   7 -10   32.86    3.94
   0   7  -9    6.58    2.25
   0   7  -8    0.43    1.62
   0   7  -7    9.78    1.38
   0   7  -6   24.94    2.26
   0   7  -5    0.99    1.31
   0   7  -4   69.02    2.84
   0   7  -3   46.57    2.30
   0   7  -2   21.75    1.79
   0   7  -1   52.58    2.34
   0   7   0  129.70    4.81
   0   8   0   89.08    3.87
   0   8  -1   15.52    1.50
   0   8  -2   66.38    2.72
   0   8  -3  212.31    8.39
   0   8  -4  273.57    8.78
   0   8  -5   68.28    2.78
   0   8  -6    3.03    1.04
   0   8  -7    8.06    1.75
   0   8  -8   -0.01    1.49
   0   8  -9   10.59    2.16
   0   9  -8    2.34    1.86
   0   9  -7    0.40    1.45
   0   9  -6    5.39    2.92
   0   9  -5   16.70    2.40
   0   9  -4   95.67    4.85
   0   9  -3  131.53    5.63
   0   9  -2   38.95    2.19
   0   9  -1   20.38    1.80
   0   9   0   21.04    1.87
   0  10   0    2.51    1.12
   0  10  -1   -0.40    0.88
   0  10  -2    2.19    1.72
   0  10  -3    1.38    1.74
   0  10  -4   -0.09    1.35
   0  10  -5    2.97    2.00
   0  10  -6    7.40    2.02
   0  10  -7   20.75    3.17
   0  11  -5   -0.95    1.43
   0  11  -4    2.40    1.90
   0  11  -3    1.00    2.08
   0  11  -2    9.13    2.39
   0  11  -1   12.05    2.88
   0  11   0   10.89    2.68
   0  12   0   12.84    2.96
   0  12  -1   14.11    2.88
   0  12  -2    2.57    2.89
   1 -12   1   -0.18    1.52
   1 -11   1   31.72    3.52
   1 -11   2   46.92    3.88
   1 -11   3   57.50    4.47
   1 -11   4   13.96    3.25
   1 -11   5    1.77    2.32
   1 -10   7    2.58    1.83
   1 -10   6    7.56    2.11
   1 -10   5   -0.34    1.19
   1 -10   4   28.31    3.05
   1 -10   3   69.21    4.32
   1 -10   2   76.92    3.95
   1 -10   1   19.06    2.70
   1  -9   1    1.45    1.14
   1  -9   2    1.50    1.02
   1  -9   3    3.14    1.07
   1  -9   4   -0.03    0.91
   1  -9   5   17.66    2.29
   1  -9   6   14.93    2.93
   1  -9   7   14.91    2.73
   1  -9   8   21.05    2.91
   1  -8   9   11.78    2.94
   1  -8   8    3.35    1.55
   1  -8   7    3.28    1.69
   1  -8   6   19.97    1.63
   1  -8   5   58.36    2.62
   1  -8   4  116.27    3.84
   1  -8   3   60.63    2.51
   1  -8   2   23.25    1.84
   1  -8   1    8.66    1.70
   1  -7   1  220.75   10.00
   1  -7   2  147.95    5.19
   1  -7   3   44.90    2.54
   1  -7   4   15.18    1.64
   1  -7   5   34.09    2.14
   1  -7   6   24.15    1.76
   1  -7   7    0.31    1.12
   1  -7   8    0.20    1.38
   1  -7   9   -0.19    1.12
   1  -7  10    0.21    1.18
   1  -6  11   14.47    3.09
   1  -6  10   15.13    3.12
   1  -6   9   20.59    2.29
   1  -6   8   24.26    1.89
   1  -6   7   46.88    2.26
   1  -6   6   24.23    1.84
   1  -6   5   23.94    1.95
   1  -6   4    4.62    1.21
   1  -6   3   36.73    1.97
   1  -6   2  230.60   10.35
   1  -6   1  846.68   20.38
   1  -5   1  102.10    4.30
   1  -5   2   24.82    1.54
   1  -5   3   22.55    1.59
   1  -5   4    8.97    1.19
   1  -5   5   18.90    1.54
   1  -5   6   19.81    1.69
   1  -5   7  195.97    7.91
   1  -5   8  322.72    9.01
   1  -5   9  120.10    5.18
   1  -5  10   29.13    3.14
   1  -5  11    6.54    2.73
   1  -5  12    2.00    2.35
   1  -4  12    1.23    1.83
   1  -4  11    0.21    0.97
   1  -4  10   15.68    1.48
   1  -4   9  127.80    6.09
   1  -4   8  290.82    9.85
   1  -4   7  126.13    4.66
   1  -4   6   17.66    1.53
   1  -4   5    9.03    1.27
   1  -4   4   44.21    2.13
   1  -4   3  615.53   18.20
   1  -4   2  798.71   20.89
   1  -4   1  278.04   12.43
   1  -3   1  172.30    6.29
   1  -3   2  231.15   11.34
   1  -3   3  441.04   15.40
   1  -3   4  296.00   12.91
   1  -3   5   11.49    1.13
   1  -3   6   36.24    1.88
   1  -3   7   18.57    1.69
   1  -3   8    5.47    1.12
   1  -3   9    2.17    1.40
   1  -3  10   19.46    1.86
   1  -3  11   11.20    2.08
   1  -3  12    1.01    1.53
   1  -3  13    5.28    1.73
   1  -2  13    3.70    2.18
   1  -2  12    3.53    1.76
   1  -2  11   66.94    3.58
   1  -2  10  162.46    6.56
   1  -2   9  177.92    7.25
   1  -2   8    5.27    1.18
   1  -2   7   30.55    1.68
   1  -2   6   37.59    1.76
   1  -2   5   30.63    1.51
   1  -2   4    7.03    0.94
   1  -2   3    1.22    0.65
   1  -2   2    1.13    0.69
   1  -2   1   30.03    1.00
   1  -1   1    0.21    0.39
   1  -1   2  241.54    8.36
   1  -1   3   20.34    0.97
   1  -1   4   33.99    1.41
   1  -1   5  641.13   18.57
   1  -1   6  997.46   22.21
   1  -1   7  735.10   17.87
   1  -1   8  153.73    5.66
   1  -1   9   31.20    2.02
   1  -1  10   19.41    1.68
   1  -1  11   14.34    1.39
   1  -1  12    4.24    2.40
   1  -1  13    2.64    2.29
   1   0  14    8.71    2.23
   1   0  13   36.17    3.64
   1   0  12   16.68    2.55
   1   0  11    0.25    0.99
   1   0  10   40.97    2.23
   1   0   9   -0.03    0.84
   1   0   8  217.51    9.57
   1   0   7  801.88   19.53
   1   0   6 1059.25   23.04
   1   0   5  412.89   15.10
   1   0   4   17.32    1.08
   1   0   3   83.47    3.11
   1   0   2  468.87   10.76
   1   0   1   55.15    1.84
   1   1   1  871.54   12.95
   1   1   2  330.88    9.55
   1   1   3   99.57    3.87
   1   1   4   96.38    4.25
   1   1   5   58.44    1.82
   1   1   6  141.84    5.74
   1   1   7    5.12    0.96
   1   1   8    1.32    0.75
   1   1   9   46.98    2.26
   1   1  10    1.56    0.98
   1   1  11    1.86    1.01
   1   1  12    7.95    2.11
   1   1  13   97.34    4.94
   1   1  14   79.86    4.72
   1   2  14   46.44    4.14
   1   2  13   57.16    3.96
   1   2  12   33.35    3.25
   1   2  11    1.82    1.15
   1   2  10   37.56    2.07
   1   2   9   93.13    3.49
   1   2   8  217.55    9.57
   1   2   7  280.94   11.96
   1   2   6  206.12    7.28
   1   2   5    5.74    1.15
   1   2   4    1.73    0.76
   1   2   3    0.41    0.63
   1   2   2  220.34    9.07
   1   2   1   94.25    3.24
   1   3   1   54.50    2.54
   1   3   2   45.63    2.04
   1   3   3  216.93   10.67
   1   3   4 1170.24   25.13
   1   3   5  448.82   15.43
   1   3   6  246.41   11.26
   1   3   7  137.41    4.96
   1   3   8  220.22    9.67
   1   3   9   62.20    2.50
   1   3  10   46.48    2.38
   1   3  11   13.02    1.49
   1   3  12   12.93    2.51
   1   3  13    2.23    1.30
   1   3  14    1.30    1.80
   1   4  13    7.37    2.67
   1   4  12    3.58    1.53
   1   4  11    5.33    1.26
   1   4  10   -0.62    0.95
   1   4   9    0.63    0.91
   1   4   8    0.63    0.96
   1   4   7   35.19    1.96
   1   4   6  256.88   11.28
   1   4   5  846.25   20.89
   1   4   4 1304.52   26.33
   1   4   3  407.97   14.78
   1   4   2   87.23    3.22
   1   4   1    2.93    0.83
   1   5   1   44.90    1.75
   1   5   2   33.55    1.57
   1   5   3   80.99    3.86
   1   5   4  253.21   11.76
   1   5   5  122.05    4.55
   1   5   6    0.41    0.87
   1   5   7    5.84    1.55
   1   5   8   28.76    1.89
   1   5   9    0.20    1.24
   1   5  10   26.55    1.87
   1   5  11  149.69    5.52
   1   5  12  123.44    5.19
   1   5  13   44.00    4.34
   1   6  13   19.46    3.15
   1   6  12   82.38    4.63
   1   6  11   62.98    3.76
   1   6  10   12.74    1.43
   1   6   9    1.77    0.88
   1   6   8    0.47    0.95
   1   6   7   76.90    2.73
   1   6   6  152.65    5.19
   1   6   5  129.96    4.61
   1   6   4   65.20    2.85
   1   6   3   -1.34    0.72
   1   6   2   18.36    1.60
   1   6   1   52.87    2.14
   1   7   1   46.37    2.18
   1   7   2  201.19    9.68
   1   7   3  256.84   10.58
   1   7   4   94.54    3.60
   1   7   5   65.77    2.78
   1   7   6  138.53    4.74
   1   7   7  114.69    4.21
   1   7   8   41.18    2.45
   1   7   9   17.58    1.56
   1   7  10   21.99    2.50
   1   7  11    8.08    2.87
   1   7  12    0.82    1.94
   1   8  11    0.97    2.02
   1   8  10    1.19    1.26
   1   8   9    1.65    1.26
   1   8   8   13.85    1.66
   1   8   7   24.54    2.04
   1   8   6   20.20    2.00
   1   8   5   34.19    1.93
   1   8   4  225.06    8.55
   1   8   3  398.36   11.72
   1   8   2  407.62   12.30
   1   8   1   45.11    2.22
   1   9   1   44.04    2.33
   1   9   2   15.04    1.68
   1   9   3    6.75    1.62
   1   9   4   27.74    2.20
   1   9   5    4.23    1.21
   1   9   6    9.01    1.31
   1   9   7   10.55    1.75
   1   9   8    1.30    1.57
   1   9   9   38.41    3.46
   1   9  10   52.20    4.40
   1  10   9   33.25    3.64
   1  10   8    5.64    2.01
   1  10   7   -0.82    1.00
   1  10   6    1.10    1.38
   1  10   5    9.17    1.97
   1  10   4   41.48    2.36
   1  10   3   11.77    1.64
   1  10   2    3.65    1.27
   1  10   1    1.09    1.40
   1  11   1   17.97    2.63
   1  11   2   28.34    2.90
   1  11   3   28.48    3.05
   1  11   4   33.37    2.94
   1  11   5   11.58    3.22
   1  11   6   18.24    3.05
   1  11   7   19.79    3.00
   1  11   8    9.13    2.89
   1  12   5   16.75    2.93
   1  12   4   16.91    3.27
   1  12   3    8.15    2.23
   1  12   2   26.97    3.82
   1  12   1   54.66    4.01
   1  12   0   39.24    4.14
   1  12  -1    7.63    2.43
   1  12  -2    0.62    1.59
   1  11  -5    9.37    2.35
   1  11  -4    3.73    1.93
   1  11  -3    5.77    2.09
   1  11  -2   16.71    2.92
   1  11  -1   -0.36    1.31
   1  11   0   10.79    2.61
   1  10   0    4.19    1.34
   1  10  -1   26.47    1.79
   1  10  -2   37.89    3.23
   1  10  -3   45.45    3.47
   1  10  -4   12.33    2.45
   1  10  -5    9.36    2.30
   1  10  -6   37.42    4.19
   1   9  -8   -0.78    1.41
   1   9  -7    5.20    2.45
   1   9  -6   14.13    2.29
   1   9  -5   10.10    2.94
   1   9  -4   60.16    2.51
   1   9  -3   77.33    2.87
   1   9  -2   56.63    2.57
   1   9  -1   24.75    1.86
   1   9   0   41.76    2.19
   1   8   0   14.29    1.45
   1   8  -1   14.64    1.47
   1   8  -2    0.28    0.96
   1   8  -3    3.74    1.28
   1   8  -4   31.90    2.05
   1   8  -5    0.44    1.01
   1   8  -6   -1.16    1.03
   1   8  -7    1.56    1.38
   1   8  -8    9.95    2.51
   1   8  -9   17.22    3.14
   1   7 -10   20.46    3.11
   1   7  -9    2.72    2.50
   1   7  -8    0.99    1.66
   1   7  -7    9.88    1.61
   1   7  -6   69.45    2.74
   1   7  -5  102.67    3.59
   1   7  -4  141.65    4.54
   1   7  -3   58.17    2.53
   1   7  -2   27.89    1.88
   1   7  -1   23.44    1.71
   1   7   0    0.05    1.00
   1   6   0  252.26   11.46
   1   6  -1   56.73    2.16
   1   6  -2   16.99    1.45
   1   6  -3   83.04    3.21
   1   6  -4  437.05   13.23
   1   6  -5  361.40   11.78
   1   6  -6  181.79    8.03
   1   6  -7    6.60    1.25
   1   6  -8    2.81    1.42
   1   6  -9    0.43    1.54
   1   6 -10    1.41    1.63
   1   6 -11   -1.86    1.74
   1   5 -11   34.96    3.61
   1   5 -10    8.46    2.12
   1   5  -9    3.28    1.34
   1   5  -8    1.78    1.14
   1   5  -7    3.91    1.85
   1   5  -6    7.60    1.49
   1   5  -5  110.64    4.18
   1   5  -4  150.26    6.12
   1   5  -3  136.97    5.36
   1   5  -2  227.44   11.23
   1   5  -1  425.31   15.60
   1   5   0  384.84   14.89
   1   4   0   24.58    1.29
   1   4  -1  577.43   18.27
   1   4  -2  268.93    8.61
   1   4  -3   32.59    1.73
   1   4  -4    2.31    1.01
   1   4  -5    2.33    1.21
   1   4  -6   37.48    2.30
   1   4  -7  146.75    5.19
   1   4  -8  141.07    6.88
   1   4  -9   14.20    1.78
   1   4 -10   20.25    2.42
   1   4 -11   48.98    3.87
   1   4 -12   63.16    4.92
   1   3 -12   11.62    2.76
   1   3 -11   36.57    3.52
   1   3 -10   68.85    2.68
   1   3  -9  123.08    5.59
   1   3  -8  151.11    7.19
   1   3  -7   39.54    2.06
   1   3  -6   12.08    1.56
   1   3  -5   33.31    1.78
   1   3  -4   58.75    2.87
   1   3  -3  521.12   17.21
   1   3  -2  369.61   13.82
   1   3  -1   22.14    1.13
   1   3   0   10.13    0.87
   1   2   0   20.38    0.88
   1   2  -1  407.92   11.78
   1   2  -2 1411.51   23.71
   1   2  -3 3096.88   38.50
   1   2  -4 1534.20   28.68
   1   2  -5   36.18    1.86
   1   2  -6    6.42    1.13
   1   2  -7    0.79    1.28
   1   2  -8    6.41    1.53
   1   2  -9    8.70    1.36
   1   2 -10    1.19    1.29
   1   2 -11   -0.12    1.06
   1   2 -12   -1.81    1.36
   1   2 -13    0.42    1.80
   1   1 -13    3.96    2.61
   1   1 -12   15.05    2.73
   1   1 -11  115.04    4.60
   1   1 -10  204.48    6.75
   1   1  -9   77.14    2.94
   1   1  -8    2.39    1.45
   1   1  -7    2.38    0.98
   1   1  -6   21.04    1.66
   1   1  -5    1.96    0.91
   1   1  -4  380.80   14.39
   1   1  -3  641.39   16.37
   1   1  -2  620.85   14.34
   1   1  -1  255.18    8.11
   1   1   0 1660.36   17.81
   1   0   0  463.57    8.17
   1   0  -1  416.67    9.08
   1   0  -2  370.96   10.18
   1   0  -3   13.47    0.93
   1   0  -4    3.77    0.84
   1   0  -5  181.31    6.90
   1   0  -6  216.38   10.49
   1   0  -7   50.29    2.16
   1   0  -8   13.28    1.49
   1   0  -9  135.20    4.56
   1   0 -10  218.15    7.37
   1   0 -11  187.65    5.92
   1   0 -12   27.34    2.79
   1   0 -13    2.66    2.40
   1  -1 -13    0.06    2.15
   1  -1 -12    2.90    1.61
   1  -1 -11   13.16    1.44
   1  -1 -10   84.49    3.05
   1  -1  -9   62.38    2.47
   1  -1  -8  211.38    9.16
   1  -1  -7  348.29   12.52
   1  -1  -6  285.47   12.18
   1  -1  -5  104.90    4.04
   1  -1  -4    5.92    0.88
   1  -1  -3   98.65    4.06
   1  -1  -2 2230.75   26.07
   1  -1  -1  419.07   10.20
   1  -1   0  113.95    5.12
   1  -2   0 3631.73   32.00
   1  -2  -1 1617.46   22.57
   1  -2  -2  406.11   12.63
   1  -2  -3  160.54    6.29
   1  -2  -4  118.72    5.05
   1  -2  -5   10.88    1.02
   1  -2  -6  105.39    4.70
   1  -2  -7   54.12    2.62
   1  -2  -8   93.85    3.66
   1  -2  -9   -1.06    1.28
   1  -2 -10    5.47    1.45
   1  -2 -11    0.40    1.18
   1  -2 -12    4.33    1.87
   1  -2 -13   34.05    3.64
   1  -3 -13    6.78    2.33
   1  -3 -12    3.28    1.68
   1  -3 -11    1.46    1.72
   1  -3 -10   58.08    2.57
   1  -3  -9  117.93    4.19
   1  -3  -8  157.72    5.48
   1  -3  -7  142.19    5.34
   1  -3  -6   12.59    1.23
   1  -3  -5   18.40    1.31
   1  -3  -4    8.16    0.95
   1  -3  -3   55.37    2.36
   1  -3  -2 1020.93   21.78
   1  -3  -1 1477.03   25.08
   1  -3   0 1029.30   20.25
   1  -4   0    3.16    0.85
   1  -4  -1   66.55    3.13
   1  -4  -2    0.98    0.70
   1  -4  -3   18.13    1.20
   1  -4  -4    9.46    1.20
   1  -4  -5    1.36    0.91
   1  -4  -6   27.28    1.65
   1  -4  -7  191.25    8.64
   1  -4  -8  481.20   12.57
   1  -4  -9  190.67    7.22
   1  -4 -10  105.55    5.05
   1  -4 -11   19.93    2.93
   1  -4 -12   14.71    2.97
   1  -4 -13    3.09    1.69
   1  -5 -12    2.73    2.76
   1  -5 -11    4.54    1.80
   1  -5 -10   14.19    2.45
   1  -5  -9   50.77    2.39
   1  -5  -8  145.67    4.57
   1  -5  -7   99.06    3.52
   1  -5  -6  114.63    4.65
   1  -5  -5  194.76    6.69
   1  -5  -4  308.32   12.25
   1  -5  -3   24.41    1.55
   1  -5  -2    9.74    1.09
   1  -5  -1    2.96    0.88
   1  -5   0   16.60    1.23
   1  -6   0  798.82   19.78
   1  -6  -1  132.80    4.98
   1  -6  -2    9.48    1.20
   1  -6  -3    8.18    1.26
   1  -6  -4   89.05    3.54
   1  -6  -5  125.85    4.64
   1  -6  -6   30.78    1.86
   1  -6  -7   13.45    1.89
   1  -6  -8    9.01    1.61
   1  -6  -9    1.12    1.02
   1  -6 -10    6.36    1.85
   1  -6 -11    8.24    2.61
   1  -6 -12    0.15    1.97
   1  -7 -11   15.00    3.25
   1  -7 -10    4.73    1.92
   1  -7  -9    2.42    1.84
   1  -7  -8   19.50    1.83
   1  -7  -7   63.82    2.65
   1  -7  -6   41.43    2.24
   1  -7  -5   -0.55    1.00
   1  -7  -4    5.36    1.25
   1  -7  -3   61.97    2.45
   1  -7  -2   85.30    3.25
   1  -7  -1   93.79    3.56
   1  -7   0  279.18   11.17
   1  -8   0   14.59    1.68
   1  -8  -1    3.92    1.36
   1  -8  -2    0.38    0.93
   1  -8  -3    1.90    1.17
   1  -8  -4    2.92    1.09
   1  -8  -5   53.37    2.46
   1  -8  -6  157.70    6.06
   1  -8  -7  162.72    5.72
   1  -8  -8   39.58    3.35
   1  -8  -9   12.68    2.04
   1  -8 -10    3.31    2.55
   1  -8 -11    0.76    1.74
   1  -9 -10    3.63    2.37
   1  -9  -9    6.74    2.29
   1  -9  -8   35.73    3.23
   1  -9  -7   57.18    3.66
   1  -9  -6   46.83    3.42
   1  -9  -5   42.57    2.11
   1  -9  -4   40.48    2.14
   1  -9  -3   43.73    2.30
   1  -9  -2   46.00    2.28
   1  -9  -1    6.96    1.46
   1  -9   0    1.08    1.45
   1 -10   0    1.26    1.63
   1 -10  -1    5.01    2.16
   1 -10  -2   20.67    2.28
   1 -10  -3   29.52    2.99
   1 -10  -4   50.99    3.82
   1 -10  -5   18.82    2.63
   1 -10  -6    3.56    1.69
   1 -10  -7    1.14    1.65
   1 -10  -8    0.76    1.47
   1 -11  -7    0.11    1.49
   1 -11  -6    3.53    1.79
   1 -11  -5    2.61    1.70
   1 -11  -4   17.28    2.59
   1 -11  -3    2.74    1.73
   1 -11  -2   11.62    1.88
   1 -11  -1   12.89    2.45
   1 -11   0   20.79    3.06
   1 -12   0    0.93    1.88
   1 -12  -1    5.29    2.02
   1 -12  -2    2.30    1.68
   1 -12  -3    0.96    1.85
   1 -12  -4   20.83    3.49
   0   0   0    0.00    0.00
;
_shelx_hkl_checksum              62084
_shelx_res_file
;
    JT507B.res created by SHELXL-2014/7
TITL jt507b in P-1
CELL 0.71073   8.1594   9.2419  10.4393  82.454  77.443  82.281
ZERR    2.00   0.0006   0.0006   0.0007   0.006   0.006   0.004
LATT  1
SFAC C H S CL PD
UNIT 28 24 4 4 2
TEMP 24
L.S. 20
FMAP 2
PLAN 10
ACTA
BOND $H
CONF
EQIV $1 -x+1, -y+1, -z+1
EQIV $2 -x, -y, -z+1
HTAB C5  Cl1_$1
HTAB C12 Cl2_$2
WGHT    0.026400    0.199500
EXTI    0.006528
FVAR       0.35589
PD1   5    0.352008    0.131190    0.535852    11.00000    0.03337    0.03475 =
         0.02738   -0.00404   -0.00776   -0.00566
CL1   4    0.533840    0.199423    0.654465    11.00000    0.05148    0.05027 =
         0.03937   -0.00624   -0.01924   -0.01366
CL2   4    0.220357   -0.022434    0.711752    11.00000    0.05313    0.04946 =
         0.03458    0.00327   -0.01017   -0.01768
S1    3    0.169091    0.090969    0.411327    11.00000    0.03409    0.03409 =
         0.03074   -0.00348   -0.00686   -0.00838
C2    1    0.274929    0.146210    0.246792    11.00000    0.03011    0.03804 =
         0.02828   -0.00604   -0.00658    0.00341
C3    1    0.397494    0.241030    0.229074    11.00000    0.03270    0.03899 =
         0.02927   -0.00337   -0.00390    0.00030
S4    3    0.448744    0.301127    0.369541    11.00000    0.03187    0.04344 =
         0.03402   -0.00166   -0.00707   -0.01038
C5    1    0.277712    0.454465    0.410767    11.00000    0.04584    0.03598 =
         0.04858   -0.01005   -0.01169   -0.00844
AFIX  23
H5A   2    0.221816    0.435140    0.502321    11.00000   -1.20000
H5B   2    0.329427    0.544724    0.402394    11.00000   -1.20000
AFIX   0
C6    1    0.147017    0.477622    0.327281    11.00000    0.03646    0.03699 =
         0.03932   -0.00808   -0.00407   -0.00331
C7    1    0.145583    0.601727    0.234726    11.00000    0.05202    0.03772 =
         0.05880    0.00142   -0.00916   -0.00873
AFIX  43
H7A   2    0.226628    0.666134    0.225892    11.00000   -1.20000
AFIX   0
C8    1    0.026451    0.630566    0.156283    11.00000    0.07174    0.04981 =
         0.06846    0.01042   -0.02664   -0.00129
AFIX  43
H8A   2    0.026238    0.714561    0.096506    11.00000   -1.20000
AFIX   0
C9    1   -0.091219    0.535044    0.166901    11.00000    0.05807    0.05891 =
         0.07491    0.00717   -0.03146   -0.00032
AFIX  43
H9A   2   -0.169950    0.553340    0.112719    11.00000   -1.20000
AFIX   0
C10   1   -0.094262    0.411523    0.257421    11.00000    0.03607    0.05130 =
         0.06461   -0.00798   -0.01601   -0.00340
AFIX  43
H10A  2   -0.175273    0.347784    0.263379    11.00000   -1.20000
AFIX   0
C11   1    0.022313    0.380913    0.340044    11.00000    0.03159    0.03662 =
         0.04263   -0.00870   -0.00591   -0.00100
C12   1    0.003993    0.250089    0.441427    11.00000    0.02759    0.04347 =
         0.04257   -0.00930    0.00015   -0.00768
AFIX  23
H12A  2   -0.105390    0.216876    0.446887    11.00000   -1.20000
H12B  2    0.004461    0.281170    0.526545    11.00000   -1.20000
AFIX   0
C13   1    0.234009    0.095382    0.140169    11.00000    0.04753    0.04809 =
         0.03815   -0.01242   -0.01338   -0.00241
AFIX  43
H13A  2    0.151603    0.031600    0.152573    11.00000   -1.20000
AFIX   0
C14   1    0.319166    0.141961    0.013546    11.00000    0.05973    0.06801 =
         0.03253   -0.01275   -0.01529    0.00498
AFIX  43
H14A  2    0.293902    0.108798   -0.059516    11.00000   -1.20000
AFIX   0
C15   1    0.439945    0.236443   -0.003528    11.00000    0.05750    0.07994 =
         0.02621   -0.00446   -0.00049   -0.00186
AFIX  43
H15A  2    0.495294    0.266878   -0.088537    11.00000   -1.20000
AFIX   0
C16   1    0.481501    0.287719    0.103219    11.00000    0.04329    0.06376 =
         0.03422    0.00084   -0.00197   -0.00806
AFIX  43
H16A  2    0.563644    0.351787    0.090597    11.00000   -1.20000
AFIX   0
HKLF 4
REM  jt507b in P-1
REM R1 =  0.0318 for    3154 Fo > 4sig(Fo)  and  0.0477 for all    4021 data
REM    173 parameters refined using      0 restraints
END
WGHT      0.0262      0.2012
REM Highest difference peak  0.477,  deepest hole -0.528,  1-sigma level  0.092
Q1    1   0.4558  0.2556  0.6758  11.00000  0.05    0.48
Q2    1   0.1570  0.0325  0.7079  11.00000  0.05    0.43
Q3    1   0.2862  0.1127  0.4331  11.00000  0.05    0.42
Q4    1   0.2577  0.2408  0.5881  11.00000  0.05    0.40
Q5    1   0.4927  0.1366  0.5178  11.00000  0.05    0.37
Q6    1   0.3712  0.3915  0.4008  11.00000  0.05    0.37
Q7    1   0.4487  0.3133 -0.0795  11.00000  0.05    0.34
Q8    1   0.2380  0.0821  0.6468  11.00000  0.05    0.33
Q9    1   0.3707  0.2632  0.5639  11.00000  0.05    0.33
Q10   1   0.2018  0.1257  0.5432  11.00000  0.05    0.32
;
_shelx_res_checksum              3465
loop_
_space_group_symop_operation_xyz
'x, y, z'
'-x, -y, -z'
loop_
_atom_site_type_symbol
_atom_site_label
_atom_site_fract_x
_atom_site_fract_y
_atom_site_fract_z
_atom_site_U_iso_or_equiv
_atom_site_adp_type
_atom_site_calc_flag
_atom_site_occupancy
Pd Pd1 0.35201(3) 0.13119(2) 0.53585(2) 0.03134(9) Uani d 1
Cl Cl1 0.53384(11) 0.19942(9) 0.65447(8) 0.04461(19) Uani d 1
Cl Cl2 0.22036(11) -0.02243(9) 0.71175(7) 0.04510(19) Uani d 1
S S1 0.16909(9) 0.09097(8) 0.41133(7) 0.03249(16) Uani d 1
C C2 0.2749(4) 0.1462(3) 0.2468(3) 0.0325(6) Uani d 1
C C3 0.3975(4) 0.2410(3) 0.2291(3) 0.0344(6) Uani d 1
S S4 0.44874(10) 0.30113(8) 0.36954(7) 0.03602(17) Uani d 1
C C5 0.2777(4) 0.4545(3) 0.4108(3) 0.0423(7) Uani d 1
H H5A 0.2218 0.4351 0.5023 0.051 Uiso calc 1
H H5B 0.3294 0.5447 0.4024 0.051 Uiso calc 1
C C6 0.1470(4) 0.4776(3) 0.3273(3) 0.0378(7) Uani d 1
C C7 0.1456(5) 0.6017(4) 0.2347(4) 0.0501(8) Uani d 1
H H7A 0.2266 0.6661 0.2259 0.060 Uiso calc 1
C C8 0.0265(6) 0.6306(4) 0.1563(4) 0.0635(11) Uani d 1
H H8A 0.0262 0.7146 0.0965 0.076 Uiso calc 1
C C9 -0.0912(5) 0.5350(4) 0.1669(4) 0.0631(11) Uani d 1
H H9A -0.1700 0.5533 0.1127 0.076 Uiso calc 1
C C10 -0.0943(4) 0.4115(4) 0.2574(4) 0.0497(8) Uani d 1
H H10A -0.1753 0.3478 0.2634 0.060 Uiso calc 1
C C11 0.0223(4) 0.3809(3) 0.3400(3) 0.0370(6) Uani d 1
C C12 0.0040(4) 0.2501(3) 0.4414(3) 0.0382(7) Uani d 1
H H12A -0.1054 0.2169 0.4469 0.046 Uiso calc 1
H H12B 0.0045 0.2812 0.5265 0.046 Uiso calc 1
C C13 0.2340(5) 0.0954(4) 0.1402(3) 0.0434(7) Uani d 1
H H13A 0.1516 0.0316 0.1526 0.052 Uiso calc 1
C C14 0.3192(5) 0.1420(4) 0.0135(3) 0.0530(9) Uani d 1
H H14A 0.2939 0.1088 -0.0595 0.064 Uiso calc 1
C C15 0.4399(5) 0.2364(5) -0.0035(3) 0.0564(10) Uani d 1
H H15A 0.4953 0.2669 -0.0885 0.068 Uiso calc 1
C C16 0.4815(5) 0.2877(4) 0.1032(3) 0.0483(8) Uani d 1
H H16A 0.5636 0.3518 0.0906 0.058 Uiso calc 1
loop_
_atom_site_aniso_label
_atom_site_aniso_U_11
_atom_site_aniso_U_22
_atom_site_aniso_U_33
_atom_site_aniso_U_12
_atom_site_aniso_U_13
_atom_site_aniso_U_23
Pd1 0.03337(13) 0.03475(13) 0.02738(12) -0.00566(9) -0.00776(8) -0.00404(8)
Cl1 0.0515(5) 0.0503(4) 0.0394(4) -0.0137(4) -0.0192(4) -0.0062(3)
Cl2 0.0531(5) 0.0495(4) 0.0346(4) -0.0177(4) -0.0102(3) 0.0033(3)
S1 0.0341(4) 0.0341(3) 0.0307(3) -0.0084(3) -0.0069(3) -0.0035(3)
C2 0.0301(14) 0.0380(14) 0.0283(13) 0.0034(12) -0.0066(11) -0.0060(11)
C3 0.0327(15) 0.0390(15) 0.0293(13) 0.0003(12) -0.0039(12) -0.0034(11)
S4 0.0319(4) 0.0434(4) 0.0340(4) -0.0104(3) -0.0071(3) -0.0017(3)
C5 0.0458(19) 0.0360(15) 0.0486(18) -0.0084(14) -0.0117(15) -0.0101(13)
C6 0.0365(16) 0.0370(15) 0.0393(15) -0.0033(13) -0.0041(13) -0.0081(12)
C7 0.052(2) 0.0377(17) 0.059(2) -0.0087(16) -0.0092(17) 0.0014(15)
C8 0.072(3) 0.050(2) 0.068(3) -0.001(2) -0.027(2) 0.0104(19)
C9 0.058(2) 0.059(2) 0.075(3) 0.000(2) -0.031(2) 0.007(2)
C10 0.0361(17) 0.0513(19) 0.065(2) -0.0034(15) -0.0160(16) -0.0080(17)
C11 0.0316(15) 0.0366(15) 0.0426(16) -0.0010(12) -0.0059(13) -0.0087(12)
C12 0.0276(15) 0.0435(16) 0.0426(16) -0.0077(13) 0.0001(13) -0.0093(13)
C13 0.0475(19) 0.0481(17) 0.0381(16) -0.0024(15) -0.0134(14) -0.0124(14)
C14 0.060(2) 0.068(2) 0.0325(16) 0.005(2) -0.0153(16) -0.0127(16)
C15 0.057(2) 0.080(3) 0.0262(15) -0.002(2) -0.0005(15) -0.0045(16)
C16 0.0433(19) 0.064(2) 0.0342(16) -0.0081(17) -0.0020(14) 0.0008(15)
loop_
_atom_type_symbol
_atom_type_description
_atom_type_scat_dispersion_real
_atom_type_scat_dispersion_imag
_atom_type_scat_source
C C 0.0033 0.0016 'International Tables Vol C Tables 4.2.6.8 and 6.1.1.4'
H H 0.0000 0.0000 'International Tables Vol C Tables 4.2.6.8 and 6.1.1.4'
S S 0.1246 0.1234 'International Tables Vol C Tables 4.2.6.8 and 6.1.1.4'
Cl Cl 0.1484 0.1585 'International Tables Vol C Tables 4.2.6.8 and 6.1.1.4'
Pd Pd -0.9988 1.0072 'International Tables Vol C Tables 4.2.6.8 and 6.1.1.4'
loop_
_diffrn_standard_refln_index_h
_diffrn_standard_refln_index_k
_diffrn_standard_refln_index_l
-2 1 0
1 -1 -2
-2 -1 -3
loop_
_geom_angle_atom_site_label_1
_geom_angle_atom_site_label_2
_geom_angle_atom_site_label_3
_geom_angle_site_symmetry_3
_geom_angle
S4 Pd1 S1 . 86.69(3)
S4 Pd1 Cl1 . 88.30(3)
S1 Pd1 Cl1 . 173.68(3)
S4 Pd1 Cl2 . 172.50(3)
S1 Pd1 Cl2 . 90.62(3)
Cl1 Pd1 Cl2 . 93.88(3)
S4 Pd1 Pd1 2_656 97.81(2)
S1 Pd1 Pd1 2_656 100.64(2)
Cl1 Pd1 Pd1 2_656 83.85(2)
Cl2 Pd1 Pd1 2_656 89.56(2)
C2 S1 C12 . 100.75(13)
C2 S1 Pd1 . 103.05(10)
C12 S1 Pd1 . 101.42(10)
C13 C2 C3 . 121.1(3)
C13 C2 S1 . 120.4(2)
C3 C2 S1 . 118.5(2)
C2 C3 C16 . 120.4(3)
C2 C3 S4 . 119.5(2)
C16 C3 S4 . 120.1(3)
C3 S4 C5 . 102.25(14)
C3 S4 Pd1 . 103.28(10)
C5 S4 Pd1 . 98.12(11)
C6 C5 S4 . 115.1(2)
C6 C5 H5A . 108.5
S4 C5 H5A . 108.5
C6 C5 H5B . 108.5
S4 C5 H5B . 108.5
H5A C5 H5B . 107.5
C7 C6 C11 . 118.6(3)
C7 C6 C5 . 118.6(3)
C11 C6 C5 . 122.7(3)
C8 C7 C6 . 121.4(3)
C8 C7 H7A . 119.3
C6 C7 H7A . 119.3
C9 C8 C7 . 119.7(3)
C9 C8 H8A . 120.2
C7 C8 H8A . 120.2
C8 C9 C10 . 120.6(4)
C8 C9 H9A . 119.7
C10 C9 H9A . 119.7
C9 C10 C11 . 121.1(4)
C9 C10 H10A . 119.5
C11 C10 H10A . 119.5
C10 C11 C6 . 118.6(3)
C10 C11 C12 . 117.9(3)
C6 C11 C12 . 123.5(3)
C11 C12 S1 . 115.9(2)
C11 C12 H12A . 108.3
S1 C12 H12A . 108.3
C11 C12 H12B . 108.3
S1 C12 H12B . 108.3
H12A C12 H12B . 107.4
C2 C13 C14 . 118.5(3)
C2 C13 H13A . 120.8
C14 C13 H13A . 120.8
C15 C14 C13 . 120.2(3)
C15 C14 H14A . 119.9
C13 C14 H14A . 119.9
C14 C15 C16 . 121.5(3)
C14 C15 H15A . 119.3
C16 C15 H15A . 119.3
C3 C16 C15 . 118.3(3)
C3 C16 H16A . 120.8
C15 C16 H16A . 120.8
loop_
_geom_bond_atom_site_label_1
_geom_bond_atom_site_label_2
_geom_bond_site_symmetry_2
_geom_bond_distance
Pd1 S4 . 2.2638(8)
Pd1 S1 . 2.2749(8)
Pd1 Cl1 . 2.3211(8)
Pd1 Cl2 . 2.3257(8)
Pd1 Pd1 2_656 3.2234(5)
S1 C2 . 1.789(3)
S1 C12 . 1.866(3)
C2 C13 . 1.383(4)
C2 C3 . 1.384(4)
C3 C16 . 1.386(4)
C3 S4 . 1.782(3)
S4 C5 . 1.873(3)
C5 C6 . 1.495(5)
C5 H5A . 0.9700
C5 H5B . 0.9700
C6 C7 . 1.400(4)
C6 C11 . 1.416(4)
C7 C8 . 1.380(5)
C7 H7A . 0.9300
C8 C9 . 1.367(6)
C8 H8A . 0.9300
C9 C10 . 1.382(5)
C9 H9A . 0.9300
C10 C11 . 1.396(5)
C10 H10A . 0.9300
C11 C12 . 1.499(4)
C12 H12A . 0.9700
C12 H12B . 0.9700
C13 C14 . 1.395(5)
C13 H13A . 0.9300
C14 C15 . 1.371(5)
C14 H14A . 0.9300
C15 C16 . 1.388(5)
C15 H15A . 0.9300
C16 H16A . 0.9300
loop_
_geom_hbond_atom_site_label_D
_geom_hbond_atom_site_label_H
_geom_hbond_atom_site_label_A
_geom_hbond_site_symmetry_A
_geom_hbond_distance_DH
_geom_hbond_distance_HA
_geom_hbond_distance_DA
_geom_hbond_angle_DHA
_geom_hbond_publ_flag
C5 H5B Cl1 2_666 0.97 2.69 3.654(3) 172.3 no
C12 H12A Cl2 2_556 0.97 2.96 3.678(3) 131.7 no
loop_
_geom_torsion_atom_site_label_1
_geom_torsion_atom_site_label_2
_geom_torsion_atom_site_label_3
_geom_torsion_atom_site_label_4
_geom_torsion
C12 S1 C2 C13 -96.8(3)
Pd1 S1 C2 C13 158.7(2)
C12 S1 C2 C3 82.9(2)
Pd1 S1 C2 C3 -21.6(2)
C13 C2 C3 C16 0.3(5)
S1 C2 C3 C16 -179.4(2)
C13 C2 C3 S4 -178.9(2)
S1 C2 C3 S4 1.4(3)
C2 C3 S4 C5 -81.8(3)
C16 C3 S4 C5 99.0(3)
C2 C3 S4 Pd1 19.7(3)
C16 C3 S4 Pd1 -159.5(2)
C3 S4 C5 C6 3.7(3)
Pd1 S4 C5 C6 -101.9(2)
S4 C5 C6 C7 -108.3(3)
S4 C5 C6 C11 73.2(4)
C11 C6 C7 C8 -0.3(5)
C5 C6 C7 C8 -178.9(3)
C6 C7 C8 C9 -1.2(6)
C7 C8 C9 C10 1.4(7)
C8 C9 C10 C11 -0.1(6)
C9 C10 C11 C6 -1.4(5)
C9 C10 C11 C12 176.2(3)
C7 C6 C11 C10 1.6(5)
C5 C6 C11 C10 -179.9(3)
C7 C6 C11 C12 -175.9(3)
C5 C6 C11 C12 2.7(5)
C10 C11 C12 S1 109.4(3)
C6 C11 C12 S1 -73.1(3)
C2 S1 C12 C11 -10.0(3)
Pd1 S1 C12 C11 95.8(2)
C3 C2 C13 C14 -0.1(5)
S1 C2 C13 C14 179.7(2)
C2 C13 C14 C15 -0.3(5)
C13 C14 C15 C16 0.3(6)
C2 C3 C16 C15 -0.3(5)
S4 C3 C16 C15 178.9(3)
C14 C15 C16 C3 0.0(6)

_cod_database_fobs_code 1543419
