#------------------------------------------------------------------------------
#$Date: 2016-08-05 06:17:51 +0300 (Fri, 05 Aug 2016) $
#$Revision: 184918 $
#$URL: file:///home/coder/svn-repositories/cod/cif/1/54/38/1543841.cif $
#------------------------------------------------------------------------------
#
# This file is available in the Crystallography Open Database (COD),
# http://www.crystallography.net/
#
# All data on this site have been placed in the public domain by the
# contributors.
#
data_1543841
loop_
_publ_author_name
'Wang, He'
'Li, Lei'
'Yu, Songjie'
'Li, Yunyun'
'Li, Xingwei'
_publ_section_title
;
 Rh(III)-Catalyzed C-C/C-N Coupling of Imidates with \a-Diazo Imidamide:
 Synthesis of Isoquinoline-Fused Indoles.
;
_journal_issue                   12
_journal_name_full               'Organic letters'
_journal_page_first              2914
_journal_page_last               2917
_journal_paper_doi               10.1021/acs.orglett.6b01284
_journal_volume                  18
_journal_year                    2016
_chemical_formula_sum            'C18 H15 Br N2 O'
_chemical_formula_weight         355.23
_chemical_name_systematic
; 
 ? 
;
_space_group_crystal_system      triclinic
_space_group_IT_number           2
_space_group_name_Hall           '-P 1'
_space_group_name_H-M_alt        'P -1'
_symmetry_space_group_name_Hall  '-P 1'
_symmetry_space_group_name_H-M   'P -1'
_atom_sites_solution_hydrogens   geom
_audit_creation_method           SHELXL-2013
_cell_angle_alpha                107.346(4)
_cell_angle_beta                 97.071(4)
_cell_angle_gamma                111.202(4)
_cell_formula_units_Z            2
_cell_length_a                   8.1840(15)
_cell_length_b                   9.7886(17)
_cell_length_c                   10.6117(19)
_cell_measurement_reflns_used    1453
_cell_measurement_temperature    293(2)
_cell_measurement_theta_max      52.418
_cell_measurement_theta_min      5.061
_cell_volume                     730.6(2)
_computing_cell_refinement       'Bruker SMART'
_computing_data_collection       'Bruker SMART'
_computing_data_reduction        'Bruker SHELXTL'
_computing_molecular_graphics    'Bruker SHELXTL'
_computing_publication_material  'Bruker SHELXTL'
_computing_structure_refinement  'SHELXL-2013 (Sheldrick, 2013)'
_computing_structure_solution    'Bruker SHELXTL'
_diffrn_ambient_temperature      293(2)
_diffrn_measured_fraction_theta_full 0.998
_diffrn_measured_fraction_theta_max 0.997
_diffrn_measurement_device_type  'CCD area detector'
_diffrn_measurement_method       'phi and omega scans'
_diffrn_radiation_type           MoK\a
_diffrn_radiation_wavelength     0.71073
_diffrn_reflns_av_R_equivalents  0.0235
_diffrn_reflns_av_unetI/netI     0.0457
_diffrn_reflns_Laue_measured_fraction_full 0.998
_diffrn_reflns_Laue_measured_fraction_max 0.997
_diffrn_reflns_limit_h_max       10
_diffrn_reflns_limit_h_min       -9
_diffrn_reflns_limit_k_max       8
_diffrn_reflns_limit_k_min       -12
_diffrn_reflns_limit_l_max       13
_diffrn_reflns_limit_l_min       -13
_diffrn_reflns_number            4392
_diffrn_reflns_point_group_measured_fraction_full 0.998
_diffrn_reflns_point_group_measured_fraction_max 0.997
_diffrn_reflns_theta_full        25.242
_diffrn_reflns_theta_max         25.998
_diffrn_reflns_theta_min         2.082
_exptl_absorpt_coefficient_mu    2.816
_exptl_absorpt_correction_T_max  0.7456
_exptl_absorpt_correction_T_min  0.4895
_exptl_absorpt_correction_type   multi-scan
_exptl_absorpt_process_details   sadabs
_exptl_crystal_colour            colorless
_exptl_crystal_density_diffrn    1.615
_exptl_crystal_description       prismatic
_exptl_crystal_F_000             360
_exptl_crystal_size_max          0.220
_exptl_crystal_size_mid          0.170
_exptl_crystal_size_min          0.100
_refine_diff_density_max         0.293
_refine_diff_density_min         -0.320
_refine_diff_density_rms         0.065
_refine_ls_extinction_method     none
_refine_ls_goodness_of_fit_ref   0.998
_refine_ls_hydrogen_treatment    constr
_refine_ls_matrix_type           full
_refine_ls_number_parameters     201
_refine_ls_number_reflns         2864
_refine_ls_number_restraints     0
_refine_ls_restrained_S_all      0.998
_refine_ls_R_factor_all          0.0493
_refine_ls_R_factor_gt           0.0364
_refine_ls_shift/su_max          0.001
_refine_ls_shift/su_mean         0.000
_refine_ls_structure_factor_coef Fsqd
_refine_ls_weighting_details
'w=1/[\s^2^(Fo^2^)+(0.0542P)^2^] where P=(Fo^2^+2Fc^2^)/3'
_refine_ls_weighting_scheme      calc
_refine_ls_wR_factor_gt          0.0895
_refine_ls_wR_factor_ref         0.0950
_reflns_Friedel_coverage         0.000
_reflns_number_gt                2294
_reflns_number_total             2864
_reflns_threshold_expression     'I > 2\s(I)'
_cod_data_source_file            ol6b01284_si_001.cif
_cod_data_source_block           cd16291
_cod_database_code               1543841
_shelx_space_group_comment
; 
The symmetry employed for this shelxl refinement is uniquely defined 
by the following loop, which should always be used as a source of 
symmetry information in preference to the above space-group names. 
They are only intended as comments. 
;
_shelx_estimated_absorpt_t_min   0.576
_shelx_estimated_absorpt_t_max   0.766
_shelxl_version_number           2013-4
_shelx_res_file
; 
TITL cd16291 in P-1 
CELL 0.71073   8.1840   9.7886  10.6117 107.346  97.071 111.202 
ZERR    2.00   0.0015   0.0017   0.0019   0.004   0.004   0.004 
LATT 1 
SFAC C  H  N  O  Br 
UNIT 36 30 4 2 2 
OMIT  -3.00  52.00 
L.S. 10 
ACTA 
BOND  $H 
FMAP 2 
PLAN 20 
conf 
htab 
mpla n1 c1 > c8 
mpla n2 c7 > c15 
size 0.22 0.17 0.10 
wpdb -1 
WGHT    0.054200 
FVAR       0.33465 
BR1   5    0.522015    0.717731    0.519394    11.00000    0.06444    0.07678 = 
         0.02732    0.01564    0.00322    0.04577 
N1    3    1.185949    0.711660    1.078749    11.00000    0.03541    0.04249 = 
         0.02754    0.01168    0.00169    0.02239 
N2    3    1.001586    0.843766    1.156491    11.00000    0.03471    0.03991 = 
         0.02780    0.01154    0.00599    0.01964 
O1    4    0.809216    0.960407    1.208061    11.00000    0.04585    0.05574 = 
         0.02369    0.00852    0.00503    0.03231 
C1    1    1.203033    0.628444    0.955597    11.00000    0.03271    0.03341 = 
         0.03400    0.01371    0.00787    0.01498 
C2    1    1.317860    0.555369    0.929533    11.00000    0.04044    0.04390 = 
         0.04892    0.01755    0.00799    0.02416 
AFIX  43 
H2    2    1.398871    0.558030    1.000828    11.00000   -1.20000 
AFIX   0 
C3    1    1.309813    0.479033    0.796607    11.00000    0.04745    0.04802 = 
         0.05255    0.01482    0.01766    0.03177 
AFIX  43 
H3    2    1.386894    0.429796    0.777357    11.00000   -1.20000 
AFIX   0 
C4    1    1.188516    0.473828    0.689964    11.00000    0.05419    0.04814 = 
         0.03923    0.00960    0.01606    0.02940 
AFIX  43 
H4    2    1.185100    0.420419    0.600347    11.00000   -1.20000 
AFIX   0 
C5    1    1.073044    0.546087    0.714000    11.00000    0.04298    0.04388 = 
         0.03251    0.01111    0.00842    0.02218 
AFIX  43 
H5    2    0.993130    0.542425    0.641412    11.00000   -1.20000 
AFIX   0 
C6    1    1.077258    0.624926    0.848574    11.00000    0.03044    0.03141 = 
         0.03631    0.01384    0.00751    0.01462 
C7    1    0.981392    0.710675    0.914658    11.00000    0.02898    0.03203 = 
         0.02765    0.01105    0.00477    0.01444 
C8    1    1.051743    0.760069    1.054587    11.00000    0.03032    0.03316 = 
         0.02729    0.01066    0.00634    0.01404 
C9    1    0.873130    0.880694    1.115667    11.00000    0.03616    0.03661 = 
         0.02683    0.01105    0.00852    0.01861 
C10   1    0.787643    0.842622    0.975558    11.00000    0.03041    0.03537 = 
         0.02497    0.01044    0.00457    0.01597 
C11   1    0.841819    0.753686    0.871929    11.00000    0.02895    0.03165 = 
         0.02636    0.01007    0.00330    0.01223 
C12   1    0.758913    0.716121    0.734395    11.00000    0.03456    0.04010 = 
         0.02854    0.01186    0.00739    0.01816 
AFIX  43 
H12   2    0.791781    0.657321    0.664144    11.00000   -1.20000 
AFIX   0 
C13   1    0.629804    0.767314    0.705950    11.00000    0.03395    0.04273 = 
         0.02598    0.01200    0.00300    0.01657 
C14   1    0.573736    0.854173    0.805962    11.00000    0.03977    0.04747 = 
         0.03596    0.01689    0.00626    0.02659 
AFIX  43 
H14   2    0.484309    0.886235    0.782331    11.00000   -1.20000 
AFIX   0 
C15   1    0.652528    0.891441    0.939479    11.00000    0.03747    0.03964 = 
         0.02873    0.00719    0.00716    0.02216 
AFIX  43 
H15   2    0.616699    0.949890    1.007768    11.00000   -1.20000 
AFIX   0 
C16   1    1.294400    0.744930    1.212242    11.00000    0.04372    0.05808 = 
         0.02895    0.01240   -0.00016    0.02654 
AFIX 137 
H16A  2    1.259568    0.649987    1.231400    11.00000   -1.50000 
H16B  2    1.274894    0.822937    1.280643    11.00000   -1.50000 
H16C  2    1.420465    0.783870    1.212974    11.00000   -1.50000 
AFIX   0 
C17   1    0.888454    0.998078    1.349922    11.00000    0.04246    0.05234 = 
         0.02527    0.01098    0.00585    0.02562 
AFIX  23 
H17A  2    1.019072    1.056774    1.372450    11.00000   -1.20000 
H17B  2    0.862341    0.902311    1.368680    11.00000   -1.20000 
AFIX   0 
C18   1    0.806434    1.095194    1.431842    11.00000    0.05678    0.06393 = 
         0.03132    0.00734    0.00663    0.03718 
AFIX 137 
H18A  2    0.828565    1.187122    1.409236    11.00000   -1.50000 
H18B  2    0.859908    1.126899    1.527435    11.00000   -1.50000 
H18C  2    0.678012    1.034098    1.411608    11.00000   -1.50000 
AFIX   0 
HKLF 4 
  
REM  cd16291 in P-1 
REM R1 =  0.0364 for    2294 Fo > 4sig(Fo)  and  0.0493 for all    2864 data 
REM    201 parameters refined using      0 restraints 
  
END 
  
WGHT      0.0538      0.0000 
  
REM No hydrogen bonds found for HTAB generation 
  
REM Highest difference peak  0.293,  deepest hole -0.320,  1-sigma level  0.065 
Q1    1   0.5079  0.6716  0.5790  11.00000  0.05    0.29 
Q2    1   0.5766  0.7504  0.6283  11.00000  0.05    0.28 
Q3    1   0.6361  0.8007  0.5588  11.00000  0.05    0.27 
Q4    1   1.0320  0.7540  0.9805  11.00000  0.05    0.26 
Q5    1   1.2221  0.7120  1.1398  11.00000  0.05    0.26 
Q6    1   0.7180  0.8553  0.9569  11.00000  0.05    0.25 
Q7    1   0.5231  0.7205  0.4370  11.00000  0.05    0.24 
Q8    1   1.1602  0.6372  0.8958  11.00000  0.05    0.24 
Q9    1   1.2573  0.7424  1.2973  11.00000  0.05    0.24 
Q10   1   0.8005  0.7353  0.8050  11.00000  0.05    0.23 
Q11   1   1.0215  0.8313  1.2202  11.00000  0.05    0.23 
Q12   1   0.4378  0.7030  0.5999  11.00000  0.05    0.22 
Q13   1   0.9495  0.7595  0.8822  11.00000  0.05    0.21 
Q14   1   0.5824  0.7920  0.7477  11.00000  0.05    0.21 
Q15   1   0.6517  0.6925  0.7068  11.00000  0.05    0.21 
Q16   1   1.2906  0.4032  0.7743  11.00000  0.05    0.20 
Q17   1   0.5556  0.8191  0.8696  11.00000  0.05    0.20 
Q18   1   1.4147  0.6051  0.9607  11.00000  0.05    0.19 
Q19   1   0.8225  0.8639  1.0387  11.00000  0.05    0.19 
Q20   1   0.5599  0.8254  0.5571  11.00000  0.05    0.19 
;
_shelx_res_checksum              22906
_shelx_hkl_file
; 
  -1   0   0    2.60    0.20 
  -1   0   0    2.99    0.19 
  -2   0   0   31.97    1.19 
  -3   0   0  240.41    7.13 
  -4   0   0   83.17    2.92 
  -5   0   0    0.68    0.43 
   5   0   0    1.85    0.36 
  -6   0   0   54.22    2.42 
   6   0   0   51.88    1.86 
  -7   0   0   12.06    1.26 
  -8   0   0    1.22    0.83 
  -9   0   0    0.68    0.87 
 -10   1   0   -0.29    0.97 
  -9   1   0   34.72    2.32 
  -8   1   0    1.54    0.85 
  -7   1   0   12.58    1.22 
  -6   1   0   25.05    1.50 
  -5   1   0   76.27    2.83 
  -4   1   0  257.03    7.66 
  -3   1   0   24.79    1.04 
  -2   1   0  148.15    4.33 
   1  -1   0  125.67    3.63 
   1  -1   0  127.61    3.44 
   0  -1   0    2.83    0.20 
   0  -1   0    1.76    0.18 
  -1  -1   0    0.70    0.20 
  -1  -1   0    1.06    0.21 
   1   1   0    0.75    0.13 
  -2  -1   0   60.20    2.04 
  -2  -1   0   58.54    1.90 
   2   1   0   58.69    1.73 
  -3  -1   0   69.50    2.46 
  -3  -1   0   68.18    2.31 
   3   1   0   68.91    2.05 
  -4  -1   0   21.15    1.23 
  -4  -1   0   21.33    1.12 
   4   1   0   20.45    0.82 
  -5  -1   0    2.59    0.64 
   5   1   0    1.94    0.34 
  -6  -1   0   10.72    1.16 
  -7  -1   0    0.00    0.68 
  -8  -1   0   10.94    1.45 
  -9  -1   0    6.33    1.43 
  10  -2   0    2.12    1.09 
  -9   2   0    1.39    0.86 
  -8   2   0   14.31    1.39 
  -7   2   0    0.31    0.54 
  -6   2   0    2.38    0.59 
  -5   2   0    2.14    0.48 
  -4   2   0  180.40    5.46 
  -3   2   0  196.56    5.74 
   2  -2   0  270.47    7.35 
   2  -2   0  273.91    7.71 
   1  -2   0  828.28   22.16 
   1  -2   0  862.57   23.65 
   0  -2   0  479.37   13.83 
   0  -2   0  505.19   13.04 
  -1  -2   0   11.24    0.59 
  -1  -2   0   11.81    0.64 
  -2  -2   0  311.81    9.06 
  -2  -2   0  305.96    8.51 
  -3  -2   0   25.03    1.25 
  -3  -2   0   28.21    1.37 
   3   2   0   26.25    0.94 
  -4  -2   0   94.85    3.40 
  -4  -2   0   94.92    3.24 
   4   2   0   90.24    2.80 
  -5  -2   0    8.87    0.95 
  -5  -2   0    7.66    0.97 
  -6  -2   0   16.33    1.44 
  -7  -2   0    2.27    0.90 
  -8  -2   0    1.54    1.00 
  10  -3   0    6.19    1.35 
   9  -3   0   19.14    1.68 
   8  -3   0   32.61    1.90 
   7  -3   0   45.84    2.15 
   6  -3   0   37.95    1.75 
   5  -3   0  143.78    4.54 
   4  -3   0  137.11    4.20 
   3  -3   0  479.54   12.70 
   3  -3   0  464.98   13.30 
   2  -3   0   90.73    2.70 
   2  -3   0   92.06    2.72 
   1  -3   0   41.74    1.35 
   1  -3   0   40.36    1.39 
   0  -3   0   10.65    0.60 
   0  -3   0   10.88    0.60 
  -1  -3   0   11.20    0.71 
  -1  -3   0   11.77    0.69 
  -2  -3   0    5.19    0.61 
  -2  -3   0    3.69    0.52 
  -3  -3   0   20.63    1.22 
  -3  -3   0   19.53    1.23 
  -4  -3   0    2.18    0.65 
  -4  -3   0    1.84    0.65 
  -5  -3   0   -0.14    0.65 
  -5  -3   0   -0.07    0.55 
  -6  -3   0    0.29    0.76 
  -6  -3   0    0.77    0.78 
  -7  -3   0    1.03    0.90 
  -8  -3   0   -0.22    0.89 
  10  -4   0    2.46    1.07 
   9  -4   0    0.00    0.80 
   8  -4   0    6.55    0.99 
   7  -4   0    5.47    0.84 
   6  -4   0    0.68    0.46 
   5  -4   0    0.82    0.36 
   5  -4   0    1.01    0.51 
   4  -4   0   77.39    2.64 
   4  -4   0   81.47    2.58 
   3  -4   0    0.05    0.31 
   3  -4   0    0.01    0.20 
   2  -4   0   11.43    0.56 
   2  -4   0   10.36    0.70 
   1  -4   0   43.28    1.50 
   1  -4   0   43.89    1.54 
   0  -4   0  162.28    4.97 
   0  -4   0  167.22    4.75 
  -1  -4   0   45.29    1.71 
  -1  -4   0   44.33    1.76 
  -2  -4   0   18.48    1.09 
  -2  -4   0   19.35    1.18 
  -3  -4   0   26.58    1.53 
  -3  -4   0   32.31    1.61 
  -4  -4   0    2.20    0.73 
  -4  -4   0    1.07    0.61 
  -5  -4   0   16.30    1.49 
  -5  -4   0   16.18    1.45 
  -6  -4   0    6.45    1.23 
  -6  -4   0    6.22    1.18 
  -7  -4   0    0.46    0.92 
  10  -5   0    7.44    1.17 
   9  -5   0   10.84    1.21 
   8  -5   0   17.40    1.30 
   8  -5   0   14.70    1.26 
   7  -5   0   30.60    1.64 
   7  -5   0   30.17    1.54 
   6  -5   0   78.66    2.77 
   6  -5   0   79.55    2.90 
   5  -5   0   24.27    1.33 
   5  -5   0   25.07    1.13 
   4  -5   0  324.89    9.36 
   4  -5   0  328.17    9.14 
   3  -5   0   91.08    2.88 
   3  -5   0   86.89    2.75 
   2  -5   0   23.08    1.13 
   2  -5   0   23.61    0.97 
   1  -5   0  133.39    4.11 
   1  -5   0  134.48    4.03 
   0  -5   0  154.54    4.51 
   0  -5   0  145.25    4.65 
  -1  -5   0   25.08    1.27 
  -1  -5   0   26.86    1.34 
  -2  -5   0   12.25    1.02 
  -2  -5   0   11.25    0.95 
  -3  -5   0   10.67    1.09 
  -3  -5   0    9.84    1.05 
  -4  -5   0    0.24    0.65 
  -4  -5   0    0.49    0.72 
  -5  -5   0    1.10    0.74 
  -5  -5   0    0.92    0.88 
  -6  -5   0    3.57    1.12 
  -7  -5   0   -0.07    0.84 
  10  -6   0    3.57    1.07 
   9  -6   0    3.67    0.98 
   8  -6   0   19.63    1.48 
   7  -6   0    1.78    0.78 
   6  -6   0    8.66    1.00 
   5  -6   0   16.15    1.14 
   5  -6   0   15.48    0.89 
   4  -6   0    6.17    0.52 
   4  -6   0    5.17    0.72 
   3  -6   0    8.06    0.78 
   3  -6   0    7.58    0.54 
   2  -6   0    0.26    0.29 
   2  -6   0   -0.17    0.38 
   1  -6   0    1.80    0.50 
   1  -6   0    0.90    0.38 
   0  -6   0   14.06    0.94 
   0  -6   0   13.76    1.00 
  -1  -6   0   17.81    1.21 
  -1  -6   0   20.85    1.26 
  -2  -6   0    1.37    0.62 
  -2  -6   0    0.73    0.62 
  -3  -6   0    3.64    0.86 
  -3  -6   0    4.23    0.93 
  -4  -6   0    0.76    0.82 
  -4  -6   0    0.84    0.86 
  -5  -6   0    5.72    1.27 
  -5  -6   0    5.59    1.24 
  -6  -6   0    0.86    1.03 
  10  -7   0    2.01    1.09 
   9  -7   0    4.59    1.13 
   8  -7   0   16.97    1.50 
   7  -7   0    1.09    0.72 
   6  -7   0   54.30    2.39 
   5  -7   0    3.32    0.76 
   4  -7   0   45.71    1.98 
   3  -7   0   95.50    3.26 
   2  -7   0   95.52    3.28 
   2  -7   0   96.93    3.16 
   1  -7   0   10.00    0.82 
   1  -7   0    7.67    0.88 
   0  -7   0   65.76    2.53 
   0  -7   0   63.86    2.53 
  -1  -7   0   12.77    1.12 
  -1  -7   0   13.30    1.16 
  -2  -7   0    3.52    0.84 
  -2  -7   0    3.56    0.89 
  -3  -7   0    0.99    0.80 
  -3  -7   0   -0.03    0.67 
  -4  -7   0    5.04    1.20 
  -4  -7   0    3.95    1.09 
  -5  -7   0    1.46    0.99 
  10  -8   0    2.30    1.08 
   9  -8   0    6.60    1.20 
   8  -8   0   14.07    1.44 
   7  -8   0   16.61    1.42 
   6  -8   0    9.02    1.10 
   5  -8   0   45.95    2.20 
   4  -8   0   47.46    2.12 
   3  -8   0    2.72    0.72 
   2  -8   0   -0.45    0.53 
   1  -8   0    5.74    0.74 
   1  -8   0    7.57    0.98 
   0  -8   0   10.64    1.13 
   0  -8   0   11.01    1.07 
  -1  -8   0   -0.25    0.60 
  -1  -8   0    0.51    0.74 
  -2  -8   0    0.52    0.81 
  -2  -8   0    0.64    0.75 
  -3  -8   0   -0.12    0.80 
  -3  -8   0    1.13    0.91 
  -4  -8   0    0.31    0.93 
  10  -9   0    1.57    1.01 
   9  -9   0    1.90    1.08 
   8  -9   0    0.57    0.95 
   7  -9   0    4.99    1.13 
   6  -9   0    4.88    1.10 
   5  -9   0   11.63    1.22 
   4  -9   0  125.54    4.32 
   3  -9   0   10.68    1.17 
   2  -9   0    4.99    0.96 
   1  -9   0   10.86    1.23 
   0  -9   0    7.21    1.12 
  -1  -9   0   -0.99    0.78 
  -2  -9   0    1.07    0.98 
  -3  -9   0    0.67    1.05 
  -3  -9   0    1.91    1.09 
   9 -10   0    4.61    1.26 
   8 -10   0   16.48    1.72 
   7 -10   0   17.30    1.70 
   6 -10   0   14.60    1.54 
   5 -10   0   24.92    1.74 
   4 -10   0    1.37    0.85 
   3 -10   0    1.69    0.91 
   2 -10   0    5.53    1.04 
   1 -10   0    0.11    0.81 
   0 -10   0    0.18    0.90 
  -1 -10   0    0.28    1.00 
  -2 -10   0    0.20    1.06 
   8 -11   0    0.70    1.12 
   7 -11   0    0.22    1.01 
   6 -11   0   -0.37    0.87 
   5 -11   0    1.91    0.97 
   4 -11   0   11.87    1.44 
   3 -11   0    2.05    1.03 
   2 -11   0    0.70    0.95 
   1 -11   0   -1.51    0.89 
   0 -11   0    1.31    1.07 
   7 -12   0    4.39    1.27 
   6 -12   0    1.86    1.08 
   5 -12   0    1.72    1.14 
   4 -12   0    0.72    1.04 
   3 -12   0    3.47    1.17 
   2 -12   0    0.13    0.97 
   1 -12   1    1.13    1.16 
   2 -12   1   -0.83    0.93 
   3 -12   1    1.38    0.98 
   4 -12   1    7.73    1.31 
   5 -12   1    1.99    1.12 
   6 -12   1    5.77    1.34 
   7 -12   1    7.89    1.47 
  -1 -11   1    1.79    1.11 
   0 -11   1    0.32    1.01 
   1 -11   1    1.34    1.03 
   2 -11   1    1.31    0.90 
   3 -11   1   24.15    1.80 
   4 -11   1   13.36    1.49 
   5 -11   1    0.84    0.97 
   6 -11   1    0.03    0.97 
   7 -11   1    1.16    1.00 
   8 -11   1    4.51    1.31 
  -2 -10   1   -0.07    1.00 
  -1 -10   1    3.12    1.11 
   0 -10   1    5.46    1.19 
   1 -10   1   -0.10    0.81 
   2 -10   1    0.74    0.78 
   3 -10   1   22.77    1.67 
   4 -10   1   25.96    1.75 
   5 -10   1    4.23    1.01 
   6 -10   1   12.59    1.37 
   7 -10   1   11.60    1.39 
   8 -10   1    5.46    1.27 
   9 -10   1    3.61    1.23 
  -3  -9   1    0.39    1.01 
  -2  -9   1    0.16    0.89 
  -1  -9   1   10.40    1.32 
   0  -9   1   -0.50    0.73 
   1  -9   1   15.28    1.35 
   2  -9   1   28.38    1.72 
   3  -9   1    8.57    1.09 
   4  -9   1    2.31    0.80 
   5  -9   1   24.73    1.67 
   6  -9   1    6.19    1.09 
   7  -9   1    5.22    1.12 
   8  -9   1    0.45    0.91 
   9  -9   1    1.09    0.98 
  10  -9   1    3.19    1.17 
  -4  -8   1   -0.65    0.84 
  -4  -8   1    1.55    1.13 
  -3  -8   1    1.34    0.84 
  -3  -8   1    0.30    0.89 
  -2  -8   1    2.87    0.84 
  -2  -8   1    2.34    0.89 
  -1  -8   1    0.32    0.73 
  -1  -8   1    0.08    0.58 
   0  -8   1    4.75    0.88 
   0  -8   1    4.89    0.74 
   1  -8   1    2.81    0.80 
   2  -8   1   13.00    1.13 
   3  -8   1   13.70    1.10 
   4  -8   1   20.73    1.38 
   5  -8   1   14.28    1.20 
   6  -8   1    8.99    1.14 
   7  -8   1   26.36    1.75 
   8  -8   1    8.36    1.22 
   9  -8   1    8.56    1.28 
  10  -8   1    6.16    1.27 
  -5  -7   1   -0.07    0.88 
  -5  -7   1   -0.03    0.99 
  -4  -7   1    3.87    1.08 
  -4  -7   1    2.48    0.96 
  -3  -7   1    3.90    0.93 
  -3  -7   1    4.22    1.01 
  -2  -7   1    6.71    0.99 
  -2  -7   1    6.48    0.90 
  -1  -7   1   32.69    1.73 
  -1  -7   1   31.66    1.65 
   0  -7   1   27.51    1.53 
   0  -7   1   28.56    1.41 
   1  -7   1   17.12    1.18 
   1  -7   1   16.88    0.96 
   2  -7   1   25.95    1.07 
   2  -7   1   24.30    1.34 
   3  -7   1  144.78    4.51 
   4  -7   1    7.12    0.85 
   5  -7   1   44.82    2.00 
   6  -7   1   24.36    1.53 
   7  -7   1   18.88    1.38 
   8  -7   1    3.15    0.94 
   9  -7   1    5.58    1.13 
  10  -7   1    0.67    0.97 
  -6  -6   1    2.58    1.24 
  -6  -6   1    2.57    1.08 
  -5  -6   1    1.45    0.98 
  -5  -6   1    0.22    0.79 
  -4  -6   1    1.63    0.79 
  -4  -6   1    2.12    0.92 
  -3  -6   1    1.21    0.67 
  -3  -6   1    1.18    0.74 
  -2  -6   1    2.66    0.73 
  -2  -6   1    4.27    0.73 
  -1  -6   1   11.03    0.96 
  -1  -6   1   12.71    0.95 
   0  -6   1   -0.05    0.32 
   0  -6   1    0.18    0.45 
   1  -6   1    1.94    0.37 
   1  -6   1    1.65    0.53 
   2  -6   1    5.80    0.65 
   2  -6   1    5.63    0.40 
   3  -6   1    6.52    0.72 
   4  -6   1    5.91    0.41 
   4  -6   1    6.82    0.74 
   5  -6   1    8.29    0.90 
   6  -6   1   21.73    1.31 
   7  -6   1   31.65    1.75 
   8  -6   1    6.71    1.05 
   9  -6   1   10.65    1.23 
  10  -6   1    4.32    1.05 
  -7  -5   1    0.43    0.99 
  -6  -5   1    0.36    0.84 
  -6  -5   1   -1.26    0.97 
  -5  -5   1    1.10    0.77 
  -5  -5   1    0.74    0.88 
  -4  -5   1    8.48    1.13 
  -4  -5   1    7.51    1.04 
  -3  -5   1    6.12    0.87 
  -3  -5   1    6.41    0.91 
  -2  -5   1   15.21    1.05 
  -2  -5   1   15.84    1.07 
  -1  -5   1   14.27    0.93 
  -1  -5   1   15.33    0.99 
   0  -5   1   37.72    1.56 
   0  -5   1   39.55    1.50 
   1  -5   1   80.68    2.61 
   1  -5   1   77.81    2.47 
   2  -5   1  403.41   10.92 
   2  -5   1  397.40   11.24 
   3  -5   1  122.98    3.77 
   4  -5   1  144.73    4.35 
   4  -5   1  142.10    4.22 
   5  -5   1   69.87    2.51 
   5  -5   1   68.54    2.32 
   6  -5   1   58.08    2.30 
   6  -5   1   60.67    2.24 
   7  -5   1   62.17    2.50 
   7  -5   1   61.57    2.48 
   8  -5   1   33.60    1.82 
   8  -5   1   33.38    1.79 
   9  -5   1    7.70    1.08 
  10  -5   1   -0.08    0.83 
  -8  -4   1   -0.18    0.87 
  -7  -4   1    3.18    1.04 
  -6  -4   1    0.02    0.84 
  -6  -4   1    0.95    0.79 
  -5  -4   1   13.73    1.38 
  -5  -4   1   10.96    1.21 
  -4  -4   1    5.69    0.86 
  -4  -4   1    3.86    0.85 
  -3  -4   1   41.78    1.94 
  -3  -4   1   43.50    1.95 
  -2  -4   1    5.51    0.68 
  -2  -4   1    5.01    0.62 
  -1  -4   1  105.07    3.39 
  -1  -4   1  105.47    3.29 
   0  -4   1  139.42    4.12 
   0  -4   1  133.65    4.01 
   1  -4   1   67.73    2.04 
   1  -4   1   65.70    2.15 
   2  -4   1   95.12    2.89 
   3  -4   1   68.88    2.08 
   3  -4   1   68.91    2.24 
   4  -4   1   50.14    1.72 
   4  -4   1   50.72    1.86 
   5  -4   1    1.32    0.51 
   5  -4   1    0.53    0.35 
  -6   4  -1   11.73    0.91 
   6  -4   1   11.96    0.94 
  -7   4  -1    5.12    0.77 
   8  -4   1    5.95    0.93 
   9  -4   1   14.01    1.42 
  -8  -3   1    0.58    0.97 
  -7  -3   1    0.60    0.86 
  -6  -3   1    2.57    0.90 
  -6  -3   1    1.45    0.81 
  -5  -3   1    0.15    0.64 
  -5  -3   1    0.70    0.57 
  -4  -3   1    1.51    0.59 
  -4  -3   1    1.85    0.63 
  -3  -3   1    1.50    0.53 
  -3  -3   1    1.22    0.48 
  -2  -3   1    5.80    0.59 
  -2  -3   1    6.24    0.60 
  -1  -3   1   56.55    1.92 
  -1  -3   1   55.11    1.88 
   0  -3   1  212.37    5.95 
   0  -3   1  219.21    6.21 
   1  -3   1  335.70    8.91 
   1  -3   1  327.20    9.36 
   2  -3   1  162.15    4.62 
   2  -3   1  169.18    4.72 
  -3   3  -1  438.26   12.15 
   3  -3   1  422.73   11.55 
   4  -3   1  206.85    5.86 
  -5   3  -1   82.89    2.85 
  -6   3  -1   64.78    2.53 
  -7   3  -1   13.56    1.17 
  -8   3  -1   86.78    3.54 
  -9   3  -1    0.69    0.76 
  10  -3   1    2.37    1.10 
  -9  -2   1   -0.75    0.84 
  -8  -2   1    6.30    1.26 
  -7  -2   1   14.63    1.46 
  -6  -2   1    1.38    0.68 
  -5  -2   1   24.67    1.52 
  -5  -2   1   26.42    1.53 
  -4  -2   1   74.56    2.78 
  -4  -2   1   70.52    2.69 
  -3  -2   1   46.86    1.84 
  -3  -2   1   47.77    1.89 
  -2  -2   1    2.50    0.41 
  -2  -2   1    2.39    0.40 
   0  -2   1    4.32    0.32 
   0  -2   1    3.99    0.26 
   1  -2   1    7.53    0.40 
  -2   2  -1  268.89    7.64 
   2  -2   1  270.73    7.25 
  -3   2  -1  103.49    3.20 
  -4   2  -1    9.29    0.68 
  -5   2  -1   75.32    2.74 
  -6   2  -1   18.29    1.19 
  -7   2  -1    6.48    0.94 
   7  -2   1    5.88    0.72 
  -8   2  -1    3.36    0.90 
  -9   2  -1    2.09    0.90 
 -10   2  -1    0.15    0.91 
  -9  -1   1    0.45    0.88 
  -8  -1   1    0.18    0.81 
  -7  -1   1    3.04    0.91 
  -6  -1   1    6.28    0.93 
   5   1  -1   59.52    1.85 
  -5  -1   1   55.39    2.40 
  -4  -1   1    2.80    0.54 
  -4  -1   1    2.78    0.50 
  -3  -1   1    7.38    0.64 
  -3  -1   1    6.51    0.60 
  -2  -1   1    4.90    0.44 
  -2  -1   1    4.89    0.42 
  -1  -1   1   38.11    1.28 
  -1  -1   1   38.30    1.25 
   1  -1   1  292.36    7.74 
  -2   1  -1  445.26   12.59 
  -3   1  -1  225.14    6.66 
  -4   1  -1    1.95    0.43 
  -5   1  -1   71.02    2.76 
   5  -1   1   75.56    2.45 
  -6   1  -1    9.10    1.00 
   6  -1   1   10.84    0.78 
  -7   1  -1   58.81    2.70 
  -8   1  -1   24.89    1.83 
  -9   1  -1    0.56    0.89 
  10   0  -1   -0.24    0.95 
  -9   0   1   11.50    1.56 
  -8   0   1    1.32    0.76 
  -7   0   1    3.64    0.90 
  -6   0   1    1.04    0.60 
  -5   0   1  133.24    4.45 
  -4   0   1  102.67    3.44 
  -3   0   1  230.95    6.83 
  -2   0   1 1000.00   27.93 
   1   0  -1  587.82   16.46 
   0   0  -1   40.25    1.26 
   0   0   1   40.01    1.28 
  -1   0  -1  778.28   22.40 
  -1   0  -1  809.64   21.09 
   1   0   1  817.01   21.92 
  -2   0  -1   22.13    0.96 
   2   0   1   22.28    0.81 
  -3   0  -1  303.02    8.93 
   3   0   1  303.17    8.47 
  -4   0  -1   35.61    1.66 
   4   0   1   38.01    1.35 
  -5   0  -1   38.89    1.89 
   5   0   1   40.71    1.51 
  -6   0  -1    2.99    0.77 
   6   0   1    2.94    0.50 
  -7   0  -1    5.12    1.00 
  -8   0  -1   13.51    1.54 
  -9   0  -1    0.18    0.81 
  10  -1  -1    2.54    1.17 
   9  -1  -1    4.21    1.19 
  -8   1   1   16.11    1.54 
  -7   1   1    5.07    0.92 
  -6   1   1   49.32    2.22 
  -5   1   1   48.59    2.00 
  -4   1   1  178.81    5.48 
   3  -1  -1   11.67    0.65 
   2  -1  -1    1.73    0.24 
   1  -1  -1    1.28    0.20 
   0  -1  -1   54.90    1.76 
  -1  -1  -1    1.04    0.25 
  -1  -1  -1    0.84    0.17 
   1   1   1    1.19    0.23 
  -2  -1  -1   16.81    0.91 
   2   1   1   18.00    0.77 
  -3  -1  -1    4.78    0.58 
  -3  -1  -1    2.98    0.41 
   3   1   1    5.52    0.43 
  -4  -1  -1   19.65    1.22 
  -4  -1  -1   19.09    1.05 
   4   1   1   20.49    0.93 
  -5  -1  -1   13.88    1.19 
   5   1   1   15.27    0.87 
  -6  -1  -1    1.34    0.65 
  -7  -1  -1    9.32    1.28 
  -8  -1  -1    2.52    1.02 
  -9  -1  -1    2.14    1.10 
  10  -2  -1    1.59    1.06 
   9  -2  -1   -0.67    0.82 
   8  -2  -1    0.20    0.73 
   7  -2  -1    9.45    1.07 
   6  -2  -1   10.49    0.97 
   5  -2  -1  146.62    4.72 
   4  -2  -1   22.44    1.09 
   3  -2  -1   68.73    2.23 
   2  -2  -1  248.90    7.14 
   1  -2  -1  620.79   16.56 
   1  -2  -1  636.59   17.66 
   0  -2  -1  147.10    4.11 
   0  -2  -1  151.59    4.47 
  -1  -2  -1   95.75    3.02 
  -1  -2  -1   90.29    2.72 
  -2  -2  -1  171.12    5.08 
  -2  -2  -1  178.22    5.50 
   2   2   1  183.49    5.15 
  -3  -2  -1   29.71    1.38 
  -3  -2  -1   30.07    1.49 
   3   2   1   30.22    1.19 
  -4  -2  -1   81.14    2.89 
  -4  -2  -1   83.07    3.16 
   4   2   1   81.16    2.64 
  -5  -2  -1   40.20    1.85 
  -5  -2  -1   38.13    2.01 
  -6  -2  -1    4.32    0.98 
  -7  -2  -1    2.80    0.94 
  -8  -2  -1    8.68    1.42 
  10  -3  -1    6.96    1.34 
   9  -3  -1    5.90    1.16 
   8  -3  -1   12.30    1.29 
   7  -3  -1   53.74    2.40 
   6  -3  -1   22.45    1.30 
   5  -3  -1  263.66    7.87 
   4  -3  -1   91.18    2.94 
   3  -3  -1    1.45    0.29 
   3  -3  -1    1.26    0.36 
   2  -3  -1  238.98    6.62 
   2  -3  -1  241.91    6.97 
   1  -3  -1  353.06    9.38 
   1  -3  -1  342.83    9.96 
   0  -3  -1   51.60    1.70 
   0  -3  -1   52.32    1.85 
  -1  -3  -1    5.43    0.50 
  -1  -3  -1    4.65    0.53 
  -2  -3  -1   22.97    1.22 
  -2  -3  -1   22.18    1.10 
  -3  -3  -1    1.73    0.55 
  -3  -3  -1    2.00    0.58 
  -4  -3  -1    0.33    0.54 
  -4  -3  -1    1.42    0.62 
  -5  -3  -1    5.28    0.91 
  -5  -3  -1    4.25    0.94 
  -6  -3  -1    0.41    0.84 
  -7  -3  -1    0.99    0.94 
  -8  -3  -1    3.28    1.26 
  10  -4  -1    0.00    0.86 
   9  -4  -1    5.20    1.04 
   8  -4  -1    0.41    0.69 
   7  -4  -1    0.13    0.48 
   6  -4  -1    1.59    0.51 
   5  -4  -1    0.84    0.48 
   5  -4  -1    1.48    0.43 
   4  -4  -1    2.94    0.42 
   4  -4  -1    2.31    0.54 
   3  -4  -1   16.21    0.80 
   3  -4  -1   16.00    0.91 
   2  -4  -1   86.64    2.71 
   2  -4  -1   86.89    2.78 
   1  -4  -1  135.26    4.01 
   1  -4  -1  140.83    4.26 
   0  -4  -1  124.20    3.69 
   0  -4  -1  123.33    3.96 
  -1  -4  -1   40.95    1.74 
  -1  -4  -1   39.04    1.56 
  -2  -4  -1   46.73    1.99 
  -2  -4  -1   41.28    1.75 
  -3  -4  -1    8.06    0.96 
  -3  -4  -1   12.42    1.02 
  -4  -4  -1   45.78    2.32 
  -4  -4  -1   44.61    2.16 
  -5  -4  -1    7.18    1.10 
  -5  -4  -1    6.56    1.10 
  -6  -4  -1    3.01    1.05 
  -7  -4  -1    0.90    1.03 
  10  -5  -1    5.62    1.15 
   9  -5  -1   19.92    1.56 
   9  -5  -1   16.47    1.45 
   8  -5  -1    1.35    0.66 
   8  -5  -1    0.53    0.66 
   7  -5  -1   61.72    2.49 
   7  -5  -1   58.82    2.50 
   6  -5  -1   23.66    1.42 
   6  -5  -1   22.36    1.22 
   5  -5  -1   88.60    3.09 
   5  -5  -1   90.67    3.01 
   4  -5  -1  138.49    4.23 
   4  -5  -1  133.68    4.22 
   3  -5  -1  299.00    8.29 
   3  -5  -1  291.74    8.61 
   2  -5  -1   28.23    1.26 
   2  -5  -1   26.49    1.20 
   1  -5  -1  207.89    5.90 
   1  -5  -1  203.33    6.20 
   0  -5  -1   40.84    1.75 
   0  -5  -1   39.76    1.62 
  -1  -5  -1   18.12    1.17 
  -1  -5  -1   15.47    1.01 
  -2  -5  -1    0.79    0.55 
  -2  -5  -1   -0.05    0.43 
  -3  -5  -1   18.82    1.46 
  -3  -5  -1   17.57    1.34 
  -4  -5  -1    8.73    1.12 
  -4  -5  -1    6.75    1.12 
  -5  -5  -1    0.50    0.79 
  -6  -5  -1   -0.61    0.83 
  10  -6  -1    1.55    1.01 
   9  -6  -1    7.61    1.17 
   8  -6  -1    8.03    1.14 
   7  -6  -1    5.84    0.92 
   6  -6  -1   22.57    1.24 
   6  -6  -1   22.13    1.50 
   5  -6  -1   37.56    1.81 
   5  -6  -1   40.02    1.64 
   4  -6  -1    0.49    0.40 
   4  -6  -1    0.61    0.49 
   3  -6  -1   11.44    0.92 
   3  -6  -1   11.91    0.86 
   2  -6  -1   -0.01    0.35 
   2  -6  -1   -0.29    0.41 
   1  -6  -1   58.46    2.25 
   1  -6  -1   58.69    2.20 
   0  -6  -1    4.82    0.71 
   0  -6  -1    5.69    0.74 
  -1  -6  -1    0.73    0.52 
  -1  -6  -1    0.06    0.52 
  -2  -6  -1   11.75    1.07 
  -2  -6  -1   10.60    1.13 
  -3  -6  -1    1.59    0.82 
  -3  -6  -1    2.02    0.80 
  -4  -6  -1   17.61    1.55 
  -4  -6  -1   18.16    1.67 
  -5  -6  -1   -0.05    0.89 
  -6  -6  -1    0.62    0.99 
  10  -7  -1    0.23    1.00 
   9  -7  -1   -0.51    0.88 
   8  -7  -1   10.84    1.29 
   7  -7  -1   24.34    1.67 
   6  -7  -1    3.30    0.84 
   5  -7  -1  320.06    9.29 
   4  -7  -1   51.64    2.22 
   3  -7  -1   17.05    1.04 
   3  -7  -1   16.83    1.14 
   2  -7  -1   60.02    2.34 
   2  -7  -1   61.38    2.31 
   1  -7  -1   51.11    2.13 
   1  -7  -1   49.70    2.11 
   0  -7  -1   -0.02    0.54 
   0  -7  -1    0.54    0.62 
  -1  -7  -1    7.16    0.98 
  -1  -7  -1    7.30    0.96 
  -2  -7  -1   11.76    1.30 
  -2  -7  -1   15.66    1.34 
  -3  -7  -1    3.92    1.09 
  -3  -7  -1    3.98    0.97 
  -4  -7  -1    0.67    0.89 
  -5  -7  -1    0.35    0.98 
  10  -8  -1    7.28    1.32 
   9  -8  -1   15.75    1.61 
   8  -8  -1   19.32    1.67 
   7  -8  -1   19.99    1.59 
   6  -8  -1   41.08    2.10 
   5  -8  -1    1.02    0.81 
   4  -8  -1    2.43    0.79 
   3  -8  -1    5.63    0.90 
   2  -8  -1    0.11    0.65 
   1  -8  -1    3.51    0.75 
   1  -8  -1    5.39    0.89 
   0  -8  -1    3.57    0.86 
   0  -8  -1    3.21    0.80 
  -1  -8  -1    1.72    0.83 
  -1  -8  -1    2.62    0.86 
  -2  -8  -1    0.50    0.83 
  -2  -8  -1   -0.37    0.76 
  -3  -8  -1   -0.74    0.83 
  -4  -8  -1    1.36    1.07 
  10  -9  -1    2.35    1.13 
   9  -9  -1    1.70    1.06 
   8  -9  -1    2.20    1.10 
   7  -9  -1    0.69    0.96 
   6  -9  -1   15.15    1.48 
   5  -9  -1   54.43    2.56 
   4  -9  -1    3.86    0.91 
   3  -9  -1    3.00    0.88 
   2  -9  -1    0.21    0.74 
   1  -9  -1   15.59    1.41 
   0  -9  -1    2.61    0.95 
  -1  -9  -1    2.19    1.01 
  -2  -9  -1    0.63    0.92 
  -2  -9  -1    2.49    1.06 
  -3  -9  -1    0.15    0.98 
   9 -10  -1    3.07    1.22 
   8 -10  -1    7.74    1.43 
   7 -10  -1    8.02    1.39 
   6 -10  -1    6.95    1.31 
   5 -10  -1    2.74    0.91 
   4 -10  -1    8.39    1.22 
   3 -10  -1    1.02    0.88 
   2 -10  -1   -0.43    0.73 
   1 -10  -1    4.63    1.06 
   0 -10  -1    0.70    0.96 
  -1 -10  -1    0.40    1.03 
   8 -11  -1    0.42    1.11 
   7 -11  -1    1.39    1.10 
   6 -11  -1    0.59    0.99 
   5 -11  -1    1.40    1.02 
   4 -11  -1   -0.14    0.91 
   3 -11  -1    1.38    0.98 
   2 -11  -1    6.88    1.27 
   1 -11  -1    1.32    1.01 
   6 -12  -1    0.09    1.04 
   5 -12  -1    3.61    1.27 
   4 -12  -1    3.65    1.21 
   3 -12  -1   -0.86    0.94 
   1 -12   2   -0.12    1.06 
   2 -12   2    4.79    1.27 
   3 -12   2    8.21    1.37 
   4 -12   2    0.72    0.99 
   5 -12   2    1.89    1.15 
   6 -12   2    3.79    1.24 
   7 -12   2    2.46    1.14 
  -1 -11   2    0.43    1.04 
   0 -11   2    0.89    1.03 
   1 -11   2    3.84    1.16 
   2 -11   2    0.35    0.89 
   3 -11   2    8.32    1.24 
   4 -11   2    8.64    1.28 
   5 -11   2    5.45    1.15 
   6 -11   2   -0.71    0.91 
   7 -11   2    0.29    0.91 
   8 -11   2    0.94    1.06 
  -3 -10   2   -0.54    1.02 
  -2 -10   2    0.03    1.00 
  -1 -10   2    3.89    1.15 
   0 -10   2    2.59    1.00 
   1 -10   2    5.44    1.06 
   2 -10   2    7.01    1.11 
   3 -10   2   11.23    1.25 
   4 -10   2    6.04    1.11 
   5 -10   2    6.14    1.05 
   6 -10   2   15.84    1.48 
   7 -10   2    6.32    1.26 
   8 -10   2    9.98    1.41 
   9 -10   2   10.08    1.49 
  -4  -9   2    0.01    1.11 
  -3  -9   2   -0.01    0.98 
  -2  -9   2    3.19    1.11 
  -1  -9   2    2.98    1.02 
   0  -9   2    2.90    0.88 
   1  -9   2    1.10    0.72 
   2  -9   2   24.16    1.58 
   3  -9   2    0.81    0.70 
   4  -9   2    8.38    1.06 
   5  -9   2    4.46    0.92 
   6  -9   2    6.23    1.09 
   7  -9   2    1.29    0.90 
   8  -9   2    1.71    0.98 
   9  -9   2   -0.26    0.92 
  10  -9   2    0.34    1.00 
  -5  -8   2   -0.38    0.90 
  -5  -8   2   -1.23    0.99 
  -4  -8   2    0.01    0.85 
  -4  -8   2   -0.72    0.93 
  -3  -8   2   -0.22    0.75 
  -3  -8   2    0.40    0.83 
  -2  -8   2    0.79    0.80 
  -2  -8   2    0.54    0.68 
  -1  -8   2    1.87    0.77 
  -1  -8   2    1.74    0.66 
   0  -8   2    2.26    0.81 
   1  -8   2    7.76    0.95 
   2  -8   2    0.90    0.66 
   3  -8   2   14.47    1.16 
   4  -8   2   13.91    1.11 
   5  -8   2   36.65    1.83 
   6  -8   2   43.18    2.13 
   7  -8   2   13.38    1.30 
   8  -8   2   24.70    1.73 
   9  -8   2    8.67    1.29 
  10  -8   2   13.30    1.53 
  -6  -7   2   -0.29    0.94 
  -6  -7   2   -0.23    1.12 
  -5  -7   2    0.73    1.06 
  -5  -7   2    1.49    0.96 
  -4  -7   2   -0.46    0.85 
  -4  -7   2    0.60    0.80 
  -3  -7   2    2.13    0.78 
  -3  -7   2    3.72    0.97 
  -2  -7   2    3.38    0.77 
  -2  -7   2    5.01    0.94 
  -1  -7   2    9.96    1.05 
  -1  -7   2    9.40    0.90 
   0  -7   2   19.69    1.28 
   0  -7   2   21.18    1.13 
   1  -7   2  122.07    3.97 
   1  -7   2  122.37    3.79 
   2  -7   2   36.85    1.70 
   3  -7   2   42.74    1.81 
   4  -7   2   38.73    1.74 
   5  -7   2   26.30    1.46 
   6  -7   2   44.83    2.05 
   7  -7   2   22.16    1.52 
   8  -7   2    1.79    0.82 
   9  -7   2    0.90    0.88 
  -6  -6   2    2.48    1.01 
  -6  -6   2    0.99    1.12 
  -5  -6   2    0.26    0.90 
  -5  -6   2   -0.83    0.67 
  -4  -6   2    1.89    0.79 
  -4  -6   2    1.20    0.85 
  -3  -6   2    0.79    0.60 
  -3  -6   2    1.19    0.71 
  -2  -6   2    9.24    0.90 
  -2  -6   2    8.39    0.94 
  -1  -6   2    5.02    0.74 
  -1  -6   2    4.70    0.62 
   0  -6   2    2.13    0.54 
   0  -6   2    2.74    0.45 
   1  -6   2    6.90    0.51 
   1  -6   2    7.18    0.73 
   2  -6   2    3.09    0.59 
   3  -6   2  103.12    3.32 
   4  -6   2   15.79    1.07 
   5  -6   2   46.46    1.94 
   6  -6   2    1.47    0.65 
   7  -6   2   22.49    1.44 
   8  -6   2   46.62    2.23 
   9  -6   2   22.88    1.70 
  10  -6   2    9.93    1.31 
  -7  -5   2    2.03    1.14 
  -7  -5   2    1.47    1.22 
  -6  -5   2   -0.61    0.69 
  -6  -5   2   -1.64    0.96 
  -5  -5   2    0.23    0.70 
  -5  -5   2    0.38    0.83 
  -4  -5   2    0.71    0.59 
  -4  -5   2    1.11    0.69 
  -3  -5   2    5.99    0.85 
  -3  -5   2    7.99    0.87 
  -2  -5   2   29.21    1.47 
  -2  -5   2   31.29    1.55 
  -1  -5   2  102.72    3.42 
  -1  -5   2  106.81    3.42 
   0  -5   2  163.78    4.87 
   0  -5   2  161.20    4.81 
   1  -5   2  104.74    3.28 
   1  -5   2  106.32    3.14 
   2  -5   2  244.32    6.86 
   3  -5   2  187.45    5.40 
   4  -5   2   82.06    2.50 
   4  -5   2   81.56    2.69 
   5  -5   2   99.93    3.23 
   5  -5   2   97.65    3.14 
   6  -5   2   21.37    1.28 
  -7   5  -2   70.52    2.87 
   7  -5   2   87.58    2.94 
   8  -5   2    1.08    0.70 
   9  -5   2    3.39    0.94 
   9  -5   2    3.88    0.91 
  -8  -4   2    1.31    1.09 
  -7  -4   2   -0.18    0.87 
  -6  -4   2    3.30    1.10 
  -6  -4   2    5.09    1.06 
  -5  -4   2    6.79    1.10 
  -5  -4   2    5.57    0.97 
  -4  -4   2   12.57    1.15 
  -4  -4   2   13.65    1.20 
  -3  -4   2    0.61    0.51 
  -3  -4   2    1.21    0.50 
  -2  -4   2  971.17   27.55 
  -2  -4   2  980.14   26.05 
  -1  -4   2    6.13    0.54 
  -1  -4   2    5.50    0.57 
   0  -4   2   20.47    0.97 
   0  -4   2   19.63    0.84 
  -1   4  -2   85.84    2.50 
   1  -4   2   85.23    2.64 
   2  -4   2   14.38    0.77 
  -3   4  -2   75.22    2.25 
   3  -4   2   74.63    2.37 
  -4   4  -2   27.08    1.09 
   4  -4   2   26.75    1.18 
  -5   4  -2    3.36    0.48 
   5  -4   2    3.25    0.54 
  -6   4  -2   33.76    1.54 
   6  -4   2   29.58    1.49 
  -7   4  -2   32.35    1.73 
   7  -4   2   36.20    1.69 
  -8   4  -2    0.92    0.62 
   8  -4   2    0.54    0.64 
   8  -4   2    0.72    0.59 
  -9   4  -2    9.64    1.26 
   9  -4   2    8.56    1.04 
  -8  -3   2   -0.37    0.89 
  -7  -3   2    0.11    0.73 
  -6  -3   2    7.77    1.12 
  -6  -3   2    9.72    1.28 
  -5  -3   2    7.94    0.98 
  -5  -3   2    8.95    1.14 
  -4  -3   2    1.33    0.55 
  -4  -3   2    2.53    0.68 
  -3  -3   2    5.40    0.67 
  -3  -3   2    4.77    0.68 
  -2  -3   2   50.69    1.87 
  -2  -3   2   48.54    1.87 
  -1  -3   2  208.80    5.66 
  -1  -3   2  205.61    5.98 
  -1  -3   2  194.77    5.73 
   0   3  -2  293.91    8.27 
   0  -3   2  289.55    7.93 
  -1   3  -2  553.85   15.34 
   1  -3   2  535.47   14.44 
  -2   3  -2  438.89   12.14 
   2  -3   2  425.92   11.53 
  -3   3  -2   13.78    0.68 
   3  -3   2   14.89    0.74 
  -5   3  -2   60.96    2.29 
  -6   3  -2  156.96    5.14 
  -7   3  -2   71.78    2.96 
   7  -3   2   72.29    2.66 
  -8   3  -2    0.79    0.68 
   8  -3   2    0.47    0.56 
  -9   3  -2    4.74    1.08 
 -10   3  -2   -0.13    0.86 
   9   2  -2    1.24    1.06 
  -8  -2   2    0.54    0.89 
  -7  -2   2   -0.26    0.71 
  -6  -2   2   40.09    2.13 
  -5  -2   2   24.00    1.52 
  -5  -2   2   25.02    1.50 
  -4  -2   2   77.91    2.82 
  -4  -2   2   69.75    2.73 
  -3  -2   2  410.13   12.02 
  -3  -2   2  417.13   11.44 
  -2  -2   2  283.96    7.75 
  -2  -2   2  271.88    8.11 
   1   2  -2  301.18    8.53 
  -1  -2   2  300.40    8.30 
  -1  -2   2  294.22    8.11 
   0   2  -2  697.45   21.41 
   0  -2   2  792.93   21.03 
   0  -2   2  816.93   20.24 
  -1   2  -2    3.13    0.24 
   1  -2   2    2.62    0.26 
   1  -2   2    3.36    0.27 
  -2   2  -2  292.77    8.59 
   2  -2   2  310.75    8.05 
  -3   2  -2   32.57    1.27 
   3  -2   2   31.35    1.12 
  -4   2  -2   52.44    1.97 
   4  -2   2   50.72    1.84 
  -5   2  -2    1.65    0.50 
   5  -2   2    1.96    0.46 
  -6   2  -2    4.21    0.74 
  -7   2  -2   17.12    1.38 
   7  -2   2   16.34    1.10 
  -8   2  -2    8.06    1.20 
  -9   2  -2    1.04    0.83 
   9   1  -2    2.28    1.14 
  -8  -1   2   -0.84    0.76 
  -7  -1   2    6.84    1.09 
  -6  -1   2    4.53    0.82 
  -5  -1   2   14.44    1.13 
  -4  -1   2    1.69    0.44 
  -4  -1   2    1.27    0.43 
  -3  -1   2   11.24    0.74 
  -3  -1   2   10.42    0.74 
   2   1  -2   38.71    1.42 
  -2  -1   2   39.39    1.40 
   1   1  -2  286.37    8.09 
  -1  -1   2  280.76    7.64 
   0   1  -2   76.69    2.29 
   0  -1   2   73.09    2.26 
   0  -1   2   76.48    2.12 
  -1   1  -2    2.26    0.25 
   1  -1   2    1.68    0.22 
   1  -1   2    1.84    0.14 
  -2   1  -2  101.90    3.23 
   2  -1   2  105.74    3.11 
  -3   1  -2  127.59    4.04 
   3  -1   2  128.76    3.83 
  -4   1  -2  130.69    4.21 
   4  -1   2  125.27    3.87 
  -5   1  -2   30.15    1.58 
   5  -1   2   29.41    1.30 
  -6   1  -2   73.33    3.00 
   6  -1   2   72.78    2.55 
  -7   1  -2   10.67    1.20 
  -8   1  -2    8.55    1.28 
  -9   1  -2    6.58    1.33 
  10   0  -2    1.10    1.11 
   9   0  -2    0.33    0.96 
   8   0  -2    4.50    1.10 
   7   0  -2    6.41    1.05 
  -6   0   2   81.63    3.24 
  -5   0   2   28.70    1.50 
   4   0  -2   51.01    1.97 
   3   0  -2  207.75    6.20 
   2   0  -2  565.21   15.95 
   1   0  -2  117.96    3.52 
   0   0  -2  129.12    3.87 
   0   0   2  129.69    3.88 
  -1   0  -2  436.05   12.42 
   1   0   2  436.22   12.14 
  -2   0  -2   88.02    2.88 
   2   0   2   86.18    2.68 
  -3   0  -2  178.57    5.64 
   3   0   2  185.93    5.32 
  -4   0  -2  106.19    3.71 
   4   0   2  106.98    3.33 
  -5   0  -2    8.21    0.93 
   5   0   2   10.21    0.76 
  -6   0  -2   11.03    1.15 
  -7   0  -2   16.92    1.55 
  -8   0  -2    1.58    0.89 
  -9   0  -2    0.95    1.00 
  10  -1  -2    0.57    1.07 
   9  -1  -2    1.26    1.02 
   8  -1  -2   15.50    1.55 
   7  -1  -2    6.87    1.03 
   6  -1  -2   82.74    3.20 
   5  -1  -2   19.77    1.18 
   4  -1  -2   10.83    0.76 
   3  -1  -2  101.05    3.19 
   2  -1  -2  212.54    6.21 
   1  -1  -2   28.29    1.10 
   0  -1  -2   40.45    1.51 
   0  -1  -2   43.43    1.25 
  -1  -1  -2    1.19    0.31 
  -1  -1  -2    1.02    0.19 
   1   1   2    1.24    0.31 
  -2  -1  -2   44.32    1.48 
  -2  -1  -2   44.95    1.78 
   2   1   2   43.58    1.63 
  -3  -1  -2    9.59    0.84 
  -3  -1  -2   10.96    0.69 
   3   1   2   10.10    0.72 
  -4  -1  -2    0.73    0.47 
   4   1   2    0.09    0.35 
  -5  -1  -2   23.65    1.54 
   5   1   2   25.76    1.26 
  -6  -1  -2   20.07    1.57 
  -7  -1  -2   12.44    1.45 
  -8  -1  -2    7.17    1.37 
  10  -2  -2   -0.43    0.93 
   9  -2  -2    4.33    1.14 
   8  -2  -2    2.96    0.93 
   7  -2  -2    1.43    0.69 
   6  -2  -2   10.06    0.93 
   5  -2  -2   18.71    1.11 
   4  -2  -2   84.20    2.82 
   3  -2  -2  236.76    6.96 
   2  -2  -2  367.71   10.53 
   1  -2  -2  285.93    7.65 
   1  -2  -2  282.50    8.27 
   0  -2  -2  153.74    4.70 
  -1  -2  -2  214.13    5.95 
  -1  -2  -2  220.70    6.58 
  -2  -2  -2   78.80    2.57 
  -2  -2  -2   85.30    2.97 
   2   2   2   82.01    2.68 
  -3  -2  -2  203.01    6.44 
  -3  -2  -2  207.97    5.90 
   3   2   2  197.62    5.99 
  -4  -2  -2   29.33    1.44 
  -4  -2  -2   30.31    1.70 
   4   2   2   27.39    1.31 
  -5  -2  -2   18.55    1.47 
  -6  -2  -2    7.11    1.14 
  -7  -2  -2   16.30    1.71 
  -8  -2  -2    8.03    1.44 
  10  -3  -2    8.38    1.43 
   9  -3  -2    1.01    0.86 
   8  -3  -2   25.76    1.72 
   7  -3  -2   20.26    1.37 
   6  -3  -2   76.79    2.88 
   5  -3  -2   66.98    2.45 
   4  -3  -2  324.46    9.47 
   3  -3  -2   23.69    1.07 
   3  -3  -2   21.99    1.03 
   2  -3  -2  263.98    7.20 
   2  -3  -2  258.48    7.67 
   1  -3  -2   39.07    1.55 
   1  -3  -2   39.11    1.38 
   0  -3  -2   18.53    0.83 
   0  -3  -2   16.75    0.96 
  -1  -3  -2    2.38    0.33 
  -1  -3  -2    6.29    0.68 
  -3  -3  -2    8.61    0.96 
  -4  -3  -2    8.86    1.06 
  -4  -3  -2    4.86    0.65 
  -5  -3  -2    6.27    1.09 
  -6  -3  -2    0.34    0.83 
  -7  -3  -2   11.05    1.53 
  10  -4  -2    2.82    1.09 
   9  -4  -2   -0.42    0.81 
   8  -4  -2    0.21    0.69 
   7  -4  -2    0.82    0.56 
   6  -4  -2    9.14    0.85 
   5  -4  -2   19.39    1.08 
   4  -4  -2   86.49    2.95 
   4  -4  -2   89.86    2.99 
   3  -4  -2   20.60    1.04 
   3  -4  -2   18.30    1.02 
   2  -4  -2  226.69    6.31 
   2  -4  -2  221.26    6.72 
   1  -4  -2   88.32    2.73 
   1  -4  -2   85.92    2.95 
   0  -4  -2   18.88    1.09 
   0  -4  -2   17.09    0.91 
  -1  -4  -2   94.40    3.33 
  -1  -4  -2   89.45    2.94 
  -2  -4  -2   30.55    1.38 
  -2  -4  -2   23.52    1.49 
  -3  -4  -2  106.60    4.00 
  -3  -4  -2  108.53    3.66 
  -4  -4  -2    1.39    0.80 
  -4  -4  -2    0.33    0.44 
  -5  -4  -2    4.92    1.15 
  -6  -4  -2    3.78    1.14 
  -7  -4  -2    1.91    1.14 
   9  -5  -2   11.60    1.31 
   8  -5  -2   36.33    1.97 
   8  -5  -2   35.74    1.88 
   7  -5  -2    2.40    0.66 
   7  -5  -2    1.14    0.72 
   6  -5  -2  378.63   11.42 
   6  -5  -2  397.51   11.05 
   5  -5  -2   84.91    2.98 
   5  -5  -2   82.75    2.93 
   4  -5  -2   20.15    1.20 
   4  -5  -2   20.44    1.13 
   3  -5  -2  166.04    4.89 
   3  -5  -2  160.35    5.11 
   2  -5  -2  144.33    4.35 
   2  -5  -2  144.62    4.61 
   1  -5  -2    2.87    0.51 
   1  -5  -2    2.54    0.55 
   0  -5  -2   20.99    1.29 
   0  -5  -2   22.89    1.14 
  -1  -5  -2   43.94    2.05 
  -1  -5  -2   44.03    1.80 
  -2  -5  -2   14.35    1.06 
  -2  -5  -2   11.62    1.15 
  -3  -5  -2    0.52    0.69 
  -3  -5  -2    0.61    0.65 
  -4  -5  -2    0.96    0.80 
  -5  -5  -2   -1.10    0.79 
  -6  -5  -2    0.27    0.97 
  10  -6  -2    9.18    1.37 
   9  -6  -2    5.54    1.15 
   8  -6  -2    9.70    1.23 
   7  -6  -2   27.38    1.55 
   7  -6  -2   27.83    1.72 
   6  -6  -2    1.79    0.60 
   6  -6  -2    1.93    0.78 
   5  -6  -2    2.18    0.71 
   5  -6  -2    3.94    0.64 
   4  -6  -2   -0.46    0.52 
   4  -6  -2   -0.11    0.43 
   3  -6  -2   10.15    0.84 
   3  -6  -2   10.49    0.92 
   2  -6  -2   33.74    1.63 
   2  -6  -2   36.47    1.57 
   1  -6  -2    2.58    0.60 
   1  -6  -2    1.23    0.54 
   0  -6  -2   24.32    1.48 
   0  -6  -2   24.54    1.32 
  -1  -6  -2    1.99    0.71 
  -1  -6  -2    0.38    0.57 
  -2  -6  -2    5.13    0.93 
  -2  -6  -2    3.41    0.79 
  -3  -6  -2    8.20    1.13 
  -3  -6  -2   10.47    1.33 
  -4  -6  -2    0.19    0.88 
  -5  -6  -2    1.89    1.08 
  10  -7  -2    2.96    1.11 
   9  -7  -2    5.84    1.27 
   8  -7  -2    4.22    1.09 
   7  -7  -2   37.16    2.10 
   6  -7  -2  122.48    4.24 
   5  -7  -2   11.11    1.13 
   4  -7  -2   27.78    1.61 
   4  -7  -2   29.31    1.51 
   3  -7  -2    8.55    0.91 
   3  -7  -2    8.93    0.88 
   2  -7  -2   52.34    2.15 
   2  -7  -2   53.89    2.24 
   1  -7  -2   17.92    1.27 
   1  -7  -2   18.34    1.25 
   0  -7  -2   20.92    1.33 
   0  -7  -2   19.17    1.43 
  -1  -7  -2    8.27    0.99 
  -1  -7  -2    8.40    1.12 
  -2  -7  -2   -0.13    0.70 
  -2  -7  -2    0.09    0.71 
  -3  -7  -2    6.56    1.28 
  -4  -7  -2   -0.88    0.87 
  10  -8  -2    4.28    1.21 
   9  -8  -2    7.73    1.34 
   8  -8  -2    5.87    1.20 
   7  -8  -2    8.56    1.25 
   6  -8  -2    3.55    0.96 
   5  -8  -2   11.26    1.20 
   4  -8  -2    0.26    0.70 
   3  -8  -2    1.41    0.69 
   2  -8  -2    5.37    0.84 
   2  -8  -2    4.36    0.88 
   1  -8  -2    3.63    0.87 
   1  -8  -2    3.88    0.85 
   0  -8  -2    0.42    0.74 
   0  -8  -2   -0.26    0.68 
  -1  -8  -2   -0.15    0.71 
  -1  -8  -2   -0.27    0.67 
  -2  -8  -2    0.46    0.92 
  -3  -8  -2   -1.28    0.87 
   9  -9  -2    2.61    1.13 
   8  -9  -2    5.04    1.24 
   7  -9  -2    1.07    0.91 
   6  -9  -2    3.81    1.11 
   5  -9  -2    4.03    0.99 
   4  -9  -2    0.66    0.78 
   3  -9  -2   36.92    1.98 
   2  -9  -2    2.40    0.90 
   1  -9  -2    2.97    0.93 
   0  -9  -2    3.04    0.99 
  -1  -9  -2    2.81    1.09 
  -2  -9  -2   -0.37    0.99 
   9 -10  -2   12.89    1.64 
   8 -10  -2    0.57    1.07 
   7 -10  -2    3.93    1.15 
   6 -10  -2    9.91    1.43 
   5 -10  -2    5.33    1.08 
   4 -10  -2   -0.48    0.81 
   3 -10  -2   10.78    1.32 
   2 -10  -2    4.88    1.07 
   1 -10  -2    0.87    0.93 
   0 -10  -2    1.26    1.02 
   7 -11  -2    0.70    1.09 
   6 -11  -2    2.77    1.14 
   5 -11  -2   -0.26    0.91 
   4 -11  -2    0.53    0.98 
   3 -11  -2    1.32    1.02 
   2 -11  -2    1.47    1.04 
   1 -11  -2    5.44    1.34 
   4 -13   3    2.46    1.10 
   0 -12   3    0.19    1.11 
   1 -12   3    1.80    1.12 
   2 -12   3   -0.09    0.98 
   3 -12   3    0.93    0.99 
   4 -12   3    1.66    1.10 
   5 -12   3    5.81    1.28 
   6 -12   3    1.46    1.13 
   7 -12   3    3.03    1.23 
  -1 -11   3    1.68    1.01 
   0 -11   3    0.27    0.89 
   1 -11   3    1.87    0.95 
   2 -11   3    0.60    0.92 
   3 -11   3    1.36    0.91 
   4 -11   3   -0.11    0.83 
   5 -11   3    0.42    0.95 
   6 -11   3    0.80    0.98 
   7 -11   3    0.57    1.00 
   8 -11   3    0.50    1.04 
  -3 -10   3    0.34    1.04 
  -2 -10   3    2.01    1.10 
  -1 -10   3    1.95    1.00 
   0 -10   3    2.03    0.99 
   1 -10   3    0.25    0.86 
   2 -10   3    3.74    1.03 
   3 -10   3    5.78    1.07 
   4 -10   3   19.39    1.53 
   5 -10   3   20.93    1.60 
   6 -10   3    6.50    1.09 
   7 -10   3   19.92    1.67 
   8 -10   3    6.06    1.29 
   9 -10   3   12.51    1.59 
  -4  -9   3    0.18    1.10 
  -3  -9   3    1.07    1.04 
  -2  -9   3    1.21    0.94 
  -1  -9   3    1.80    0.93 
   0  -9   3   18.65    1.52 
   1  -9   3    2.72    0.88 
   2  -9   3    2.38    0.82 
   3  -9   3    6.90    1.02 
   4  -9   3    2.89    0.78 
   5  -9   3   13.00    1.22 
   6  -9   3    2.66    0.90 
   7  -9   3   -0.46    0.75 
   8  -9   3    3.53    1.06 
   9  -9   3   -0.78    0.96 
  -5  -8   3    0.35    1.00 
  -5  -8   3    1.46    1.17 
  -4  -8   3   -0.11    0.83 
  -4  -8   3   -0.23    0.96 
  -3  -8   3    0.91    0.90 
  -3  -8   3    1.58    0.79 
  -2  -8   3    0.66    0.80 
  -2  -8   3   -0.13    0.60 
  -1  -8   3    0.23    0.68 
  -1  -8   3    0.41    0.57 
   0  -8   3   -0.33    0.64 
   1  -8   3    1.18    0.68 
   2  -8   3   71.88    2.71 
   3  -8   3   15.99    1.21 
   4  -8   3   44.47    2.00 
   5  -8   3    8.92    1.01 
   6  -8   3   25.45    1.57 
   7  -8   3   65.09    2.78 
   8  -8   3   34.98    1.98 
   9  -8   3   13.44    1.48 
  -6  -7   3    0.04    1.09 
  -6  -7   3   -0.22    0.94 
  -5  -7   3    0.82    1.02 
  -5  -7   3   -0.47    0.82 
  -4  -7   3    1.00    0.84 
  -4  -7   3    0.75    0.84 
  -3  -7   3    6.81    1.11 
  -3  -7   3    5.14    0.94 
  -2  -7   3   20.00    1.49 
  -2  -7   3   23.54    1.46 
  -1  -7   3   33.06    1.72 
  -1  -7   3   31.05    1.57 
   0  -7   3   24.87    1.23 
   0  -7   3   24.75    1.41 
  -1   7  -3   47.28    1.63 
   1  -7   3   45.18    1.99 
   2  -7   3   60.97    2.34 
   3  -7   3   19.45    1.20 
   4  -7   3   53.44    2.11 
   5  -7   3    5.87    0.81 
   6  -7   3   52.92    2.25 
   7  -7   3   -0.57    0.66 
   8  -7   3    1.69    0.80 
  10  -7   3    4.63    1.11 
  -7  -6   3   -0.07    1.10 
  -7  -6   3    0.49    0.99 
  -6  -6   3   -0.24    0.86 
  -6  -6   3    0.17    1.05 
  -5  -6   3    0.70    0.94 
  -5  -6   3    0.75    0.83 
  -4  -6   3    0.73    0.70 
  -4  -6   3    3.29    0.98 
  -3  -6   3  138.82    4.89 
  -3  -6   3  146.34    4.87 
  -2  -6   3    9.47    1.00 
  -2  -6   3    8.91    0.89 
  -1  -6   3   17.35    1.05 
  -1  -6   3   16.49    1.12 
  -1  -6   3   15.20    0.75 
   0  -6   3    3.65    0.67 
   0  -6   3    4.79    0.51 
  -1   6  -3    4.41    0.36 
   1  -6   3    4.20    0.66 
   2  -6   3  102.92    3.31 
   3  -6   3    0.71    0.47 
   4  -6   3    5.78    0.70 
   5  -6   3   63.06    2.34 
   6  -6   3  103.35    3.48 
   7  -6   3    7.73    0.96 
   8  -6   3   22.57    1.55 
   9  -6   3   17.09    1.45 
  10  -6   3    5.31    1.11 
  -7  -5   3    1.86    1.10 
  -7  -5   3    1.65    1.17 
  -6  -5   3    3.67    1.20 
  -6  -5   3    3.37    1.04 
  -5  -5   3    2.08    0.79 
  -5  -5   3    1.97    0.94 
  -4  -5   3    3.91    0.81 
  -4  -5   3    4.55    0.97 
  -3  -5   3   20.38    1.35 
  -3  -5   3   19.58    1.31 
  -2  -5   3   80.76    2.91 
  -2  -5   3   79.65    2.90 
  -1  -5   3   88.03    3.03 
  -1  -5   3   89.84    3.02 
  -1  -5   3   90.70    2.69 
   0   5  -3  166.65    5.01 
   0  -5   3  171.36    5.02 
  -1   5  -3  204.67    5.77 
   1  -5   3  198.38    5.78 
   2  -5   3   10.92    0.75 
   3  -5   3  119.64    3.62 
  -4   5  -3   82.46    2.59 
   4  -5   3   85.70    2.75 
  -5   5  -3  185.44    5.50 
   5  -5   3  178.20    5.35 
  -6   5  -3   86.57    3.01 
   6  -5   3   86.18    2.97 
  -7   5  -3    0.38    0.35 
   7  -5   3    0.79    0.64 
   8  -5   3   12.40    1.18 
   8  -5   3   14.52    1.20 
   9  -5   3   -0.13    0.70 
   8   4  -3   -0.95    0.85 
  -7  -4   3    6.60    1.28 
  -6  -4   3    4.11    1.01 
  -6  -4   3    3.03    1.06 
  -5  -4   3    9.08    1.20 
  -5  -4   3    7.51    1.04 
  -4  -4   3   69.86    2.85 
  -4  -4   3   74.34    2.91 
  -3  -4   3   50.59    2.20 
  -3  -4   3   52.99    2.18 
  -2  -4   3  188.39    5.88 
  -2  -4   3  190.76    5.70 
  -2  -4   3  193.77    5.42 
   1   4  -3  258.73    7.58 
  -1  -4   3  257.71    7.26 
  -1  -4   3  262.19    7.32 
   0   4  -3    0.48    0.21 
   0  -4   3    0.41    0.16 
   0  -4   3    0.90    0.35 
  -1   4  -3   45.61    1.41 
   1  -4   3   42.41    1.55 
  -2   4  -3   -0.02    0.13 
   2  -4   3    0.06    0.28 
  -3   4  -3   14.51    0.68 
   3  -4   3   15.32    0.80 
  -4   4  -3   56.38    1.94 
   4  -4   3   54.03    1.90 
  -5   4  -3    1.27    0.42 
   5  -4   3    1.72    0.50 
  -6   4  -3    3.57    0.63 
   6  -4   3    6.33    0.73 
   6  -4   3    4.90    0.70 
  -7   4  -3   45.94    2.15 
   7  -4   3   45.54    1.97 
   7  -4   3   47.32    2.04 
  -8   4  -3   13.95    1.29 
   8  -4   3   13.10    1.13 
  -9   4  -3    3.34    0.96 
   8   3  -3    1.14    0.89 
  -7  -3   3   -0.24    0.84 
  -6  -3   3    0.80    0.81 
  -6  -3   3   -0.33    0.64 
  -5  -3   3    3.44    0.79 
  -5  -3   3    3.31    0.90 
  -4  -3   3   13.19    1.10 
  -4  -3   3   12.81    1.04 
  -3  -3   3   41.37    1.83 
  -3  -3   3   44.39    1.85 
   2   3  -3  187.99    5.56 
  -2  -3   3  176.92    5.36 
  -2  -3   3  183.63    5.21 
   1   3  -3   86.84    2.70 
  -1  -3   3   83.36    2.54 
  -1  -3   3   81.91    2.64 
   0   3  -3    8.63    0.48 
   0  -3   3    8.13    0.50 
   0  -3   3    7.68    0.54 
  -1   3  -3  132.52    3.87 
   1  -3   3  126.70    3.89 
   1  -3   3  134.88    3.73 
  -2   3  -3  218.32    6.28 
   2  -3   3  217.18    5.93 
   2  -3   3  216.13    6.30 
  -3   3  -3  319.85    9.10 
   3  -3   3  315.61    9.00 
   3  -3   3  309.11    8.48 
  -4   3  -3   85.57    2.85 
   4  -3   3   85.38    2.82 
   4  -3   3   81.16    2.57 
  -5   3  -3  220.58    6.79 
   5  -3   3  217.38    6.23 
   5  -3   3  223.08    6.59 
  -6   3  -3   28.70    1.57 
   6  -3   3   29.73    1.36 
   6  -3   3   29.69    1.45 
  -7   3  -3   23.76    1.57 
   7  -3   3   22.11    1.31 
  -8   3  -3   24.44    1.70 
   8  -3   3   23.94    1.51 
  -9   3  -3   17.16    1.64 
   9   2  -3    0.96    1.10 
   8   2  -3    0.93    0.95 
   7   2  -3   17.43    1.54 
  -6  -2   3    5.97    1.03 
  -5  -2   3   18.80    1.28 
  -5  -2   3   12.97    1.17 
   4   2  -3   52.59    2.17 
  -4  -2   3   54.74    2.21 
   3   2  -3  135.29    4.34 
  -3  -2   3  136.09    4.21 
   2   2  -3   49.46    1.84 
  -2  -2   3   53.72    1.86 
   1   2  -3   78.39    2.47 
  -1  -2   3   77.02    2.40 
   0   2  -3  237.62    7.18 
   0  -2   3  255.07    6.76 
   0  -2   3  257.51    7.08 
   1  -2   3   80.70    2.24 
   1  -2   3   76.35    2.44 
  -2   2  -3  106.11    3.35 
   2  -2   3  108.67    2.99 
   2  -2   3  108.27    3.30 
  -3   2  -3   98.37    3.23 
   3  -2   3   99.60    3.13 
   3  -2   3   99.17    2.83 
  -4   2  -3    2.76    0.51 
   4  -2   3    2.67    0.45 
  -5   2  -3    7.22    0.81 
   5  -2   3    7.12    0.71 
  -6   2  -3    6.18    0.86 
   6  -2   3    6.96    0.75 
  -7   2  -3   12.85    1.28 
   7  -2   3   11.24    0.98 
  -8   2  -3    1.87    0.86 
  -9   2  -3    0.55    0.87 
   9   1  -3    0.25    1.06 
   8   1  -3    0.64    0.91 
   7   1  -3    9.24    1.21 
   6   1  -3   -0.35    0.55 
   5   1  -3   15.30    1.18 
   4   1  -3    9.13    0.81 
   3   1  -3    5.62    0.55 
  -3  -1   3    5.81    0.57 
   2   1  -3    2.51    0.35 
  -2  -1   3    2.37    0.36 
   1   1  -3  147.04    4.27 
  -1  -1   3  136.08    4.29 
  -1  -1   3  142.69    3.99 
   0   1  -3   48.96    1.70 
   0  -1   3   51.52    1.46 
   0  -1   3   46.89    1.70 
  -1   1  -3  162.98    4.85 
   1  -1   3  162.15    4.73 
   1  -1   3  158.09    4.30 
  -2   1  -3  108.49    3.48 
   2  -1   3  106.11    3.33 
   2  -1   3  110.63    2.94 
  -3   1  -3   18.29    1.03 
   3  -1   3   19.59    0.94 
  -4   1  -3  123.94    4.27 
   4  -1   3  133.00    4.02 
  -5   1  -3  108.84    4.13 
   5  -1   3  127.91    3.85 
  -6   1  -3   51.59    2.42 
   6  -1   3   49.83    2.04 
  -7   1  -3   34.44    2.09 
  -8   1  -3    9.81    1.36 
  -9   1  -3    1.13    0.97 
  10   0  -3    1.14    1.14 
   9   0  -3    1.66    1.07 
   8   0  -3    1.91    0.97 
   7   0  -3    7.45    1.11 
   6   0  -3   10.31    1.06 
   5   0  -3   82.51    3.07 
   4   0  -3  143.62    4.59 
   3   0  -3  239.65    7.11 
   2   0  -3  236.86    6.96 
   1   0  -3  245.37    7.17 
   0   0  -3  326.23    9.20 
   0   0   3  306.24    9.09 
  -1   0  -3  270.86    7.93 
   1   0   3  268.16    7.80 
  -2   0  -3  417.98   12.32 
   2   0   3  430.42   11.99 
  -3   0  -3   32.87    1.57 
   3   0   3   34.35    1.44 
  -4   0  -3   45.47    2.04 
   4   0   3   45.05    1.81 
  -5   0  -3   17.90    1.32 
   5   0   3   19.58    1.17 
  -6   0  -3   33.53    1.99 
  -7   0  -3   20.39    1.70 
  -8   0  -3    0.27    0.84 
  10  -1  -3   -0.11    0.99 
   9  -1  -3    5.74    1.30 
   8  -1  -3    4.17    1.07 
   7  -1  -3   28.97    1.78 
   6  -1  -3    6.61    0.87 
   5  -1  -3  100.76    3.49 
   4  -1  -3    6.34    0.62 
   3  -1  -3   59.31    2.11 
   2  -1  -3    1.29    0.35 
   1  -1  -3    0.26    0.28 
   0  -1  -3   84.77    2.90 
   0  -1  -3   91.89    2.46 
   0   1   3   84.96    2.92 
  -1  -1  -3    0.44    0.34 
  -1  -1  -3    0.16    0.17 
   1   1   3    0.90    0.35 
  -2  -1  -3    3.73    0.60 
  -2  -1  -3    3.16    0.33 
   2   1   3    2.88    0.50 
  -3  -1  -3  126.08    4.16 
  -3  -1  -3  119.30    3.47 
   3   1   3  113.51    3.84 
  -4  -1  -3   76.82    2.97 
   4   1   3   68.84    2.61 
  -5  -1  -3    2.42    0.75 
   5   1   3    2.64    0.60 
  -6  -1  -3   56.76    2.82 
  -7  -1  -3    3.56    1.06 
  -8  -1  -3    0.09    0.91 
  10  -2  -3    2.04    1.11 
   9  -2  -3    0.29    0.84 
   8  -2  -3    0.23    0.71 
   7  -2  -3    0.56    0.59 
   6  -2  -3   32.69    1.69 
   5  -2  -3  119.45    3.97 
   4  -2  -3   68.68    2.44 
   3  -2  -3  316.14    9.27 
   2  -2  -3  267.02    7.90 
   1  -2  -3   60.26    1.88 
   1  -2  -3   62.33    2.24 
   0  -2  -3  328.47    9.57 
   0  -2  -3  319.48    8.66 
  -1  -2  -3  148.56    4.89 
  -1  -2  -3  156.32    4.28 
  -2  -2  -3  391.76   10.53 
  -2  -2  -3  401.44   11.59 
   2   2   3  370.98   11.10 
  -3  -2  -3   12.31    1.13 
  -3  -2  -3   11.61    0.81 
   3   2   3   12.17    0.87 
  -4  -2  -3   17.70    1.05 
  -4  -2  -3   18.31    1.42 
   4   2   3   19.06    1.13 
  -5  -2  -3   24.69    1.78 
  -6  -2  -3    1.86    0.91 
  -7  -2  -3    4.52    1.18 
  -8  -2  -3    1.63    1.12 
  10  -3  -3    4.55    1.26 
   9  -3  -3   23.10    1.85 
   8  -3  -3    1.86    0.81 
   7  -3  -3  240.34    7.60 
   6  -3  -3   50.47    2.16 
   5  -3  -3    3.97    0.62 
   4  -3  -3  131.35    4.25 
   3  -3  -3  170.57    5.36 
   3  -3  -3  176.10    5.05 
   2  -3  -3   75.45    2.39 
   2  -3  -3   74.35    2.65 
   1  -3  -3   13.22    0.89 
   1  -3  -3   12.89    0.69 
   0  -3  -3   61.62    2.36 
  -1  -3  -3   16.64    0.86 
  -1  -3  -3   18.81    1.20 
  -2  -3  -3   12.85    1.11 
  -2  -3  -3   12.56    0.85 
  -3  -3  -3    1.61    0.68 
  -3  -3  -3    1.66    0.55 
  -4  -3  -3    5.85    1.05 
  -5  -3  -3    2.50    0.94 
  -6  -3  -3    1.48    0.99 
  -7  -3  -3    3.46    1.14 
  10  -4  -3    1.37    1.03 
   9  -4  -3    0.64    0.83 
   8  -4  -3    7.31    1.04 
   7  -4  -3   10.74    1.03 
   6  -4  -3   26.60    1.44 
   5  -4  -3   11.58    0.93 
   4  -4  -3   61.23    2.28 
   4  -4  -3   60.73    2.31 
   3  -4  -3  133.04    4.38 
   3  -4  -3  135.89    4.09 
   2  -4  -3    1.51    0.42 
   2  -4  -3    1.29    0.46 
   1  -4  -3  160.58    5.17 
   1  -4  -3  161.12    4.67 
   0  -4  -3   42.90    1.95 
   0  -4  -3   44.69    1.65 
  -1  -4  -3   40.88    1.99 
  -2  -4  -3   65.79    2.80 
  -2  -4  -3   67.23    2.40 
  -3  -4  -3    5.27    0.99 
  -4  -4  -3   13.76    1.45 
  -5  -4  -3    0.31    0.85 
  -6  -4  -3    3.32    1.16 
   9  -5  -3    3.90    0.99 
   8  -5  -3   40.47    2.07 
   7  -5  -3  140.93    4.85 
   7  -5  -3  144.82    4.81 
   6  -5  -3    4.59    0.76 
   6  -5  -3    3.02    0.78 
   5  -5  -3   58.98    2.35 
   5  -5  -3   58.46    2.34 
   4  -5  -3   23.09    1.34 
   4  -5  -3   22.92    1.32 
   3  -5  -3   84.66    2.86 
   3  -5  -3   82.72    3.04 
   2  -5  -3   34.49    1.53 
   2  -5  -3   37.98    1.77 
   1  -5  -3   61.16    2.43 
   1  -5  -3   56.44    2.09 
   0  -5  -3   19.21    1.31 
   0  -5  -3   18.77    1.07 
  -1  -5  -3    1.40    0.65 
  -1  -5  -3    0.90    0.52 
  -2  -5  -3   13.21    1.32 
  -3  -5  -3    0.37    0.74 
  -4  -5  -3    2.07    0.99 
  -5  -5  -3    0.95    0.99 
  -6  -5  -3   -0.13    0.89 
  10  -6  -3    0.61    0.92 
   9  -6  -3   -0.04    0.78 
   8  -6  -3    3.01    0.96 
   7  -6  -3   -0.27    0.75 
   7  -6  -3   -0.62    0.57 
   6  -6  -3    1.72    0.64 
   6  -6  -3    2.17    0.82 
   5  -6  -3    4.49    0.78 
   5  -6  -3    3.77    0.80 
   4  -6  -3   12.29    1.07 
   4  -6  -3   13.23    1.10 
   3  -6  -3    0.50    0.52 
   3  -6  -3   -0.55    0.51 
   2  -6  -3    0.49    0.53 
   2  -6  -3    0.43    0.51 
   1  -6  -3   13.83    1.01 
   1  -6  -3   12.53    1.10 
   0  -6  -3    5.67    0.92 
   0  -6  -3    5.66    0.77 
  -1  -6  -3   14.65    1.14 
  -1  -6  -3   13.47    1.32 
  -2  -6  -3    8.92    1.25 
  -3  -6  -3    2.60    1.02 
  -4  -6  -3    0.43    0.97 
  -5  -6  -3    2.47    1.15 
  10  -7  -3    2.47    1.06 
   9  -7  -3    5.24    1.17 
   8  -7  -3   10.74    1.43 
   7  -7  -3   12.88    1.37 
   6  -7  -3   12.38    1.22 
   5  -7  -3    8.85    1.10 
   5  -7  -3   12.06    1.13 
   4  -7  -3  109.48    3.78 
   4  -7  -3  108.08    3.92 
   3  -7  -3   21.53    1.42 
   3  -7  -3   22.20    1.40 
   2  -7  -3   12.14    1.14 
   2  -7  -3   12.41    1.05 
   1  -7  -3   19.44    1.45 
   1  -7  -3   18.09    1.28 
   0  -7  -3   12.20    1.09 
   0  -7  -3   11.93    1.27 
  -1  -7  -3    7.94    1.22 
  -1  -7  -3    7.38    1.01 
  -2  -7  -3   17.68    1.68 
  -3  -7  -3   -0.29    0.94 
  -4  -7  -3   -0.19    0.99 
  10  -8  -3   10.67    1.55 
   9  -8  -3    0.67    1.01 
   8  -8  -3    6.71    1.23 
   7  -8  -3    9.74    1.37 
   6  -8  -3    5.95    1.14 
   5  -8  -3    0.73    0.86 
   4  -8  -3   17.64    1.43 
   3  -8  -3    4.04    0.86 
   2  -8  -3    5.79    0.96 
   2  -8  -3    8.41    1.04 
   1  -8  -3    3.15    0.85 
   1  -8  -3    1.97    0.81 
   0  -8  -3    1.25    0.82 
   0  -8  -3   -0.10    0.71 
  -1  -8  -3   -0.36    0.75 
  -2  -8  -3    2.74    1.10 
  -3  -8  -3   -0.15    0.98 
   9  -9  -3    1.09    1.09 
   8  -9  -3    1.84    1.02 
   7  -9  -3   14.62    1.60 
   6  -9  -3    6.06    1.19 
   5  -9  -3    6.18    1.12 
   4  -9  -3   11.22    1.26 
   3  -9  -3   -0.19    0.75 
   2  -9  -3   26.68    1.73 
   1  -9  -3    5.40    1.09 
  -1  -9  -3   -0.31    0.95 
   8 -10  -3    1.86    1.18 
   7 -10  -3   23.91    2.02 
   6 -10  -3    5.89    1.31 
   5 -10  -3    0.07    0.88 
   4 -10  -3    0.25    0.87 
   3 -10  -3    0.17    0.94 
   2 -10  -3    6.55    1.21 
   1 -10  -3    1.95    1.00 
   7 -11  -3    2.23    1.26 
   6 -11  -3    2.51    1.15 
   5 -11  -3    0.19    0.99 
   4 -11  -3    2.87    1.13 
   3 -11  -3    0.81    0.99 
   3 -13   4   -0.07    0.99 
   4 -13   4    2.05    1.16 
   5 -13   4    2.33    1.19 
   0 -12   4    0.83    1.10 
   1 -12   4   -0.33    0.96 
   2 -12   4    0.34    1.04 
   3 -12   4    3.31    1.17 
   4 -12   4    4.52    1.21 
   5 -12   4    1.60    1.06 
   6 -12   4    6.40    1.31 
   7 -12   4    2.45    1.14 
  -2 -11   4    2.02    1.22 
  -1 -11   4    1.36    1.11 
   0 -11   4   -0.44    0.88 
   1 -11   4   -0.23    0.91 
   2 -11   4    1.09    0.92 
   3 -11   4   -0.15    0.88 
   4 -11   4    1.11    0.92 
   5 -11   4   -0.06    0.89 
   6 -11   4    2.33    1.04 
   7 -11   4    6.23    1.25 
   8 -11   4    0.83    1.14 
  -3 -10   4    0.64    1.11 
  -2 -10   4    1.08    1.02 
  -1 -10   4   -1.09    0.81 
   0 -10   4   -0.19    0.88 
   1 -10   4   24.32    1.80 
   2 -10   4    4.14    1.03 
   3 -10   4   13.61    1.35 
   4 -10   4    5.00    0.99 
   5 -10   4   12.74    1.32 
   6 -10   4   35.95    2.01 
   7 -10   4   21.48    1.68 
   8 -10   4   12.14    1.50 
   9 -10   4    6.24    1.33 
  -4  -9   4    0.90    1.08 
  -3  -9   4    3.65    1.12 
  -2  -9   4    2.76    1.03 
  -1  -9   4    2.06    0.92 
   0  -9   4    5.19    1.00 
   1  -9   4    6.31    1.04 
   2  -9   4    1.42    0.74 
   3  -9   4   13.38    1.21 
   4  -9   4    0.15    0.69 
   5  -9   4    9.30    1.06 
   6  -9   4    3.33    0.87 
   7  -9   4    2.22    0.91 
   8  -9   4    1.13    0.95 
   5   8  -4    1.13    0.90 
  -5  -8   4    2.04    1.21 
  -4  -8   4   22.75    1.90 
  -4  -8   4   20.29    1.86 
  -3  -8   4    4.92    1.16 
  -3  -8   4    7.28    1.17 
  -2  -8   4    6.30    0.98 
  -2  -8   4    8.00    1.17 
  -1  -8   4    0.35    0.69 
   0  -8   4    8.83    1.09 
   1  -8   4   40.04    1.96 
   2  -8   4    0.92    0.61 
   3  -8   4   11.25    1.02 
   4  -8   4   39.32    1.84 
   5  -8   4  118.91    3.95 
   6  -8   4   15.78    1.26 
   7  -8   4   23.84    1.56 
   8  -8   4   22.85    1.70 
   9  -8   4    7.85    1.24 
   6   7  -4    0.66    0.88 
  -6  -7   4    0.23    1.11 
  -5  -7   4   -0.26    0.97 
  -5  -7   4    0.62    0.92 
  -4  -7   4    2.60    0.94 
  -4  -7   4    4.32    1.16 
  -3  -7   4   14.14    1.33 
  -3  -7   4   13.42    1.37 
  -2  -7   4   13.28    1.22 
   1   7  -4   17.60    1.08 
  -1  -7   4   21.97    1.44 
   0   7  -4   42.74    1.67 
   0  -7   4   41.97    1.62 
   0  -7   4   43.40    1.97 
   1  -7   4    0.87    0.54 
   2  -7   4   31.44    1.53 
   3  -7   4   25.03    1.35 
   4  -7   4   69.11    2.52 
   5  -7   4   43.81    1.89 
   6  -7   4    7.67    0.92 
   7  -7   4    6.93    0.98 
   8  -7   4    0.50    0.71 
   9  -7   4    1.03    0.86 
   7   6  -4   -0.70    0.91 
  -7  -6   4   -0.32    1.16 
   6   6  -4   -0.38    0.82 
  -6  -6   4    0.23    1.06 
  -5  -6   4   10.47    1.47 
  -5  -6   4    9.75    1.35 
  -4  -6   4    7.35    1.12 
  -4  -6   4    6.82    1.14 
  -3  -6   4   91.98    3.51 
  -3  -6   4   89.29    3.47 
   2   6  -4   41.11    1.82 
  -2  -6   4   42.95    2.02 
  -1  -6   4    3.14    0.69 
  -1  -6   4    3.79    0.42 
   0   6  -4    0.61    0.31 
   0  -6   4    0.39    0.26 
   0  -6   4    0.73    0.51 
  -1   6  -4   10.48    0.55 
   1  -6   4   11.05    0.85 
   1  -6   4   10.31    0.75 
   2  -6   4    0.28    0.46 
   3  -6   4   89.47    2.93 
   4  -6   4   21.76    1.18 
   5  -6   4    1.86    0.56 
   6  -6   4   87.37    3.03 
   7  -6   4   47.78    2.10 
   7  -6   4   48.59    2.23 
   8  -6   4    6.65    1.00 
   9  -6   4   13.02    1.32 
  10  -6   4    6.97    1.24 
   7   5  -4    0.65    0.90 
  -7  -5   4    0.76    1.14 
   6   5  -4    0.71    0.82 
  -6  -5   4    0.93    1.00 
   5   5  -4    5.14    0.95 
  -5  -5   4    3.46    1.01 
   4   5  -4   11.68    1.07 
  -4  -5   4   12.54    1.25 
   3   5  -4   56.63    2.29 
  -3  -5   4   52.23    2.34 
   2   5  -4   20.62    1.15 
  -2  -5   4   18.24    1.26 
  -2  -5   4   21.39    0.95 
   1   5  -4    5.46    0.56 
  -1  -5   4    5.83    0.70 
  -1  -5   4    5.60    0.47 
   0   5  -4   53.21    1.75 
   0  -5   4   43.68    1.70 
   0  -5   4   51.17    1.88 
  -1   5  -4  124.66    3.74 
   1  -5   4  129.12    3.89 
   1  -5   4  124.47    3.81 
  -2   5  -4  228.54    6.55 
   2  -5   4  229.76    6.75 
   2  -5   4  230.47    6.48 
  -3   5  -4   81.64    2.48 
   3  -5   4   79.55    2.58 
   3  -5   4   80.92    2.77 
  -4   5  -4  220.05    6.48 
   4  -5   4  223.56    6.66 
   4  -5   4  219.26    6.27 
  -5   5  -4   21.70    1.09 
   5  -5   4   21.37    1.13 
   5  -5   4   20.43    1.22 
  -6   5  -4   21.59    1.23 
   6  -5   4   21.01    1.23 
   6  -5   4   20.01    1.32 
   7  -5   4   36.62    1.85 
   8  -5   4   21.92    1.47 
   9  -5   4    1.91    0.86 
   8   4  -4    3.86    1.18 
   7   4  -4   -0.12    0.80 
   6   4  -4    2.51    0.84 
  -6  -4   4    2.55    1.03 
   5   4  -4    6.34    0.96 
  -5  -4   4    5.35    1.04 
   4   4  -4   10.00    0.97 
  -4  -4   4   12.62    1.20 
   3   4  -4    4.42    0.67 
  -3  -4   4    3.73    0.69 
   2   4  -4   20.35    1.07 
  -2  -4   4   19.19    1.16 
  -2  -4   4   18.01    0.90 
   1   4  -4   16.39    0.86 
  -1  -4   4   14.39    0.93 
  -1  -4   4   14.67    0.76 
   0   4  -4   14.03    0.72 
   0  -4   4   14.43    0.73 
   0  -4   4   13.82    0.82 
  -1   4  -4    0.25    0.22 
   1  -4   4    0.78    0.28 
   1  -4   4    0.78    0.33 
  -2   4  -4   20.00    0.88 
   2  -4   4   20.17    0.91 
   2  -4   4   23.21    1.07 
  -3   4  -4    7.69    0.56 
   3  -4   4    7.82    0.56 
   3  -4   4    7.06    0.66 
  -4   4  -4    1.31    0.39 
   4  -4   4    0.99    0.39 
   4  -4   4    1.09    0.44 
   5  -4   4    9.03    0.74 
   5  -4   4   11.06    0.90 
  -6   4  -4   60.18    2.42 
   6  -4   4   58.24    2.12 
   6  -4   4   56.52    2.32 
  -7   4  -4   12.56    1.15 
   7  -4   4   10.81    1.02 
  -8   4  -4   15.91    1.39 
   8  -4   4   15.37    1.26 
   9   3  -4   -0.14    1.03 
   8   3  -4    1.28    0.98 
   7   3  -4    0.77    0.82 
   6   3  -4    8.84    1.13 
  -6  -3   4    8.20    1.18 
   5   3  -4    0.51    0.60 
  -5  -3   4   -0.42    0.60 
   4   3  -4    3.93    0.71 
  -4  -3   4    3.78    0.71 
   3   3  -4   14.86    0.99 
  -3  -3   4   15.77    1.09 
   2   3  -4   71.31    2.45 
  -2  -3   4   69.33    2.44 
  -2  -3   4   69.07    2.33 
   1   3  -4   58.30    1.98 
  -1  -3   4   53.79    1.93 
   0  -3   4  208.81    6.05 
   0  -3   4  208.72    5.81 
  -1   3  -4  186.58    5.55 
   1  -3   4  185.72    5.17 
   1  -3   4  189.16    5.50 
  -2   3  -4   74.81    2.49 
   2  -3   4   73.32    2.50 
   2  -3   4   77.61    2.24 
   3  -3   4  262.32    7.05 
   3  -3   4  257.94    7.59 
  -4   3  -4  281.86    8.50 
   4  -3   4  286.16    8.32 
   4  -3   4  286.10    7.74 
  -5   3  -4   91.36    3.25 
   5  -3   4   84.91    3.08 
   5  -3   4   92.08    2.79 
  -6   3  -4   82.55    3.21 
   6  -3   4   82.14    2.98 
  -7   3  -4   22.35    1.56 
   7  -3   4   21.12    1.37 
  -8   3  -4    6.75    1.14 
   8  -3   4    7.51    0.98 
  -9   3  -4    1.40    0.90 
   9   2  -4   -0.91    0.94 
   8   2  -4    1.86    1.06 
   7   2  -4    2.14    0.90 
   6   2  -4   25.99    1.72 
   5   2  -4   35.51    1.85 
  -5  -2   4   35.97    1.85 
   4   2  -4   47.28    2.03 
  -4  -2   4   49.83    2.07 
   3   2  -4   54.77    2.14 
  -3  -2   4   59.88    2.16 
   2   2  -4  114.12    3.61 
  -2  -2   4  113.15    3.48 
  -2  -2   4  112.43    3.56 
   1   2  -4  164.91    4.96 
  -1  -2   4  164.78    5.01 
  -1  -2   4  163.79    4.68 
   0   2  -4  141.16    4.31 
   0  -2   4  142.25    3.95 
   0  -2   4  140.01    4.28 
  -1   2  -4  296.04    8.61 
   1  -2   4  291.30    8.45 
   1  -2   4  297.81    7.87 
  -2   2  -4    1.37    0.37 
   2  -2   4    0.99    0.36 
   2  -2   4    1.14    0.21 
  -3   2  -4   15.24    0.99 
   3  -2   4   16.63    0.95 
   3  -2   4   15.93    0.64 
  -4   2  -4   10.34    0.90 
   4  -2   4   10.10    0.82 
   4  -2   4   11.43    0.65 
  -5   2  -4   14.99    1.17 
   5  -2   4   14.07    1.01 
  -6   2  -4   84.15    3.33 
   6  -2   4   82.02    3.00 
  -7   2  -4    1.32    0.73 
   7  -2   4    0.85    0.63 
  -8   2  -4    0.42    0.81 
  -9   2  -4    3.22    1.13 
   9   1  -4    1.12    1.11 
   8   1  -4    4.52    1.17 
   7   1  -4    0.31    0.75 
   6   1  -4   13.50    1.21 
   5   1  -4    0.63    0.50 
   4   1  -4    0.40    0.37 
   3   1  -4   47.65    1.84 
   2   1  -4   22.09    1.07 
  -2  -1   4   23.32    1.02 
   1   1  -4  132.83    4.06 
  -1  -1   4  128.29    3.69 
  -1  -1   4  128.90    4.13 
   0   1  -4   72.81    2.51 
   0  -1   4   76.62    2.59 
   0  -1   4   72.86    2.12 
  -1   1  -4    4.29    0.51 
   1  -1   4    3.38    0.47 
  -2   1  -4  426.35   12.33 
   2  -1   4  419.47   12.00 
  -3   1  -4  340.04   10.11 
   3  -1   4  341.79    9.78 
   3  -1   4  333.76    8.94 
  -4   1  -4   29.51    1.60 
   4  -1   4   33.24    1.54 
  -5   1  -4  154.18    5.25 
   5  -1   4  151.57    4.90 
  -6   1  -4   22.66    1.64 
   6  -1   4   22.85    1.44 
  -7   1  -4    1.29    0.79 
  -8   1  -4    6.69    1.31 
  -9   1  -4    7.09    1.45 
  10   0  -4   -0.61    1.01 
   9   0  -4    0.87    0.99 
   8   0  -4   -0.68    0.77 
   7   0  -4   24.73    1.72 
   6   0  -4   58.05    2.51 
   5   0  -4   49.70    2.12 
   4   0  -4  168.54    5.31 
   3   0  -4  183.60    5.63 
   2   0  -4   67.12    2.37 
   1   0  -4  376.53   10.83 
  -1   0   4  367.89   10.77 
   0   0  -4  203.87    6.22 
   0   0   4  204.26    6.22 
  -1   0  -4  712.52   19.79 
   1   0   4  671.80   19.41 
  -2   0  -4    4.53    0.64 
   2   0   4    5.51    0.64 
  -3   0  -4   25.55    1.47 
   3   0   4   25.17    1.32 
  -4   0  -4   52.71    2.32 
   4   0   4   47.51    2.05 
  -5   0  -4    2.00    0.72 
   5   0   4    0.40    0.57 
  -6   0  -4   18.78    1.62 
  -7   0  -4   12.40    1.51 
  -8   0  -4    0.00    0.89 
  10  -1  -4    7.78    1.47 
   9  -1  -4    2.08    1.03 
   8  -1  -4   69.26    3.14 
   7  -1  -4   10.49    1.19 
   6  -1  -4    1.23    0.61 
   5  -1  -4   20.56    1.22 
   4  -1  -4   59.44    2.26 
   3  -1  -4  183.17    5.67 
   2  -1  -4    1.27    0.41 
   1  -1  -4   17.93    1.01 
   0  -1  -4    5.54    0.63 
   0  -1  -4    6.53    0.38 
   0   1   4    5.71    0.68 
  -1  -1  -4  180.87    5.60 
  -1  -1  -4  171.17    4.74 
   1   1   4  176.66    5.50 
  -2  -1  -4   45.50    2.04 
  -2  -1  -4   46.42    1.43 
   2   1   4   47.09    1.97 
  -3  -1  -4   34.66    1.86 
   3   1   4   42.15    1.81 
  -4  -1  -4   49.51    2.37 
   4   1   4   46.73    2.10 
  -5  -1  -4   16.03    1.46 
  -6  -1  -4    2.66    0.96 
  -7  -1  -4    9.96    1.50 
  -8  -1  -4    0.01    0.91 
  10  -2  -4   -0.80    0.99 
   9  -2  -4    1.90    1.07 
   8  -2  -4   16.81    1.52 
   7  -2  -4   40.35    2.06 
   6  -2  -4   18.91    1.28 
   5  -2  -4   71.65    2.69 
   4  -2  -4  190.93    5.96 
   3  -2  -4    5.89    0.68 
   2  -2  -4  352.15   10.41 
   1  -2  -4  160.22    5.12 
   0  -2  -4  133.59    3.77 
   0  -2  -4  135.70    4.47 
  -1  -2  -4  176.86    5.72 
  -2  -2  -4   20.45    0.95 
  -2  -2  -4   22.57    1.40 
   2   2   4   21.20    1.27 
  -3  -2  -4   68.52    2.92 
   3   2   4   68.91    2.60 
  -4  -2  -4    8.92    1.15 
   4   2   4    6.56    0.81 
  -5  -2  -4   14.55    1.53 
  -6  -2  -4    0.63    0.87 
  -7  -2  -4    2.76    1.11 
  10  -3  -4    0.91    1.06 
   9  -3  -4   20.08    1.82 
   8  -3  -4   86.93    3.56 
   7  -3  -4    1.16    0.65 
   6  -3  -4   39.10    1.87 
   5  -3  -4   11.67    0.97 
   4  -3  -4   39.16    1.79 
   3  -3  -4   18.72    1.03 
   3  -3  -4   19.32    1.18 
   2  -3  -4   66.14    2.17 
   2  -3  -4   64.20    2.51 
   1  -3  -4   10.44    0.90 
   1  -3  -4    5.56    0.47 
   0  -3  -4    2.75    0.64 
   0  -3  -4    3.71    0.44 
  -1  -3  -4    8.00    0.94 
  -1  -3  -4    6.44    0.57 
  -2  -3  -4    5.45    0.61 
  -2  -3  -4    5.51    0.91 
  -3  -3  -4    0.51    0.61 
  -4  -3  -4   -0.30    0.64 
  -5  -3  -4    2.71    1.04 
  -6  -3  -4    1.71    1.01 
  10  -4  -4   -0.51    0.84 
   9  -4  -4   -0.34    0.76 
   8  -4  -4    3.55    0.88 
   7  -4  -4    1.47    0.67 
   6  -4  -4   18.12    1.28 
   5  -4  -4   31.39    1.65 
   5  -4  -4   32.98    1.60 
   4  -4  -4   13.15    1.01 
   4  -4  -4   13.71    1.08 
   3  -4  -4    9.18    0.78 
   3  -4  -4   10.64    0.97 
   2  -4  -4   79.02    2.58 
   2  -4  -4   76.28    2.92 
   1  -4  -4   39.70    1.93 
   1  -4  -4   40.37    1.54 
   0  -4  -4   91.70    3.08 
   0  -4  -4  111.68    3.78 
  -1  -4  -4   52.82    1.94 
  -1  -4  -4   54.38    2.47 
  -2  -4  -4   28.46    1.79 
  -3  -4  -4    8.51    1.26 
  -4  -4  -4   16.90    1.70 
  -5  -4  -4   13.69    1.76 
  -6  -4  -4   -0.28    1.00 
  10  -5  -4    6.67    1.28 
   9  -5  -4   10.17    1.27 
   8  -5  -4   11.24    1.24 
   7  -5  -4    7.97    1.10 
   7  -5  -4   11.78    1.14 
   6  -5  -4   17.63    1.34 
   6  -5  -4   17.00    1.29 
   5  -5  -4  131.61    4.64 
   5  -5  -4  138.61    4.46 
   4  -5  -4   46.99    2.01 
   4  -5  -4   47.04    2.15 
   3  -5  -4   15.17    1.01 
   3  -5  -4   18.63    1.26 
   2  -5  -4   40.65    1.99 
   2  -5  -4   40.14    1.67 
   1  -5  -4   25.35    1.22 
   1  -5  -4   22.37    1.49 
   0  -5  -4   15.62    0.95 
  -1  -5  -4   32.43    1.51 
  -1  -5  -4   33.22    1.98 
  -2  -5  -4    0.22    0.70 
  -3  -5  -4    0.45    0.87 
  -4  -5  -4    0.53    0.98 
  -5  -5  -4    2.04    1.12 
  10  -6  -4    0.64    0.95 
   9  -6  -4    1.68    1.00 
   8  -6  -4    0.66    0.80 
   8  -6  -4    2.97    0.92 
   7  -6  -4    0.28    0.75 
   7  -6  -4    0.29    0.64 
   6  -6  -4    5.78    0.97 
   6  -6  -4    6.64    1.04 
   5  -6  -4   11.85    1.15 
   5  -6  -4   10.33    1.07 
   4  -6  -4    1.33    0.68 
   4  -6  -4    2.01    0.71 
   3  -6  -4   52.84    2.19 
   3  -6  -4   55.03    2.46 
   2  -6  -4    4.44    0.85 
   2  -6  -4    2.88    0.66 
   1  -6  -4    9.92    1.12 
   1  -6  -4    9.35    0.93 
   0  -6  -4    8.34    1.13 
   0  -6  -4    9.69    0.94 
  -1  -6  -4   14.31    1.46 
  -2  -6  -4    4.43    1.13 
  -3  -6  -4    6.13    1.33 
  -4  -6  -4    5.09    1.28 
  10  -7  -4    0.84    0.98 
   9  -7  -4    5.04    1.14 
   8  -7  -4   20.29    1.77 
   7  -7  -4   13.26    1.41 
   6  -7  -4   18.63    1.52 
   5  -7  -4   43.30    2.17 
   5  -7  -4   40.89    2.11 
   4  -7  -4    2.31    0.83 
   4  -7  -4    1.93    0.79 
   3  -7  -4   72.05    2.98 
   3  -7  -4   70.24    2.75 
   2  -7  -4   18.82    1.50 
   2  -7  -4   23.22    1.38 
   1  -7  -4   27.01    1.78 
   1  -7  -4   26.45    1.52 
   0  -7  -4    1.24    0.86 
   0  -7  -4    1.34    0.74 
  -1  -7  -4   27.22    2.01 
  -2  -7  -4    1.37    0.97 
  -3  -7  -4   -0.31    0.98 
   9  -8  -4    1.96    1.01 
   8  -8  -4   17.44    1.69 
   7  -8  -4    2.79    1.10 
   6  -8  -4   -0.55    0.74 
   5  -8  -4    0.39    0.84 
   4  -8  -4    0.68    0.80 
   3  -8  -4    8.98    1.10 
   3  -8  -4   11.95    1.26 
   2  -8  -4    0.12    0.70 
   2  -8  -4   -0.01    0.70 
   1  -8  -4    7.08    1.21 
   1  -8  -4    9.97    1.12 
   0  -8  -4    0.30    0.87 
  -1  -8  -4   14.79    1.70 
  -2  -8  -4    0.12    1.07 
   9  -9  -4   -0.74    1.02 
   8  -9  -4    3.77    1.27 
   7  -9  -4    6.36    1.27 
   6  -9  -4    5.70    1.24 
   5  -9  -4    7.39    1.24 
   4  -9  -4    5.58    1.08 
   3  -9  -4   20.17    1.58 
   2  -9  -4    1.61    0.93 
   8 -10  -4    8.20    1.57 
   7 -10  -4    2.94    1.23 
   6 -10  -4    3.40    1.22 
   5 -10  -4    3.39    1.13 
   4 -10  -4    5.74    1.20 
   3 -10  -4   -0.03    1.00 
   3 -13   5    0.52    1.04 
   4 -13   5    1.22    1.10 
   0 -12   5    3.15    1.28 
   1 -12   5    0.19    1.08 
   2 -12   5    2.12    1.12 
   3 -12   5   -0.93    0.97 
   4 -12   5    2.17    1.11 
   5 -12   5   10.19    1.42 
   6 -12   5    4.63    1.26 
   7 -12   5    4.09    1.25 
  -2 -11   5    0.79    1.14 
  -1 -11   5    0.01    0.99 
   0 -11   5   -0.20    0.89 
   1 -11   5   -0.51    0.92 
   2 -11   5    0.19    0.94 
   3 -11   5    2.37    1.00 
   4 -11   5    0.47    0.85 
   5 -11   5    5.76    1.15 
   6 -11   5    2.29    1.03 
   7 -11   5   -0.64    0.93 
   8 -11   5   17.95    1.72 
  -3 -10   5    0.94    1.09 
  -2 -10   5    0.99    0.98 
  -1 -10   5    3.83    1.14 
   0 -10   5   10.64    1.43 
   1 -10   5    0.00    0.82 
   2 -10   5    4.45    1.04 
   2 -10   5    4.01    0.76 
   3 -10   5   10.08    1.24 
   4 -10   5   57.55    2.57 
   5 -10   5    8.43    1.14 
   6 -10   5    7.12    1.12 
   7 -10   5    9.19    1.24 
   8 -10   5    3.87    1.10 
   8 -10   5    3.71    1.14 
  -4  -9   5    2.75    1.19 
  -3  -9   5    1.31    0.99 
  -2  -9   5    0.76    0.96 
  -1  -9   5    3.70    1.03 
   0  -9   5   -0.12    0.78 
   1  -9   5    3.16    0.87 
   1  -9   5    1.87    0.58 
   2  -9   5    2.14    0.62 
   2  -9   5    2.89    0.83 
   3  -9   5    9.06    1.06 
   4  -9   5    9.57    1.09 
   5  -9   5   19.03    1.39 
   6  -9   5    0.48    0.75 
   7  -9   5    6.69    1.10 
   7  -9   5    4.54    1.02 
   8  -9   5    0.03    0.77 
   9  -9   5   -0.20    0.82 
   5   8  -5    1.96    0.95 
  -5  -8   5    1.40    1.16 
  -4  -8   5   29.69    2.21 
   3   8  -5    8.05    1.06 
  -3  -8   5    6.78    1.24 
   2   8  -5    1.62    0.69 
  -2  -8   5    2.68    0.92 
  -1  -8   5    2.34    0.86 
   0  -8   5    9.95    0.81 
   0  -8   5    9.73    1.12 
   1  -8   5    2.40    0.74 
   1  -8   5    1.45    0.51 
   2  -8   5   51.31    2.18 
   2  -8   5   49.10    2.07 
   3  -8   5   25.57    1.48 
   3  -8   5   28.76    1.49 
   4  -8   5    4.54    0.79 
   5  -8   5   72.76    2.71 
   6  -8   5   49.57    2.30 
   6  -8   5   50.94    2.16 
   7  -8   5    7.44    1.03 
   7  -8   5    7.07    1.07 
   8  -8   5   20.65    1.63 
   9  -8   5   11.03    1.32 
   6   7  -5    0.05    0.84 
  -6  -7   5    0.59    1.13 
   5   7  -5    2.50    0.96 
  -5  -7   5    1.78    1.11 
   4   7  -5   11.32    1.23 
  -4  -7   5    7.90    1.28 
   3   7  -5    0.67    0.63 
  -3  -7   5    1.59    0.84 
   2   7  -5    0.08    0.49 
  -2  -7   5    0.15    0.68 
   1   7  -5    9.01    0.80 
  -1  -7   5    9.46    1.04 
   0   7  -5   22.86    1.14 
   0  -7   5   22.86    1.37 
   1  -7   5   61.18    2.25 
   1  -7   5   60.58    2.37 
   2  -7   5   19.67    1.16 
   2  -7   5   20.46    1.25 
   3  -7   5   75.05    2.77 
   3  -7   5   76.62    2.69 
   4  -7   5    0.94    0.56 
   4  -7   5    1.48    0.58 
   5  -7   5    4.12    0.74 
   5  -7   5    3.78    0.77 
   6  -7   5   23.01    1.38 
   6  -7   5   22.10    1.50 
   7  -7   5    8.36    1.04 
   8  -7   5   -0.60    0.71 
   9  -7   5    6.20    1.09 
   7   6  -5    0.00    0.86 
  -7  -6   5   -0.27    1.08 
   6   6  -5    0.08    0.82 
  -6  -6   5   -0.13    1.08 
   5   6  -5   -0.90    0.64 
  -5  -6   5    0.06    0.89 
   4   6  -5    0.74    0.66 
  -4  -6   5    0.71    0.79 
   3   6  -5    1.83    0.68 
  -3  -6   5    2.78    0.78 
   2   6  -5    1.13    0.51 
  -2  -6   5    0.96    0.66 
   1   6  -5    0.07    0.20 
  -1  -6   5    0.14    0.33 
  -1  -6   5    0.21    0.52 
   0   6  -5   10.21    0.70 
   0  -6   5    9.55    0.90 
   0  -6   5   10.65    0.76 
  -1   6  -5    1.00    0.30 
   1  -6   5    1.17    0.54 
   1  -6   5    0.65    0.38 
  -2   6  -5   25.41    1.03 
   2  -6   5   28.35    1.32 
   2  -6   5   25.28    1.26 
   3  -6   5   10.51    0.89 
   3  -6   5   11.08    0.87 
   4  -6   5   52.34    2.17 
   4  -6   5   55.06    1.99 
   5  -6   5  114.02    3.88 
   5  -6   5  109.41    3.53 
   6  -6   5   23.18    1.31 
   6  -6   5   24.87    1.52 
   7  -6   5   38.54    1.98 
   8  -6   5   14.60    1.31 
   9  -6   5   21.34    1.66 
   7   5  -5    2.51    1.03 
  -7  -5   5    2.60    1.22 
   6   5  -5   -0.12    0.80 
  -6  -5   5   -0.25    0.92 
   5   5  -5    3.20    0.88 
  -5  -5   5    3.23    1.00 
   4   5  -5    3.40    0.78 
  -4  -5   5    4.75    0.93 
   3   5  -5   10.56    0.96 
  -3  -5   5   11.51    1.12 
   2   5  -5   22.69    1.22 
  -2  -5   5   24.51    1.17 
  -2  -5   5   21.32    1.34 
   1   5  -5   84.31    2.92 
  -1  -5   5   89.51    2.98 
  -1  -5   5   87.18    2.84 
   0   5  -5   91.05    2.86 
   0  -5   5   86.06    2.83 
   0  -5   5   84.04    2.89 
  -1   5  -5   66.99    2.27 
   1  -5   5   67.24    2.33 
   1  -5   5   70.47    2.39 
  -2   5  -5  143.82    4.30 
   2  -5   5  136.96    4.17 
   2  -5   5  142.47    4.42 
  -3   5  -5  212.81    6.28 
   3  -5   5  213.21    6.43 
   3  -5   5  211.43    5.99 
  -4   5  -5   63.03    2.18 
   4  -5   5   59.41    2.06 
   4  -5   5   60.40    2.37 
  -5   5  -5   83.71    3.00 
   5  -5   5   87.60    3.14 
   5  -5   5   88.00    2.81 
   6  -5   5   18.80    1.24 
   7  -5   5    5.02    0.89 
   8  -5   5    1.56    0.77 
   9  -5   5   -0.25    0.77 
   8   4  -5    0.56    0.93 
   7   4  -5    2.14    1.03 
   6   4  -5    3.21    0.95 
  -6  -4   5    1.64    0.95 
   5   4  -5    4.52    0.88 
  -5  -4   5    4.59    0.99 
   4   4  -5    3.81    0.74 
  -4  -4   5    3.22    0.79 
   3   4  -5   17.33    1.12 
  -3  -4   5   16.90    1.17 
   2   4  -5   24.43    1.23 
  -2  -4   5   22.77    1.27 
  -2  -4   5   24.06    1.19 
   1   4  -5    5.91    0.58 
  -1  -4   5    7.00    0.69 
   0  -4   5   56.53    1.99 
   0  -4   5   58.70    2.06 
  -1   4  -5   15.30    0.84 
   1  -4   5   15.60    0.91 
   1  -4   5   16.09    0.83 
  -2   4  -5    0.73    0.34 
   2  -4   5    0.67    0.38 
   2  -4   5    0.90    0.35 
  -3   4  -5    0.99    0.36 
   3  -4   5    0.53    0.45 
   3  -4   5    0.90    0.36 
  -4   4  -5    0.86    0.36 
   4  -4   5    1.45    0.40 
   4  -4   5    1.83    0.53 
  -5   4  -5  196.59    6.26 
   5  -4   5  201.79    6.19 
  -6   4  -5   13.83    1.16 
   6  -4   5   17.22    1.24 
  -7   4  -5    7.67    1.00 
   7  -4   5    9.92    1.04 
  -8   4  -5   17.35    1.55 
   8  -4   5   15.40    1.33 
   9   3  -5   -0.71    0.95 
   8   3  -5    0.81    0.93 
   7   3  -5    2.49    0.97 
   6   3  -5    0.32    0.63 
   5   3  -5    3.56    0.77 
  -5  -3   5    3.48    0.87 
   4   3  -5   35.92    1.75 
  -4  -3   5   38.02    1.88 
   3   3  -5   21.92    1.25 
  -3  -3   5   22.49    1.27 
   2   3  -5   65.81    2.39 
  -2  -3   5   66.38    2.38 
  -2  -3   5   64.24    2.32 
   1   3  -5   99.43    3.27 
  -1  -3   5  100.96    3.32 
  -1  -3   5  100.01    3.13 
   0   3  -5   34.04    1.40 
   0  -3   5   35.20    1.47 
   0  -3   5   34.18    1.30 
  -1   3  -5  473.09   13.77 
   1  -3   5  481.76   13.53 
   1  -3   5  480.86   12.75 
  -2   3  -5  505.98   14.01 
   2  -3   5  455.56   13.71 
   2  -3   5  494.82   12.87 
  -3   3  -5   61.81    2.36 
   3  -3   5   65.17    2.36 
   3  -3   5   62.90    1.90 
  -4   3  -5  231.70    6.98 
   4  -3   5  220.70    6.80 
   4  -3   5  221.31    6.11 
  -5   3  -5   48.90    2.19 
   5  -3   5   51.81    2.14 
  -6   3  -5    4.81    0.87 
   6  -3   5    3.49    0.73 
  -7   3  -5   15.37    1.41 
   7  -3   5   16.68    1.30 
  -8   3  -5   13.82    1.51 
  -9   3  -5    1.98    0.94 
   9   2  -5    0.11    1.01 
   8   2  -5    6.21    1.29 
   7   2  -5   12.63    1.41 
   6   2  -5    8.28    1.06 
   5   2  -5   46.55    2.13 
   4   2  -5   41.19    1.86 
  -4  -2   5   37.72    1.81 
   3   2  -5   20.04    1.16 
  -3  -2   5   20.63    1.17 
   2   2  -5  116.71    3.73 
  -2  -2   5  116.15    3.52 
  -2  -2   5  108.84    3.72 
   1   2  -5   71.07    2.48 
  -1  -2   5   68.88    2.56 
  -1  -2   5   69.95    2.24 
   0   2  -5  357.70   10.45 
   0  -2   5  355.65    9.59 
   0  -2   5  359.22   10.33 
  -1   2  -5    5.45    0.59 
   1  -2   5    5.25    0.59 
   1  -2   5    5.50    0.36 
  -2   2  -5    3.43    0.56 
   2  -2   5    4.08    0.57 
   2  -2   5    3.54    0.25 
  -3   2  -5   25.70    1.37 
   3  -2   5   24.30    1.30 
  -4   2  -5    5.67    0.77 
   4  -2   5    5.72    0.77 
  -5   2  -5   83.18    3.24 
   5  -2   5   80.84    3.05 
  -6   2  -5   16.98    1.45 
   6  -2   5   17.04    1.30 
  -7   2  -5    2.72    0.94 
   7  -2   5    6.90    1.04 
  -8   2  -5    0.38    0.78 
   9   1  -5   16.26    1.85 
   8   1  -5    0.73    0.84 
   7   1  -5    1.08    0.73 
   6   1  -5    1.16    0.70 
   5   1  -5    4.29    0.76 
   4   1  -5  106.33    3.67 
   3   1  -5   19.23    1.10 
   2   1  -5    2.53    0.49 
   1   1  -5    3.58    0.52 
  -1  -1   5    2.36    0.51 
   0   1  -5  436.18   12.46 
   0  -1   5  418.23   12.34 
  -1   1  -5  213.44    6.51 
   1  -1   5  209.27    6.44 
  -2   1  -5  114.69    3.96 
   2  -1   5  116.34    3.87 
  -3   1  -5  181.61    5.85 
   3  -1   5  177.81    5.63 
  -4   1  -5   74.79    3.00 
   4  -1   5   73.36    2.82 
  -5   1  -5    1.00    0.64 
   5  -1   5    0.94    0.61 
  -6   1  -5   55.21    2.74 
   6  -1   5   56.65    2.52 
  -7   1  -5   16.18    1.65 
  -8   1  -5    6.36    1.28 
  10   0  -5    0.57    1.14 
   9   0  -5    6.59    1.42 
   8   0  -5   24.45    1.88 
   7   0  -5    8.05    1.15 
   6   0  -5   31.89    1.74 
   5   0  -5   86.86    3.25 
   4   0  -5    7.04    0.75 
   3   0  -5  207.79    6.42 
   2   0  -5  170.33    5.35 
   1   0  -5  121.83    4.07 
  -1   0   5  123.51    4.16 
   0   0  -5  170.03    5.54 
   0   0   5  180.78    5.60 
  -1   0  -5    5.88    0.75 
   1   0   5    6.57    0.77 
  -2   0  -5  124.72    4.32 
   2   0   5  126.87    4.26 
  -3   0  -5    5.40    0.88 
   3   0   5    7.03    0.84 
  -4   0  -5   11.70    1.21 
   4   0   5   14.00    1.14 
  -5   0  -5    0.36    0.66 
   5   0   5    0.48    0.63 
  -6   0  -5    2.80    0.95 
  -7   0  -5    2.64    1.03 
  -8   0  -5    0.60    0.99 
  10  -1  -5    4.02    1.36 
   9  -1  -5   29.70    2.17 
   8  -1  -5   13.20    1.46 
   7  -1  -5   12.49    1.28 
   6  -1  -5    1.04    0.56 
   5  -1  -5    1.06    0.51 
   4  -1  -5   -0.29    0.42 
   3  -1  -5   23.45    1.26 
   2  -1  -5    2.13    0.56 
   1  -1  -5   55.23    2.23 
   0  -1  -5    2.27    0.28 
   0  -1  -5    1.88    0.51 
   0   1   5    2.33    0.58 
  -1  -1  -5   65.91    2.58 
   1   1   5   61.73    2.53 
  -2  -1  -5   36.54    1.90 
   2   1   5   39.98    1.87 
  -3  -1  -5    4.97    0.90 
   3   1   5    4.91    0.78 
  -4  -1  -5   26.14    1.83 
   4   1   5   30.93    1.71 
  -5  -1  -5   19.68    1.68 
  -6  -1  -5    9.45    1.41 
  -7  -1  -5    2.86    1.17 
  10  -2  -5   -0.26    1.05 
   9  -2  -5    4.49    1.16 
   8  -2  -5    5.81    1.10 
   7  -2  -5   21.21    1.46 
   6  -2  -5   27.65    1.56 
   5  -2  -5   23.06    1.38 
   4  -2  -5   28.45    1.49 
   3  -2  -5  144.41    4.78 
   2  -2  -5   86.99    2.75 
   2  -2  -5   88.90    3.23 
   1  -2  -5  296.94    7.99 
   1  -2  -5  289.69    8.95 
   0  -2  -5  134.45    4.65 
   0  -2  -5  138.87    3.86 
  -1  -2  -5   60.89    2.65 
  -1  -2  -5   65.98    1.98 
  -2  -2  -5   31.18    1.83 
   2   2   5   32.35    1.70 
  -3  -2  -5   41.07    2.28 
   3   2   5   45.00    2.04 
  -4  -2  -5   31.00    2.05 
   4   2   5   38.79    1.88 
  -5  -2  -5   -0.21    0.77 
  -6  -2  -5    6.33    1.37 
  -7  -2  -5    0.96    1.07 
  10  -3  -5    5.14    1.29 
   9  -3  -5    2.76    1.02 
   8  -3  -5    0.57    0.78 
   7  -3  -5    7.68    0.99 
   6  -3  -5   70.87    2.88 
   5  -3  -5   29.86    1.64 
   4  -3  -5    3.56    0.72 
   3  -3  -5   35.28    1.52 
   3  -3  -5   35.58    1.81 
   2  -3  -5    7.94    0.68 
   2  -3  -5    9.56    0.99 
   1  -3  -5   18.56    1.35 
   1  -3  -5   17.46    0.90 
   0  -3  -5   22.74    0.98 
   0  -3  -5   18.60    1.33 
  -1  -3  -5   13.49    1.24 
  -2  -3  -5    6.72    1.06 
  -3  -3  -5   10.15    1.30 
  -4  -3  -5   -0.66    0.79 
  -5  -3  -5    8.74    1.42 
  -6  -3  -5    0.03    0.94 
  10  -4  -5    0.80    1.01 
   9  -4  -5    0.16    0.81 
   8  -4  -5    1.49    0.79 
   7  -4  -5   14.48    1.32 
   6  -4  -5    0.61    0.62 
   5  -4  -5    0.39    0.56 
   5  -4  -5    1.40    0.65 
   4  -4  -5  126.76    4.40 
   4  -4  -5  119.10    3.98 
   3  -4  -5   49.54    2.28 
   3  -4  -5   49.56    1.96 
   2  -4  -5   41.88    2.08 
   2  -4  -5   44.94    1.73 
   1  -4  -5   74.46    3.05 
   0  -4  -5   80.98    2.59 
   0  -4  -5   75.02    3.20 
  -1  -4  -5   34.29    2.00 
  -2  -4  -5   40.45    2.29 
  -3  -4  -5   26.26    2.03 
  -4  -4  -5    0.28    0.91 
  -5  -4  -5    0.23    0.93 
  10  -5  -5    2.29    1.10 
   9  -5  -5   20.57    1.79 
   8  -5  -5   10.90    1.31 
   8  -5  -5   11.53    1.32 
   7  -5  -5   22.61    1.61 
   7  -5  -5   17.27    1.45 
   6  -5  -5   54.80    2.44 
   6  -5  -5   50.54    2.43 
   5  -5  -5    1.66    0.70 
   5  -5  -5    1.83    0.72 
   4  -5  -5   98.97    3.45 
   4  -5  -5  102.11    3.83 
   3  -5  -5   33.75    1.82 
   3  -5  -5   29.69    1.51 
   2  -5  -5   53.49    2.03 
   2  -5  -5   48.40    2.40 
   1  -5  -5    0.76    0.49 
   1  -5  -5    1.88    0.76 
   0  -5  -5   35.64    2.03 
  -1  -5  -5    9.72    1.28 
  -2  -5  -5    1.09    0.85 
  -3  -5  -5    5.83    1.27 
  -4  -5  -5    0.53    1.02 
  10  -6  -5    0.58    1.01 
   9  -6  -5    4.21    1.14 
   8  -6  -5    1.73    0.92 
   8  -6  -5   -0.51    0.70 
   7  -6  -5    0.98    0.85 
   7  -6  -5    0.98    0.78 
   6  -6  -5    0.87    0.74 
   6  -6  -5    1.54    0.84 
   5  -6  -5    9.77    1.18 
   5  -6  -5   12.92    1.21 
   4  -6  -5    2.51    0.82 
   4  -6  -5    3.21    0.79 
   3  -6  -5    6.18    1.02 
   3  -6  -5    6.27    0.89 
   2  -6  -5   53.24    2.54 
   2  -6  -5   53.33    2.15 
   1  -6  -5    2.41    0.86 
   1  -6  -5    1.39    0.66 
   0  -6  -5   52.76    2.68 
  -1  -6  -5    6.69    1.21 
  -2  -6  -5    0.38    0.93 
  -3  -6  -5   -0.07    0.85 
   9  -7  -5    4.77    1.20 
   8  -7  -5    8.90    1.37 
   7  -7  -5   13.06    1.41 
   6  -7  -5   19.50    1.65 
   6  -7  -5   17.79    1.49 
   5  -7  -5   21.97    1.69 
   5  -7  -5   23.73    1.63 
   4  -7  -5   51.23    2.59 
   4  -7  -5   55.76    2.44 
   3  -7  -5    4.40    0.89 
   3  -7  -5    5.20    1.04 
   2  -7  -5    7.10    1.13 
   2  -7  -5    9.67    1.06 
   1  -7  -5   17.97    1.63 
   0  -7  -5   10.95    1.45 
  -1  -7  -5   16.26    1.74 
  -2  -7  -5    7.00    1.47 
   9  -8  -5   10.55    1.55 
   8  -8  -5    7.70    1.38 
   7  -8  -5    2.93    1.08 
   6  -8  -5    4.35    1.14 
   5  -8  -5    6.75    1.17 
   4  -8  -5    1.52    0.90 
   3  -8  -5    3.44    0.92 
   3  -8  -5    5.34    1.16 
   2  -8  -5    1.10    0.91 
   2  -8  -5    0.47    0.82 
   1  -8  -5    2.65    1.08 
   0  -8  -5    1.41    1.05 
  -1  -8  -5    0.19    1.04 
   8  -9  -5    0.32    1.13 
   7  -9  -5    2.88    1.17 
   6  -9  -5    2.64    1.16 
   5  -9  -5    4.70    1.15 
   4  -9  -5   13.64    1.46 
   3  -9  -5    1.39    0.97 
   6 -10  -5    0.13    1.08 
   5 -10  -5    0.33    1.02 
   4 -10  -5   -0.98    0.92 
   0 -12   6   -0.11    1.04 
   1 -12   6    0.76    1.09 
   2 -12   6    2.44    1.17 
   3 -12   6   12.10    1.55 
   4 -12   6    2.02    1.07 
   4 -12   6    1.12    0.85 
   5 -12   6   -0.20    0.77 
   5 -12   6   -0.33    0.96 
   6 -12   6    1.57    0.92 
   6 -12   6    2.06    1.09 
  -2 -11   6   -1.53    0.94 
  -1 -11   6    1.96    1.13 
   0 -11   6    1.18    0.99 
   1 -11   6    0.92    1.03 
   2 -11   6    0.04    0.93 
   3 -11   6    0.51    0.92 
   3 -11   6    0.63    0.73 
   4 -11   6   18.98    1.62 
   4 -11   6   16.64    1.43 
   5 -11   6   -0.49    0.71 
   5 -11   6   -0.34    0.87 
   6 -11   6    8.60    1.29 
   6 -11   6    8.07    1.18 
   7 -11   6    4.37    1.19 
   7 -11   6    3.90    1.07 
  -3 -10   6    1.16    1.12 
  -2 -10   6    1.23    1.00 
  -1 -10   6    3.66    1.17 
   0 -10   6    0.60    0.87 
   1 -10   6   12.83    1.41 
   2 -10   6    9.78    1.03 
   2 -10   6    9.09    1.24 
   3 -10   6    1.52    0.86 
   3 -10   6    1.01    0.67 
   4 -10   6   22.02    1.56 
   4 -10   6   21.50    1.56 
   5 -10   6   23.39    1.61 
   5 -10   6   22.05    1.61 
   6 -10   6    1.69    0.79 
   6 -10   6    2.73    0.93 
   7 -10   6   12.34    1.39 
   8 -10   6    5.51    1.14 
  -4  -9   6    0.00    1.04 
  -3  -9   6    0.43    0.89 
  -2  -9   6    1.02    0.97 
  -1  -9   6    1.28    0.94 
   0  -9   6    9.72    1.25 
   1  -9   6    0.68    0.56 
   1  -9   6    1.60    0.75 
   2  -9   6   11.96    1.02 
   2  -9   6   10.50    1.17 
   3  -9   6    3.24    0.86 
   3  -9   6    3.04    0.71 
   4  -9   6    0.92    0.68 
   4  -9   6    0.68    0.72 
   5  -9   6    5.66    0.93 
   5  -9   6    7.20    0.99 
   6  -9   6    0.75    0.80 
   6  -9   6    0.00    0.67 
   7  -9   6    2.93    0.96 
   8  -9   6   14.11    1.48 
   5   8  -6    2.11    1.01 
  -5  -8   6    2.35    1.22 
   4   8  -6    0.52    0.81 
  -4  -8   6    0.39    0.99 
   3   8  -6    2.19    0.84 
  -3  -8   6    2.76    0.98 
  -2  -8   6   -0.27    0.71 
  -1  -8   6    6.58    1.06 
   0  -8   6   -0.18    0.68 
   0  -8   6    0.32    0.38 
   1  -8   6   16.22    1.28 
   1  -8   6   14.80    1.04 
   2  -8   6    7.61    0.83 
   2  -8   6    6.38    0.90 
   3  -8   6   54.45    2.25 
   3  -8   6   50.51    2.18 
   4  -8   6   83.04    3.20 
   4  -8   6   88.96    3.07 
   5  -8   6   15.01    1.17 
   5  -8   6   12.80    1.18 
   6  -8   6   39.97    1.89 
   6  -8   6   39.25    2.09 
   7  -8   6   16.47    1.43 
   8  -8   6   27.95    1.89 
   9  -8   6    9.08    1.34 
   6   7  -6    0.81    0.92 
  -6  -7   6    1.92    1.26 
   5   7  -6   -0.24    0.78 
  -5  -7   6    0.88    0.96 
   4   7  -6    0.25    0.66 
  -4  -7   6    1.37    0.88 
   3   7  -6    5.12    0.86 
  -3  -7   6    8.06    1.21 
   2   7  -6   13.27    1.10 
  -2  -7   6   13.25    1.27 
   1   7  -6   16.69    1.11 
  -1  -7   6   15.87    1.28 
   0   7  -6   15.03    0.91 
   0  -7   6   14.58    0.98 
   0  -7   6   16.02    1.21 
   1  -7   6   25.84    1.36 
   1  -7   6   27.37    1.47 
   2  -7   6   47.77    2.03 
   2  -7   6   54.24    2.13 
   3  -7   6   13.34    1.01 
   3  -7   6   12.83    1.05 
   4  -7   6   32.92    1.59 
   4  -7   6   34.20    1.70 
   5  -7   6    3.28    0.66 
   5  -7   6    2.98    0.70 
   6  -7   6    0.46    0.60 
   7  -7   6   -0.24    0.64 
   8  -7   6    1.02    0.89 
   9  -7   6   -0.10    0.80 
   7   6  -6    0.54    0.93 
  -7  -6   6   -0.37    1.02 
   6   6  -6    0.72    0.84 
  -6  -6   6   -0.16    1.00 
   5   6  -6    0.15    0.71 
  -5  -6   6   -0.13    0.85 
   4   6  -6    0.82    0.66 
  -4  -6   6    1.07    0.83 
   3   6  -6    0.25    0.57 
  -3  -6   6    0.39    0.70 
   2   6  -6    0.60    0.49 
  -2  -6   6    0.56    0.62 
  -1  -6   6    2.98    0.55 
  -1  -6   6    2.42    0.66 
   0   6  -6   20.71    1.07 
   0  -6   6   21.61    1.27 
   0  -6   6   21.67    1.18 
  -1   6  -6   10.28    0.77 
   1  -6   6   12.35    0.94 
   1  -6   6   12.27    0.89 
  -2   6  -6   13.35    0.88 
   2  -6   6   17.49    1.05 
   2  -6   6   14.16    1.00 
   3  -6   6   32.31    1.60 
   3  -6   6   29.07    1.38 
   4  -6   6  218.51    6.74 
   4  -6   6  216.66    6.24 
   5  -6   6   32.32    1.78 
   6  -6   6   29.29    1.78 
   7  -6   6   40.51    2.15 
   8  -6   6   17.67    1.47 
   9  -6   6    0.41    0.83 
   7   5  -6   -0.29    0.82 
   6   5  -6    1.05    0.87 
  -6  -5   6    2.60    1.03 
   5   5  -6    9.52    1.15 
  -5  -5   6   11.02    1.34 
   4   5  -6    6.81    0.92 
  -4  -5   6    7.93    1.10 
   3   5  -6    9.11    0.94 
  -3  -5   6   12.31    1.14 
   2   5  -6   41.16    1.86 
  -2  -5   6   43.58    1.92 
  -2  -5   6   41.29    1.79 
   1   5  -6   22.07    1.15 
  -1  -5   6   22.03    1.25 
  -1  -5   6   18.08    1.09 
   0   5  -6  193.06    5.77 
   0  -5   6  187.22    5.55 
   0  -5   6  186.06    5.75 
  -1   5  -6  250.79    7.44 
   1  -5   6  250.04    7.06 
   1  -5   6  246.46    7.40 
  -2   5  -6   28.16    1.31 
   2  -5   6   29.17    1.27 
   2  -5   6   27.67    1.42 
  -3   5  -6  121.99    4.00 
   3  -5   6  125.50    3.72 
   3  -5   6  127.93    4.17 
  -4   5  -6   39.36    1.69 
   4  -5   6   38.31    1.85 
   4  -5   6   40.68    1.52 
  -5   5  -6    1.30    0.51 
   5  -5   6    0.97    0.59 
   6  -5   6   10.55    1.08 
   7  -5   6   11.51    1.19 
   8  -5   6   -0.31    0.72 
   9  -5   6    0.08    0.86 
   8   4  -6    1.42    0.98 
   7   4  -6   -0.16    0.79 
   6   4  -6    4.98    1.01 
  -6  -4   6    7.28    1.23 
   5   4  -6    3.22    0.82 
  -5  -4   6    3.45    0.91 
   4   4  -6    1.07    0.61 
  -4  -4   6    1.17    0.64 
   3   4  -6   12.50    0.99 
  -3  -4   6   12.47    1.08 
   2   4  -6    4.91    0.64 
  -2  -4   6    4.66    0.65 
  -2  -4   6    5.15    0.72 
   1   4  -6   49.99    1.97 
  -1  -4   6   51.38    1.95 
  -1  -4   6   49.97    2.03 
   0   4  -6   21.61    1.12 
   0  -4   6   23.66    1.11 
   0  -4   6   22.06    1.21 
   1  -4   6    1.99    0.52 
   1  -4   6    2.06    0.40 
  -2   4  -6    0.75    0.37 
   2  -4   6    0.54    0.41 
   2  -4   6    1.14    0.36 
   3  -4   6   52.65    1.73 
   3  -4   6   51.97    2.15 
  -4   4  -6  192.91    6.06 
   4  -4   6  187.60    5.97 
  -5   4  -6    8.32    0.91 
   5  -4   6    7.38    0.91 
  -6   4  -6   28.52    1.72 
   6  -4   6   29.99    1.66 
  -7   4  -6    6.88    1.09 
   7  -4   6    8.45    1.10 
   8  -4   6    7.58    1.16 
   8   3  -6    1.67    0.97 
   7   3  -6    0.14    0.80 
   6   3  -6    0.29    0.66 
   5   3  -6   38.34    2.01 
  -5  -3   6   41.58    2.10 
   4   3  -6    9.81    0.96 
  -4  -3   6   11.56    1.08 
   3   3  -6   11.78    0.94 
  -3  -3   6    9.86    0.88 
   2   3  -6   13.30    0.94 
  -2  -3   6   14.95    0.97 
  -2  -3   6   14.70    1.03 
   1   3  -6  310.76    9.28 
  -1  -3   6  308.04    8.65 
  -1  -3   6  318.78    9.29 
   0   3  -6  262.02    7.84 
   0  -3   6  254.11    7.18 
   0  -3   6  263.01    7.78 
  -1   3  -6   91.70    3.13 
   1  -3   6   88.59    2.64 
   1  -3   6   85.77    3.10 
  -2   3  -6  213.25    6.51 
   2  -3   6  206.39    5.66 
   2  -3   6  206.86    6.41 
  -3   3  -6  131.76    4.31 
   3  -3   6  121.44    4.21 
  -4   3  -6    1.69    0.61 
   4  -3   6    1.35    0.56 
  -5   3  -6   95.75    3.66 
   5  -3   6   94.84    3.52 
  -6   3  -6   33.58    2.03 
   6  -3   6   42.12    2.07 
  -7   3  -6   12.94    1.41 
   7  -3   6   14.11    1.36 
  -8   3  -6    2.03    0.95 
   9   2  -6    5.35    1.39 
   8   2  -6    0.21    0.83 
   7   2  -6    6.10    1.13 
   6   2  -6   14.59    1.31 
   5   2  -6    1.16    0.61 
   4   2  -6   47.96    2.10 
   3   2  -6   54.17    2.16 
  -3  -2   6   52.30    2.06 
   2   2  -6   22.75    1.29 
  -2  -2   6   25.64    1.42 
  -2  -2   6   28.32    1.24 
   1   2  -6   68.74    2.51 
  -1  -2   6   66.97    2.62 
  -1  -2   6   64.83    2.18 
   0   2  -6    6.46    0.73 
   0  -2   6    7.02    0.78 
   0  -2   6    7.85    0.52 
  -1   2  -6   90.49    3.20 
   1  -2   6   88.66    3.19 
   1  -2   6   87.93    2.52 
  -2   2  -6    1.45    0.52 
   2  -2   6    2.37    0.58 
  -3   2  -6    0.07    0.46 
   3  -2   6    0.19    0.47 
  -4   2  -6    2.01    0.68 
   4  -2   6    2.18    0.71 
  -5   2  -6   -0.28    0.57 
   5  -2   6    0.11    0.65 
  -6   2  -6    1.22    0.75 
   6  -2   6    0.43    0.71 
  -7   2  -6   -0.05    0.75 
   7  -2   6    0.15    0.81 
  -8   2  -6    6.31    1.33 
   9   1  -6    8.90    1.54 
   8   1  -6    1.91    1.02 
   7   1  -6    0.81    0.78 
   6   1  -6    3.10    0.81 
   5   1  -6    8.23    0.94 
   4   1  -6    5.18    0.74 
   3   1  -6   16.76    1.11 
   2   1  -6  122.43    4.10 
   1   1  -6   46.48    2.05 
  -1  -1   6   51.68    2.18 
   0   1  -6  153.15    5.11 
   0  -1   6  160.02    5.15 
  -1   1  -6  168.29    5.37 
   1  -1   6  159.87    5.35 
  -2   1  -6   18.39    1.28 
   2  -1   6   17.04    1.24 
  -3   1  -6   95.48    3.63 
   3  -1   6   97.46    3.55 
  -4   1  -6   90.95    3.61 
   4  -1   6   88.23    3.40 
  -5   1  -6   51.08    2.58 
   5  -1   6   48.56    2.36 
  -6   1  -6   15.52    1.56 
   6  -1   6   14.09    1.38 
  -7   1  -6   22.73    1.96 
  -8   1  -6    2.29    1.11 
   9   0  -6    1.60    1.06 
   8   0  -6    5.37    1.16 
   7   0  -6    7.88    1.16 
   6   0  -6   11.70    1.13 
   5   0  -6   13.39    1.12 
   4   0  -6   85.88    3.18 
   3   0  -6   42.18    1.90 
   2   0  -6  249.23    7.70 
   1   0  -6  126.17    4.31 
  -1   0   6  124.82    4.38 
   0   0  -6   44.54    2.00 
   0   0   6   45.13    2.07 
  -1   0  -6   39.31    1.98 
   1   0   6   43.84    2.05 
  -2   0  -6   57.55    2.59 
   2   0   6   63.32    2.59 
  -3   0  -6   41.03    2.16 
   3   0   6   42.36    2.09 
  -4   0  -6    0.43    0.65 
   4   0   6    1.02    0.68 
  -5   0  -6   13.66    1.49 
   5   0   6   10.69    1.26 
  -6   0  -6    0.82    0.93 
  -7   0  -6    1.25    1.03 
  10  -1  -6    0.06    1.10 
   9  -1  -6    1.57    1.01 
   8  -1  -6    1.63    0.88 
   7  -1  -6   14.05    1.31 
   6  -1  -6    4.80    0.82 
   5  -1  -6    2.99    0.68 
   4  -1  -6    4.80    0.77 
   3  -1  -6    2.43    0.63 
   2  -1  -6    0.67    0.54 
   1  -1  -6    0.28    0.52 
   1  -1  -6    0.20    0.28 
   0  -1  -6   97.31    2.76 
   0  -1  -6   97.30    3.59 
  -1  -1  -6   44.57    2.15 
   1   1   6   48.02    2.17 
  -2  -1  -6   79.20    3.15 
   2   1   6   70.13    2.93 
  -3  -1  -6    7.43    1.14 
   3   1   6    8.50    1.00 
  -4  -1  -6   42.91    2.41 
   4   1   6   42.35    2.15 
  -5  -1  -6   11.51    1.45 
  -6  -1  -6    8.37    1.48 
  -7  -1  -6    5.05    1.39 
  10  -2  -6    0.79    1.02 
   9  -2  -6    1.37    0.98 
   8  -2  -6    8.76    1.23 
   7  -2  -6    0.39    0.66 
   6  -2  -6    5.00    0.89 
   5  -2  -6  133.05    4.64 
   4  -2  -6   83.87    3.21 
   3  -2  -6   67.96    2.80 
   2  -2  -6   90.95    2.87 
   1  -2  -6  131.90    3.85 
   1  -2  -6  135.31    4.67 
   0  -2  -6   84.57    2.51 
   0  -2  -6   84.55    3.36 
  -1  -2  -6   98.81    3.84 
  -2  -2  -6   71.55    3.10 
  -3  -2  -6    1.70    0.85 
  -4  -2  -6   -0.08    0.81 
  -5  -2  -6    4.93    1.18 
  -6  -2  -6    3.34    1.20 
  10  -3  -6    6.28    1.42 
   9  -3  -6    5.34    1.21 
   8  -3  -6    8.13    1.19 
   7  -3  -6   27.21    1.77 
   6  -3  -6   -0.25    0.63 
   5  -3  -6   58.71    2.55 
   4  -3  -6   17.95    1.39 
   3  -3  -6   37.15    1.63 
   3  -3  -6   38.03    2.00 
   2  -3  -6    2.27    0.48 
   2  -3  -6    2.74    0.73 
   1  -3  -6   11.01    0.77 
   1  -3  -6   12.18    1.20 
   0  -3  -6   44.92    2.23 
  -1  -3  -6   14.86    1.41 
  -2  -3  -6    1.94    0.83 
  -3  -3  -6    6.19    1.25 
  -4  -3  -6   18.69    1.89 
  -5  -3  -6    0.89    0.94 
  10  -4  -6   -0.73    0.93 
   9  -4  -6    0.67    0.89 
   8  -4  -6    3.78    1.02 
   7  -4  -6    2.66    0.89 
   6  -4  -6   37.52    2.05 
   5  -4  -6    3.50    0.90 
   5  -4  -6    4.67    0.86 
   4  -4  -6   19.50    1.52 
   4  -4  -6   17.68    1.25 
   3  -4  -6  155.47    4.78 
   3  -4  -6  156.25    5.48 
   2  -4  -6   20.26    1.12 
   2  -4  -6   20.34    1.53 
   1  -4  -6  145.76    4.25 
   1  -4  -6  136.18    5.06 
   0  -4  -6   37.94    2.18 
  -1  -4  -6    9.87    1.30 
  -2  -4  -6    1.41    0.86 
  -3  -4  -6   15.21    1.68 
  -4  -4  -6    2.41    1.15 
  -5  -4  -6    3.81    1.35 
  10  -5  -6    2.73    1.17 
   9  -5  -6    4.77    1.23 
   8  -5  -6   10.09    1.32 
   8  -5  -6   11.50    1.42 
   7  -5  -6   16.77    1.49 
   7  -5  -6   13.01    1.38 
   6  -5  -6   25.73    1.78 
   6  -5  -6   24.27    1.71 
   5  -5  -6   64.48    2.99 
   5  -5  -6   67.27    2.71 
   4  -5  -6    3.23    0.78 
   4  -5  -6    2.49    0.92 
   3  -5  -6   13.16    1.34 
   3  -5  -6   12.05    1.05 
   2  -5  -6   26.34    1.39 
   2  -5  -6   28.10    1.89 
   1  -5  -6   17.11    1.54 
   0  -5  -6   42.85    2.38 
  -1  -5  -6   14.88    1.60 
  -2  -5  -6    1.26    0.95 
  -3  -5  -6    1.90    1.13 
  -4  -5  -6    1.19    1.07 
   9  -6  -6   13.06    1.54 
   8  -6  -6    0.30    0.88 
   8  -6  -6    0.56    0.86 
   7  -6  -6    1.92    0.98 
   7  -6  -6    1.45    0.93 
   6  -6  -6    1.57    0.95 
   6  -6  -6    0.49    0.81 
   5  -6  -6   13.42    1.44 
   5  -6  -6   12.67    1.25 
   4  -6  -6   27.26    1.66 
   4  -6  -6   31.78    1.99 
   3  -6  -6    6.30    1.17 
   3  -6  -6    7.45    0.93 
   2  -6  -6   19.31    1.29 
   2  -6  -6   15.95    1.55 
   1  -6  -6   13.80    1.51 
   0  -6  -6   -0.16    0.82 
  -1  -6  -6   11.95    1.62 
  -2  -6  -6    2.06    1.11 
  -3  -6  -6    2.23    1.15 
   9  -7  -6    2.41    1.16 
   8  -7  -6    4.51    1.22 
   7  -7  -6    9.39    1.37 
   6  -7  -6   11.93    1.55 
   6  -7  -6   13.10    1.42 
   5  -7  -6   28.10    2.03 
   5  -7  -6   30.20    1.92 
   4  -7  -6    7.10    1.10 
   4  -7  -6   10.11    1.37 
   3  -7  -6   14.97    1.25 
   3  -7  -6   14.68    1.54 
   2  -7  -6    9.06    1.37 
   1  -7  -6    1.13    0.94 
   0  -7  -6    0.06    0.97 
  -1  -7  -6    5.30    1.35 
   8  -8  -6    1.24    1.09 
   7  -8  -6   -0.22    1.01 
   6  -8  -6    1.05    0.99 
   5  -8  -6   -0.01    0.95 
   4  -8  -6    1.28    0.92 
   3  -8  -6    1.04    1.03 
   2  -8  -6    0.50    0.97 
   1  -8  -6    0.48    1.04 
   0  -8  -6    1.27    1.19 
   7  -9  -6   10.01    1.57 
   6  -9  -6    2.49    1.15 
   5  -9  -6    2.56    1.15 
   4  -9  -6    7.10    1.25 
   0 -12   7    1.83    1.17 
   1 -12   7    1.40    1.15 
   2 -12   7    0.73    0.99 
   3 -12   7    0.66    1.06 
   4 -12   7    4.36    1.03 
   4 -12   7    5.45    1.25 
   5 -12   7   -0.35    1.00 
   5 -12   7    0.27    0.81 
   6 -12   7    3.01    1.00 
   6 -12   7    2.28    1.14 
  -2 -11   7   -0.21    1.03 
  -1 -11   7    0.23    0.96 
   0 -11   7   -0.61    0.93 
   1 -11   7    1.71    1.07 
   2 -11   7    3.26    1.13 
   3 -11   7    2.50    0.82 
   3 -11   7    2.92    1.09 
   4 -11   7    2.51    0.98 
   4 -11   7    0.95    0.76 
   5 -11   7    2.33    0.90 
   5 -11   7    1.32    0.96 
   6 -11   7    2.90    1.06 
   6 -11   7    2.98    0.93 
   7 -11   7   10.04    1.36 
  -3 -10   7    0.20    1.14 
  -2 -10   7    0.68    1.01 
  -1 -10   7    0.20    1.01 
   0 -10   7    2.68    1.04 
   1 -10   7    1.96    0.99 
   2 -10   7   16.15    1.25 
   2 -10   7   14.72    1.42 
   3 -10   7   29.83    1.82 
   3 -10   7   28.07    1.68 
   4 -10   7    0.65    0.70 
   4 -10   7    2.17    0.88 
   5 -10   7   19.04    1.48 
   5 -10   7   16.24    1.45 
   6 -10   7   10.51    1.25 
   7 -10   7   13.46    1.42 
   8 -10   7    3.77    1.06 
  -4  -9   7    1.14    1.10 
  -3  -9   7   -0.19    1.04 
  -2  -9   7    0.64    0.90 
  -1  -9   7    1.53    0.94 
   0  -9   7    1.88    0.85 
   1  -9   7    7.04    1.04 
   1  -9   7    6.23    0.84 
   2  -9   7    0.37    0.74 
   2  -9   7   -0.15    0.56 
   3  -9   7    6.25    0.91 
   3  -9   7    5.45    0.96 
   4  -9   7    0.45    0.62 
   4  -9   7    1.09    0.78 
   5  -9   7    5.89    0.95 
   5  -9   7    7.18    1.03 
   6  -9   7    5.76    1.01 
   7  -9   7    3.97    1.00 
   8  -9   7    2.70    1.04 
   5   8  -7    0.53    0.93 
  -5  -8   7   -1.24    0.87 
   4   8  -7    0.08    0.80 
  -4  -8   7   -0.24    0.88 
  -3  -8   7    0.16    0.97 
  -2  -8   7   -0.20    0.80 
  -1  -8   7    9.22    1.20 
   0  -8   7    8.48    0.88 
   0  -8   7    9.35    1.06 
   1  -8   7   10.36    1.09 
   1  -8   7    8.23    0.89 
   2  -8   7   30.16    1.61 
   2  -8   7   28.62    1.64 
   3  -8   7  111.82    3.74 
   3  -8   7  109.62    3.90 
   4  -8   7   18.23    1.26 
   4  -8   7   18.50    1.33 
   5  -8   7   22.28    1.53 
   6  -8   7   39.47    2.13 
   7  -8   7   20.71    1.67 
   8  -8   7    1.63    0.93 
   6   7  -7    0.86    0.88 
  -6  -7   7    1.14    1.20 
   5   7  -7    1.27    0.91 
  -5  -7   7    0.12    0.87 
   4   7  -7    1.11    0.77 
  -4  -7   7    0.39    0.96 
   3   7  -7    6.08    0.93 
  -3  -7   7    5.84    1.09 
   2   7  -7    2.80    0.71 
  -2  -7   7    3.19    0.90 
   1   7  -7   26.92    1.46 
  -1  -7   7   33.54    1.66 
  -1  -7   7   33.04    1.78 
   0  -7   7   51.73    2.25 
   0  -7   7   53.66    2.20 
   1  -7   7    3.10    0.66 
   1  -7   7    2.25    0.69 
   2  -7   7   23.56    1.39 
   2  -7   7   24.66    1.44 
   3  -7   7    8.04    0.94 
   3  -7   7    8.66    0.89 
   4  -7   7    4.11    0.72 
   4  -7   7    3.15    0.77 
   5  -7   7    0.80    0.67 
   6  -7   7    0.92    0.70 
   7  -7   7    2.65    0.87 
   8  -7   7    0.17    0.82 
   7   6  -7    0.17    1.00 
  -7  -6   7    2.33    1.24 
   6   6  -7   -1.19    0.78 
  -6  -6   7   -0.74    0.87 
   5   6  -7    0.18    0.76 
  -5  -6   7   -0.64    0.80 
   4   6  -7    1.01    0.73 
  -4  -6   7    1.69    0.90 
   3   6  -7    0.55    0.61 
  -3  -6   7    0.27    0.67 
   2   6  -7    1.64    0.58 
  -2  -6   7    2.64    0.75 
   1   6  -7   19.91    1.17 
  -1  -6   7   17.08    1.19 
  -1  -6   7   20.48    1.31 
   0   6  -7    7.08    0.72 
   0  -6   7    6.72    0.78 
   0  -6   7    7.41    0.84 
  -1   6  -7   17.12    1.07 
   1  -6   7   18.60    1.15 
   1  -6   7   16.49    1.17 
   2  -6   7   68.42    2.46 
   2  -6   7   71.98    2.72 
   3  -6   7  193.09    6.18 
   3  -6   7  196.71    5.67 
   4  -6   7    2.87    0.75 
   5  -6   7   57.45    2.54 
   6  -6   7   24.91    1.62 
   7  -6   7   14.88    1.39 
   8  -6   7   13.56    1.40 
   7   5  -7    0.60    0.93 
   6   5  -7    9.39    1.37 
  -6  -5   7   10.72    1.45 
   5   5  -7    1.82    0.82 
  -5  -5   7    1.80    0.98 
   4   5  -7    3.34    0.80 
  -4  -5   7    3.13    0.85 
   3   5  -7    4.97    0.78 
  -3  -5   7    3.82    0.82 
   2   5  -7   88.86    3.31 
  -2  -5   7   95.46    3.32 
  -2  -5   7   92.90    3.34 
   1   5  -7  101.22    3.55 
  -1  -5   7  104.14    3.61 
  -1  -5   7  103.75    3.47 
   0  -5   7   17.42    1.09 
   0  -5   7   18.63    1.21 
  -1   5  -7   77.90    2.89 
   1  -5   7   80.70    2.99 
   1  -5   7   82.94    2.69 
  -2   5  -7   92.69    3.27 
   2  -5   7   92.99    3.35 
   2  -5   7   92.43    2.94 
  -3   5  -7    1.69    0.57 
   3  -5   7    1.64    0.64 
   3  -5   7    1.41    0.47 
  -4   5  -7   58.18    2.40 
   4  -5   7   59.33    2.50 
   5  -5   7   37.02    1.96 
   6  -5   7    7.31    1.09 
   7  -5   7    1.81    0.87 
   8  -5   7    6.11    1.20 
   8   4  -7    1.09    1.00 
   7   4  -7    3.29    1.08 
   6   4  -7    0.16    0.74 
   5   4  -7    5.25    0.95 
  -5  -4   7    4.27    1.01 
   4   4  -7    6.83    0.94 
  -4  -4   7    5.45    0.93 
   3   4  -7    1.01    0.55 
  -3  -4   7    0.76    0.58 
   2   4  -7    8.06    0.83 
  -2  -4   7    8.75    0.88 
  -2  -4   7    7.94    0.86 
   1   4  -7   27.98    1.44 
  -1  -4   7   28.04    1.53 
  -1  -4   7   24.80    1.30 
   0   4  -7   12.95    1.00 
   0  -4   7   12.31    1.04 
   0  -4   7   14.01    0.87 
  -1   4  -7   24.97    1.40 
   1  -4   7   24.08    1.43 
   1  -4   7   26.04    1.14 
  -2   4  -7   25.84    1.49 
   2  -4   7   27.97    1.13 
   2  -4   7   28.51    1.54 
  -3   4  -7   19.30    1.27 
   3  -4   7   20.25    1.41 
  -4   4  -7    4.46    0.80 
   4  -4   7    2.99    0.77 
  -5   4  -7   23.55    1.55 
   5  -4   7   22.79    1.59 
  -6   4  -7   10.60    1.24 
   6  -4   7   14.96    1.37 
   7  -4   7   31.97    2.06 
   8  -4   7   19.69    1.76 
   8   3  -7    0.86    0.98 
   7   3  -7    1.03    0.82 
   6   3  -7    6.71    1.04 
   5   3  -7    0.39    0.66 
   4   3  -7   11.20    1.03 
  -4  -3   7   12.16    1.10 
  -3  -3   7   68.52    2.59 
   2   3  -7   60.81    2.37 
  -2  -3   7   58.48    2.16 
  -2  -3   7   51.55    2.34 
   1   3  -7   94.49    3.32 
  -1  -3   7   93.66    3.43 
  -1  -3   7   90.16    2.95 
   0   3  -7  136.44    4.54 
   0  -3   7  131.33    3.94 
   0  -3   7  136.97    4.57 
  -1   3  -7   21.89    1.31 
   1  -3   7   23.33    0.93 
   1  -3   7   20.94    1.39 
  -2   3  -7  122.07    4.21 
   2  -3   7  117.99    4.16 
  -3   3  -7  137.82    4.83 
   3  -3   7  144.74    4.84 
  -4   3  -7   88.83    3.53 
   4  -3   7   90.51    3.49 
  -5   3  -7   22.68    1.65 
   5  -3   7   24.33    1.67 
  -6   3  -7   41.85    2.34 
   6  -3   7   44.09    2.33 
  -7   3  -7    4.27    1.14 
   7  -3   7    3.42    1.07 
  -8   3  -7    8.87    1.50 
   9   2  -7   -0.30    1.00 
   8   2  -7    1.49    0.99 
   7   2  -7    1.53    0.85 
   6   2  -7    1.94    0.76 
   5   2  -7   26.57    1.62 
   4   2  -7    5.62    0.81 
   3   2  -7   64.30    2.59 
   2   2  -7   32.76    1.66 
  -2  -2   7   33.86    1.79 
   1   2  -7    8.64    0.90 
  -1  -2   7    6.83    0.90 
   0   2  -7    9.59    0.96 
   0  -2   7   10.07    1.02 
  -1   2  -7   18.89    1.20 
   1  -2   7   13.57    1.20 
  -2   2  -7    9.89    1.02 
  -3   2  -7   16.79    1.34 
   3  -2   7   15.59    1.31 
  -4   2  -7    2.90    0.85 
   4  -2   7    2.61    0.84 
  -5   2  -7   11.77    1.36 
   5  -2   7   11.75    1.30 
  -6   2  -7   14.58    1.54 
   6  -2   7   12.38    1.41 
  -7   2  -7    4.22    1.22 
   9   1  -7    1.10    1.13 
   8   1  -7    0.86    0.97 
   7   1  -7    0.08    0.76 
   6   1  -7    4.71    0.88 
   5   1  -7    0.35    0.54 
   4   1  -7   10.83    1.01 
   3   1  -7    9.17    0.95 
   2   1  -7   14.36    1.12 
   1   1  -7  186.43    5.98 
  -1  -1   7  175.84    5.91 
   0   1  -7   78.82    3.11 
   0  -1   7   81.41    3.19 
  -1   1  -7  189.38    6.23 
   1  -1   7  189.06    6.19 
  -2   1  -7   44.03    2.23 
   2  -1   7   48.80    2.30 
  -3   1  -7  101.81    3.99 
   3  -1   7  105.54    3.95 
  -4   1  -7   50.99    2.63 
   4  -1   7   52.77    2.55 
  -5   1  -7   33.20    2.15 
   5  -1   7   28.35    1.93 
  -6   1  -7   20.64    1.88 
   6  -1   7   23.05    1.85 
  -7   1  -7    6.09    1.42 
   9   0  -7    2.31    1.05 
   8   0  -7    0.82    0.81 
   7   0  -7    1.55    0.84 
   6   0  -7   51.79    2.46 
   5   0  -7   46.95    2.20 
   4   0  -7   33.91    1.78 
   3   0  -7   97.62    3.60 
   2   0  -7   81.97    3.21 
   1   0  -7   70.93    2.90 
   0   0  -7   76.51    3.24 
   0   0   7   93.05    3.38 
  -1   0  -7   71.00    3.03 
   1   0   7   77.63    3.06 
  -2   0  -7    0.19    0.63 
   2   0   7    0.30    0.60 
  -3   0  -7    1.34    0.77 
   3   0   7   -0.10    0.60 
  -4   0  -7    3.63    1.00 
   4   0   7    4.76    0.96 
  -5   0  -7    1.43    0.94 
   5   0   7    0.82    0.78 
  -6   0  -7   -0.06    0.86 
  -7   0  -7    0.09    1.02 
   9  -1  -7    1.17    0.97 
   8  -1  -7    3.68    1.05 
   7  -1  -7    4.56    0.97 
   6  -1  -7   15.00    1.34 
   5  -1  -7    0.72    0.60 
   4  -1  -7    3.04    0.77 
   3  -1  -7   23.70    1.58 
   2  -1  -7    5.80    0.94 
   1  -1  -7  135.29    4.89 
   1  -1  -7  140.61    4.00 
   0  -1  -7   60.14    2.66 
  -1  -1  -7    3.56    0.82 
   1   1   7    3.88    0.81 
  -2  -1  -7   40.38    2.17 
   2   1   7   36.72    2.01 
  -3  -1  -7   77.70    3.51 
   3   1   7   83.68    3.34 
  -4  -1  -7    1.19    0.87 
   4   1   7    1.56    0.77 
  -5  -1  -7   18.25    1.89 
  -6  -1  -7    1.44    1.03 
  10  -2  -7    1.02    1.05 
   9  -2  -7    2.47    1.08 
   8  -2  -7    1.07    0.82 
   7  -2  -7   35.71    2.08 
   6  -2  -7    9.94    1.19 
   5  -2  -7   16.78    1.39 
   4  -2  -7  180.85    6.12 
   3  -2  -7   43.65    2.26 
   2  -2  -7  175.03    5.98 
   2  -2  -7  171.94    5.06 
   1  -2  -7   94.04    3.72 
   1  -2  -7   94.58    2.90 
   0  -2  -7   26.44    1.79 
  -1  -2  -7    4.18    1.00 
  -2  -2  -7   28.10    1.93 
  -3  -2  -7   12.40    1.50 
  -4  -2  -7    8.03    1.43 
  -5  -2  -7    2.46    1.05 
  10  -3  -7   -0.31    0.97 
   9  -3  -7    3.71    1.14 
   8  -3  -7    3.20    0.99 
   7  -3  -7    7.01    1.17 
   6  -3  -7   36.44    2.10 
   5  -3  -7    1.28    0.72 
   4  -3  -7    1.71    0.63 
   4  -3  -7    2.22    0.80 
   3  -3  -7    7.40    0.82 
   3  -3  -7    9.54    1.16 
   2  -3  -7    5.21    1.01 
   2  -3  -7    6.67    0.68 
   1  -3  -7  158.77    5.61 
   0  -3  -7   12.45    1.34 
  -1  -3  -7    0.01    0.68 
  -2  -3  -7   13.50    1.56 
  -3  -3  -7   -0.06    0.82 
  -4  -3  -7    2.70    1.16 
  -5  -3  -7    4.33    1.36 
   9  -4  -7    0.96    0.99 
   8  -4  -7    0.10    0.81 
   7  -4  -7   -0.33    0.72 
   6  -4  -7   25.14    1.82 
   5  -4  -7   67.39    2.73 
   5  -4  -7   66.05    3.09 
   4  -4  -7   17.50    1.26 
   4  -4  -7   15.91    1.52 
   3  -4  -7   47.31    2.40 
   3  -4  -7   40.51    1.85 
   2  -4  -7   65.24    2.91 
   2  -4  -7   54.49    2.13 
   1  -4  -7   -0.14    0.68 
   0  -4  -7   47.16    2.61 
  -1  -4  -7   14.75    1.60 
  -2  -4  -7   11.77    1.59 
  -3  -4  -7    3.92    1.27 
  -4  -4  -7    5.83    1.48 
   9  -5  -7    2.79    1.04 
   9  -5  -7    3.16    1.18 
   8  -5  -7    7.56    1.30 
   8  -5  -7    5.59    1.20 
   7  -5  -7    9.26    1.37 
   7  -5  -7    9.22    1.28 
   6  -5  -7   28.31    1.85 
   6  -5  -7   26.38    1.97 
   5  -5  -7    7.13    1.05 
   5  -5  -7    8.22    1.31 
   4  -5  -7   17.14    1.27 
   4  -5  -7   14.94    1.58 
   3  -5  -7    7.27    0.91 
   3  -5  -7    9.38    1.30 
   2  -5  -7    1.21    0.88 
   1  -5  -7   -0.61    0.76 
   0  -5  -7   12.10    1.53 
  -1  -5  -7    1.50    1.02 
  -2  -5  -7    0.24    1.02 
  -3  -5  -7   -0.25    1.01 
   9  -6  -7    4.72    1.28 
   8  -6  -7    1.59    1.08 
   8  -6  -7    1.02    1.03 
   7  -6  -7    0.47    0.90 
   7  -6  -7    0.23    1.01 
   6  -6  -7    4.64    1.09 
   6  -6  -7    6.96    1.35 
   5  -6  -7    5.57    1.04 
   5  -6  -7    4.75    1.20 
   4  -6  -7    9.60    1.13 
   4  -6  -7    9.28    1.38 
   3  -6  -7    2.51    1.01 
   2  -6  -7    7.52    1.30 
   1  -6  -7   14.87    1.67 
   0  -6  -7    5.18    1.24 
  -1  -6  -7    2.24    1.18 
  -2  -6  -7    6.78    1.49 
   8  -7  -7   13.61    1.65 
   7  -7  -7    6.04    1.28 
   6  -7  -7    5.54    1.19 
   6  -7  -7    5.68    1.36 
   5  -7  -7   10.41    1.31 
   5  -7  -7    7.32    1.38 
   4  -7  -7   14.10    1.69 
   4  -7  -7   12.77    1.31 
   3  -7  -7    8.46    1.40 
   2  -7  -7    9.07    1.47 
   1  -7  -7    2.39    1.14 
   0  -7  -7    2.91    1.25 
   7  -8  -7   -0.31    1.06 
   6  -8  -7    1.40    1.05 
   5  -8  -7    0.84    1.02 
   4  -8  -7    0.26    1.04 
   3  -8  -7    0.92    1.15 
   2  -8  -7    0.88    1.10 
   1  -8  -7    3.31    1.32 
   1 -12   8    3.57    1.22 
   2 -12   8    4.75    1.28 
   3 -12   8    0.42    1.04 
   4 -12   8    2.33    0.94 
   4 -12   8    2.82    1.15 
   5 -12   8    1.83    0.95 
   5 -12   8    3.37    1.18 
  -1 -11   8    0.16    1.07 
   0 -11   8   -0.32    1.02 
   1 -11   8    0.61    0.99 
   2 -11   8    0.98    1.02 
   3 -11   8    3.37    0.90 
   3 -11   8    4.00    1.12 
   4 -11   8    8.06    1.16 
   4 -11   8    7.82    1.26 
   5 -11   8    6.07    1.14 
   6 -11   8    6.62    1.20 
  -3 -10   8    0.15    1.10 
  -2 -10   8    2.86    1.24 
  -1 -10   8    2.75    1.13 
   0 -10   8    1.90    1.05 
   1 -10   8    6.98    1.17 
   2 -10   8   24.25    1.73 
   2 -10   8   21.48    1.52 
   3 -10   8    3.12    0.97 
   3 -10   8    4.10    0.91 
   4 -10   8    8.66    1.13 
   4 -10   8    9.47    1.19 
   5 -10   8   12.73    1.33 
   6 -10   8    9.16    1.29 
   7 -10   8    0.10    0.85 
  -4  -9   8   -0.99    1.00 
  -3  -9   8    0.75    1.11 
  -2  -9   8    1.69    1.08 
  -1  -9   8    5.46    1.13 
   0  -9   8    0.41    0.77 
   1  -9   8    1.57    0.71 
   1  -9   8    0.35    0.76 
   2  -9   8   -1.02    0.67 
   2  -9   8    0.05    0.61 
   3  -9   8   10.05    1.13 
   3  -9   8   11.72    1.17 
   4  -9   8    1.30    0.82 
   4  -9   8    1.10    0.75 
   5  -9   8    0.47    0.72 
   6  -9   8    5.51    1.04 
   7  -9   8    2.62    0.99 
   5   8  -8   -0.62    0.80 
  -5  -8   8   -0.49    0.98 
  -4  -8   8    1.70    1.10 
  -3  -8   8    0.53    0.93 
  -2  -8   8    7.53    1.24 
  -1  -8   8    2.53    0.89 
   0  -8   8   12.80    1.25 
   0  -8   8   10.47    1.05 
   1  -8   8   33.07    1.83 
   1  -8   8   35.42    1.83 
   2  -8   8   83.93    3.12 
   2  -8   8   85.47    3.27 
   3  -8   8    3.27    0.83 
   3  -8   8    3.40    0.81 
   4  -8   8   40.99    2.12 
   5  -8   8   22.20    1.62 
   6  -8   8   16.22    1.46 
   7  -8   8   13.51    1.43 
   8  -8   8   18.97    1.70 
   6   7  -8    1.74    1.02 
  -6  -7   8    0.13    1.12 
   5   7  -8   -0.41    0.78 
  -5  -7   8    0.99    0.98 
   4   7  -8    1.36    0.83 
  -4  -7   8   -0.01    0.89 
   3   7  -8   11.35    1.16 
  -3  -7   8   15.50    1.48 
  -2  -7   8   20.30    1.57 
   1   7  -8   -0.12    0.23 
  -1  -7   8    0.85    0.52 
  -1  -7   8    0.80    0.72 
   0  -7   8    9.36    1.00 
   0  -7   8    8.25    0.99 
   1  -7   8   28.25    1.52 
   1  -7   8   27.04    1.62 
   2  -7   8   10.92    0.99 
   2  -7   8   10.66    1.10 
   3  -7   8   10.94    1.13 
   3  -7   8   11.03    0.97 
   4  -7   8   13.60    1.27 
   5  -7   8    0.49    0.73 
   6  -7   8   -0.25    0.73 
   7  -7   8    1.44    0.90 
   8  -7   8    2.42    1.07 
   6   6  -8   -0.11    0.82 
  -6  -6   8    0.30    1.04 
   5   6  -8   -0.10    0.76 
  -5  -6   8    0.39    0.97 
   4   6  -8   -0.67    0.62 
  -4  -6   8    0.77    0.81 
   3   6  -8    0.17    0.57 
  -3  -6   8   -0.03    0.71 
  -2  -6   8   21.19    1.48 
   1   6  -8    0.28    0.49 
  -1  -6   8    1.03    0.65 
  -1  -6   8    0.79    0.57 
   0   6  -8   18.42    1.23 
   0  -6   8   28.06    1.47 
   0  -6   8   29.80    1.61 
  -1   6  -8   40.06    1.90 
   1  -6   8   43.73    2.08 
   1  -6   8   42.05    1.79 
   2  -6   8   21.74    1.49 
   2  -6   8   22.86    1.24 
   3  -6   8    5.02    0.92 
   4  -6   8   56.96    2.60 
   5  -6   8   29.00    1.81 
   6  -6   8   56.73    2.70 
   7  -6   8   36.13    2.23 
   8  -6   8   16.39    1.67 
   7   5  -8    1.35    0.97 
   6   5  -8    1.12    0.90 
  -6  -5   8    1.35    1.03 
   5   5  -8    3.59    0.95 
  -5  -5   8    1.68    0.96 
   4   5  -8   17.09    1.36 
  -4  -5   8   14.73    1.39 
   3   5  -8   20.95    1.43 
  -3  -5   8   19.21    1.43 
   2   5  -8   19.92    1.35 
  -2  -5   8   17.63    1.28 
  -2  -5   8   21.27    1.42 
   1   5  -8   31.02    1.61 
  -1  -5   8   35.17    1.85 
  -1  -5   8   29.66    1.55 
   0   5  -8   12.21    1.04 
   0  -5   8   11.83    1.12 
   0  -5   8   11.79    0.95 
   1  -5   8   47.52    2.23 
   1  -5   8   50.37    1.88 
   2  -5   8   81.05    3.19 
   3  -5   8   59.71    2.66 
   4  -5   8    6.91    1.06 
   5  -5   8   30.35    1.89 
   6  -5   8   -0.49    0.80 
   7  -5   8    2.99    1.08 
   8  -5   8    1.00    1.02 
   8   4  -8    0.00    0.97 
   7   4  -8    0.20    0.93 
   6   4  -8    3.40    0.99 
   5   4  -8   -0.46    0.53 
  -5  -4   8    0.61    0.73 
   4   4  -8    6.52    0.96 
  -4  -4   8    8.54    1.04 
   3   4  -8    2.21    0.69 
  -3  -4   8    2.97    0.76 
   2   4  -8    1.00    0.58 
  -2  -4   8    1.79    0.62 
  -2  -4   8    1.23    0.58 
   1   4  -8    0.25    0.46 
  -1  -4   8    0.86    0.50 
  -1  -4   8    0.26    0.51 
   0   4  -8    2.55    0.68 
   0  -4   8    3.42    0.78 
   0  -4   8    3.46    0.55 
  -1   4  -8    1.08    0.55 
   1  -4   8    1.52    0.67 
   1  -4   8    1.22    0.42 
  -2   4  -8   49.86    2.32 
   2  -4   8   49.44    2.32 
  -3   4  -8    2.10    0.72 
   3  -4   8    3.56    0.85 
  -4   4  -8   45.29    2.31 
   4  -4   8   45.97    2.32 
  -5   4  -8   57.17    2.70 
   5  -4   8   56.45    2.76 
  -6   4  -8   24.29    1.82 
   6  -4   8   21.86    1.81 
   7  -4   8   24.30    1.98 
   8   3  -8   -1.35    0.83 
   7   3  -8    2.47    0.97 
   6   3  -8   -0.29    0.66 
   5   3  -8    6.36    1.00 
   4   3  -8    8.16    0.99 
   3   3  -8   13.94    1.20 
  -3  -3   8   13.92    1.08 
   2   3  -8  104.96    3.83 
  -2  -3   8  103.03    3.47 
  -2  -3   8  111.85    3.93 
   1   3  -8   49.03    2.17 
  -1  -3   8   39.23    2.12 
  -1  -3   8   47.12    1.77 
   0   3  -8  152.78    5.17 
   0  -3   8  149.79    4.42 
   0  -3   8  154.72    5.23 
  -1   3  -8   76.98    3.08 
   1  -3   8   78.52    3.18 
  -2   3  -8   83.74    3.50 
   2  -3   8  104.40    3.72 
  -3   3  -8   72.77    3.10 
   3  -3   8   74.75    3.17 
  -4   3  -8   44.11    2.37 
   4  -3   8   42.25    2.33 
  -5   3  -8   33.55    2.09 
   5  -3   8   32.75    2.07 
  -6   3  -8   12.15    1.47 
   6  -3   8   11.42    1.47 
  -7   3  -8    6.03    1.31 
   7  -3   8    9.51    1.44 
   8   2  -8   -0.24    0.84 
   7   2  -8    8.92    1.30 
   6   2  -8   12.23    1.32 
   5   2  -8    6.30    0.94 
   4   2  -8   24.08    1.52 
   3   2  -8   10.97    1.06 
   2   2  -8   17.74    1.28 
  -2  -2   8   19.68    1.48 
   1   2  -8   20.74    1.48 
  -1  -2   8   24.19    1.58 
   0   2  -8   16.65    1.36 
   0  -2   8   18.57    1.43 
  -1   2  -8    8.03    1.02 
   1  -2   8    7.68    1.03 
  -2   2  -8   13.07    1.26 
   2  -2   8   13.10    1.31 
  -3   2  -8    0.20    0.64 
   3  -2   8    0.50    0.72 
  -4   2  -8    3.95    1.01 
   4  -2   8    4.27    1.03 
  -5   2  -8    5.24    1.13 
   5  -2   8    3.08    1.05 
  -6   2  -8    9.78    1.44 
   6  -2   8   11.12    1.51 
  -7   2  -8   14.51    1.81 
   9   1  -8    1.77    1.01 
   8   1  -8    4.97    1.22 
   7   1  -8    2.81    0.94 
   6   1  -8    0.04    0.65 
   5   1  -8    1.43    0.67 
   4   1  -8   24.21    1.58 
   3   1  -8   23.73    1.50 
   2   1  -8  165.36    5.65 
   1   1  -8   85.49    3.44 
  -1  -1   8   87.40    3.47 
   0   1  -8   23.99    1.55 
   0  -1   8   22.29    1.54 
  -1   1  -8   91.94    3.71 
   1  -1   8   95.12    3.69 
  -2   1  -8  182.92    6.36 
   2  -1   8  188.74    6.30 
  -3   1  -8   11.71    1.35 
   3  -1   8   11.87    1.30 
  -4   1  -8   53.64    2.88 
   4  -1   8   59.37    2.86 
  -5   1  -8   12.59    1.60 
   5  -1   8   14.28    1.54 
  -6   1  -8   20.92    1.99 
   9   0  -8    0.84    1.04 
   8   0  -8   12.43    1.54 
   7   0  -8    6.23    1.15 
   6   0  -8    3.54    0.94 
   5   0  -8   79.88    3.30 
   4   0  -8   24.55    1.63 
   3   0  -8   99.51    3.86 
   2   0  -8   60.72    2.78 
   1   0  -8   14.85    1.37 
   0   0  -8    0.53    0.60 
   0   0   8    0.54    0.64 
  -1   0  -8   17.64    1.51 
   1   0   8   15.28    1.34 
  -2   0  -8   15.42    1.50 
   2   0   8   15.07    1.39 
  -3   0  -8    3.39    1.01 
   3   0   8    3.61    0.94 
  -4   0  -8    0.77    0.87 
   4   0   8    0.86    0.80 
  -5   0  -8   -0.07    0.87 
   5   0   8   -0.52    0.84 
  -6   0  -8    2.56    1.14 
   9  -1  -8   -0.05    0.93 
   8  -1  -8    0.04    0.86 
   7  -1  -8   10.72    1.32 
   6  -1  -8    5.99    1.07 
   5  -1  -8    0.93    0.74 
   4  -1  -8    1.09    0.70 
   3  -1  -8    0.79    0.73 
   2  -1  -8  273.03    8.82 
   1  -1  -8    4.44    0.99 
   0  -1  -8   11.16    1.28 
  -1  -1  -8   81.35    3.50 
  -2  -1  -8   11.23    1.36 
   2   1   8    8.76    1.17 
  -3  -1  -8   11.41    1.51 
   3   1   8   12.21    1.32 
  -4  -1  -8   30.19    2.22 
   4   1   8   32.27    2.04 
  -5  -1  -8   14.46    1.84 
   9  -2  -8    0.74    1.01 
   8  -2  -8    1.14    0.88 
   7  -2  -8   18.82    1.69 
   6  -2  -8   68.13    3.07 
   5  -2  -8   17.08    1.53 
   4  -2  -8   42.14    2.36 
   3  -2  -8  101.57    4.08 
   2  -2  -8    1.50    0.53 
   2  -2  -8    2.39    0.87 
   1  -2  -8   80.86    3.49 
   0  -2  -8   40.57    2.35 
  -1  -2  -8   26.50    1.95 
  -2  -2  -8    8.59    1.37 
  -3  -2  -8   18.68    1.91 
  -4  -2  -8    1.24    0.95 
  -5  -2  -8    2.91    1.17 
   9  -3  -8    1.62    1.10 
   8  -3  -8    2.40    1.01 
   7  -3  -8    8.83    1.33 
   6  -3  -8    0.46    0.77 
   5  -3  -8    7.43    1.22 
   4  -3  -8    0.67    0.61 
   4  -3  -8   -0.30    0.77 
   3  -3  -8    7.77    1.28 
   3  -3  -8    8.59    0.88 
   2  -3  -8    1.84    0.88 
   1  -3  -8   13.67    1.51 
   0  -3  -8    3.28    1.01 
  -1  -3  -8    1.01    0.94 
  -2  -3  -8    8.46    1.41 
  -3  -3  -8    9.31    1.58 
  -4  -3  -8    3.89    1.33 
   9  -4  -8    0.17    1.00 
   8  -4  -8    2.81    1.09 
   7  -4  -8   13.13    1.57 
   6  -4  -8    8.16    1.36 
   6  -4  -8    6.56    1.09 
   5  -4  -8   22.27    1.55 
   5  -4  -8   18.05    1.76 
   4  -4  -8   10.00    1.06 
   4  -4  -8    9.88    1.43 
   3  -4  -8   22.96    1.87 
   2  -4  -8   45.23    2.55 
   1  -4  -8   24.66    1.92 
   0  -4  -8   14.74    1.69 
  -1  -4  -8   33.62    2.37 
  -2  -4  -8    5.51    1.42 
  -3  -4  -8    4.26    1.30 
   9  -5  -8    5.69    1.31 
   9  -5  -8    7.37    1.49 
   8  -5  -8    5.69    1.25 
   8  -5  -8    7.65    1.46 
   7  -5  -8    3.65    1.08 
   7  -5  -8    6.08    1.36 
   6  -5  -8    5.71    1.37 
   6  -5  -8    6.27    1.08 
   5  -5  -8   13.85    1.33 
   5  -5  -8   13.65    1.66 
   4  -5  -8    5.97    0.97 
   4  -5  -8    6.06    1.27 
   3  -5  -8    8.64    1.46 
   2  -5  -8    3.35    1.18 
   1  -5  -8    1.56    1.07 
   0  -5  -8    0.12    0.90 
  -1  -5  -8    0.14    1.04 
  -2  -5  -8    0.27    1.04 
   8  -6  -8   -0.44    0.91 
   8  -6  -8   -0.21    1.09 
   7  -6  -8   -0.72    0.99 
   7  -6  -8    0.59    0.97 
   6  -6  -8    5.95    1.18 
   6  -6  -8    8.40    1.53 
   5  -6  -8    1.00    1.05 
   5  -6  -8    2.62    1.02 
   4  -6  -8    5.63    1.36 
   3  -6  -8   11.97    1.70 
   2  -6  -8   15.86    1.82 
   1  -6  -8    8.00    1.49 
   0  -6  -8    3.95    1.32 
  -1  -6  -8    2.54    1.20 
   7  -7  -8   20.91    1.88 
   6  -7  -8    6.74    1.50 
   6  -7  -8    6.58    1.30 
   5  -7  -8    5.92    1.53 
   4  -7  -8   12.91    1.84 
   3  -7  -8    5.35    1.39 
   2  -7  -8    0.55    1.08 
   1  -7  -8    1.90    1.15 
   4  -8  -8    0.26    1.16 
   2 -12   9    0.70    1.06 
   3 -12   9    0.22    1.05 
  -1 -11   9    0.23    1.07 
   0 -11   9   -0.43    0.93 
   1 -11   9    0.20    1.01 
   2 -11   9    7.74    1.34 
   3 -11   9    0.48    0.81 
   3 -11   9    2.36    1.06 
   4 -11   9    0.85    0.89 
   5 -11   9    3.26    1.04 
  -2 -10   9   -0.98    1.03 
  -1 -10   9    4.32    1.23 
   0 -10   9    6.98    1.30 
   1 -10   9   20.49    1.71 
   2 -10   9    4.02    0.96 
   2 -10   9    4.01    1.06 
   3 -10   9   15.75    1.44 
   3 -10   9   14.35    1.44 
   4 -10   9    6.60    1.17 
   5 -10   9    3.73    1.01 
   6 -10   9    5.60    1.20 
  -4  -9   9    0.13    1.06 
  -3  -9   9    5.26    1.33 
  -2  -9   9   -0.11    0.98 
  -1  -9   9    0.78    0.94 
   0  -9   9    4.70    1.09 
   1  -9   9   12.46    1.31 
   1  -9   9   12.52    1.27 
   2  -9   9    1.11    0.85 
   2  -9   9   -0.12    0.71 
   3  -9   9    2.23    0.90 
   4  -9   9    2.36    0.91 
   5  -9   9    4.59    1.04 
   6  -9   9    0.52    0.74 
   7  -9   9    7.79    1.29 
  -5  -8   9    0.66    1.09 
  -4  -8   9    0.87    1.09 
  -3  -8   9    7.43    1.27 
  -2  -8   9   -0.02    0.85 
  -1  -8   9   10.72    1.27 
   0  -8   9   16.31    1.41 
   0  -8   9   16.62    1.41 
   1  -8   9    8.94    1.15 
   1  -8   9    6.85    1.03 
   2  -8   9    1.13    0.71 
   2  -8   9    0.93    0.75 
   3  -8   9   42.10    2.26 
   4  -8   9   13.70    1.43 
   5  -8   9   38.44    2.21 
   6  -8   9   23.09    1.81 
   7  -8   9   12.95    1.49 
   5   7  -9    1.95    0.95 
  -5  -7   9    4.38    1.31 
   4   7  -9    3.75    0.97 
  -4  -7   9    3.24    1.09 
   3   7  -9    0.63    0.66 
  -3  -7   9   -0.19    0.83 
   2   7  -9    2.26    0.76 
  -2  -7   9    2.90    0.94 
  -1  -7   9    2.40    0.87 
  -1  -7   9    2.40    0.81 
   0  -7   9    4.35    0.88 
   0  -7   9    6.15    1.00 
   1  -7   9   13.53    1.32 
   1  -7   9   12.66    1.13 
   2  -7   9   18.28    1.53 
   3  -7   9   -0.42    0.64 
   4  -7   9    7.19    1.16 
   5  -7   9    0.70    0.85 
   6  -7   9    0.40    0.91 
   7  -7   9    3.74    1.17 
   6   6  -9    0.54    0.88 
  -6  -6   9    1.10    1.07 
   5   6  -9   -0.21    0.73 
  -5  -6   9    0.65    1.00 
   4   6  -9    0.20    0.68 
  -4  -6   9   -0.46    0.83 
   3   6  -9    3.39    0.88 
  -3  -6   9    4.50    1.00 
   2   6  -9    0.73    0.65 
  -2  -6   9    0.37    0.65 
  -2  -6   9    0.30    0.70 
   1   6  -9    8.90    0.97 
  -1  -6   9    8.13    1.06 
  -1  -6   9    8.79    1.01 
   0   6  -9    2.52    0.72 
   0  -6   9    3.51    0.89 
   0  -6   9    3.07    0.75 
  -1   6  -9   37.93    1.96 
   1  -6   9   38.69    2.08 
   1  -6   9   40.42    1.77 
   2  -6   9    4.93    1.00 
   3  -6   9   63.08    2.90 
   4  -6   9   73.60    3.26 
   5  -6   9   39.90    2.36 
   6  -6   9   33.77    2.22 
   7  -6   9    9.29    1.47 
   7   5  -9    0.06    0.87 
   6   5  -9    3.24    1.06 
   5   5  -9    3.20    0.95 
  -5  -5   9    2.59    1.02 
   4   5  -9    2.94    0.84 
  -4  -5   9    3.67    0.99 
   3   5  -9   26.92    1.67 
  -3  -5   9   22.64    1.56 
   2   5  -9    7.56    0.96 
  -2  -5   9    9.95    1.05 
  -2  -5   9    8.91    1.06 
   1   5  -9   50.46    2.33 
  -1  -5   9   53.05    2.49 
  -1  -5   9   49.50    2.12 
   0   5  -9   40.71    2.05 
   0  -5   9   39.67    2.16 
   0  -5   9   41.51    1.77 
  -1   5  -9   34.59    1.88 
   1  -5   9   36.28    2.05 
  -2   5  -9   33.09    1.85 
   2  -5   9   28.54    1.89 
  -3   5  -9   19.07    1.52 
   3  -5   9   21.81    1.65 
   4  -5   9   17.59    1.58 
   5  -5   9    2.79    1.07 
   6  -5   9    3.79    1.18 
   7  -5   9    5.08    1.26 
   7   4  -9    3.05    1.05 
   6   4  -9    0.97    0.85 
   5   4  -9    3.35    0.90 
   4   4  -9   -0.11    0.62 
  -4  -4   9    0.34    0.68 
   3   4  -9    0.25    0.60 
  -3  -4   9    1.08    0.67 
   2   4  -9    0.23    0.59 
  -2  -4   9    0.15    0.54 
  -2  -4   9   -0.33    0.52 
   1   4  -9    1.15    0.66 
  -1  -4   9    0.70    0.51 
  -1  -4   9    0.27    0.60 
   0   4  -9   26.02    1.62 
   0  -4   9   25.63    1.70 
   0  -4   9   24.63    1.21 
  -1   4  -9   39.20    2.02 
   1  -4   9   37.52    2.10 
  -2   4  -9   11.19    1.21 
   2  -4   9   12.74    1.34 
  -3   4  -9   31.94    1.95 
   3  -4   9   32.57    2.09 
  -4   4  -9   22.30    1.75 
   4  -4   9   21.72    1.79 
  -5   4  -9   35.90    2.20 
   5  -4   9   32.68    2.27 
   6  -4   9   37.65    2.48 
   7  -4   9   12.72    1.71 
   8   3  -9    0.90    0.95 
   7   3  -9    0.20    0.76 
   6   3  -9    1.83    0.85 
   5   3  -9    7.86    1.08 
   4   3  -9   20.46    1.49 
   3   3  -9   81.27    3.27 
   2   3  -9   41.19    2.12 
  -2  -3   9   41.05    2.18 
   1   3  -9   23.82    1.63 
  -1  -3   9   23.79    1.66 
   0   3  -9   75.74    3.17 
   0  -3   9   72.74    3.17 
  -1   3  -9  183.64    6.17 
   1  -3   9  178.14    6.19 
  -2   3  -9   10.11    1.19 
   2  -3   9    9.45    1.24 
  -3   3  -9   68.70    3.18 
   3  -3   9   72.24    3.26 
  -4   3  -9   17.38    1.68 
   4  -3   9   14.71    1.55 
  -5   3  -9   23.47    1.96 
   5  -3   9   25.00    2.01 
  -6   3  -9    4.27    1.20 
   6  -3   9    3.94    1.26 
   8   2  -9    0.64    0.95 
   7   2  -9    1.08    0.86 
   6   2  -9   13.62    1.40 
   5   2  -9    4.24    0.96 
   4   2  -9   22.81    1.62 
   3   2  -9    9.04    1.11 
   2   2  -9   -0.40    0.62 
   1   2  -9    7.53    1.06 
  -1  -2   9    6.65    1.03 
   0   2  -9   -0.52    0.52 
   0  -2   9   -0.08    0.64 
  -1   2  -9    4.52    0.98 
   1  -2   9    2.36    0.83 
  -2   2  -9    0.00    0.69 
   2  -2   9    0.55    0.75 
  -3   2  -9    7.36    1.21 
   3  -2   9    6.82    1.23 
  -4   2  -9    6.83    1.31 
   4  -2   9    6.26    1.26 
  -5   2  -9   19.95    1.88 
   5  -2   9   16.02    1.75 
  -6   2  -9   18.96    1.97 
   6  -2   9   17.60    1.87 
   8   1  -9    3.00    1.10 
   7   1  -9    5.71    1.15 
   6   1  -9    1.28    0.78 
   5   1  -9    7.22    1.10 
   4   1  -9    3.69    0.90 
   3   1  -9  195.60    6.63 
   2   1  -9    0.53    0.75 
   1   1  -9   29.57    1.89 
  -1  -1   9   31.64    1.98 
   0   1  -9  146.20    5.25 
   0  -1   9  139.71    5.12 
  -1   1  -9   29.60    2.01 
   1  -1   9   32.64    1.95 
  -2   1  -9   29.45    2.02 
   2  -1   9   30.42    1.99 
  -3   1  -9   70.95    3.34 
   3  -1   9   69.87    3.27 
  -4   1  -9   33.75    2.33 
   4  -1   9   32.11    2.18 
  -5   1  -9   17.49    1.90 
   5  -1   9   16.86    1.73 
  -6   1  -9    1.13    1.07 
   9   0  -9   -0.18    0.89 
   8   0  -9    2.69    1.11 
   7   0  -9   28.71    2.08 
   6   0  -9    3.12    0.97 
   5   0  -9   12.66    1.33 
   4   0  -9   54.78    2.66 
   3   0  -9    2.75    0.90 
   2   0  -9   36.85    2.21 
   1   0  -9   30.00    1.94 
   0   0  -9   23.75    1.82 
   0   0   9   23.14    1.76 
  -1   0  -9    2.30    0.82 
   1   0   9    1.08    0.76 
  -2   0  -9   12.56    1.51 
   2   0   9   16.29    1.52 
  -3   0  -9   -0.50    0.80 
   3   0   9   -0.35    0.73 
  -4   0  -9    0.03    0.95 
   4   0   9    0.65    0.86 
  -5   0  -9    1.08    1.06 
   5   0   9    1.16    0.98 
   9  -1  -9   -0.15    0.98 
   8  -1  -9    1.12    0.99 
   7  -1  -9    1.37    0.97 
   6  -1  -9   -0.07    0.81 
   5  -1  -9    2.71    0.95 
   4  -1  -9   28.23    1.99 
   3  -1  -9   15.76    1.61 
   2  -1  -9    6.65    1.23 
   1  -1  -9   37.45    2.27 
   0  -1  -9   18.66    1.72 
  -1  -1  -9   37.15    2.32 
  -2  -1  -9   39.34    2.41 
  -3  -1  -9   21.95    2.03 
  -4  -1  -9   10.35    1.66 
   9  -2  -9    3.53    1.22 
   8  -2  -9    7.40    1.36 
   7  -2  -9    5.71    1.26 
   6  -2  -9   12.22    1.49 
   5  -2  -9   10.68    1.44 
   4  -2  -9   21.87    1.89 
   3  -2  -9   61.45    3.11 
   2  -2  -9   36.28    2.32 
   1  -2  -9   15.88    1.65 
   0  -2  -9   53.12    2.84 
  -1  -2  -9   12.87    1.63 
  -2  -2  -9    6.02    1.30 
  -3  -2  -9    5.26    1.36 
  -4  -2  -9    1.57    1.13 
   9  -3  -9    2.03    1.12 
   8  -3  -9    3.03    1.16 
   7  -3  -9    0.17    0.93 
   6  -3  -9    4.06    1.18 
   5  -3  -9    0.24    0.92 
   5  -3  -9    0.21    0.71 
   4  -3  -9    1.50    0.96 
   4  -3  -9    0.91    0.74 
   3  -3  -9    0.65    0.94 
   2  -3  -9    0.37    0.80 
   1  -3  -9    3.79    1.14 
   0  -3  -9   10.63    1.58 
  -1  -3  -9    5.95    1.40 
  -2  -3  -9   12.89    1.80 
  -3  -3  -9    1.74    1.11 
   8  -4  -9    0.99    1.04 
   7  -4  -9    9.43    1.59 
   7  -4  -9   12.03    1.44 
   6  -4  -9    5.19    1.10 
   6  -4  -9    5.45    1.31 
   5  -4  -9   13.89    1.31 
   5  -4  -9   15.29    1.78 
   4  -4  -9   33.91    2.43 
   3  -4  -9   28.83    2.25 
   2  -4  -9   20.87    1.96 
   1  -4  -9   19.12    1.92 
   0  -4  -9   11.25    1.62 
  -1  -4  -9   10.55    1.64 
  -2  -4  -9    4.38    1.37 
   8  -5  -9   13.48    1.66 
   8  -5  -9   17.66    1.99 
   7  -5  -9    3.42    1.34 
   7  -5  -9    3.30    1.14 
   6  -5  -9    3.85    1.29 
   6  -5  -9    2.60    1.03 
   5  -5  -9    8.30    1.58 
   4  -5  -9    3.99    1.25 
   3  -5  -9    0.40    1.07 
   2  -5  -9    1.02    1.00 
   1  -5  -9    2.54    1.24 
   0  -5  -9    0.38    0.99 
  -1  -5  -9   -1.19    0.98 
   7  -6  -9    3.69    1.19 
   7  -6  -9    4.71    1.46 
   6  -6  -9   12.77    1.87 
   6  -6  -9   12.05    1.50 
   5  -6  -9    5.45    1.43 
   4  -6  -9    1.12    1.20 
   3  -6  -9   14.42    1.89 
   2  -6  -9    0.84    1.10 
   1  -6  -9    7.36    1.57 
   5  -7  -9    0.73    1.16 
   4  -7  -9    4.17    1.42 
   0 -11  10    5.60    1.36 
   1 -11  10    0.33    1.00 
   2 -11  10    1.05    1.04 
   3 -11  10    2.14    1.03 
   4 -11  10    3.37    1.16 
  -2 -10  10    1.63    1.16 
  -1 -10  10    0.19    1.02 
   0 -10  10    2.07    1.11 
   1 -10  10   -0.09    0.92 
   2 -10  10   16.16    1.54 
   2 -10  10   17.80    1.63 
   3 -10  10    2.66    1.02 
   4 -10  10   15.82    1.62 
   5 -10  10    5.87    1.24 
  -3  -9  10   -1.64    0.92 
  -2  -9  10    1.33    1.04 
  -1  -9  10    1.35    1.01 
   0  -9  10   -0.28    0.86 
   1  -9  10    3.43    1.02 
   1  -9  10    4.73    1.11 
   2  -9  10    2.31    0.99 
   3  -9  10    1.54    0.97 
   4  -9  10    3.94    1.12 
   5  -9  10    4.35    1.14 
   6  -9  10    8.54    1.41 
  -4  -8  10    0.78    1.06 
  -3  -8  10   -0.14    0.94 
  -2  -8  10    4.94    1.18 
  -1  -8  10    0.46    0.84 
   0  -8  10   15.01    1.42 
   0  -8  10   14.41    1.43 
   1  -8  10    2.43    0.85 
   1  -8  10    1.89    0.90 
   2  -8  10   36.40    2.24 
   3  -8  10   46.15    2.57 
   4  -8  10   27.02    2.03 
   5  -8  10   20.30    1.82 
   6  -8  10    8.54    1.44 
   5   7 -10    0.14    0.93 
  -5  -7  10    0.89    1.03 
   4   7 -10    3.22    0.98 
  -4  -7  10    2.90    1.11 
   3   7 -10   -0.11    0.73 
  -3  -7  10    0.54    0.89 
  -2  -7  10    6.71    1.13 
  -1  -7  10    7.82    1.08 
  -1  -7  10    7.08    1.13 
   0  -7  10    3.47    0.88 
   0  -7  10    3.02    0.94 
   1  -7  10    3.22    0.95 
   2  -7  10    2.48    0.96 
   3  -7  10    2.66    1.04 
   4  -7  10    0.93    0.94 
   5  -7  10   -0.08    0.89 
   6  -7  10   13.51    1.62 
   6   6 -10   -0.33    0.86 
   5   6 -10    0.09    0.83 
  -5  -6  10    0.24    0.97 
   4   6 -10    0.03    0.76 
  -4  -6  10    0.43    0.92 
   3   6 -10    0.48    0.67 
  -3  -6  10    0.49    0.79 
   2   6 -10    2.17    0.79 
  -2  -6  10    2.01    0.82 
  -2  -6  10    0.70    0.73 
   1   6 -10   14.69    1.35 
  -1  -6  10   15.62    1.45 
  -1  -6  10   14.16    1.26 
   0   6 -10   29.03    1.78 
   0  -6  10   24.23    1.83 
   0  -6  10   25.46    1.50 
   1  -6  10   15.33    1.51 
   2  -6  10   42.52    2.45 
   3  -6  10   27.67    2.04 
   4  -6  10   39.31    2.40 
   5  -6  10   42.42    2.56 
   6  -6  10   24.25    2.10 
   6   5 -10    1.42    0.95 
   5   5 -10    5.73    1.14 
  -4  -5  10   17.63    1.53 
   3   5 -10    6.21    1.03 
  -3  -5  10    5.07    0.95 
   2   5 -10    4.37    0.92 
  -2  -5  10    5.27    0.90 
  -2  -5  10    6.51    1.04 
   1   5 -10   18.05    1.50 
  -1  -5  10   20.06    1.32 
  -1  -5  10   22.15    1.69 
   0   5 -10   73.01    3.12 
   0  -5  10   71.61    3.26 
  -1   5 -10    0.16    0.66 
   1  -5  10    1.57    0.87 
  -2   5 -10   31.56    1.99 
   2  -5  10   32.05    2.07 
  -3   5 -10    5.95    1.13 
   3  -5  10    6.44    1.21 
   4  -5  10    7.98    1.43 
   5  -5  10    0.79    1.06 
   6  -5  10    1.73    1.17 
   7   4 -10    3.14    1.12 
   6   4 -10    0.74    0.86 
   5   4 -10    2.76    0.94 
   4   4 -10   -0.10    0.64 
   3   4 -10    2.74    0.82 
   2   4 -10   12.42    1.31 
  -2  -4  10   10.85    1.01 
  -2  -4  10   12.37    1.31 
   1   4 -10    4.30    0.96 
  -1  -4  10    5.48    1.06 
   0   4 -10    0.51    0.72 
   0  -4  10    1.07    0.77 
  -1   4 -10    9.41    1.19 
   1  -4  10    7.72    1.25 
  -2   4 -10   28.89    1.94 
   2  -4  10   27.59    2.05 
  -3   4 -10   28.90    2.01 
   3  -4  10   31.50    2.15 
  -4   4 -10   44.16    2.57 
   4  -4  10   46.60    2.74 
   5  -4  10   44.95    2.78 
   6  -4  10   -0.48    0.96 
   7   3 -10    1.46    0.97 
   6   3 -10    4.17    1.04 
   5   3 -10    3.45    0.99 
   4   3 -10   75.03    3.24 
   3   3 -10    1.07    0.76 
   2   3 -10   21.24    1.70 
  -2  -3  10   21.70    1.71 
   1   3 -10  100.16    4.17 
  -1  -3  10  114.49    4.25 
   0   3 -10   24.09    1.79 
   0  -3  10   19.87    1.68 
  -1   3 -10   20.45    1.69 
   1  -3  10   18.85    1.67 
  -2   3 -10   81.73    3.51 
   2  -3  10   70.86    3.47 
  -3   3 -10   36.90    2.35 
   3  -3  10   33.58    2.35 
  -4   3 -10   28.05    2.15 
   4  -3  10   22.71    2.05 
  -5   3 -10    0.84    0.98 
   5  -3  10    0.33    0.98 
  -6   3 -10    7.59    1.54 
   6  -3  10    9.05    1.62 
   8   2 -10    7.88    1.42 
   7   2 -10    2.16    1.01 
   6   2 -10    0.08    0.80 
   5   2 -10   14.79    1.50 
   4   2 -10    8.55    1.15 
   3   2 -10    3.19    0.92 
   2   2 -10    7.94    1.21 
   1   2 -10    5.88    1.14 
  -1  -2  10    6.88    1.12 
   0   2 -10    4.53    1.02 
   0  -2  10    3.97    0.94 
  -1   2 -10    0.80    0.79 
   1  -2  10    0.70    0.77 
  -2   2 -10    5.54    1.16 
   2  -2  10    5.80    1.15 
  -3   2 -10   15.20    1.65 
   3  -2  10   12.42    1.58 
  -4   2 -10   14.98    1.76 
   4  -2  10   10.89    1.55 
  -5   2 -10    5.65    1.40 
   5  -2  10    6.87    1.40 
   8   1 -10    2.32    1.13 
   7   1 -10   -1.29    0.75 
   6   1 -10    4.70    1.12 
   5   1 -10   18.40    1.64 
   4   1 -10   17.61    1.62 
   3   1 -10    2.95    1.01 
   2   1 -10   73.29    3.40 
   1   1 -10   30.41    2.05 
   0   1 -10   64.95    3.16 
   0  -1  10   69.59    3.14 
  -1   1 -10   77.52    3.53 
   1  -1  10   76.86    3.45 
  -2   1 -10   43.88    2.65 
   2  -1  10   48.25    2.63 
  -3   1 -10   26.38    2.14 
   3  -1  10   21.61    1.89 
  -4   1 -10   13.73    1.79 
   4  -1  10   10.78    1.55 
  -5   1 -10   21.54    2.18 
   5  -1  10   22.78    2.04 
   8   0 -10    0.93    0.90 
   7   0 -10    1.28    1.01 
   6   0 -10    5.60    1.20 
   5   0 -10    8.44    1.29 
   4   0 -10   21.41    1.85 
   3   0 -10   22.55    1.91 
   2   0 -10    3.70    1.04 
   1   0 -10   48.59    2.64 
   0   0 -10    4.04    1.14 
  -1   0 -10    3.43    1.12 
   1   0  10    4.02    1.05 
  -2   0 -10    0.09    0.88 
   2   0  10   -0.24    0.77 
  -3   0 -10   -0.02    0.92 
   3   0  10   -1.26    0.74 
  -4   0 -10    5.68    1.39 
   4   0  10    3.34    1.13 
   8  -1 -10   -0.42    0.89 
   7  -1 -10    0.33    0.94 
   6  -1 -10   -0.83    0.83 
   5  -1 -10    1.78    1.00 
   4  -1 -10    3.17    1.08 
   3  -1 -10    2.13    1.06 
   2  -1 -10   19.79    1.85 
   1  -1 -10   40.00    2.44 
   0  -1 -10   21.17    1.96 
  -1  -1 -10   35.65    2.45 
  -2  -1 -10   15.86    1.80 
  -3  -1 -10   12.31    1.80 
   8  -2 -10    6.10    1.37 
   7  -2 -10    2.63    1.11 
   6  -2 -10   12.85    1.67 
   5  -2 -10   33.75    2.40 
   4  -2 -10   25.94    2.18 
   3  -2 -10   23.10    2.12 
   2  -2 -10   22.65    2.01 
   1  -2 -10   17.25    1.82 
   0  -2 -10   16.03    1.80 
  -1  -2 -10    6.50    1.44 
  -2  -2 -10    2.55    1.11 
  -3  -2 -10   -0.72    0.94 
   8  -3 -10    1.18    1.10 
   7  -3 -10   -1.07    0.95 
   6  -3 -10    1.43    1.11 
   5  -3 -10   -1.04    0.95 
   4  -3 -10    6.60    1.45 
   3  -3 -10    0.40    0.96 
   2  -3 -10    1.31    0.99 
   1  -3 -10    8.90    1.53 
   0  -3 -10    3.86    1.30 
  -1  -3 -10    9.25    1.65 
  -2  -3 -10    3.64    1.23 
   7  -4 -10   10.53    1.40 
   7  -4 -10    8.61    1.68 
   6  -4 -10   11.27    1.45 
   6  -4 -10   11.84    1.79 
   5  -4 -10    4.42    1.42 
   4  -4 -10   23.92    2.22 
   3  -4 -10    2.38    1.25 
   2  -4 -10   14.56    1.87 
   1  -4 -10    9.28    1.64 
   0  -4 -10   17.24    1.99 
  -1  -4 -10    2.37    1.21 
   7  -5 -10    2.74    1.17 
   7  -5 -10    2.26    1.29 
   6  -5 -10    0.23    1.15 
   5  -5 -10    2.71    1.27 
   4  -5 -10   -0.16    1.04 
   3  -5 -10    0.87    1.16 
   2  -5 -10    1.81    1.22 
   1  -5 -10    0.13    1.03 
   4  -6 -10    4.43    1.43 
  -1 -10  11    1.63    1.12 
   0 -10  11   -0.20    1.05 
   2 -10  11   10.68    1.52 
   3 -10  11    4.19    1.26 
   4 -10  11    3.33    1.18 
  -2  -9  11    0.02    1.04 
  -1  -9  11   -0.80    0.93 
   0  -9  11   -0.16    0.89 
   1  -9  11    1.06    0.94 
   2  -9  11    0.05    0.89 
   3  -9  11    4.07    1.23 
   4  -9  11    3.20    1.15 
   5  -9  11   12.92    1.65 
  -4  -8  11   -1.59    0.95 
  -3  -8  11   -0.58    0.99 
  -2  -8  11    2.70    1.11 
  -1  -8  11    8.94    1.27 
   0  -8  11    3.96    1.09 
   1  -8  11   21.21    1.88 
   2  -8  11   11.59    1.57 
   3  -8  11   18.67    1.85 
   4  -8  11   23.40    2.06 
   5  -8  11   10.34    1.59 
   4   7 -11   -0.33    0.81 
  -4  -7  11   -0.09    0.99 
  -3  -7  11    0.72    0.94 
  -2  -7  11    2.99    1.01 
  -1  -7  11   15.12    1.56 
  -1  -7  11   14.43    1.38 
   0  -7  11    3.96    1.12 
   1  -7  11    6.00    1.23 
   2  -7  11   -0.37    0.81 
   3  -7  11    1.08    0.99 
   4  -7  11    1.65    1.05 
   5  -7  11    8.51    1.54 
   5   6 -11    0.51    0.86 
   4   6 -11    2.52    0.94 
  -4  -6  11    2.79    1.07 
   3   6 -11    5.68    1.11 
  -3  -6  11    5.97    1.15 
   2   6 -11    4.22    0.99 
  -2  -6  11    5.92    1.08 
  -2  -6  11    3.38    0.92 
   1   6 -11    2.25    0.93 
  -1  -6  11    3.07    0.97 
   0  -6  11    7.58    1.33 
   1  -6  11   29.57    2.15 
   2  -6  11   32.14    2.21 
   3  -6  11   41.10    2.62 
   4  -6  11   39.41    2.66 
   5  -6  11    0.94    1.09 
   6   5 -11   -0.13    0.87 
   5   5 -11   12.23    1.49 
   4   5 -11    2.63    0.91 
   3   5 -11    4.06    1.00 
  -3  -5  11    4.07    0.95 
   2   5 -11   31.63    2.07 
  -2  -5  11   34.95    1.87 
   1   5 -11    3.01    0.98 
  -1  -5  11    3.82    1.06 
   0   5 -11    2.94    0.97 
   0  -5  11    2.42    0.93 
  -1   5 -11   40.93    2.38 
   1  -5  11   47.31    2.69 
  -2   5 -11   10.06    1.38 
   2  -5  11    8.70    1.40 
   3  -5  11   11.03    1.61 
   4  -5  11    3.12    1.27 
   5  -5  11    3.51    1.30 
   6   4 -11    2.46    1.05 
   5   4 -11    8.31    1.31 
   4   4 -11   -0.12    0.76 
   3   4 -11    0.86    0.83 
   2   4 -11    1.14    0.93 
  -2  -4  11    0.49    0.77 
   1   4 -11   11.12    1.41 
  -1  -4  11   11.09    1.37 
   0   4 -11    5.43    1.17 
   0  -4  11    3.00    0.99 
  -1   4 -11   18.17    1.69 
   1  -4  11   17.69    1.73 
  -2   4 -11   33.56    2.18 
   2  -4  11   31.02    2.23 
  -3   4 -11   34.22    2.27 
   3  -4  11   28.01    2.32 
  -4   4 -11   16.60    1.84 
   4  -4  11   19.31    2.03 
   5  -4  11    6.15    1.49 
   7   3 -11    2.36    1.09 
   6   3 -11    7.57    1.34 
   5   3 -11    9.01    1.35 
   4   3 -11    7.24    1.23 
   3   3 -11   43.67    2.52 
   2   3 -11   19.52    1.79 
   1   3 -11   34.81    2.25 
  -1  -3  11   33.11    2.10 
   0   3 -11   66.46    3.11 
   0  -3  11   58.00    3.02 
  -1   3 -11   38.80    2.49 
   1  -3  11   43.07    2.54 
  -2   3 -11   19.35    1.81 
   2  -3  11   14.10    1.66 
  -3   3 -11   16.91    1.78 
   3  -3  11   11.34    1.65 
  -4   3 -11   21.58    2.10 
   4  -3  11   22.24    2.13 
  -5   3 -11    2.25    1.20 
   5  -3  11    1.34    1.16 
   7   2 -11    0.72    0.94 
   6   2 -11    1.35    0.91 
   5   2 -11    2.95    0.99 
   4   2 -11    6.64    1.24 
   3   2 -11   -0.13    0.83 
   2   2 -11   15.90    1.69 
   1   2 -11    0.86    0.92 
  -1  -2  11    0.58    0.84 
   0   2 -11    0.82    0.88 
   0  -2  11    0.87    0.85 
  -1   2 -11    9.02    1.47 
   1  -2  11    9.83    1.38 
  -2   2 -11    4.29    1.26 
   2  -2  11    4.56    1.17 
  -3   2 -11   24.56    2.16 
   3  -2  11   23.07    2.08 
  -4   2 -11   12.59    1.83 
   4  -2  11   13.01    1.76 
   7   1 -11    0.40    0.93 
   6   1 -11    0.65    0.91 
   5   1 -11    2.25    0.99 
   4   1 -11    3.06    1.07 
   3   1 -11   36.00    2.42 
   2   1 -11   52.67    2.96 
   1   1 -11   38.34    2.46 
   0   1 -11   48.98    2.76 
  -1   1 -11   31.27    2.26 
   1  -1  11   31.93    2.17 
  -2   1 -11   27.67    2.29 
   2  -1  11   27.14    2.10 
  -3   1 -11   28.79    2.40 
   3  -1  11   26.98    2.16 
  -4   1 -11   17.06    2.08 
   4  -1  11   16.30    1.83 
   7   0 -11    3.46    1.17 
   6   0 -11   12.09    1.59 
   5   0 -11    7.71    1.38 
   4   0 -11    7.63    1.41 
   3   0 -11   14.70    1.74 
   2   0 -11    8.88    1.51 
   1   0 -11    4.52    1.23 
   0   0 -11    4.13    1.22 
  -1   0 -11    0.50    1.02 
  -2   0 -11    5.10    1.36 
  -3   0 -11   -0.29    0.92 
   7  -1 -11    0.63    0.99 
   6  -1 -11    0.27    0.98 
   5  -1 -11    8.80    1.56 
   4  -1 -11    5.53    1.40 
   3  -1 -11    6.39    1.42 
   2  -1 -11   20.89    2.04 
   1  -1 -11   22.16    2.10 
   0  -1 -11   22.45    2.11 
  -1  -1 -11   14.99    1.88 
  -2  -1 -11   20.62    2.14 
   7  -2 -11    9.22    1.64 
   6  -2 -11    5.90    1.46 
   5  -2 -11   22.03    2.16 
   4  -2 -11    2.64    1.23 
   3  -2 -11   15.03    1.91 
   2  -2 -11   15.40    1.87 
   1  -2 -11   19.07    2.09 
   0  -2 -11    5.17    1.34 
  -1  -2 -11    0.65    1.05 
   7  -3 -11    0.48    1.12 
   6  -3 -11    0.74    1.18 
   5  -3 -11    0.69    1.14 
   4  -3 -11   -1.13    0.99 
   3  -3 -11    2.62    1.29 
   2  -3 -11    3.36    1.36 
   1  -3 -11    4.34    1.43 
   0  -3 -11   22.07    2.33 
   6  -4 -11   21.14    2.26 
   5  -4 -11    9.52    1.82 
   4  -4 -11   -0.08    1.17 
   3  -4 -11   12.56    1.92 
   2  -4 -11   13.01    1.94 
   1  -4 -11   14.47    1.98 
   1  -9  12    0.51    1.05 
   2  -9  12    3.41    1.19 
   3  -9  12    3.74    1.23 
  -3  -8  12    2.38    1.21 
  -2  -8  12    0.78    1.00 
   0  -8  12    8.65    1.49 
   1  -8  12   12.69    1.73 
   2  -8  12   15.83    1.86 
   3  -8  12   18.57    2.02 
   4  -8  12    0.76    1.11 
  -4  -7  12   -0.48    0.97 
  -3  -7  12    6.65    1.31 
  -1  -7  12   -0.88    0.80 
   0  -7  12   13.23    1.64 
   1  -7  12   -0.01    0.99 
   2  -7  12    1.51    1.14 
   3  -7  12    8.59    1.56 
   4  -7  12    0.69    1.05 
   4   6 -12    0.25    0.89 
   3   6 -12    1.11    0.90 
  -3  -6  12   -0.32    0.86 
   2   6 -12    5.26    1.24 
  -2  -6  12    6.95    1.23 
  -1  -6  12    5.74    1.23 
   0  -6  12   14.98    1.73 
   1  -6  12   19.94    2.01 
   2  -6  12   31.49    2.48 
   3  -6  12   13.60    1.85 
   4  -6  12   11.15    1.74 
   5   5 -12    5.38    1.25 
   4   5 -12   13.68    1.57 
   3   5 -12    3.87    1.15 
   2   5 -12    6.74    1.32 
  -2  -5  12    6.43    1.21 
   1   5 -12   21.72    1.87 
  -1  -5  12   23.79    1.94 
   0   5 -12   16.43    1.67 
   0  -5  12   14.64    1.72 
  -1   5 -12    5.97    1.27 
   1  -5  12    3.80    1.24 
   2  -5  12    1.67    1.05 
   3  -5  12    4.90    1.47 
   4  -5  12   -0.15    1.08 
   6   4 -12    0.18    0.89 
   5   4 -12    1.21    0.98 
   4   4 -12    0.91    0.95 
   3   4 -12    1.06    0.94 
   2   4 -12    2.93    1.14 
   1   4 -12    5.57    1.25 
  -1  -4  12    3.13    1.06 
   0   4 -12   20.59    1.85 
   0  -4  12   18.57    1.83 
  -1   4 -12   11.72    1.60 
   1  -4  12   13.28    1.67 
  -2   4 -12   36.34    2.45 
   2  -4  12   34.57    2.50 
  -3   4 -12   25.79    2.25 
   3  -4  12   25.48    2.27 
   4  -4  12   11.16    1.75 
   6   3 -12    0.07    0.91 
   5   3 -12    0.37    0.90 
   4   3 -12   21.57    2.00 
   3   3 -12   19.90    1.92 
   2   3 -12   20.05    1.92 
   1   3 -12   26.18    2.18 
  -1  -3  12   26.16    2.08 
   0   3 -12   20.31    1.93 
   0  -3  12   21.44    1.89 
  -1   3 -12   26.54    2.19 
   1  -3  12   17.48    1.85 
  -2   3 -12   21.78    2.08 
   2  -3  12   22.03    2.06 
  -3   3 -12   13.44    1.78 
   3  -3  12   10.76    1.66 
   6   2 -12   -0.32    0.77 
   5   2 -12    0.51    0.96 
   4   2 -12    2.03    1.11 
   3   2 -12    1.51    1.00 
   2   2 -12    1.92    1.10 
   1   2 -12    0.34    0.97 
   0   2 -12    6.32    1.43 
   0  -2  12    6.42    1.32 
  -1   2 -12   15.15    1.86 
   1  -2  12   19.55    1.83 
  -2   2 -12    6.89    1.50 
   2  -2  12    8.56    1.51 
  -3   2 -12    9.26    1.67 
   3  -2  12    9.94    1.64 
   6   1 -12    5.70    1.31 
   5   1 -12    6.19    1.39 
   4   1 -12    6.41    1.46 
   3   1 -12   23.76    2.18 
   2   1 -12   26.51    2.33 
   1   1 -12   32.37    2.47 
   0   1 -12   15.27    1.88 
  -1   1 -12   36.00    2.60 
  -2   1 -12   15.69    1.92 
   2  -1  12   11.59    1.69 
   6   0 -12    5.37    1.34 
   5   0 -12   -0.04    1.00 
   4   0 -12    6.18    1.49 
   3   0 -12    4.46    1.40 
   2   0 -12    8.94    1.62 
   1   0 -12    0.53    1.07 
   0   0 -12    2.02    1.17 
  -1   0 -12    0.69    1.10 
  -2   0 -12    1.52    1.15 
   6  -1 -12    0.61    1.07 
   5  -1 -12   -0.07    1.12 
   4  -1 -12    4.74    1.39 
   3  -1 -12    9.14    1.69 
   2  -1 -12    7.15    1.55 
   1  -1 -12   49.82    3.08 
   0  -1 -12    4.12    1.37 
  -1  -1 -12    3.60    1.36 
   6  -2 -12    4.31    1.40 
   5  -2 -12    1.62    1.23 
   4  -2 -12   17.91    2.20 
   3  -2 -12   10.56    1.84 
   2  -2 -12   16.16    2.05 
   1  -2 -12   -0.42    1.07 
   0  -2 -12   10.16    1.82 
   4  -3 -12    1.86    1.30 
   3  -3 -12    7.40    1.66 
   2  -3 -12    6.19    1.59 
   0  -8  13    9.85    1.62 
   1  -8  13   10.40    1.73 
   2  -8  13    4.28    1.42 
  -1  -7  13    2.13    1.12 
   0  -7  13   -1.09    0.96 
   1  -7  13   -0.48    0.92 
   2  -7  13    0.42    1.12 
   3   6 -13    1.58    1.10 
  -2  -6  13    3.36    1.14 
  -1  -6  13   14.04    1.71 
   0  -6  13   11.25    1.69 
   1  -6  13   23.36    2.24 
   2  -6  13   16.75    2.06 
   3  -6  13    9.04    1.66 
   4   5 -13    1.46    1.12 
   3   5 -13    3.67    1.24 
   2   5 -13    4.69    1.30 
   1   5 -13    5.21    1.31 
  -1  -5  13    5.01    1.24 
   0   5 -13    5.59    1.37 
   0  -5  13    6.05    1.36 
   1  -5  13    4.36    1.32 
   2  -5  13    1.52    1.16 
   3  -5  13    5.93    1.47 
   4   4 -13    0.38    0.99 
   3   4 -13    3.63    1.25 
   2   4 -13    1.49    1.07 
   1   4 -13    8.76    1.57 
  -1  -4  13    9.04    1.45 
   0   4 -13   20.12    2.04 
   0  -4  13   19.81    1.91 
  -1   4 -13   14.73    1.89 
   1  -4  13   12.33    1.69 
  -2   4 -13   16.29    1.98 
   2  -4  13   13.62    1.88 
   5   3 -13    4.64    1.33 
   4   3 -13    7.22    1.53 
   3   3 -13    8.13    1.57 
   2   3 -13   16.76    1.98 
   1   3 -13    7.24    1.50 
   0   3 -13   24.53    2.27 
   0  -3  13   24.29    2.13 
  -1   3 -13    6.70    1.50 
   1  -3  13    6.16    1.39 
  -2   3 -13    8.55    1.67 
   2  -3  13   10.49    1.66 
   5   2 -13    1.26    1.15 
   4   2 -13    1.03    1.08 
   3   2 -13   -1.18    0.96 
   2   2 -13    1.50    1.20 
   1   2 -13    5.68    1.44 
   0   2 -13    3.57    1.42 
  -1   2 -13   -0.53    1.06 
   1  -2  13    0.81    1.14 
   5   1 -13    3.60    1.26 
   4   1 -13    7.53    1.57 
   3   1 -13    9.03    1.73 
   2   1 -13   39.02    2.78 
   1   1 -13    9.78    1.70 
   0   1 -13    8.95    1.75 
  -1   1 -13   25.62    2.44 
   5   0 -13    7.20    1.63 
   4   0 -13    3.95    1.40 
   3   0 -13    3.94    1.45 
   2   0 -13    2.36    1.28 
   1   0 -13    0.64    1.18 
   0   0 -13    1.34    1.16 
   4  -1 -13   13.18    2.07 
   3  -1 -13    9.57    1.80 
   2  -1 -13    6.51    1.53 
   1   5 -14    7.92    1.61 
  -1  -5  14    5.86    1.39 
   0  -5  14    0.82    1.08 
   2   4 -14    8.08    1.65 
   1   4 -14    7.28    1.55 
   0   4 -14    2.03    1.29 
   0  -4  14    2.81    1.20 
   2   3 -14    3.55    1.39 
   1   3 -14    2.44    1.25 
   0   0   0    0.00    0.00 
;
_shelx_hkl_checksum              25845
loop_
_space_group_symop_operation_xyz
'x, y, z'
'-x, -y, -z'
loop_
_atom_site_label
_atom_site_type_symbol
_atom_site_fract_x
_atom_site_fract_y
_atom_site_fract_z
_atom_site_U_iso_or_equiv
_atom_site_adp_type
_atom_site_occupancy
_atom_site_site_symmetry_order
_atom_site_calc_flag
_atom_site_refinement_flags_posn
_atom_site_refinement_flags_adp
Br1 Br 0.52201(4) 0.71773(4) 0.51939(3) 0.05298(15) Uani 1 1 d . .
N1 N 1.1859(3) 0.7117(3) 1.0787(2) 0.0343(5) Uani 1 1 d . .
N2 N 1.0016(3) 0.8438(3) 1.1565(2) 0.0334(5) Uani 1 1 d . .
O1 O 0.8092(3) 0.9604(2) 1.20806(18) 0.0403(5) Uani 1 1 d . .
C1 C 1.2030(4) 0.6284(3) 0.9556(3) 0.0328(6) Uani 1 1 d . .
C2 C 1.3179(4) 0.5554(3) 0.9295(3) 0.0427(7) Uani 1 1 d . .
H2 H 1.3989 0.5580 1.0008 0.051 Uiso 1 1 calc R U
C3 C 1.3098(4) 0.4790(3) 0.7966(3) 0.0462(7) Uani 1 1 d . .
H3 H 1.3869 0.4298 0.7774 0.055 Uiso 1 1 calc R U
C4 C 1.1885(4) 0.4738(3) 0.6900(3) 0.0460(7) Uani 1 1 d . .
H4 H 1.1851 0.4204 0.6003 0.055 Uiso 1 1 calc R U
C5 C 1.0730(4) 0.5461(3) 0.7140(3) 0.0395(7) Uani 1 1 d . .
H5 H 0.9931 0.5424 0.6414 0.047 Uiso 1 1 calc R U
C6 C 1.0773(4) 0.6249(3) 0.8486(3) 0.0320(6) Uani 1 1 d . .
C7 C 0.9814(3) 0.7107(3) 0.9147(3) 0.0293(6) Uani 1 1 d . .
C8 C 1.0517(3) 0.7601(3) 1.0546(3) 0.0303(6) Uani 1 1 d . .
C9 C 0.8731(4) 0.8807(3) 1.1157(3) 0.0323(6) Uani 1 1 d . .
C10 C 0.7876(3) 0.8426(3) 0.9756(3) 0.0300(6) Uani 1 1 d . .
C11 C 0.8418(3) 0.7537(3) 0.8719(3) 0.0297(6) Uani 1 1 d . .
C12 C 0.7589(4) 0.7161(3) 0.7344(3) 0.0339(6) Uani 1 1 d . .
H12 H 0.7918 0.6573 0.6641 0.041 Uiso 1 1 calc R U
C13 C 0.6298(4) 0.7673(3) 0.7060(3) 0.0347(6) Uani 1 1 d . .
C14 C 0.5737(4) 0.8542(3) 0.8060(3) 0.0385(7) Uani 1 1 d . .
H14 H 0.4843 0.8862 0.7823 0.046 Uiso 1 1 calc R U
C15 C 0.6525(4) 0.8914(3) 0.9395(3) 0.0349(6) Uani 1 1 d . .
H15 H 0.6167 0.9499 1.0078 0.042 Uiso 1 1 calc R U
C16 C 1.2944(4) 0.7449(4) 1.2122(3) 0.0439(7) Uani 1 1 d . .
H16A H 1.2596 0.6500 1.2314 0.066 Uiso 1 1 calc R U
H16B H 1.2749 0.8229 1.2806 0.066 Uiso 1 1 calc R U
H16C H 1.4205 0.7839 1.2130 0.066 Uiso 1 1 calc R U
C17 C 0.8885(4) 0.9981(4) 1.3499(3) 0.0394(7) Uani 1 1 d . .
H17A H 1.0191 1.0568 1.3724 0.047 Uiso 1 1 calc R U
H17B H 0.8623 0.9023 1.3687 0.047 Uiso 1 1 calc R U
C18 C 0.8064(4) 1.0952(4) 1.4318(3) 0.0501(8) Uani 1 1 d . .
H18A H 0.8286 1.1871 1.4092 0.075 Uiso 1 1 calc R U
H18B H 0.8599 1.1269 1.5274 0.075 Uiso 1 1 calc R U
H18C H 0.6780 1.0341 1.4116 0.075 Uiso 1 1 calc R U
loop_
_atom_site_aniso_label
_atom_site_aniso_U_11
_atom_site_aniso_U_22
_atom_site_aniso_U_33
_atom_site_aniso_U_23
_atom_site_aniso_U_13
_atom_site_aniso_U_12
Br1 0.0644(3) 0.0768(3) 0.02732(19) 0.01564(15) 0.00322(14) 0.0458(2)
N1 0.0354(13) 0.0425(13) 0.0275(12) 0.0117(10) 0.0017(10) 0.0224(11)
N2 0.0347(13) 0.0399(13) 0.0278(12) 0.0115(10) 0.0060(10) 0.0196(11)
O1 0.0459(12) 0.0557(12) 0.0237(10) 0.0085(9) 0.0050(8) 0.0323(10)
C1 0.0327(15) 0.0334(14) 0.0340(15) 0.0137(12) 0.0079(12) 0.0150(12)
C2 0.0404(17) 0.0439(17) 0.0489(19) 0.0175(14) 0.0080(14) 0.0242(14)
C3 0.0475(18) 0.0480(18) 0.053(2) 0.0148(15) 0.0177(15) 0.0318(15)
C4 0.0542(19) 0.0481(18) 0.0392(17) 0.0096(14) 0.0161(14) 0.0294(16)
C5 0.0430(16) 0.0439(16) 0.0325(16) 0.0111(13) 0.0084(13) 0.0222(14)
C6 0.0304(14) 0.0314(14) 0.0363(15) 0.0138(12) 0.0075(11) 0.0146(12)
C7 0.0290(14) 0.0320(14) 0.0277(14) 0.0110(11) 0.0048(11) 0.0144(11)
C8 0.0303(14) 0.0332(14) 0.0273(14) 0.0107(11) 0.0063(11) 0.0140(12)
C9 0.0362(15) 0.0366(15) 0.0268(14) 0.0110(11) 0.0085(11) 0.0186(12)
C10 0.0304(14) 0.0354(14) 0.0250(13) 0.0104(11) 0.0046(11) 0.0160(12)
C11 0.0290(14) 0.0316(14) 0.0264(14) 0.0101(11) 0.0033(11) 0.0122(11)
C12 0.0346(15) 0.0401(15) 0.0285(14) 0.0119(12) 0.0074(11) 0.0182(12)
C13 0.0340(15) 0.0427(16) 0.0260(14) 0.0120(12) 0.0030(11) 0.0166(13)
C14 0.0398(16) 0.0475(17) 0.0360(16) 0.0169(13) 0.0063(12) 0.0266(14)
C15 0.0375(15) 0.0396(16) 0.0287(14) 0.0072(12) 0.0072(12) 0.0222(13)
C16 0.0437(17) 0.0581(19) 0.0289(15) 0.0124(14) -0.0002(13) 0.0265(15)
C17 0.0425(17) 0.0523(18) 0.0253(15) 0.0110(13) 0.0058(12) 0.0256(14)
C18 0.057(2) 0.064(2) 0.0313(16) 0.0073(14) 0.0066(14) 0.0372(17)
loop_
_atom_type_symbol
_atom_type_description
_atom_type_scat_dispersion_real
_atom_type_scat_dispersion_imag
_atom_type_scat_source
C C 0.0033 0.0016 'International Tables Vol C Tables 4.2.6.8 and 6.1.1.4'
H H 0.0000 0.0000 'International Tables Vol C Tables 4.2.6.8 and 6.1.1.4'
N N 0.0061 0.0033 'International Tables Vol C Tables 4.2.6.8 and 6.1.1.4'
O O 0.0106 0.0060 'International Tables Vol C Tables 4.2.6.8 and 6.1.1.4'
Br Br -0.2901 2.4595 'International Tables Vol C Tables 4.2.6.8 and 6.1.1.4'
loop_
_geom_angle_atom_site_label_1
_geom_angle_atom_site_label_2
_geom_angle_atom_site_label_3
_geom_angle
C8 N1 C1 108.7(2)
C8 N1 C16 125.8(2)
C1 N1 C16 125.5(2)
C9 N2 C8 114.6(2)
C9 O1 C17 116.7(2)
N1 C1 C2 129.3(3)
N1 C1 C6 108.9(2)
C2 C1 C6 121.8(3)
C3 C2 C1 118.5(3)
C3 C2 H2 120.8
C1 C2 H2 120.8
C2 C3 C4 121.0(3)
C2 C3 H3 119.5
C4 C3 H3 119.5
C5 C4 C3 121.3(3)
C5 C4 H4 119.3
C3 C4 H4 119.3
C4 C5 C6 119.2(3)
C4 C5 H5 120.4
C6 C5 H5 120.4
C5 C6 C1 118.2(3)
C5 C6 C7 136.1(2)
C1 C6 C7 105.8(2)
C8 C7 C11 117.0(2)
C8 C7 C6 106.8(2)
C11 C7 C6 136.2(2)
N2 C8 N1 122.7(2)
N2 C8 C7 127.6(2)
N1 C8 C7 109.8(2)
N2 C9 O1 119.8(2)
N2 C9 C10 125.3(2)
O1 C9 C10 114.9(2)
C15 C10 C11 119.6(2)
C15 C10 C9 121.9(2)
C11 C10 C9 118.5(2)
C12 C11 C10 118.8(2)
C12 C11 C7 124.2(2)
C10 C11 C7 117.0(2)
C13 C12 C11 118.9(3)
C13 C12 H12 120.6
C11 C12 H12 120.6
C12 C13 C14 123.3(2)
C12 C13 Br1 118.2(2)
C14 C13 Br1 118.5(2)
C15 C14 C13 118.5(3)
C15 C14 H14 120.7
C13 C14 H14 120.7
C14 C15 C10 120.9(3)
C14 C15 H15 119.6
C10 C15 H15 119.6
N1 C16 H16A 109.5
N1 C16 H16B 109.5
H16A C16 H16B 109.5
N1 C16 H16C 109.5
H16A C16 H16C 109.5
H16B C16 H16C 109.5
O1 C17 C18 106.9(2)
O1 C17 H17A 110.4
C18 C17 H17A 110.4
O1 C17 H17B 110.4
C18 C17 H17B 110.4
H17A C17 H17B 108.6
C17 C18 H18A 109.5
C17 C18 H18B 109.5
H18A C18 H18B 109.5
C17 C18 H18C 109.5
H18A C18 H18C 109.5
H18B C18 H18C 109.5
loop_
_geom_bond_atom_site_label_1
_geom_bond_atom_site_label_2
_geom_bond_distance
Br1 C13 1.903(3)
N1 C8 1.370(3)
N1 C1 1.372(4)
N1 C16 1.451(3)
N2 C9 1.296(3)
N2 C8 1.354(3)
O1 C9 1.345(3)
O1 C17 1.442(3)
C1 C2 1.380(4)
C1 C6 1.419(4)
C2 C3 1.366(4)
C2 H2 0.9300
C3 C4 1.386(4)
C3 H3 0.9300
C4 C5 1.376(4)
C4 H4 0.9300
C5 C6 1.396(4)
C5 H5 0.9300
C6 C7 1.440(4)
C7 C8 1.389(3)
C7 C11 1.422(4)
C9 C10 1.437(3)
C10 C15 1.409(4)
C10 C11 1.411(4)
C11 C12 1.408(4)
C12 C13 1.361(4)
C12 H12 0.9300
C13 C14 1.387(4)
C14 C15 1.361(4)
C14 H14 0.9300
C15 H15 0.9300
C16 H16A 0.9600
C16 H16B 0.9600
C16 H16C 0.9600
C17 C18 1.491(4)
C17 H17A 0.9700
C17 H17B 0.9700
C18 H18A 0.9600
C18 H18B 0.9600
C18 H18C 0.9600
loop_
_geom_torsion_atom_site_label_1
_geom_torsion_atom_site_label_2
_geom_torsion_atom_site_label_3
_geom_torsion_atom_site_label_4
_geom_torsion
C8 N1 C1 C2 -178.8(3)
C16 N1 C1 C2 2.1(5)
C8 N1 C1 C6 0.8(3)
C16 N1 C1 C6 -178.3(3)
N1 C1 C2 C3 -179.9(3)
C6 C1 C2 C3 0.5(4)
C1 C2 C3 C4 -0.4(5)
C2 C3 C4 C5 0.5(5)
C3 C4 C5 C6 -0.6(5)
C4 C5 C6 C1 0.7(4)
C4 C5 C6 C7 -179.2(3)
N1 C1 C6 C5 179.7(2)
C2 C1 C6 C5 -0.6(4)
N1 C1 C6 C7 -0.4(3)
C2 C1 C6 C7 179.3(2)
C5 C6 C7 C8 179.7(3)
C1 C6 C7 C8 -0.2(3)
C5 C6 C7 C11 -0.7(6)
C1 C6 C7 C11 179.4(3)
C9 N2 C8 N1 179.6(2)
C9 N2 C8 C7 -0.2(4)
C1 N1 C8 N2 179.3(2)
C16 N1 C8 N2 -1.7(4)
C1 N1 C8 C7 -0.9(3)
C16 N1 C8 C7 178.2(3)
C11 C7 C8 N2 0.8(4)
C6 C7 C8 N2 -179.5(2)
C11 C7 C8 N1 -179.1(2)
C6 C7 C8 N1 0.6(3)
C8 N2 C9 O1 178.3(2)
C8 N2 C9 C10 -1.3(4)
C17 O1 C9 N2 -0.9(4)
C17 O1 C9 C10 178.7(2)
N2 C9 C10 C15 -177.9(3)
O1 C9 C10 C15 2.5(4)
N2 C9 C10 C11 2.0(4)
O1 C9 C10 C11 -177.6(2)
C15 C10 C11 C12 0.1(4)
C9 C10 C11 C12 -179.9(2)
C15 C10 C11 C7 178.7(2)
C9 C10 C11 C7 -1.3(4)
C8 C7 C11 C12 178.6(2)
C6 C7 C11 C12 -1.0(5)
C8 C7 C11 C10 0.0(4)
C6 C7 C11 C10 -179.5(3)
C10 C11 C12 C13 0.2(4)
C7 C11 C12 C13 -178.3(2)
C11 C12 C13 C14 -0.6(4)
C11 C12 C13 Br1 179.12(19)
C12 C13 C14 C15 0.5(5)
Br1 C13 C14 C15 -179.1(2)
C13 C14 C15 C10 -0.2(4)
C11 C10 C15 C14 -0.1(4)
C9 C10 C15 C14 179.9(3)
C9 O1 C17 C18 176.0(2)
