#------------------------------------------------------------------------------
#$Date: 2016-08-05 06:38:56 +0300 (Fri, 05 Aug 2016) $
#$Revision: 184967 $
#$URL: file:///home/coder/svn-repositories/cod/cif/1/54/33/1543389.cif $
#------------------------------------------------------------------------------
#
# This file is available in the Crystallography Open Database (COD),
# http://www.crystallography.net/
#
# All data on this site have been placed in the public domain by the
# contributors.
#
data_1543389
loop_
_publ_author_name
'Guti\'errez-Jim\'enez, Marta I'
'Aydillo, Carlos'
'Navo, Claudio D.'
'Avenoza, Alberto'
'Corzana, Francisco'
'Jim\'enez-Os\'es, Gonzalo'
'Zurbano, Mar\'ia M'
'Busto, Jes\'us H'
'Peregrina, Jes\'us M'
_publ_section_title
;
 Bifunctional Chiral Dehydroalanines for Peptide Coupling and
 Stereoselective S-Michael Addition.
;
_journal_issue                   12
_journal_name_full               'Organic letters'
_journal_page_first              2796
_journal_page_last               2799
_journal_paper_doi               10.1021/acs.orglett.6b00840
_journal_volume                  18
_journal_year                    2016
_chemical_absolute_configuration syn
_chemical_formula_moiety         'C9 H11 N O5'
_chemical_formula_sum            'C9 H11 N O5'
_chemical_formula_weight         213.19
_space_group_crystal_system      monoclinic
_space_group_IT_number           4
_space_group_name_Hall           'P 2yb'
_space_group_name_H-M_alt        'P 1 21 1'
_symmetry_space_group_name_Hall  'P 2yb'
_symmetry_space_group_name_H-M   'P 1 21 1'
_atom_sites_solution_hydrogens   geom
_audit_creation_method           SHELXL-2014/7
_cell_angle_alpha                90.0000
_cell_angle_beta                 108.5600(51)
_cell_angle_gamma                90.000
_cell_formula_units_Z            2
_cell_length_a                   8.01630(70)
_cell_length_b                   5.94090(59)
_cell_length_c                   10.63000(100)
_cell_measurement_reflns_used    364
_cell_measurement_temperature    173(2)
_cell_measurement_theta_max      27.486
_cell_measurement_theta_min      2.68
_cell_volume                     479.91(8)
_computing_cell_refinement       'Denzo and Scalepak (1997)'
_computing_data_collection       'Nonius Kappa CCD'
_computing_data_reduction        'Denzo and Scalepak (1997)'
_computing_molecular_graphics    'ORTEP III'
_computing_publication_material  'SHELXL-97 (Sheldrick, 1997)'
_computing_structure_refinement  'SHELXL-97 (Sheldrick, 1997)'
_computing_structure_solution    'SHELXS-97 (Sheldrick, 1990)'
_diffrn_ambient_temperature      173(2)
_diffrn_measured_fraction_theta_full 0.982
_diffrn_measured_fraction_theta_max 0.985
_diffrn_measurement_device_type  'Nonius Kappa CCD'
_diffrn_measurement_method       CCD
_diffrn_radiation_type           MoK\a
_diffrn_radiation_wavelength     0.71073
_diffrn_reflns_av_R_equivalents  0.0516
_diffrn_reflns_av_unetI/netI     0.0507
_diffrn_reflns_Laue_measured_fraction_full 0.982
_diffrn_reflns_Laue_measured_fraction_max 0.985
_diffrn_reflns_limit_h_max       10
_diffrn_reflns_limit_h_min       -10
_diffrn_reflns_limit_k_max       7
_diffrn_reflns_limit_k_min       -7
_diffrn_reflns_limit_l_max       13
_diffrn_reflns_limit_l_min       -13
_diffrn_reflns_number            4110
_diffrn_reflns_point_group_measured_fraction_full 0.984
_diffrn_reflns_point_group_measured_fraction_max 0.978
_diffrn_reflns_theta_full        25.242
_diffrn_reflns_theta_max         27.487
_diffrn_reflns_theta_min         3.838
_diffrn_source                   'normal-focus sealed tube'
_exptl_absorpt_coefficient_mu    0.122
_exptl_absorpt_correction_type   none
_exptl_crystal_colour            colorless
_exptl_crystal_density_diffrn    1.475
_exptl_crystal_density_method    'not measured'
_exptl_crystal_description       prism
_exptl_crystal_F_000             224
_exptl_crystal_size_max          0.47
_exptl_crystal_size_mid          0.30
_exptl_crystal_size_min          0.15
_refine_diff_density_max         0.165
_refine_diff_density_min         -0.183
_refine_diff_density_rms         0.034
_refine_ls_abs_structure_details
;
 Flack x determined using 785 quotients [(I+)-(I-)]/[(I+)+(I-)]
 (Parsons, Flack and Wagner, Acta Cryst. B69 (2013) 249-259).
;
_refine_ls_abs_structure_Flack   0.3(9)
_refine_ls_extinction_method     none
_refine_ls_goodness_of_fit_ref   1.041
_refine_ls_hydrogen_treatment    mixed
_refine_ls_matrix_type           full
_refine_ls_number_parameters     140
_refine_ls_number_reflns         2151
_refine_ls_number_restraints     1
_refine_ls_restrained_S_all      1.041
_refine_ls_R_factor_all          0.0440
_refine_ls_R_factor_gt           0.0367
_refine_ls_shift/su_max          0.000
_refine_ls_shift/su_mean         0.000
_refine_ls_structure_factor_coef Fsqd
_refine_ls_weighting_details
'w=1/[\s^2^(Fo^2^)+(0.0363P)^2^+0.0917P] where P=(Fo^2^+2Fc^2^)/3'
_refine_ls_weighting_scheme      calc
_refine_ls_wR_factor_gt          0.0869
_refine_ls_wR_factor_ref         0.0919
_reflns_Friedel_coverage         0.809
_reflns_Friedel_fraction_full    0.986
_reflns_Friedel_fraction_max     0.969
_reflns_number_gt                1935
_reflns_number_total             2151
_reflns_threshold_expression     'I > 2\s(I)'
_cod_data_source_file            ol6b00840_si_003.cif
_cod_data_source_block           shelx
_cod_depositor_comments
'Adding full bibliography for 1543389--1543390.cif.'
_cod_original_cell_volume        479.914(79)
_cod_database_code               1543389
_shelx_shelxl_version_number     2014/7
_shelx_space_group_comment
;
The symmetry employed for this shelxl refinement is uniquely defined
by the following loop, which should always be used as a source of
symmetry information in preference to the above space-group names.
They are only intended as comments.
;
_shelx_res_file
;

    shelx.res created by SHELXL-2014/7

TITL c895 in P 2
CELL  0.71073   8.0160   5.9410  10.6300   90.000  108.560   90.000
ZERR     2.00   0.0000   0.0000   0.0000    0.000    0.000    0.000
LATT  -1
SYMM  - X, 1/2 + Y, - Z
SFAC  C    H    N    O
UNIT  18 22 2 10
MERG   2
OMIT     1   0   0
FMAP   2
PLAN   25
ACTA
L.S.   40
WGHT    0.036300    0.091700
FVAR       5.38931
O1    4    0.451063    0.240877   -0.056290    11.00000    0.03536    0.03090 =
         0.02625   -0.00394    0.00849   -0.00157
O2    4    0.776337    0.489873    0.319440    11.00000    0.02834    0.03038 =
         0.03009   -0.00547    0.00896   -0.00424
O5    4    0.434667    0.135755    0.342357    11.00000    0.02921    0.03428 =
         0.03523    0.00592    0.01159   -0.00091
O3    4    0.384330    0.282470    0.132496    11.00000    0.02568    0.03753 =
         0.02491   -0.00228    0.00626   -0.00238
N1    3    0.667288    0.238254    0.148901    11.00000    0.02793    0.02744 =
         0.02488   -0.00113    0.00750   -0.00011
O4    4    0.983596    0.660088    0.251296    11.00000    0.03159    0.04006 =
         0.04876   -0.00394    0.01271   -0.00712
C1    1    0.496663    0.253505    0.062923    11.00000    0.02897    0.02209 =
         0.02692   -0.00097    0.00721   -0.00055
C2    1    0.254117    0.123142    0.336762    11.00000    0.03006    0.04399 =
         0.04239    0.00537    0.01359   -0.00485
AFIX 137
H2A   2    0.228688    0.243036    0.388412    11.00000   -1.50000
H2B   2    0.232702   -0.018916    0.371846    11.00000   -1.50000
H2C   2    0.179875    0.136849    0.246275    11.00000   -1.50000
AFIX   0
C3    1    0.477659    0.314344    0.274323    11.00000    0.02748    0.02959 =
         0.02184    0.00095    0.00630   -0.00215
C4    1    0.430240    0.543474    0.312584    11.00000    0.03012    0.03411 =
         0.03005   -0.00232    0.00859    0.00119
AFIX 137
H4A   2    0.304621    0.555863    0.289035    11.00000   -1.50000
H4B   2    0.473617    0.656796    0.266577    11.00000   -1.50000
H4C   2    0.482212    0.564037    0.406567    11.00000   -1.50000
AFIX   0
C5    1    0.870628    0.519643    0.233823    11.00000    0.02315    0.02869 =
         0.03650    0.00032    0.00731    0.00141
C6    1    0.806644    0.355100    0.123039    11.00000    0.02515    0.02915 =
         0.03213    0.00245    0.00929    0.00277
C7    1    0.675699    0.282208    0.285020    11.00000    0.02673    0.02655 =
         0.02486   -0.00212    0.00663   -0.00046
C8    1    0.863602    0.334540    0.020001    11.00000    0.03176    0.04930 =
         0.03716   -0.00043    0.01346    0.00170
AFIX  94
H8A   2    0.807464    0.227783   -0.050364    11.00000   -1.20000
H8B   2    0.961809    0.426110    0.014264    11.00000   -1.20000
AFIX   0
C9    1    0.774746    0.101609    0.379715    11.00000    0.03046    0.03680 =
         0.03517    0.00642    0.00864    0.00393
AFIX 137
H9A   2    0.890453    0.085401    0.372389    11.00000   -1.50000
H9B   2    0.712690   -0.038604    0.357957    11.00000   -1.50000
H9C   2    0.783982    0.143363    0.468925    11.00000   -1.50000
AFIX   0
HKLF    4

REM  c895 in P 2
REM R1 =  0.0367 for    1935 Fo > 4sig(Fo)  and  0.0440 for all    2151 data
REM    140 parameters refined using      1 restraints

END

WGHT      0.0348      0.0909

REM Highest difference peak  0.165,  deepest hole -0.183,  1-sigma level  0.034
Q1    1   0.1850  0.2624  0.2908  11.00000  0.05    0.17
Q2    1   0.5128  0.0525  0.4042  11.00000  0.05    0.14
Q3    1   0.1782  0.3442  0.2874  11.00000  0.05    0.13
Q4    1   0.2279  0.3910  0.3943  11.00000  0.05    0.13
Q5    1   0.5781  0.3093  0.2999  11.00000  0.05    0.13
Q6    1   0.4749  0.0335  0.2994  11.00000  0.05    0.13
Q7    1   0.7229  0.2051  0.3385  11.00000  0.05    0.12
Q8    1   0.6224  0.1532  0.1122  11.00000  0.05    0.12
Q9    1   0.4567  0.2451  0.3088  11.00000  0.05    0.11
Q10   1   0.4691  0.4246  0.2942  11.00000  0.05    0.11
Q11   1   0.4055  0.5041  0.0205  11.00000  0.05    0.11
Q12   1   0.7997  0.6506  0.4052  11.00000  0.05    0.10
Q13   1   0.2766  0.1944  0.5369  11.00000  0.05    0.10
Q14   1   0.5057  0.4872 -0.0506  11.00000  0.05    0.10
Q15   1   0.9021  0.5651  0.3856  11.00000  0.05    0.10
Q16   1   0.4418  0.6416  0.5064  11.00000  0.05    0.10
Q17   1   0.4932  0.3620  0.0022  11.00000  0.05    0.10
Q18   1   1.0839  0.8225  0.2715  11.00000  0.05    0.10
Q19   1   0.8832  0.2679  0.1165  11.00000  0.05    0.09
Q20   1   0.3509  0.4231  0.2567  11.00000  0.05    0.09
Q21   1   0.6103  0.0293  0.3798  11.00000  0.05    0.09
Q22   1   0.9777  0.8192  0.1795  11.00000  0.05    0.09
Q23   1   0.8890  0.8192  0.1001  11.00000  0.05    0.09
Q24   1   0.2999  0.3407  0.0629  11.00000  0.05    0.09
Q25   1   0.7831  0.1135  0.5596  11.00000  0.05    0.09
;
_shelx_res_checksum              41320
_shelx_hkl_file
;
   0   0   4 3105.20  120.60  62-0.48712 0.57692 0.81556-0.81556 0.14106 0.14106
   0   0  -4 3075.80  128.70  70-0.60583 0.51603 0.79372-0.79372-0.14106-0.14106
   0   0   518210.80  658.90  61-0.46910 0.58135 0.81360-0.81360 0.17632 0.17632
   0   0  -518595.00  646.60  71-0.61748 0.50523 0.78630-0.78630-0.17632-0.17632
   0   0   6 1192.20   73.90  60-0.45034 0.58504 0.81056-0.81056 0.21159 0.21159
   0   0  -6 1250.30   67.40  72-0.62839 0.49370 0.77780-0.77780-0.21159-0.21159
   0   0  -7  744.90   48.00  73-0.63856 0.48142 0.76819-0.76819-0.24685-0.24685
   0   0  -8  391.30   37.10  74-0.64796 0.46837 0.75746-0.75746-0.28212-0.28212
   0   0  -9   41.40   27.90  75-0.65657 0.45452 0.74555-0.74555-0.31738-0.31738
   0   0 -10 2170.50   94.40  76-0.66435 0.43986 0.73243-0.73243-0.35265-0.35265
   0   0 -11 1617.80   81.60  77-0.67128 0.42433 0.71806-0.71806-0.38791-0.38791
   0   0 -12  204.40   47.60  78-0.67731 0.40791 0.70236-0.70236-0.42318-0.42318
   0   0 -13   43.40   44.10  79-0.68239 0.39055 0.68527-0.68527-0.45844-0.45844
   0   1   0   -4.70    3.20 106-0.50322 0.50322 0.05982 0.05982-0.97742 0.97742
   0  -1   0   -5.30    3.50  16 0.50335-0.50335-0.05982-0.05982 0.97739-0.97739
   0   1   2 6880.30  280.10  79-0.68252 0.72742 0.68474-0.56511-0.45948 0.60053
   0  -1   2 6911.10  274.60 177 0.54453-0.49988 0.65098-0.77057 0.67430-0.53355
   0   1  -324793.40  873.90  57-0.39368 0.32633 0.79605-0.67642 0.31048-0.52207
   0  -1  -326302.80  861.50  81-0.68809 0.62074 0.65698-0.77661-0.51107 0.29949
   0   1   4 4201.70  187.90  71-0.61473 0.70453 0.78819-0.66856-0.16781 0.44993
   0   1  -4 4316.70  195.40  60-0.46795 0.37815 0.81345-0.69381 0.17852-0.46064
   0  -1  -4 4443.20  164.80  79-0.68224 0.59244 0.68586-0.80549-0.45727 0.17515
   0  -1  -4 4447.00  161.20 126-0.13286 0.04328 0.84917-0.96888-0.52686 0.24483
   0  -1   4 4369.90  159.20  51-0.27869 0.36849 0.74719-0.86682 0.48327-0.20115
   0   1  -530157.70 1003.70  63-0.51646 0.40422 0.81646-0.69683 0.08036-0.43301
   0   1   611904.70  489.30  66-0.55263 0.68733 0.81281-0.69318-0.00129 0.42446
   0   1  -612033.20  456.70  66-0.55153 0.41683 0.81302-0.69339 0.00134-0.42452
   0  -1  -612635.70  427.90  78-0.67784 0.54315 0.70076-0.82039-0.42660 0.00343
   0  -1   611847.90  434.20  52-0.30699 0.44169 0.76129-0.88092 0.44372-0.02054
   0   1  -7   19.90   31.30  68-0.57865 0.42151 0.80600-0.68636-0.06604-0.42766
   0  -1  -7   13.30   32.20  79-0.67847 0.52132 0.69884-0.81847-0.43069-0.06302
   0  -1   7    0.80   21.90  52-0.30563 0.46278 0.76064-0.88027 0.44566 0.04804
   0   1  -8 1313.20   71.40  69-0.60060 0.42100 0.79658-0.67695-0.12590-0.43833
   0  -1  -8 1446.20   59.90  79-0.68012 0.50052 0.69349-0.81312-0.44184-0.12240
   0   1  -9 1510.40   77.00  71-0.61886 0.41681 0.78532-0.66568-0.18065-0.45412
   0  -1  -9 1685.80   99.00  79-0.68231 0.48027 0.68556-0.80519-0.45786-0.17690
   0  -1  -9 1508.20   72.20 124-0.17605-0.02550 0.86996-0.98967-0.49269-0.14187
   0   1 -10 1186.90   87.10  72-0.63431 0.40981 0.77244-0.65281-0.23177-0.47352
   0  -1 -10 1333.00   67.90  80-0.68471 0.46022 0.67549-0.79512-0.47737-0.22792
   0  -1 -10 1234.40   60.90 125-0.15610-0.06784 0.86083-0.98054-0.50885-0.19622
   0   1 -11  340.60   36.80  74-0.64748 0.40054 0.75806-0.63842-0.28024-0.49558
   0  -1 -11  282.50   36.70  81-0.68703 0.44009 0.66352-0.78316-0.49945-0.27637
   0  -1 -11  317.70   28.30 126-0.13138-0.11496 0.84840-0.96810-0.52798-0.24760
   0   1 -12  224.40   46.90  75-0.65871 0.38932 0.74220-0.62256-0.32672-0.51963
   0  -1 -12  323.40   51.40  82-0.68908 0.41969 0.64979-0.76943-0.52348-0.32287
   0   2   215999.70  567.40   6 0.63860-0.59370-0.34348 0.58275 0.85608-0.71502
   0   2  -216017.10  572.20  42-0.05545 0.01055 0.59777-0.35851 0.74050-0.88156
   0   2  -214946.20  523.90 166 0.59087-0.63566-0.16882 0.40824-0.56038 0.41937
   0   2  -214401.00  507.60 174 0.58415-0.62880 0.58439-0.34520 0.71947-0.86022
   0  -2  -216844.10  547.70  96-0.63850 0.59360 0.34351-0.58278-0.85612 0.71506
   0  -2  -214614.10  510.50 153 0.42008-0.46487 0.24775-0.48716-0.69438 0.55337
   0  -2   216096.60  531.90  32 0.17644-0.13154 0.37949-0.61875 0.91714-0.77608
   0   2   314567.50  507.20   1 0.67378-0.60643-0.46076 0.70002 0.76211-0.55052
   0   2   313946.10  460.00  81-0.68759 0.75494 0.66017-0.42090-0.50545 0.71704
   0   2  -314015.10  523.00  48-0.21656 0.14922 0.71210-0.47283 0.56418-0.77576
   0   2  -313696.30  502.40 180 0.47863-0.54560 0.74103-0.50184 0.59846-0.80958
   0  -2  -314938.20  505.60  91-0.67368 0.60634 0.46080-0.70006-0.76215 0.55056
   0  -2  -313640.30  503.50 147 0.31916-0.38635 0.41219-0.65160-0.70781 0.49628
   0  -2   314526.80  487.80  38 0.03995 0.02739 0.51559-0.75485 0.82411-0.61252
   0   2   4  635.50   34.70  77-0.66828 0.75807 0.72467-0.48540-0.37208 0.65420
   0   2   4  706.80   33.70 124-0.17338 0.26296 0.86879-0.62937-0.49489 0.77692
   0   2  -4  662.20   40.60  53-0.32900 0.23921 0.77137-0.53211 0.41169-0.69380
   0  -2  -4  655.20   45.10  88-0.68654 0.59675 0.52912-0.76839-0.69127 0.40916
   0  -2  -4  725.30   41.00 142 0.22603-0.31561 0.53724-0.77666-0.69871 0.41668
   0  -2   4  698.30   37.30  41-0.04995 0.13975 0.59333-0.83259 0.74573-0.46361
   0  -2   4  753.20   39.90 174 0.59130-0.50201 0.57107-0.81025 0.72759-0.44608
   0   2   5 1302.70   63.20  73-0.64240 0.75465 0.76405-0.52479-0.26091 0.61355
   0   2  -5 1405.10   71.00  57-0.40847 0.29623 0.80055-0.56128 0.28567-0.63832
   0  -2  -5 1476.10   74.10  86-0.69070 0.57846 0.56866-0.80793-0.64332 0.29068
   0  -2  -5 1428.70   59.60 139 0.15226-0.26423 0.62197-0.86139-0.67996 0.32743
   0  -2   5 1393.40   74.00  44-0.10622 0.21846 0.63721-0.87647 0.68983-0.33718
   0  -2   5 1621.20   59.20 176 0.55599-0.44437 0.63285-0.87204 0.68740-0.33553
   0   2  -6 1972.80  102.00  60-0.46686 0.33216 0.81329-0.57403 0.18061-0.60379
   0  -2  -6 2116.20   93.70  85-0.69178 0.55708 0.59108-0.83035-0.61343 0.19025
   0  -2  -6 2013.60   93.50 137 0.10018-0.23454 0.67502-0.91444-0.66129 0.23825
   0  -2   6 1842.10   82.50  45-0.14019 0.27489 0.66188-0.90115 0.65346-0.23029
   0  -2   6 1865.20   82.20 177 0.53118-0.39723 0.67107-0.91026 0.65900-0.23675
   0   2  -7 6338.10  249.10  63-0.51153 0.35438 0.81653-0.57726 0.09089-0.58459
   0  -2  -7 6846.90  232.80  84-0.69192 0.53478 0.60277-0.84204-0.59695 0.10325
   0  -2  -7 6726.50  244.80 135 0.06719-0.22395 0.70589-0.94531-0.64727 0.15372
   0  -2   7 5642.70  229.30  46-0.15936 0.31651 0.67518-0.91445 0.63205-0.13834
   0   2  -8  521.20   43.30  65-0.54690 0.36730 0.81380-0.57454 0.01225-0.57648
   0  -2  -8  522.10   37.50  84-0.69189 0.51230 0.60731-0.84658-0.59038 0.02615
   0  -2  -8  606.00   36.40 134 0.04958-0.22873 0.72153-0.96095-0.63910 0.07504
   0   2  -9 3537.90  175.90  67-0.57566 0.37362 0.80700-0.56773-0.05829-0.57647
   0  -2  -9 3842.30  148.60  84-0.69190 0.48985 0.60676-0.84602-0.59119-0.04358
   0  -2  -9 3968.80  161.70 134 0.04411-0.24566 0.72627-0.96569-0.63646 0.00190
   0   2 -10 2002.10  105.70  69-0.59951 0.37502 0.79714-0.55788-0.12280-0.58249
   0  -2 -10 2353.00   98.80  84-0.69192 0.46743 0.60234-0.84161-0.59757-0.10772
   0  -2 -10 2531.30  109.80 134 0.04840-0.27235 0.72255-0.96197-0.63854-0.06653
   0   2 -11  115.20   29.40  71-0.61953 0.37258 0.78483-0.54556-0.18276-0.59306
   0  -2 -11   43.70   38.70  85-0.69186 0.44491 0.59481-0.83407-0.60825-0.16758
   0   2 -12  824.60   64.60  73-0.63642 0.36703 0.77037-0.53110-0.23921-0.60714
   0  -2 -12  857.90   51.60  85-0.69157 0.42218 0.58462-0.82388-0.62227-0.22408
   0   3   0   10.30   16.00  24 0.34359-0.34359 0.17945 0.17945 0.98324-0.98324
   0   3   0    7.40   16.50 102-0.56785 0.56785 0.17945 0.17945-0.94230 0.94230
   0   3   0   40.20   15.80 155 0.45594-0.45594 0.17956 0.17956-0.68176 0.68176
   0  -3   0  -29.00   14.10  12 0.56797-0.56797-0.17945-0.17945 0.94225-0.94225
   0  -3   0   -5.70   18.90 114-0.34346 0.34346-0.17945-0.17945-0.98324 0.98324
   0  -3   0   -5.40   24.60 166 0.59376-0.59376-0.17956-0.17956-0.55514 0.55514
   0   3   1 2674.90  109.50  18 0.47180-0.44935-0.00738 0.36628 0.98599-0.91546
   0   3   1 2591.70   97.20  95-0.64198 0.66443 0.35330 0.00560-0.84942 0.91995
   0   3   1 2814.40  108.80 150 0.37557-0.35317 0.32467 0.03446-0.70383 0.77434
   0   3  -1 2665.40  112.70  31 0.18720-0.20965 0.36778-0.00888 0.92309-0.99362
   0   3  -1 2647.60  107.90 108-0.46222 0.43977-0.00773 0.36663-0.98774 0.91721
   0   3  -1 2779.20  105.70 159 0.51167-0.53407 0.05882 0.30031-0.65026 0.57975
   0  -3  -1 2666.60  104.60   5 0.64209-0.66453-0.35329-0.00561 0.84936-0.91989
   0  -3  -1 2983.20  112.90 108-0.47168 0.44923 0.00739-0.36629-0.98602 0.91549
   0  -3  -1 2388.40  107.30 163 0.55985-0.58225-0.06766-0.29147-0.60524 0.53474
   0  -3   1 2720.00  112.70  18 0.46236-0.43991 0.00772-0.36662 0.98771-0.91718
   0  -3   1 2898.90  110.00 121-0.18705 0.20950-0.36778 0.00888-0.92307 0.99360
   0   3   221545.20  692.80  12 0.56085-0.51596-0.16526 0.52416 0.94758-0.80652
   0   3  -220754.70  715.20  38 0.02733-0.07223 0.52706-0.16816 0.81391-0.95497
   0   3  -220840.90  707.60 171 0.62284-0.66748 0.50638-0.14761 0.76314-0.90389
   0  -3  -223237.60  739.60 102-0.56074 0.51584 0.16527-0.52417-0.94762 0.80656
   0  -3  -218717.90  688.10 159 0.51679-0.56158 0.04658-0.40571-0.64644 0.50542
   0   3   3 2358.10   93.40   8 0.61576-0.54841-0.28441 0.64331 0.89259-0.68101
   0   3   3 1993.30   97.10  84-0.69190 0.75925 0.59787-0.23897-0.60394 0.81553
   0   3   3 2194.80   90.10 138 0.13594-0.06875 0.63917-0.28005-0.67458 0.88610
   0   3  -3 2144.80  102.60  44-0.11453 0.04718 0.64337-0.28447 0.68112-0.89271
   0   3  -3 2117.10  104.80 119-0.23316 0.16581-0.31593 0.67483-0.94607 0.73448
   0   3  -3 2206.30   95.10 164 0.57220-0.63938-0.10533 0.46446-0.58947 0.37795
   0   3  -3 2180.60   94.00 176 0.55019-0.61717 0.64212-0.28335 0.68078-0.89191
   0  -3  -3 2514.60   91.40  98-0.61565 0.54830 0.28443-0.64333-0.89264 0.68105
   0  -3  -3 2216.50  108.30 156 0.46724-0.53442 0.15670-0.51582-0.67667 0.46515
   0  -3   3 2210.10   92.90  29 0.23330-0.16595 0.31594-0.67484 0.94608-0.73449
   0   3   4 1528.30   84.50   5 0.64738-0.55758-0.36872 0.72761 0.83841-0.55630
   0   3   4 1420.10   60.20 132-0.00806 0.09764 0.76863-0.40950-0.60908 0.89111
   0   3  -4 1506.50   75.30  49-0.23027 0.14047 0.72030-0.36141 0.54700-0.82911
   0   3  -4 1425.30   76.50 181 0.46987-0.55917 0.75144-0.39266 0.58833-0.86984
   0  -3  -4 1633.50   79.00  95-0.64728 0.55748 0.36875-0.72765-0.83846 0.55634
   0  -3  -4 1481.50   74.60 152 0.41552-0.50510 0.25600-0.61512-0.69564 0.41362
   0  -3   4 1420.00   64.00  33 0.14292-0.05312 0.41499-0.77389 0.89729-0.61517
   0   3   5 5796.80  228.00   2 0.66502-0.55278-0.42640 0.78530 0.79292-0.44027
   0   3   5 5572.80  205.70 125-0.14917 0.26114 0.85747-0.49834-0.51431 0.86685
   0   3  -5 5453.10  223.80  53-0.32153 0.20928 0.76803-0.40914 0.42270-0.77534
   0  -3  -5 6055.20  229.40  92-0.66493 0.55268 0.42644-0.78534-0.79296 0.44031
   0  -3  -5 5803.00  215.00 150 0.36646-0.47843 0.33950-0.69862-0.70503 0.35250
   0  -3   5 5435.70  198.40  36 0.07455 0.03769 0.48318-0.84208 0.85070-0.49806
   0   3  -6 6133.70  267.10  57-0.39322 0.25852 0.79591-0.43701 0.31124-0.73441
   0  -3  -6 6664.80  254.50  91-0.67466 0.53996 0.46501-0.82391-0.75816 0.33499
   0  -3  -6 6661.20  261.00 147 0.32404-0.45841 0.40501-0.76414-0.70777 0.28473
   0  -3   6 5395.80  252.90  38 0.02536 0.10934 0.52884-0.88774 0.81229-0.38912
   0   3  -7 3402.20  172.00  60-0.45017 0.29302 0.81053-0.45163 0.21191-0.70562
   0  -3  -7 3537.40  171.80  90-0.67998 0.52283 0.49001-0.84891-0.73352 0.23981
   0  -3  -7 3536.70  158.40 146 0.29066-0.44742 0.45282-0.81195-0.70693 0.21338
   0   3  -8 4309.10  185.80  62-0.49613 0.31654 0.81616-0.45726 0.12288-0.68712
   0  -3  -8 5056.20  213.80  89-0.68280 0.50320 0.50524-0.86414-0.71764 0.15340
   0  -3  -8 5260.60  211.30 144 0.26723-0.44639 0.48461-0.84374-0.70490 0.14084
   0   3  -9  855.20   58.50  64-0.53383 0.33179 0.81545-0.45655 0.04221-0.67698
   0  -3  -9  867.60   67.90  89-0.68415 0.48210 0.51322-0.87212-0.70902 0.07426
   0  -3  -9  887.10   51.00 144 0.25367-0.45522 0.50238-0.86151-0.70322 0.06866
   0   3 -10  285.40   37.30  67-0.56517 0.34068 0.81004-0.45114-0.03176-0.67353
   0  -3 -10  409.30   49.80  88-0.68454 0.46004 0.51566-0.87456-0.70636 0.00107
   0   3 -11  415.70   54.20  69-0.59150 0.34455 0.80096-0.44206-0.10040-0.67543
   0  -3 -11  373.90   58.40  88-0.68422 0.43727 0.51366-0.87256-0.70855-0.06727
   0   3 -12  543.20   62.00  70-0.61373 0.34434 0.78885-0.42995-0.16476-0.68160
   0  -3 -12  712.70   66.20  89-0.68327 0.41388 0.50799-0.86689-0.71469-0.13166
   0   4   0 6866.90  256.70  27 0.29711-0.29711 0.23927 0.23927 0.97087-0.97087
   0   4   0 6144.70  231.80 153 0.42464-0.42464 0.23942 0.23942-0.69305 0.69305
   0  -4   0 7012.30  255.00   9 0.59628-0.59628-0.23927-0.23927 0.91623-0.91623
   0  -4   0 7774.00  259.20 117-0.29697 0.29697-0.23927-0.23927-0.97087 0.97087
   0   4   1 5099.20  200.30  21 0.40227-0.37982 0.09842 0.38012 0.99092-0.92039
   0   4   1 4667.80  174.30 149 0.36083-0.33844 0.34852 0.13032-0.70566 0.77617
   0   4  -1 4983.70  182.70  32 0.17631-0.19875 0.37963 0.09890 0.91707-0.98760
   0  -4  -1 4757.10  196.00   5 0.64717-0.66962-0.36810-0.11043 0.83886-0.90939
   0  -4  -1 5628.60  210.80 111-0.40214 0.37969-0.09841-0.38012-0.99093 0.92040
   0  -4  -1 4288.10  194.00 166 0.58888-0.61128-0.16158-0.31725-0.56386 0.49335
   0  -4   1 4878.80  186.80  14 0.52724-0.50479-0.10186-0.37667 0.96753-0.89700
   0  -4   1 5217.50  189.00 122-0.17616 0.19861-0.37962-0.09891-0.91705 0.98758
   0   4   2  230.50   25.20  17 0.48544-0.44054-0.02966 0.50819 0.98284-0.84178
   0   4   2  238.40   22.50 145 0.27951-0.23473 0.46812 0.01071-0.70610 0.84712
   0   4  -2  263.00   24.30  37 0.05087-0.09576 0.50552-0.02698 0.83271-0.97377
   0   4  -2  279.30   24.90 171 0.63124-0.67588 0.48720-0.00883 0.77254-0.91329
   0  -4  -2  246.30   25.50 107-0.48532 0.44042 0.02967-0.50820-0.98286 0.84180
   0  -4  -2  231.90   33.40 163 0.56529-0.61008-0.08391-0.39493-0.59857 0.45756
   0  -4   2  237.50   23.10  19 0.44704-0.40214 0.03170-0.51023 0.98975-0.84869
   0   4   3  542.70   37.20  13 0.54633-0.47898-0.13718 0.61572 0.95718-0.74559
   0   4   3  500.60   34.60 140 0.18110-0.11391 0.59023-0.11140-0.68840 0.89993
   0   4  -3  574.40   39.30  42-0.06824 0.00089 0.60800-0.12947 0.72814-0.93973
   0   4  -3  508.50   53.40 175 0.57591-0.64289 0.59918-0.12081 0.71012-0.92124
   0  -4  -3  652.90   37.00 103-0.54622 0.47887 0.13720-0.61573-0.95721 0.74563
   0  -4  -3  453.60   33.40 161 0.53874-0.60593-0.00886-0.46997-0.62769 0.41617
   0  -4   3  466.30   41.00  23 0.36516-0.29781 0.15044-0.62897 0.98716-0.77557
   0   4   4  110.00   25.50  10 0.58859-0.49879-0.22241 0.70094 0.92416-0.64204
   0   4   4  134.10   31.50 135 0.06906 0.02052 0.70420-0.22537-0.64811 0.93014
   0   4  -4  118.40   26.90  47-0.17409 0.08429 0.68509-0.20656 0.61515-0.89727
   0   4  -4  138.60   36.50 178 0.51266-0.60196 0.69729-0.21892 0.63772-0.91922
   0  -4  -4  120.60   22.40 100-0.58848 0.49868 0.22243-0.70096-0.92420 0.64208
   0  -4  -4  144.20   29.00 159 0.51080-0.60037 0.06090-0.53973-0.65090 0.36887
   0  -4   4  115.50   21.30  27 0.28968-0.19988 0.24851-0.72704 0.96843-0.68631
   0   4   5 1755.80   78.80   8 0.61697-0.50472-0.28735 0.76588 0.89093-0.53828
   0   4   5 1592.90   81.00 130-0.05021 0.16218 0.79914-0.32030-0.58398 0.93651
   0   4  -5 1939.70  102.20  50-0.26438 0.15213 0.73959-0.26106 0.50261-0.85526
   0  -4  -5 2076.10   86.00  98-0.61687 0.50462 0.28738-0.76591-0.89097 0.53832
   0  -4  -5 1777.10   81.40 157 0.48330-0.59527 0.12291-0.60174-0.66840 0.31586
   0  -4   5 1533.20   81.80  30 0.22521-0.11296 0.32524-0.80377 0.94234-0.58969
   0   4   6  120.40   25.40   6 0.63567-0.50097-0.33542 0.81395 0.86145-0.43828
   0   4   6   85.60   18.20 124-0.16888 0.30325 0.86678-0.38794-0.49858 0.92162
   0   4  -6  138.00   24.20  54-0.33989 0.20519 0.77606-0.29753 0.39542-0.81860
   0  -4  -6  168.80   25.50  96-0.63557 0.50087 0.33546-0.81399-0.86149 0.43832
   0  -4  -6  142.20   22.90 155 0.45812-0.59249 0.17520-0.65403-0.68082 0.25778
   0   4   7 1586.00  102.30   5 0.64782-0.49068-0.37005 0.84858 0.83744-0.34374
   0   4  -7 1332.20   67.10  57-0.40265 0.24550 0.79883-0.32030 0.29552-0.78922
   0  -4  -7 1555.30   92.90  95-0.64773 0.49058 0.37009-0.84862-0.83748 0.34378
   0  -4  -7 1588.70   70.20 154 0.43694-0.59370 0.21647-0.69530-0.68907 0.19552
   0   4   8 2231.10  110.30   4 0.65558-0.47598-0.39411 0.87264 0.81929-0.25506
   0   4  -8 1725.90   88.40  60-0.45492 0.27532 0.81140-0.33286 0.20311-0.76734
   0  -4  -8 2274.00  117.80  94-0.65548 0.47589 0.39416-0.87269-0.81933 0.25509
   0  -4  -8 1919.20   86.50 153 0.42104-0.60020 0.24600-0.72484-0.69411 0.13005
   0   4   9  890.40   58.50   3 0.66032-0.45828-0.40985 0.88838 0.80673-0.17197
   0   4  -9  777.40   59.80  62-0.49871 0.29666 0.81628-0.33775 0.11761-0.75238
   0  -4  -9  931.40   57.00  93-0.66023 0.45819 0.40990-0.88843-0.80677 0.17201
   0   4  10  450.70   55.90   3 0.66294-0.43845-0.41894 0.89747 0.79923-0.09394
   0   4 -10  351.10   50.70  65-0.53563 0.31113 0.81527-0.33674 0.03816-0.74346
   0  -4 -10  490.70   55.70  93-0.66285 0.43835 0.41898-0.89752-0.79926 0.09397
   0   4  11  835.70   71.20   2 0.66397-0.41703-0.42259 0.90113 0.79615-0.02033
   0  -4 -11  880.70   65.90  92-0.66388 0.41693 0.42265-0.90118-0.79618 0.02036
   0   5   0  -20.00   25.20  29 0.24776-0.24776 0.29908 0.29908 0.95244-0.95244
   0  -5   0  -21.70   23.00   7 0.62172-0.62172-0.29908-0.29908 0.88413-0.88413
   0  -5   0  -42.00   24.60 119-0.24761 0.24761-0.29908-0.29908-0.95243 0.95243
   0   5   1 7389.10  294.90  25 0.33753-0.31508 0.18746 0.41070 0.98192-0.91139
   0   5  -1 7650.20  275.90  33 0.14826-0.17071 0.40943 0.18874 0.90059-0.97112
   0   5  -1 7426.60  300.80 168 0.66503-0.68735 0.39845 0.19951 0.80998-0.88036
   0  -5  -1 8800.90  287.90 115-0.33739 0.31494-0.18746-0.41070-0.98192 0.91139
   0  -5   1 8287.30  303.90 123-0.14811 0.17056-0.40943-0.18874-0.90056 0.97109
   0   5   2 1793.20   75.40  21 0.41361-0.36871 0.08196 0.51621 0.99125-0.85019
   0   5  -2 1653.10   88.00  37 0.04495-0.08985 0.51099 0.08718 0.82807-0.96913
   0   5  -2 1833.60   79.20 171 0.62728-0.67193 0.49635 0.10161 0.76812-0.90887
   0  -5  -2 2069.30   89.40 111-0.41347 0.36858-0.08196-0.51621-0.99126 0.85021
   0  -5  -2 1732.20  107.90 166 0.59541-0.64020-0.18582-0.41272-0.55205 0.41103
   0  -5   2 1592.50   76.60  15 0.51873-0.47383-0.08664-0.51153 0.97141-0.83035
   0   5   3  454.60   40.30  18 0.47469-0.40734-0.01206 0.61022 0.98539-0.77380
   0   5  -3  523.50   45.10  42-0.05603-0.01132 0.59824-0.00008 0.73995-0.95153
   0   5  -3  428.30   44.30 174 0.58149-0.64846 0.58922 0.00875 0.71646-0.92758
   0  -5  -3  525.80   42.90 108-0.47457 0.40722 0.01206-0.61023-0.98542 0.77383
   0  -5  -3  458.20   42.20 165 0.58055-0.64774-0.13261-0.46593-0.57736 0.36584
   0  -5   3  344.10   34.70  18 0.45898-0.39163 0.01306-0.61123 0.98824-0.77665
   0   5   4 2871.50  122.50  15 0.52171-0.43191-0.09193 0.69009 0.97010-0.68799
   0   5  -4 3338.70  157.10  45-0.14995 0.06015 0.66871-0.07054 0.64265-0.92476
   0   5  -4 3043.20  134.90 177 0.52897-0.61827 0.67429-0.07633 0.65647-0.93797
   0  -5  -4 3611.80  142.70 105-0.52159 0.43179 0.09194-0.69011-0.97013 0.68802
   0  -5  -4 2535.30  124.50 163 0.56520-0.65477-0.08362-0.51493-0.59869 0.31667
   0   5   5  -16.80   31.00  12 0.55679-0.44454-0.15729 0.75545 0.95043-0.59778
   0   5  -5   13.90   20.50  49-0.23417 0.12192 0.72259-0.12443 0.54204-0.89469
   0   5  -5   31.70   36.30 181 0.47134-0.58296 0.74972-0.15176 0.59002-0.94190
   0  -5  -5   15.20   28.00 102-0.55668 0.44443 0.15731-0.75547-0.95046 0.59782
   0  -5  -5   -0.10   24.50 162 0.55029-0.66227-0.04026-0.55829-0.61603 0.26350
   0   5   6  282.20   43.80  11 0.58240-0.44770-0.20920 0.80736 0.93005-0.50687
   0   5  -6  404.20   41.40  52-0.30793 0.17323 0.76173-0.16357 0.44238-0.86555
   0  -5  -6  446.00   44.30 101-0.58229 0.44760 0.20922-0.80739-0.93008 0.50691
   0  -5  -6  364.50   34.00 161 0.53685-0.67121-0.00387-0.59467-0.62947 0.20643
   0   5   7  265.20   31.10   9 0.60076-0.44362-0.24931 0.84747 0.91128-0.41757
   0   5  -7  153.60   32.00  55-0.37168 0.21453 0.78854-0.19038 0.34617-0.83987
   0  -5  -7  246.00   32.50  99-0.60066 0.44351 0.24934-0.84750-0.91131 0.41761
   0  -5  -7  195.60   27.20 160 0.52585-0.68261 0.02430-0.62285-0.63918 0.14563
   0   5   8  351.60   42.50   8 0.61368-0.43409-0.27940 0.87757 0.89539-0.33116
   0   5  -8  276.00   34.40  58-0.42644 0.24685 0.80536-0.20719 0.25460-0.81884
   0  -5  -8  268.20   34.70  98-0.61358 0.43399 0.27944-0.87760-0.89543 0.33119
   0   5   9   36.10   25.60   7 0.62252-0.42048-0.30109 0.89925 0.88295-0.24818
   0  -5  -9   78.10   29.80  97-0.62242 0.42038 0.30112-0.89929-0.88298 0.24822
   0   6   0  809.10   48.50  31 0.19528-0.19528 0.35890 0.35890 0.92741-0.92741
   0  -6   0  874.00   52.50 121-0.19513 0.19513-0.35890-0.35890-0.92739 0.92739
   0   6   1  880.20   65.30  28 0.27398-0.25153 0.26775 0.45004 0.96288-0.89235
   0   6  -1  778.60   48.10  35 0.11009-0.13254 0.44843 0.26937 0.87592-0.94645
   0   6  -1  906.80   65.80 169 0.65018-0.67250 0.44007 0.27749 0.79362-0.86400
   0  -6  -1 1052.70   62.60 118-0.27383 0.25138-0.26775-0.45004-0.96287 0.89234
   0   6   2 1485.40   84.70  24 0.34353-0.29863 0.17954 0.53826 0.98322-0.84216
   0   6  -2 1516.90   79.40  38 0.02201-0.06691 0.53184 0.18595 0.80953-0.95059
   0   6  -2 1525.40   87.70 172 0.61624-0.66088 0.52082 0.19673 0.75573-0.89648
   0  -6  -2 1597.80   86.80 114-0.34339 0.29849-0.17954-0.53826-0.98323 0.84217
   0   6   3  809.20   55.50  21 0.40257-0.33522 0.09798 0.61981 0.99093-0.77934
   0   6  -3  659.10   51.00  42-0.06521-0.00214 0.60559 0.11221 0.73110-0.94268
   0   6  -3  735.50   58.00 175 0.57611-0.64308 0.59884 0.11872 0.71034-0.92146
   0  -6  -3  881.20   61.70 111-0.40244 0.33509-0.09798-0.61982-0.99095 0.77936
   0   6   4  703.60   52.20  19 0.45103-0.36123 0.02551 0.69229 0.98931-0.70719
   0   6  -4  781.40   50.50  45-0.14837 0.05857 0.66761 0.05019 0.64441-0.92652
   0   6  -4  965.10   64.20 177 0.53042-0.61972 0.67218 0.04537 0.65813-0.93963
   0  -6  -4  913.80   49.20 109-0.45090 0.36111-0.02550-0.69230-0.98933 0.70721
   0  -6  -4  676.30   56.10 167 0.59921-0.68879-0.20066-0.51759-0.54458 0.26255
   0   6   5  158.70   39.30  17 0.48972-0.37747-0.03676 0.75456 0.98168-0.62903
   0   6  -5  186.20   28.00 180 0.48003-0.59165 0.73933-0.02177 0.60008-0.95196
   0  -6  -5  174.10   36.00 107-0.48959 0.37735 0.03678-0.75457-0.98170 0.62906
   0  -6  -5   91.80   23.80 166 0.59151-0.70348-0.17115-0.54710-0.55925 0.20672
   0   6   6  -15.10   24.10  15 0.51992-0.38523-0.08875 0.80655 0.97089-0.54772
   0  -6  -6   57.20   26.90 105-0.51981 0.38511 0.08877-0.80656-0.97092 0.54775
   0   6   7   26.10   39.10  13 0.54306-0.38591-0.13101 0.84881 0.95913-0.46542
   0  -6  -7  142.20   41.90 103-0.54295 0.38580 0.13103-0.84883-0.95916 0.46546
   0   6   8  186.30   41.30  12 0.56044-0.38084-0.16443 0.88223 0.94788-0.38365
   0  -6  -8  434.60   45.70 102-0.56033 0.38073 0.16446-0.88225-0.94791 0.38368
   0   7   0  -49.40   40.80 169 0.65806-0.65806 0.41857 0.41857 0.80232-0.80232
   0   7  -1  645.10   59.80 171 0.63153-0.65386 0.48650 0.35064 0.77287-0.84325
   0  -7  -1  594.00   48.20 120-0.20944 0.18699-0.34296-0.49447-0.93474 0.86421
   0   7  -2  121.10   28.00 173 0.59994-0.64458 0.55438 0.28277 0.73735-0.87811
   0  -7  -2  152.00   36.30 118-0.27327 0.22837-0.26844-0.56899-0.96266 0.82160
   0   7  -3   78.20   42.90 175 0.56338-0.63036 0.62069 0.21646 0.69585-0.90697
   0  -7  -3    3.70   21.20 115-0.32947 0.26213-0.19782-0.63961-0.98006 0.76848
   0   7  -4  193.00   33.20 178 0.52219-0.61148 0.68403 0.15312 0.64868-0.93018
   0  -7  -4  196.30   37.60 113-0.37761 0.28781-0.13310-0.70433-0.98888 0.70677
   0   7  -5  206.30   52.60 180 0.47682-0.58844 0.74320 0.09395 0.59637-0.94825
   0  -7  -5  116.40   40.60 111-0.41785 0.30560-0.07553-0.76190-0.99128 0.63864
   1   0 -13   38.60   28.10  81-0.68742 0.48910 0.66123-0.66123-0.50356-0.38355
   1   0 -12  838.20   52.30  80-0.68434 0.50847 0.67716-0.67716-0.47420-0.34239
   1   0 -11   46.20   25.70  79-0.68068 0.52727 0.69154-0.69154-0.44584-0.30022
   1   0 -10  617.60   43.60  78-0.67661 0.54564 0.70438-0.70438-0.41880-0.25672
   1   0  -9 1266.60   66.70  77-0.67230 0.56378 0.71563-0.71563-0.39356-0.21144
   1   0  -8  665.20   50.50  77-0.66803 0.58196 0.72518-0.72518-0.37083-0.16364
   1   0  -7   -9.60   20.40  76-0.66416 0.60054 0.73278-0.73278-0.35176-0.11218
  -1   0   7   54.10   18.00  62-0.49119 0.55481 0.81587-0.81587 0.13289 0.33104
   1   0  -6 1337.80   63.10  76-0.66129 0.62011 0.73792-0.73792-0.33830-0.05510
  -1   0   6 1477.90   70.20  63-0.51768 0.55885 0.81643-0.81643 0.07774 0.31566
   1   0  -5 9636.30  409.80  76-0.66036 0.64164 0.73949-0.73949-0.33409 0.01121
  -1   0   510013.50  348.00  65-0.54609 0.56481 0.81393-0.81393 0.01413 0.30875
   1   0  -413810.90  481.30  76-0.66308 0.66681 0.73477-0.73477-0.34661 0.09426
  -1   0   414975.40  516.50  68-0.57821 0.57448 0.80615-0.80615-0.06489 0.31724
   1   0  -2 3302.20  119.90  82-0.68947 0.73810 0.64659-0.64659-0.52890 0.41761
   1   0   0   -6.50    2.80  37 0.04676 0.04676 0.50932-0.50932 0.82950-0.79973
  -1   0   0    0.20    1.60 130-0.04677-0.04677 0.79677-0.79677-0.58612 0.55641
  -1   0  -1 6960.70  242.90  55-0.36492 0.24895 0.78604-0.78604 0.35686-0.45716
   1   0   2  724.00   37.90  55-0.35756 0.49598 0.78323-0.78323 0.36837-0.19754
  -1   0  -2  960.60   50.80  60-0.46778 0.32936 0.81342-0.81342 0.17885-0.34967
   1   0   3 3924.00  155.10  56-0.38419 0.54506 0.79293-0.79293 0.32605-0.08469
  -1   0  -3 4190.70  165.70  64-0.51966 0.35879 0.81637-0.81637 0.07347-0.31482
   1   0   414332.50  486.50  56-0.39047 0.57379 0.79502-0.79502 0.31577-0.00389
  -1   0  -414132.30  501.30  66-0.55331 0.36999 0.81269-0.81269-0.00290-0.30898
  -1   0  -517223.00  627.80  68-0.57830 0.37253 0.80612-0.80612-0.06512-0.31729
  -1   0  -6 1188.80   63.10  69-0.59833 0.37011 0.79774-0.79774-0.11946-0.33349
  -1   0  -7   73.80   33.60  71-0.61510 0.36443 0.78794-0.78794-0.16896-0.35452
  -1   0  -8 7302.40  279.00  72-0.62950 0.35638 0.77684-0.77684-0.21529-0.37871
  -1   0  -9 2242.50   98.70  73-0.64201 0.34644 0.76449-0.76449-0.25945-0.40508
  -1   0 -10  430.50   57.30  75-0.65292 0.33490 0.75088-0.75088-0.30204-0.43303
  -1   0 -11  733.30   51.10  76-0.66241 0.32194 0.73597-0.73597-0.34346-0.46213
  -1   0 -12   -5.50   29.00  77-0.67055 0.30764 0.71971-0.71971-0.38401-0.49211
   1   1 -13  313.00   38.50  78-0.67653 0.47821 0.70460-0.58497-0.41832-0.46879
   1  -1 -13  301.90   42.00  84-0.69190 0.49358 0.60688-0.72651-0.59101-0.29610
   1   1 -12  475.40   45.40  77-0.66961 0.49374 0.72181-0.60218-0.37899-0.43759
   1  -1 -12  616.20   55.80  83-0.69155 0.51568 0.62022-0.73986-0.57112-0.24547
   1  -1 -12  537.00   43.10 127-0.11679-0.05840 0.84048-0.96019-0.53880-0.27757
   1   1 -11 1581.80   84.10  76-0.66144 0.50802 0.73766-0.61803-0.33899-0.40706
   1  -1 -11 1757.90   90.80  83-0.69090 0.53748 0.63144-0.75107-0.55366-0.19239
   1  -1 -11 1853.00   89.60 126-0.13993-0.01286 0.85284-0.97255-0.52147-0.22440
   1   1 -10  823.60   61.90  74-0.65196 0.52099 0.75221-0.63258-0.29809-0.37744
   1  -1 -10  789.00   51.80  82-0.69015 0.55918 0.64030-0.75993-0.53935-0.13617
   1  -1 -10  958.90   53.80 125-0.15887 0.02847 0.86215-0.98186-0.50665-0.16871
   1   1  -9 6723.10  247.10  73-0.64106 0.53254 0.76553-0.64590-0.25595-0.34904
   1  -1  -9 6834.90  248.80  82-0.68949 0.58097 0.64642-0.76605-0.52919-0.07580
   1  -1  -9 7344.50  266.10 124-0.17308 0.06507 0.86865-0.98836-0.49514-0.10971
   1   1  -8 1774.90   80.80  72-0.62854 0.54247 0.77767-0.65804-0.21208-0.32239
  -1  -1   8 1832.20   80.70  54-0.34989 0.43596 0.78018-0.89982 0.38021 0.15426
   1  -1  -8 2060.70   85.80  82-0.68917 0.60310 0.64911-0.76874-0.52464-0.00982
   1  -1  -8 1944.00   80.90 124-0.18164 0.09603 0.87237-0.99208-0.48804-0.04630
   1   1  -7 8303.10  370.20  70-0.61403 0.55041 0.78866-0.66903-0.16565-0.29829
  -1  -1   7 8575.90  308.80  55-0.36158 0.42520 0.78478-0.90441 0.36211 0.10183
   1  -1  -7 8522.40  298.40  82-0.68940 0.62578 0.64721-0.76684-0.52786 0.06393
   1  -1  -7 8400.30  302.30 124-0.18304 0.11982 0.87296-0.99267-0.48687 0.02303
   1   1  -610718.20  430.60  69-0.59684 0.55566 0.79848-0.67885-0.11524-0.27817
  -1   1   611392.10  400.70  70-0.60864 0.64981 0.79207-0.67244-0.14937 0.54278
  -1  -1   611456.20  389.40  55-0.36918 0.41035 0.78763-0.90726 0.35014 0.04327
   1  -1  -611611.00  371.00  82-0.69031 0.64914 0.63858-0.75822-0.54216 0.14875
   1  -1  -611425.80  385.90 124-0.17477 0.13395 0.86940-0.98911-0.49375 0.10042
   1   1  -5 2904.10  127.40  67-0.57560 0.55688 0.80702-0.68738-0.05813-0.26475
  -1   1   5 3019.10  122.10  73-0.63960 0.65833 0.76710-0.64747-0.25061 0.57349
  -1  -1   5 3067.30  124.30  55-0.37029 0.38901 0.78803-0.90767 0.34838-0.02550
   1  -1  -5 3024.90  121.60  83-0.69159 0.67287 0.61917-0.73881-0.57271 0.24984
   1  -1  -5 2977.90  119.50 125-0.15268 0.13426 0.85919-0.97890-0.51156 0.18873
   1   1  -4  407.50   27.00  65-0.54721 0.55094 0.81375-0.69412 0.01151-0.26386
  -1   1   4  405.00   21.40  77-0.66908 0.66535 0.72296-0.60333-0.37622 0.62857
  -1  -1   4  365.70   19.90  55-0.35944 0.35572 0.78396-0.90359 0.36544-0.11309
  -1  -1   4  371.80   20.50 179 0.49881-0.50300 0.71574-0.83534 0.62176-0.36992
   1  -1  -4  410.70   30.30  85-0.69140 0.69513 0.58066-0.70029-0.62760 0.37525
   1  -1  -4  363.10   23.40 127-0.10991 0.11388 0.83661-0.95632-0.54378 0.29147
   1   1  -3 6230.40  244.10  63-0.50299 0.52917 0.81643-0.69680 0.10877-0.29059
  -1   1   3 6512.10  242.00  82-0.69002 0.66384 0.64158-0.52195-0.53724 0.71906
  -1  -1   3 6346.00  220.80  53-0.32156 0.29539 0.76805-0.88769 0.42264-0.24082
  -1  -1   3 6303.30  208.60 174 0.58456-0.61108 0.58364-0.70323 0.71994-0.53847
   1  -1  -3 6522.80  244.50  89-0.68276 0.70894 0.50503-0.62467-0.71785 0.53604
   1  -1  -3 6419.10  253.20 131-0.03569 0.06206 0.78901-0.90871-0.59293 0.41112
  -1   1   2 3610.60  132.20 130-0.04749-0.00127 0.79727-0.67756-0.58568 0.69698
   1  -1  -2 3450.50  139.10 136 0.08315-0.03439 0.69122-0.81093-0.65426 0.54296
   1  -1   024789.40  818.30 119-0.25227 0.34579-0.29359 0.17396-0.95439 0.98416
   1  -1   021450.70  744.70 153 0.42616-0.33261 0.23662-0.35633-0.69259 0.72230
   1   1   2 6573.30  242.40  69-0.59273 0.73116 0.80041-0.68078-0.10381 0.27463
  -1   1  -2 6796.90  263.80  48-0.21602 0.07760 0.71177-0.59214 0.56485-0.73568
  -1   1  -2 5893.20  247.20 163 0.55855-0.69688-0.06384 0.18355-0.60678 0.43606
  -1  -1  -2 7016.70  233.30  76-0.66577 0.52734 0.72973-0.84937-0.35951 0.18868
  -1  -1  -2 6543.70  224.70 150 0.38065-0.51898 0.31627-0.43598-0.70306 0.53233
   1  -1   2 6623.20  246.20  42-0.06184 0.20026 0.60290-0.72254 0.73436-0.56353
   1   1   315432.90  538.30  66-0.56069 0.72157 0.81113-0.69150-0.02073 0.26209
  -1   1  -315156.40  524.10  54-0.33826 0.17739 0.77537-0.65574 0.39786-0.63922
  -1   1  -313522.10  500.90 166 0.59397-0.75470-0.18032 0.30003-0.55477 0.31353
  -1  -1  -316202.50  514.50  75-0.65728 0.49640 0.74446-0.86409-0.32045 0.07909
   1  -1   314736.90  533.80  46-0.15416 0.31503 0.67162-0.79125 0.63793-0.39657
   1   1   4  873.40   56.10  64-0.53358 0.71690 0.81547-0.69584 0.04278 0.26911
  -1   1  -4  951.50   48.30  58-0.41885 0.23553 0.80342-0.68378 0.26785-0.57974
  -1  -1  -4 1014.40   47.80  75-0.65519 0.47187 0.74761-0.86724-0.31152-0.00037
  -1  -1  -4  949.70   39.10 126-0.13106-0.05206 0.84823-0.96794-0.52821 0.21647
   1  -1   4  904.30   47.90  48-0.20488 0.38820 0.70491-0.82454 0.57853-0.26665
   1   1   5 2306.70  113.20  63-0.50877 0.71454 0.81653-0.69689 0.09671 0.28570
  -1   1  -5 2409.80   97.00  61-0.47566 0.26989 0.81443-0.69480 0.16365-0.54607
  -1  -1  -5 2590.70   98.30  75-0.65661 0.45084 0.74549-0.86512-0.31755-0.06486
   1  -1   5 2536.10  107.90  49-0.23187 0.43765 0.72125-0.84088 0.54496-0.16255
  -1   1  -6 2472.80  137.60  63-0.51816 0.28994 0.81642-0.69678 0.07672-0.52966
  -1  -1  -6 2477.30  127.90  75-0.65990 0.43168 0.74025-0.85988-0.33203-0.12091
   1  -1   6 2334.40  101.80  50-0.24460 0.47282 0.72861-0.84824 0.52864-0.07569
  -1   1  -7   98.30   36.20  66-0.55146 0.30079 0.81303-0.69340 0.00150-0.52498
  -1  -1  -7   72.90   23.40  76-0.66416 0.41349 0.73279-0.85242-0.35173-0.17175
  -1   1  -8  519.00   50.20  68-0.57846 0.30534 0.80606-0.68643-0.06553-0.52847
  -1  -1  -8  542.60   41.80  77-0.66882 0.39570 0.72352-0.84316-0.37487-0.21914
  -1   1  -9  106.20   36.60  69-0.60087 0.30530 0.79644-0.67681-0.12668-0.53785
  -1  -1  -9  214.30   38.80  78-0.67352 0.37795 0.71265-0.83229-0.40039-0.26414
  -1  -1  -9  203.50   22.00 125-0.16190-0.13320 0.86357-0.98328-0.50422-0.16005
  -1   1 -10  411.00   40.90  71-0.61975 0.30174 0.78466-0.66503-0.18348-0.55158
  -1  -1 -10  421.40   51.50  78-0.67800 0.35998 0.70027-0.81991-0.42764-0.30742
  -1  -1 -10  402.40   31.70 126-0.13523-0.18226 0.85042-0.97012-0.52506-0.20972
  -1   1 -11   40.30   40.70  73-0.63580 0.29533 0.77099-0.65135-0.23701-0.56858
  -1  -1 -11   95.60   37.30  79-0.68209 0.34162 0.68641-0.80605-0.45616-0.34943
  -1   1 -12   96.80   38.30  74-0.64945 0.28654 0.75555-0.63592-0.28800-0.58812
  -1  -1 -12  216.10   47.40  80-0.68563 0.32271 0.67107-0.79070-0.48566-0.39046
   1   2 -13   85.80   40.50  76-0.66160 0.46328 0.73738-0.49812-0.33972-0.54739
   1  -2 -13  128.00   32.60  87-0.68819 0.48987 0.54199-0.78125-0.67629-0.21082
   1   2 -12   32.80   27.30  74-0.65018 0.47432 0.75460-0.51533-0.29092-0.52567
   1  -2 -12   39.40   39.60  87-0.68926 0.51339 0.55175-0.79101-0.66454-0.15204
   1   2 -11  100.60   35.10  73-0.63662 0.48320 0.77018-0.53091-0.23989-0.50616
   1  -2 -11  166.50   47.70  86-0.68990 0.53649 0.55858-0.79784-0.65611-0.08994
   1  -2 -11  181.60   26.80 133 0.02490-0.17769 0.74245-0.98187-0.62686-0.11900
   1   2 -10 3007.70  141.40  71-0.62053 0.48956 0.78409-0.54482-0.18595-0.48957
   1  -2 -10 3408.80  139.40  86-0.69020 0.55923 0.56198-0.80125-0.65184-0.02369
   1  -2 -10 3645.30  140.90 133 0.01591-0.14630 0.74980-0.98921-0.62217-0.05319
   1   2  -9 2118.10  114.50  69-0.60136 0.49284 0.79618-0.55692-0.12809-0.47691
   1  -2  -9 2222.70  110.30  86-0.69013 0.58161 0.56120-0.80047-0.65282 0.04782
   1  -2  -9 2410.00  101.30 133 0.01388-0.12188 0.75143-0.99085-0.62110 0.01625
   1   2  -8 1050.10   71.90  68-0.57818 0.49211 0.80616-0.56689-0.06481-0.46965
  -1  -2   8  967.40   49.10  48-0.20696 0.29303 0.70620-0.94547 0.57599-0.04153
   1  -2  -8 1179.50   72.40  87-0.68958 0.60351 0.55504-0.79431-0.66050 0.12603
   1  -2  -8 1111.40   56.80 133 0.02009-0.10570 0.74640-0.98582-0.62437 0.09002
   1   2  -7 3323.60  178.50  66-0.54948 0.48586 0.81338-0.57411 0.00618-0.47012
  -1  -2   7 3353.50  153.40  48-0.19870 0.26232 0.70103-0.94030 0.58602-0.12209
  -1  -2   7 3298.00  168.40 176 0.56112-0.49835 0.62444-0.86363 0.69327-0.23030
   1  -2  -7 3570.00  158.50  87-0.68815 0.62452 0.54160-0.78086-0.67676 0.21282
   1  -2  -7 3496.80  151.30 134 0.03633-0.09954 0.73291-0.97233-0.63264 0.16880
   1   2  -610331.30  393.50  63-0.51261 0.47144 0.81652-0.57726 0.08858-0.48199
  -1  -2   610992.80  375.90  47-0.17900 0.22018 0.68833-0.92760 0.60942-0.21602
   1  -2  -611425.70  439.90  88-0.68488 0.64371 0.51784-0.75711-0.70395 0.31054
   1  -2  -610886.90  392.10 135 0.06488-0.10570 0.70798-0.94739-0.64623 0.25290
   1   2  -5  824.30   45.00  60-0.46268 0.44395 0.81267-0.57341 0.18856-0.51144
  -1   2   5  865.60   41.50  78-0.67641 0.69513 0.70495-0.46568-0.41756 0.74044
  -1  -2   5  836.50   42.10  45-0.14128 0.16001 0.66265-0.90192 0.65226-0.32938
  -1  -2   5  965.30   45.50 172 0.61711-0.59898 0.51895-0.75814 0.75671-0.43449
   1  -2  -5  863.60   52.60  90-0.67770 0.65898 0.47884-0.71811-0.74475 0.42187
   1  -2  -5  833.30   44.10 137 0.10837-0.12679 0.66704-0.90645-0.66452 0.34169
   1   2  -419340.90  644.30  56-0.38997 0.39370 0.79486-0.55559 0.31659-0.56894
   1   2  -418743.70  685.40 181 0.45764-0.45344 0.76547-0.52629 0.57416-0.82600
  -1   2   419588.90  655.80   3 0.66228-0.66601-0.41663 0.65589 0.80115-0.54880
   1  -2  -420417.90  679.90  93-0.66220 0.66592 0.41669-0.65595-0.80118 0.54883
   1  -2  -419388.80  636.30 140 0.16893-0.16496 0.60383-0.84325-0.68501 0.43270
   1   2  -3 5705.80  212.80  51-0.27440 0.30057 0.74494-0.50567 0.48912-0.67094
   1   2  -3 5564.70  207.80 175 0.57279-0.54627 0.60465-0.36547 0.70656-0.88803
  -1   2   3 6164.20  250.30   6 0.62972-0.65590-0.31955 0.55881 0.87167-0.68985
  -1   2   3 5909.00  210.40  87-0.68774 0.66157 0.53826-0.29900-0.68069 0.86251
  -1   2   3 6253.50  218.40 133 0.00913-0.03550 0.75523-0.51581-0.61856 0.80037
  -1  -2   3 5581.50  215.10  37 0.04611-0.07229 0.50992-0.74919 0.82898-0.64717
   1  -2  -3 6104.40  241.30  96-0.62963 0.65581 0.31960-0.55887-0.87169 0.68987
   1  -2  -3 5592.00  243.80 143 0.24655-0.22019 0.51154-0.75096-0.70220 0.52039
   1   2  -213743.80  460.10  42-0.07838 0.12701 0.61596-0.37670 0.71815-0.82944
  -1   2   212855.20  437.70  12 0.56520-0.61383-0.17389 0.41315 0.94438-0.83309
  -1   2   213218.00  431.70  94-0.65442 0.60579 0.39074-0.15147-0.82198 0.93327
  -1   2   213475.50  462.80 139 0.15224-0.20100 0.62198-0.38257-0.67996 0.79126
  -1  -2   213132.80  461.30  29 0.24424-0.29287 0.30321-0.54247 0.95093-0.83964
   1  -2  -212799.40  447.60   4 0.65451-0.60588-0.39069 0.15142 0.82195-0.93324
   1  -2  -213844.90  443.00 102-0.56511 0.61373 0.17394-0.41320-0.94440 0.83311
   1  -2  -212524.80  464.40 148 0.33661-0.28785 0.38618-0.62559-0.70743 0.59613
   1   2  -111172.30  375.20  30 0.22067-0.14960 0.33042-0.09115 0.94019-0.98095
   1   2  -112107.90  381.20 106-0.49356 0.56463 0.04341 0.19585-0.98055 0.93979
  -1   2   111247.20  409.30  19 0.45169-0.52276 0.02449 0.21478 0.98923-0.94847
  -1   2   111472.70  363.10 101-0.57382 0.50274 0.19158 0.04768-0.93749 0.97825
  -1   2   110656.00  395.00 145 0.28589-0.35704 0.45941-0.21999-0.70661 0.74740
  -1  -2   110767.50  379.10  16 0.49374-0.56481-0.04350-0.19577 0.98051-0.93975
  -1  -2   111992.60  386.30 120-0.22047 0.14939-0.33049 0.09122-0.94015 0.98091
   1  -2  -111159.60  398.10  11 0.57392-0.50284-0.19154-0.04773 0.93747-0.97823
   1  -2  -112153.40  393.50 109-0.45158 0.52266-0.02444-0.21482-0.98925 0.94848
   1  -2  -110043.80  370.60 153 0.42884-0.35769 0.23166-0.47108-0.69175 0.65096
  -1   2   027755.20  879.50  27 0.28806-0.38159 0.25051-0.01124 0.96788-0.99765
   1  -2   025970.50  897.60 159 0.51054-0.41700 0.06150-0.30091-0.65108 0.68079
   1   2   121466.60  748.10   5 0.63908-0.52310-0.34481 0.58407 0.85518-0.75489
  -1   2  -120484.80  703.60  35 0.10387-0.21984 0.45462-0.21536 0.87166-0.97196
  -1   2  -120450.50  711.60 174 0.57919-0.69500 0.59337-0.35418 0.71384-0.81387
  -1  -2  -123431.10  723.40  95-0.63896 0.52298 0.34478-0.58405-0.85526 0.75496
   1  -2   118452.30  687.00 164 0.57265-0.45671-0.10678-0.13264-0.58884 0.68906
   1   2   2 4022.20  148.80  78-0.67602 0.81444 0.70604-0.46678-0.41516 0.58599
   1   2   2 4305.50  147.50 143 0.24375-0.10541 0.51511-0.27569-0.70177 0.87249
  -1   2  -2 4014.80  171.60  42-0.06349-0.07493 0.60422-0.36496 0.73276-0.90359
  -1   2  -2 4416.10  182.10 123-0.15793 0.01950-0.39911 0.63837-0.90649 0.73567
  -1   2  -2 4058.80  149.20 160 0.52535-0.66368 0.02556 0.21386-0.63960 0.46888
  -1   2  -2 3961.40  166.50 180 0.48083-0.61897 0.73835-0.49916 0.60101-0.77142
  -1  -2  -2 4517.10  170.80  89-0.68137 0.54294 0.49730-0.73657-0.72600 0.55517
  -1  -2  -2 3595.50  159.10 162 0.55528-0.69361-0.05437-0.18505-0.61055 0.43982
   1  -2   2 4188.30  152.60  33 0.15804-0.01961 0.39915-0.63842 0.90649-0.73567
   1  -2   2 4694.50  157.70 171 0.62604-0.48790 0.49917-0.73835 0.76673-0.59632
   1   2   3 2875.70  114.30  74-0.64735 0.80823 0.75821-0.51895-0.27974 0.52110
   1   2   3 3167.80  117.70 130-0.04325 0.20398 0.79433-0.55491-0.58831 0.82954
  -1   2  -3 3238.90  147.40  48-0.19742 0.03655 0.70022-0.46095 0.58757-0.82892
  -1   2  -3 2801.10  144.50 162 0.55770-0.71843-0.06137 0.30079-0.60777 0.36653
  -1  -2  -3 3366.10  148.40  86-0.69108 0.53021 0.57452-0.81378-0.63572 0.39436
  -1  -2  -3 2872.80  125.60 156 0.46652-0.62725 0.15818-0.39760-0.67701 0.43578
   1  -2   3 3168.80  115.40  37 0.05437 0.10650 0.50225-0.74152 0.83543-0.59408
   1  -2   3 3219.20  160.70 175 0.57733-0.41686 0.59668-0.83586 0.71173-0.47094
   1   2   4  248.40   25.20  71-0.61700 0.80032 0.78664-0.54737-0.17482 0.48671
  -1   2  -4  305.20   26.20  52-0.29963 0.11631 0.75774-0.51847 0.45418-0.76607
  -1   2  -4  257.70   29.10 164 0.57719-0.76031-0.12143 0.36085-0.58239 0.27065
  -1  -2  -4  297.60   32.30  84-0.69175 0.50843 0.61455-0.85382-0.57968 0.26779
  -1  -2  -4  299.70   18.80 149 0.35837-0.54150 0.35243-0.59184-0.70591 0.39417
   1  -2   4  296.00   20.20  40-0.01835 0.20167 0.56706-0.80633 0.77480-0.46292
   1  -2   4  322.30   23.20 177 0.53931-0.35652 0.65895-0.89814 0.66833-0.35717
  -1   2  -5 2896.20  115.70  56-0.37749 0.17172 0.79062-0.55135 0.33688-0.71929
  -1   2  -5 2509.70  112.50 166 0.58847-0.79399-0.16010 0.39951-0.56457 0.18232
  -1  -2  -5 2815.20  133.50  82-0.69060 0.48483 0.63527-0.87453-0.54753 0.16512
  -1  -2  -5 2887.40  128.40 144 0.26029-0.46581 0.49376-0.73318-0.70409 0.32184
   1  -2   5 2621.00  112.80  42-0.06704 0.27281 0.60704-0.84631 0.72931-0.34690
   1  -2   5 2798.20  102.80 178 0.51238-0.30727 0.69767-0.93685 0.63740-0.25587
  -1   2  -6 2065.60   90.90  59-0.43786 0.20964 0.80802-0.56876 0.23430-0.68724
  -1   2  -6 1756.50   93.00 166 0.59445-0.82236-0.18216 0.42157-0.55386 0.10111
  -1  -2  -6 2446.60  100.10  82-0.68966 0.46143 0.64498-0.88425-0.53159 0.07865
  -1  -2  -6 2279.30   95.00 141 0.18840-0.41631 0.58192-0.82134-0.69032 0.23756
  -1   2  -7  441.10   46.80  62-0.48577 0.23510 0.81545-0.57619 0.14376-0.66723
  -1  -2  -7  380.10   43.90  82-0.68933 0.43866 0.64782-0.88708-0.52683 0.00336
  -1  -2  -7  498.80   27.50 139 0.14306-0.39337 0.63173-0.87114-0.67698 0.15372
  -1   2  -8 2721.10  125.40  64-0.52462 0.25150 0.81614-0.57688 0.06268-0.65668
  -1  -2  -8 3069.90  118.80  82-0.68955 0.41643 0.64594-0.88521-0.52999-0.06402
  -1  -2  -8 3356.90  121.80 137 0.11923-0.39193 0.65623-0.89565-0.66863 0.07486
  -1   2  -9 1504.60   96.00  66-0.55670 0.26113 0.81201-0.57274-0.01103-0.65350
  -1  -2  -9 1660.10   86.90  82-0.69012 0.39455 0.64057-0.87983-0.53891-0.12562
  -1  -2  -9 1641.00   71.40 137 0.11195-0.40705 0.66350-0.90291-0.66589 0.00162
  -1   2 -10  827.80   58.20  68-0.58357 0.26556 0.80421-0.56495-0.07899-0.65607
  -1  -2 -10  874.60   69.70  83-0.69083 0.37281 0.63240-0.87166-0.55213-0.18293
  -1   2 -11  219.50   34.60  70-0.60629 0.26582 0.79345-0.55419-0.14242-0.66317
  -1  -2 -11  287.70   28.30  83-0.69147 0.35101 0.62184-0.86111-0.56863-0.23696
  -1   2 -12  407.80   60.00  72-0.62558 0.26266 0.78016-0.54089-0.20225-0.67387
  -1  -2 -12  411.30   43.00  84-0.69187 0.32895 0.60915-0.84842-0.58769-0.28843
   1  -3 -12  424.00   57.50  90-0.67652 0.50065 0.47334-0.83224-0.75015-0.06643
   1   3 -11   41.40   28.50  70-0.61033 0.45691 0.79103-0.43213-0.15443-0.59162
   1  -3 -11  107.70   35.60  90-0.67694 0.52352 0.47527-0.83417-0.74826 0.00221
   1   3 -10  268.10   41.20  68-0.58764 0.45667 0.80260-0.44371-0.08990-0.58562
   1  -3 -10  354.80   45.80  90-0.67640 0.54543 0.47280-0.83169-0.75068 0.07515
   1  -3 -10  220.10   29.40 141 0.19002-0.32042 0.58006-0.93919-0.69073 0.01537
   1   3  -9  163.20   31.00  66-0.56034 0.45182 0.81121-0.45232-0.01986-0.58514
   1  -3  -9   94.10   36.20  91-0.67464 0.56612 0.46493-0.82383-0.75824 0.15325
   1  -3  -9  134.30   21.50 141 0.19538-0.30338 0.57387-0.93300-0.69206 0.08721
   1   3  -8 1164.10   72.60  64-0.52699 0.44092 0.81600-0.45710 0.05744-0.59191
  -1   3   8 1362.70   82.90   1 0.67124-0.58517-0.45021 0.80911 0.77188-0.23741
   1  -3  -8 1423.50   76.20  91-0.67115 0.58508 0.45027-0.80917-0.77190 0.23744
   1  -3  -8 1440.90   74.10 142 0.20873-0.29434 0.55817-0.91730-0.69516 0.16082
   1   3  -7  741.70   49.90  61-0.48544 0.42181 0.81542-0.45652 0.14442-0.60836
  -1   3   7  779.10   56.60   2 0.66512-0.60150-0.42675 0.78565 0.79262-0.32868
  -1  -3   7  624.90   40.60  40-0.02564 0.08926 0.57322-0.93212 0.76824-0.30430
   1  -3  -7  815.90   51.40  92-0.66503 0.60141 0.42681-0.78571-0.79264 0.32871
   1  -3  -7  834.30   50.50 143 0.23071-0.29393 0.53147-0.89059-0.69957 0.23574
   1   3  -6 4698.50  205.10  59-0.43225 0.39108 0.80675-0.44785 0.24434-0.63774
  -1   3   6 4954.30  200.10   4 0.65481-0.61364-0.39164 0.75054 0.82122-0.42781
  -1  -3   6 4049.00  182.00  39 0.01524 0.02593 0.53788-0.89678 0.80390-0.41049
   1  -3  -6 5155.60  190.00  94-0.65472 0.61354 0.39169-0.75059-0.82124 0.42784
   1  -3  -6 4620.40  191.00 144 0.26174-0.30256 0.49187-0.85100-0.70426 0.31093
   1   3  -5  818.30   43.00  55-0.36211 0.34339 0.78498-0.42608 0.36128-0.68415
  -1   3   5  901.50   59.20   6 0.63770-0.61898-0.34099 0.69989 0.85775-0.53487
  -1   3   5  887.70   44.20 127-0.11263 0.13106 0.83815-0.47902-0.54182 0.86464
  -1  -3   5  851.70   41.60  36 0.07621-0.05749 0.48159-0.84049 0.85193-0.52905
   1  -3  -5  941.20   55.70  96-0.63761 0.61889 0.34105-0.69994-0.85778 0.53490
   1  -3  -5  868.50   61.60 146 0.30163-0.32006 0.43745-0.79658-0.70748 0.38465
   1   3  -4 1746.50   73.50  51-0.26701 0.27074 0.74101-0.38211 0.49909-0.75144
   1   3  -4 1572.90   82.00 122-0.16332 0.16705-0.39339 0.75229-0.90968 0.65733
   1   3  -4 1597.20   74.40 177 0.53762-0.53343 0.66150-0.30272 0.66639-0.91824
  -1   3   4 1619.10   81.10   8 0.60969-0.61342-0.26991 0.62881 0.90057-0.64822
  -1   3   4 1724.60   69.80 132 0.00095-0.00492 0.76167-0.40254-0.61411 0.86642
  -1  -3   4 1607.70   66.00  32 0.16349-0.16721 0.39337-0.75227 0.90971-0.65736
   1  -3  -4 1715.20   74.50  98-0.60959 0.61332 0.26996-0.62886-0.90060 0.64825
   1  -3  -4 1629.90   77.20 149 0.34923-0.34526 0.36679-0.72592-0.70670 0.45438
   1   3  -3  908.60   53.10  45-0.13686 0.16303 0.65952-0.30062 0.65712-0.83894
   1   3  -3  938.00   54.60 117-0.28058 0.30676-0.25953 0.61843-0.96532 0.78350
   1   3  -3  934.90   44.10 172 0.61641-0.58989 0.52044-0.16167 0.75593-0.93740
  -1   3   3 1056.10   44.10  12 0.56488-0.59106-0.17324 0.53214 0.94462-0.76280
  -1   3   3  870.70   59.20  90-0.68018 0.65400 0.49104-0.13214-0.73247 0.91429
  -1   3   3 1003.60   46.10 137 0.11574-0.14210 0.65973-0.30061-0.66732 0.84913
  -1  -3   3  911.30   47.00  27 0.28075-0.30693 0.25950-0.61840 0.96534-0.78352
   1  -3  -3  968.30   51.80 102-0.56478 0.59096 0.17328-0.53218-0.94465 0.76283
   1  -3  -3  902.30   55.60 152 0.40204-0.37567 0.27987-0.63899-0.69897 0.51716
   1   3  -2 4661.30  177.90  38 0.03421 0.01441 0.52083-0.16193 0.81950-0.93079
   1   3  -2 5027.60  181.70 111-0.41988 0.46851-0.07253 0.43143-0.99127 0.87998
   1   3  -2 4659.30  189.10 166 0.59023-0.54147-0.16646 0.52559-0.56152 0.45022
  -1   3   2 4262.10  166.60  16 0.49642-0.54505-0.04803 0.40693 0.97968-0.86839
  -1   3   2 4382.10  194.10  95-0.64722 0.59860 0.36858-0.00968-0.83858 0.94987
  -1   3   2 4773.20  185.50 142 0.22363-0.27239 0.54019-0.18106-0.69825 0.80955
  -1  -3   2 4759.80  180.20  21 0.42005-0.46867 0.07248-0.43138 0.99126-0.87997
   1  -3  -2 4524.10  181.00   5 0.64732-0.59869-0.36854 0.00964 0.83854-0.94983
   1  -3  -2 5200.90  172.10 106-0.49632 0.54494 0.04806-0.40696-0.97970 0.86841
   1  -3  -2 4135.60  172.40 155 0.45635-0.40760 0.17873-0.53786-0.68158 0.57028
   1   3  -1 4034.50  149.70  29 0.23136-0.16029 0.31817 0.04073 0.94520-0.98596
   1   3  -1 3996.00  157.50 103-0.55260 0.62367 0.14940 0.20950-0.95319 0.91243
   1   3  -1 4148.30  155.10 163 0.56128-0.49012-0.07186 0.43099-0.60354 0.56274
  -1   3   1 3965.80  163.40  22 0.39967-0.47074 0.10216 0.25674 0.99079-0.95002
  -1   3   1 3799.10  146.40 100-0.58793 0.51685 0.22124 0.13766-0.92474 0.96550
  -1   3   1 4200.40  158.70 147 0.31757-0.38872 0.41452-0.05539-0.70780 0.74860
  -1  -3   1 4063.40  145.00  13 0.55275-0.62382-0.14945-0.20945 0.95314-0.91238
  -1  -3   1 4503.60  158.30 119-0.23118 0.16010-0.31821-0.04069-0.94517 0.98593
   1  -3  -1 3839.80  156.10  10 0.58803-0.51695-0.22120-0.13770 0.92471-0.96547
   1  -3  -1 4371.40  163.00 112-0.39955 0.47063-0.10213-0.25677-0.99080 0.95004
   1  -3  -1 3476.30  167.60 158 0.50792-0.43677 0.06766-0.42679-0.65295 0.61216
   1   3   0   85.60   13.40  21 0.41203-0.31850 0.08427 0.27463 0.99123-0.96146
   1   3   0   66.30   14.80  95-0.64413 0.73765 0.35949-0.00059-0.84509 0.87486
   1   3   0  113.60   19.60 159 0.51184-0.41830 0.05842 0.30071-0.65014 0.67985
  -1   3   0  121.00   21.20  27 0.27718-0.37070 0.26386 0.09504 0.96405-0.99382
  -1   3   0   76.00   14.00 106-0.50357 0.41004 0.06041 0.29849-0.97730 0.94753
  -1   3   0   85.60   15.20 151 0.39368-0.48723 0.29429 0.06483-0.70073 0.67102
  -1  -3   0   87.20   13.50   5 0.64425-0.73777-0.35952 0.00062 0.84500-0.87477
  -1  -3   0  109.80   13.80 111-0.41187 0.31834-0.08431-0.27459-0.99124 0.96147
   1  -3   0   74.30   14.20  16 0.50368-0.41015-0.06038-0.29852 0.97728-0.94751
   1  -3   0  109.70   28.20 117-0.27706 0.37058-0.26383-0.09507-0.96406 0.99382
   1  -3   0   63.50   20.00 162 0.55294-0.45940-0.04771-0.31141-0.61315 0.64286
   1   3   1 1662.00   78.30  14 0.53991-0.42394-0.12512 0.48402 0.96093-0.86064
   1   3   1 1503.80   69.30  88-0.68532 0.80130 0.52071-0.16181-0.70077 0.80106
   1   3   1 1733.00   70.70 153 0.43082-0.31488 0.22797 0.13116-0.69112 0.79134
  -1   3  -1 1754.30   72.40  33 0.14081-0.25678 0.41718-0.05828 0.89597-0.99627
  -1   3  -1 1678.70   73.40 111-0.40407 0.28809-0.09563 0.45453-0.99102 0.89072
  -1   3  -1 1779.20   77.10 155 0.45169-0.56764 0.18797 0.17116-0.68352 0.58330
  -1   3  -1 1576.70   69.90 172 0.61915-0.73497 0.51451-0.15574 0.75900-0.85904
  -1  -3  -1 1909.10   74.30 104-0.53977 0.42380 0.12509-0.48399-0.96098 0.86068
   1  -3   1 1691.90   76.10  21 0.40418-0.28821 0.09566-0.45456 0.99100-0.89070
   1  -3   1 1358.10   74.00 166 0.58894-0.47299-0.16178-0.19735-0.56376 0.66398
   1   3   2 3265.70  122.70   8 0.61420-0.47578-0.28064 0.63954 0.89470-0.72387
   1   3   2 2955.60  121.60  83-0.69102 0.82944 0.62977-0.27087-0.55630 0.72713
   1   3   2 3397.40  140.60 147 0.30768-0.16935 0.42882-0.06970-0.70767 0.87839
  -1   3  -2 3117.70  131.80  39 0.00637-0.14479 0.54572-0.18682 0.79639-0.96722
  -1   3  -2 3080.80  128.90 116-0.30390 0.16548-0.23057 0.58947-0.97304 0.80221
  -1   3  -2 2903.30  122.30 157 0.49387-0.63221 0.09972 0.25940-0.66220 0.49148
  -1   3  -2 3018.90  118.80 176 0.55057-0.68871 0.64153-0.28275 0.68121-0.85162
  -1  -3  -2 3465.10  120.70  98-0.61408 0.47566 0.28063-0.63953-0.89476 0.72393
  -1  -3  -2 2790.10  129.10 166 0.58944-0.72778-0.16362-0.19551-0.56288 0.39216
   1  -3   2 3064.80  124.80  26 0.30402-0.16560 0.23060-0.58950 0.97303-0.80220
   1   3   3  289.00   26.80   4 0.65287-0.49200-0.38550 0.74440 0.82593-0.58458
   1   3   3  212.50   24.70  78-0.67799 0.83886 0.70030-0.34141-0.42757 0.66893
   1   3   3  332.50   25.80 139 0.14176 0.01896 0.63309-0.27397-0.67655 0.91779
  -1   3  -3  302.40   23.30  44-0.11446-0.04641 0.64332-0.28442 0.68119-0.92255
  -1   3  -3  260.00   22.40 120-0.21471 0.05384-0.33701 0.69591-0.93736 0.69600
  -1   3  -3  338.40   32.60 160 0.52346-0.68419 0.03026 0.32887-0.64116 0.39993
  -1   3  -3  248.80   36.20 180 0.47535-0.63582 0.74496-0.38618 0.59467-0.83546
  -1  -3  -3  290.20   26.90  94-0.65276 0.49189 0.38551-0.74441-0.82599 0.58464
  -1  -3  -3  222.50   21.90 162 0.55641-0.71714-0.05763-0.30150-0.60926 0.36802
   1  -3   3  310.00   25.80  30 0.21483-0.05396 0.33704-0.69594 0.93736-0.69600
   1   3   4  425.50   30.00   1 0.67206-0.48874-0.45355 0.81245 0.76882-0.45693
   1   3   4  412.00   26.70 130-0.04843 0.23155 0.79792-0.43879-0.58509 0.89683
  -1   3  -4  485.20   41.30  48-0.21703 0.03371 0.71238-0.35348 0.56360-0.87548
  -1  -3  -4  547.00   41.20  91-0.67196 0.48864 0.45357-0.81247-0.76888 0.45699
  -1  -3  -4  410.00   31.10 159 0.51638-0.69950 0.04758-0.40671-0.64675 0.33501
   1  -3   4  394.90   30.70  33 0.14199 0.04133 0.41596-0.77485 0.89671-0.58482
  -1   3  -5 1293.60   70.10  52-0.30178 0.09600 0.75878-0.39988 0.45114-0.83356
  -1  -3  -5 1551.90   78.20  89-0.68132 0.47555 0.49703-0.85593-0.72628 0.34387
  -1  -3  -5 1247.40   61.70 156 0.47332-0.67884 0.14409-0.50321-0.67369 0.29144
   1  -3   5 1203.80   62.00  36 0.08589 0.11988 0.47226-0.83116 0.85898-0.47656
  -1   3  -6  873.80   65.00  55-0.37127 0.14305 0.78839-0.42950 0.34681-0.79976
  -1  -3  -6  948.20   52.10  88-0.68584 0.45762 0.52419-0.88308-0.69687 0.24393
  -1  -3  -6  954.00   47.50 153 0.43244-0.66035 0.22494-0.58407-0.69059 0.23783
  -1   3  -7   27.20   32.10  58-0.42846 0.17779 0.80585-0.44695 0.25105-0.77452
  -1  -3  -7   79.30   31.80  87-0.68799 0.43732 0.54026-0.89916-0.67834 0.15487
  -1  -3  -7  100.70   13.50 151 0.39839-0.64870 0.28619-0.64531-0.69976 0.17650
  -1   3  -8  694.40   46.60  61-0.47591 0.20279 0.81446-0.45556 0.16317-0.75717
  -1  -3  -8  784.00   51.70  87-0.68892 0.41580 0.54851-0.90740-0.66848 0.07448
  -1  -3  -8  683.00   38.60 150 0.37419-0.64689 0.32692-0.68605-0.70403 0.11026
  -1   3  -9   22.20   34.50  63-0.51565 0.22008 0.81648-0.45758 0.08211-0.74665
  -1  -3  -9   97.50   38.60  87-0.68918 0.39361 0.55097-0.90987-0.66548 0.00095
  -1   3 -10  320.10   54.20  65-0.54921 0.23119 0.81342-0.45452 0.00682-0.74188
  -1  -3 -10  263.90   39.60  87-0.68897 0.37095 0.54897-0.90787-0.66792-0.06714
  -1   3 -11  466.30   60.30  68-0.57775 0.23728 0.80631-0.44741-0.06368-0.74191
  -1  -3 -11  562.60   47.70  87-0.68835 0.34788 0.54333-0.90223-0.67470-0.13089
  -1   4  11 1320.70   86.60   4 0.65244-0.49902-0.38415 0.86268 0.82696-0.08090
   1  -4 -11 1387.50   66.30  94-0.65235 0.49893 0.38421-0.86274-0.82698 0.08093
  -1   4  10   62.00   39.50   4 0.64988-0.51891-0.37626 0.85479 0.83288-0.15736
   1  -4 -10   -0.80   38.60  94-0.64979 0.51882 0.37631-0.85484-0.83290 0.15738
  -1   4   9 1938.90  105.30   5 0.64519-0.53667-0.36227 0.84080 0.84305-0.23805
   1  -4  -9 2004.80   98.50  95-0.64510 0.53658 0.36233-0.84086-0.84308 0.23808
   1  -4  -9 2179.80  113.40 148 0.34420-0.45220 0.37457-0.85341-0.70704 0.10218
   1   4  -8  321.40   34.60  61-0.48350 0.39743 0.81525-0.33672 0.14826-0.68272
  -1   4   8  386.60   40.40   6 0.63766-0.55159-0.34088 0.81942 0.85783-0.32336
   1  -4  -8  430.60   44.50  96-0.63757 0.55150 0.34094-0.81947-0.85785 0.32339
   1  -4  -8  424.10   34.80 149 0.35636-0.44197 0.35561-0.83445-0.70610 0.17176
   1   4  -7 2775.20  135.70  59-0.43342 0.36980 0.80702-0.32849 0.24226-0.70620
  -1   4   7 2843.60  117.10   7 0.62619-0.56257-0.31040 0.78893 0.87734-0.41340
   1  -4  -7 3112.30  124.40  97-0.62610 0.56248 0.31045-0.78898-0.87736 0.41343
   1  -4  -7 2707.90  123.30 150 0.37446-0.43767 0.32649-0.80532-0.70399 0.24015
   1   4  -6  987.30   60.10  55-0.37131 0.33014 0.78841-0.30987 0.34676-0.74017
  -1   4   6 1141.50   65.30   8 0.60918-0.56801-0.26871 0.74724 0.90122-0.50781
  -1  -4   6  950.50   50.80  31 0.18521-0.14404 0.36996-0.84849 0.92200-0.52860
   1  -4  -6 1199.60   60.40  98-0.60908 0.56791 0.26876-0.74729-0.90124 0.50784
   1  -4  -6  933.20   67.50 151 0.39800-0.43882 0.28687-0.76571-0.69985 0.30652
   1   4  -5 1082.80   64.00  52-0.29357 0.27485 0.75476-0.27622 0.46269-0.78557
   1   4  -5 1084.80   59.40 179 0.49878-0.51691 0.71577-0.23740 0.62173-0.94396
  -1   4   5 1130.00   64.20  10 0.58439-0.56566-0.21340 0.69194 0.92820-0.60533
  -1  -4   5  986.10   55.20  29 0.24932-0.23060 0.29724-0.77577 0.95310-0.63022
   1  -4  -5 1171.40   64.80 100-0.58429 0.56556 0.21345-0.69198-0.92823 0.60535
   1  -4  -5 1019.60   53.80 153 0.42611-0.44454 0.23671-0.71554-0.69260 0.36978
   1   4  -4 2217.10  105.00  47-0.19636 0.20009 0.69954-0.22101 0.58885-0.84119
   1   4  -4 2013.90   89.80 175 0.56691-0.56272 0.61475-0.13638 0.69987-0.95172
  -1   4   4 2102.00   84.60  13 0.54890-0.55263-0.14208 0.62061 0.95560-0.70325
  -1   4   4 1774.00   83.90 135 0.06530-0.06927 0.70760-0.22876-0.64642 0.89873
  -1  -4   4 1849.90   82.50  25 0.32838-0.33211 0.19942-0.67795 0.97976-0.72741
   1  -4  -4 2312.20   95.80 103-0.54880 0.55253 0.14211-0.62064-0.95562 0.70328
   1  -4  -4 1798.80   90.00 155 0.45751-0.45354 0.17642-0.65525-0.68108 0.42877
   1   4  -3 3111.50  136.50  42-0.07732 0.10350 0.61513-0.13660 0.71920-0.90102
   1   4  -3 2727.70  117.40 171 0.62655-0.60003 0.49802-0.01964 0.76730-0.94877
  -1   4   3 2890.30  107.50  16 0.49943-0.52560-0.05312 0.53165 0.97872-0.79690
  -1   4   3 2451.30  109.50 139 0.15914-0.18550 0.61455-0.13572-0.68210 0.86391
  -1  -4   3 2699.60  122.90  21 0.41872-0.44490 0.07444-0.55297 0.99127-0.80945
   1  -4  -3 3213.00  116.70 106-0.49932 0.52549 0.05315-0.53168-0.97874 0.79692
   1  -4  -3 2561.90  119.90 157 0.49055-0.46418 0.10710-0.58593-0.66422 0.48241
   1   4  -2 4194.60  161.60  37 0.06077-0.01215 0.49626-0.01772 0.84035-0.95164
   1   4  -2 3427.90  159.10 105-0.51083 0.55945 0.07296 0.40557-0.97463 0.86334
  -1   4   2 4298.60  159.70  20 0.43309-0.48172 0.05299 0.42554 0.99085-0.87956
  -1   4   2 3570.80  151.10 143 0.24391-0.29267 0.51489-0.03606-0.70179 0.81310
  -1  -4   2 4297.90  150.20  15 0.51098-0.55960-0.07300-0.40553 0.97459-0.86330
   1  -4  -2 3623.60  149.10   4 0.65056-0.60193-0.37833-0.10020 0.83134-0.94263
   1  -4  -2 4594.00  158.40 110-0.43298 0.48160-0.05296-0.42557-0.99086 0.87957
   1  -4  -2 4003.80  170.10 160 0.52335-0.47460 0.03052-0.50935-0.64125 0.52994
   1   4  -117958.70  608.00  31 0.20652-0.13544 0.34640 0.13214 0.93322-0.97398
  -1   4   116576.50  612.20  24 0.34894-0.42001 0.17234 0.30620 0.98432-0.94356
  -1  -4   119206.80  648.80 121-0.20635 0.13527-0.34643-0.13211-0.93319 0.97395
   1  -4  -115991.80  634.60   9 0.60707-0.53599-0.26378-0.21475 0.90383-0.94459
   1  -4  -118521.60  576.90 114-0.34882 0.41989-0.17231-0.30622-0.98433 0.94357
   1   4   0 7491.50  277.90  24 0.34200-0.24847 0.18157 0.29697 0.98290-0.95313
   1   4   0 7469.80  254.20 156 0.46693-0.37338 0.15734 0.32150-0.67682 0.70653
  -1   4   0 7325.20  264.60  29 0.24940-0.34292 0.29715 0.18138 0.95313-0.98290
  -1  -4   0 7094.40  263.50   4 0.64959-0.74311-0.37536-0.10317 0.83354-0.86331
  -1  -4   0 8254.00  280.00 114-0.34183 0.24831-0.18160-0.29694-0.98290 0.95313
   1  -4   0 6927.20  253.30  13 0.54845-0.45493-0.14122-0.33732 0.95588-0.92611
   1  -4   0 8363.60  281.40 119-0.24927 0.34280-0.29712-0.18141-0.95313 0.98290
   1  -4   0 6525.30  258.70 165 0.58126-0.48771-0.13500-0.34384-0.57627 0.60598
   1   4   1  565.50   40.10  19 0.45210-0.33613 0.02384 0.45469 0.98918-0.88888
   1   4   1  607.60   41.70 152 0.40029-0.28435 0.28290 0.19594-0.69935 0.79957
  -1   4  -1  530.80   40.10  33 0.14052-0.25650 0.41748 0.06105 0.89579-0.99609
  -1   4  -1  485.80   33.70 171 0.62837-0.74419 0.49385-0.01548 0.76934-0.86937
  -1  -4  -1  548.10   34.80 109-0.45195 0.33598-0.02386-0.45467-0.98920 0.88890
   1  -4   1  513.90   38.10  17 0.47912-0.36314-0.01926-0.45927 0.98440-0.88410
   1   4   2 5081.00  182.10  14 0.53200-0.39357-0.11051 0.58904 0.96518-0.79435
   1   4   2 5539.60  211.70 147 0.30966-0.17132 0.42599 0.05284-0.70771 0.87844
  -1   4  -2 5253.20  201.40  38 0.03019-0.16862 0.52448-0.04595 0.81624-0.98707
  -1   4  -2 4762.00  193.40 175 0.57588-0.71403 0.59923-0.12086 0.71008-0.88049
  -1  -4  -2 6006.40  196.90 104-0.53187 0.39344 0.11050-0.58903-0.96521 0.79439
   1  -4   2 4979.30  205.50  21 0.40571-0.26728 0.09346-0.57199 0.99106-0.82023
   1   4   3  749.20   47.10  10 0.58561-0.42474-0.21601 0.69454 0.92705-0.68569
   1   4   3  683.90   39.10 141 0.19344-0.03271 0.57611-0.09727-0.69159 0.93282
  -1   4  -3  719.60   49.10  42-0.07457-0.08631 0.61298-0.13445 0.72193-0.96328
  -1   4  -3  768.10   45.30 178 0.51633-0.67680 0.69223-0.21386 0.64195-0.88273
  -1  -4  -3  841.80   39.10 100-0.58549 0.42462 0.21601-0.69454-0.92709 0.68574
  -1  -4  -3  659.30   46.00 166 0.59362-0.75435-0.17902-0.29981-0.55541 0.31417
   1  -4   3  624.60   39.40  25 0.33484-0.17397 0.19099-0.66952 0.98131-0.73995
   1   4   4 1478.40   75.40   7 0.61999-0.43667-0.29478 0.77331 0.88665-0.57477
   1   4   4 1291.70   61.80 135 0.05550 0.12763 0.71634-0.23750-0.64190 0.95364
  -1   4  -4 1332.80   86.20  46-0.16933-0.01399 0.68192-0.20339 0.62065-0.93253
  -1  -4  -4 1522.80   69.70  97-0.61988 0.43656 0.29479-0.77332-0.88670 0.57482
  -1  -4  -4 1224.40   62.70 164 0.57602-0.75915-0.11763-0.36121-0.58408 0.27234
   1  -4   4 1094.30   62.70  28 0.27131-0.08799 0.27098-0.74952 0.96188-0.65000
   1   4   5 2404.90  101.70   5 0.64156-0.43579-0.35180 0.83033 0.85040-0.46799
   1   4   5 1949.40   91.90 128-0.09390 0.29942 0.82723-0.34840-0.55510 0.93735
  -1   4  -5 2446.30  116.70  50-0.25241 0.04664 0.73301-0.25448 0.51845-0.90087
  -1  -4  -5 2657.60  105.30  95-0.64145 0.43568 0.35181-0.83034-0.85045 0.46804
  -1  -4  -5 2364.10  107.00 163 0.55788-0.76340-0.06188-0.41695-0.60756 0.22532
   1   4   6 1137.00   59.70   4 0.65494-0.42672-0.39208 0.87061 0.82088-0.36793
  -1   4  -6 1103.80   62.00  53-0.32398 0.09576 0.76914-0.29061 0.41910-0.87204
  -1  -4  -6 1328.20   67.70  94-0.65484 0.42662 0.39210-0.87063-0.82093 0.36798
  -1  -4  -6  990.30   56.20 161 0.54092-0.76884-0.01466-0.46418-0.62559 0.17284
   1   4   7 2057.70  125.20   3 0.66316-0.41249-0.41971 0.89824 0.79858-0.27511
  -1   4  -7 1880.90   78.70  56-0.38516 0.13449 0.79326-0.31473 0.32445-0.84793
  -1  -4  -7 2268.50  114.90  93-0.66306 0.41239 0.41974-0.89827-0.79863 0.27515
  -1  -4  -7 1787.30   93.50 160 0.52706-0.77736 0.02127-0.50011-0.63817 0.11491
   1   4   8  -12.60   25.20   2 0.66807-0.39495-0.43774 0.91627 0.78307-0.18907
  -1   4  -8  -11.80   24.10  59-0.43740 0.16428 0.80792-0.32939 0.23514-0.82915
  -1  -4  -8   18.20   32.90  92-0.66797 0.39485 0.43777-0.91631-0.78312 0.18912
   1   4   9  641.20   62.80   1 0.67078-0.37521-0.44834 0.92688 0.77358-0.10905
  -1   4  -9  585.90   56.30  61-0.48206 0.18649 0.81512-0.33658 0.15110-0.81564
  -1  -4  -9  708.00   58.20  91-0.67068 0.37511 0.44838-0.92692-0.77362 0.10909
   1   4  10  304.20   38.20   1 0.67194-0.35392-0.45307 0.93161 0.76926-0.03420
  -1   4 -10  326.00   51.30  64-0.52037 0.20236 0.81634-0.33781 0.07193-0.80699
  -1  -4 -10  322.90   44.30  91-0.67185 0.35383 0.45312-0.93165-0.76930 0.03424
  -1   5  10  342.50   42.40   8 0.61205-0.48108-0.27550 0.87366 0.89754-0.22202
   1  -5 -10  431.40   45.20  98-0.61195 0.48098 0.27554-0.87371-0.89757 0.22205
  -1   5   9  128.90   32.40   9 0.60409-0.49557-0.25689 0.85505 0.90742-0.30243
   1  -5  -9  158.20   28.90  99-0.60399 0.49547 0.25693-0.85510-0.90745 0.30246
  -1   5   8  840.00   61.10  10 0.59251-0.50644-0.23094 0.82910 0.92021-0.38574
   1  -5  -8  865.40   64.10 100-0.59241 0.50634 0.23098-0.82915-0.92024 0.38577
   1  -5  -8  697.00   48.60 155 0.46176-0.54736 0.16788-0.76643-0.67921 0.14487
  -1   5   7  167.10   42.50  11 0.57629-0.51267-0.19643 0.79459 0.93546-0.47153
   1  -5  -7  205.00   32.90 101-0.57619 0.51257 0.19647-0.79463-0.93549 0.47155
   1  -5  -7  115.90   23.80 156 0.47341-0.53663 0.14390-0.74244-0.67364 0.20981
   1   5  -6  851.70   55.30  54-0.33377 0.29260 0.77345-0.17528 0.40460-0.79801
  -1   5   6  888.70   63.10  13 0.55408-0.51291-0.15203 0.75019 0.95226-0.55885
   1  -5  -6 1132.10   64.10 103-0.55398 0.51281 0.15206-0.75023-0.95229 0.55888
   1  -5  -6  856.30   49.00 157 0.48851-0.52933 0.11158-0.71012-0.66542 0.27209
   1   5  -5  125.10   19.60  50-0.25658 0.23786 0.73533-0.13717 0.51297-0.83584
   1   5  -5  153.50   24.60 178 0.51781-0.53594 0.69017-0.09221 0.64365-0.96587
  -1   5   5  172.70   35.90  15 0.52425-0.50553-0.09648 0.69464 0.96895-0.64607
   1  -5  -5  171.60   33.10 105-0.52414 0.50542 0.09651-0.69467-0.96897 0.64609
   1  -5  -5  198.50   34.30 158 0.50628-0.52471 0.07148-0.67002-0.65409 0.33127
   1   5  -4  323.40   29.50  46-0.16570 0.16943 0.67948-0.08131 0.62482-0.87717
   1   5  -4  350.90   40.10 175 0.57420-0.57000 0.60220-0.00423 0.70817-0.96001
  -1   5   4  350.90   35.60  17 0.48498-0.48870-0.02889 0.62706 0.98296-0.73061
  -1  -5   4  251.80   26.80  19 0.44230-0.44603 0.03898-0.63714 0.99020-0.73785
   1  -5  -4  401.20   32.10 107-0.48486 0.48859 0.02892-0.62708-0.98298 0.73063
   1  -5  -4  319.80   34.50 160 0.52584-0.52187 0.02434-0.62288-0.63920 0.38688
   1   5  -3  665.60   42.70  42-0.06165 0.08783 0.60275-0.00459 0.73454-0.91636
   1   5  -3  648.10   49.00 171 0.62333-0.59681 0.50528 0.09269 0.76370-0.94517
  -1   5   3  673.70   43.60  20 0.43456-0.46074 0.05077 0.54739 0.99076-0.80894
  -1  -5   3  576.20   39.70  16 0.50782-0.53400-0.06752-0.53064 0.97578-0.79397
   1  -5  -3  798.60   53.10 110-0.43444 0.46062-0.05075-0.54742-0.99078 0.80896
   1  -5  -3  526.00   58.40 161 0.54618-0.51981-0.02887-0.56967-0.62034 0.43854
   1   5  -2 5483.50  204.50  37 0.05201-0.00338 0.50445 0.09371 0.83360-0.94489
   1   5  -2 5467.10  211.00 168 0.66369-0.61484 0.40242 0.19555 0.80851-0.91960
  -1   5   2 5608.90  220.50  23 0.37194-0.42056 0.14114 0.45703 0.98814-0.87685
  -1  -5   2 5064.80  213.10  11 0.56986-0.61848-0.18325-0.41491 0.94077-0.82948
   1  -5  -2 6202.70  212.80 113-0.37181 0.42044-0.14112-0.45705-0.98815 0.87686
   1  -5  -2 4992.70  208.60 163 0.56630-0.51754-0.08697-0.51158-0.59729 0.48599
   1   5  -1 1285.80   57.60  32 0.16821-0.09714 0.38833 0.20984 0.91246-0.95322
  -1   5   1 1328.50   73.70  26 0.29729-0.36837 0.23904 0.35912 0.97093-0.93017
  -1  -5   1 1134.10   60.70   7 0.62214-0.69322-0.30014-0.29802 0.88351-0.84274
  -1  -5   1 1388.00   65.30 122-0.16804 0.09696-0.38835-0.20981-0.91242 0.95318
   1  -5  -1 1552.10   72.80 116-0.29717 0.36824-0.23902-0.35914-0.97093 0.93017
   1  -5  -1 1170.30   68.00 165 0.58523-0.51407-0.14863-0.44992-0.56998 0.52918
   1   5   0  670.40   41.40  27 0.27793-0.18441 0.26294 0.33523 0.96433-0.93456
  -1   5   0  727.40   49.50  30 0.21255-0.30607 0.33963 0.25854 0.93623-0.96600
  -1   5   0  686.10   48.60 168 0.66119-0.75468 0.40967 0.18829 0.80577-0.83543
  -1  -5   0  797.00   42.20 117-0.27777 0.18425-0.26296-0.33520-0.96431 0.93455
   1  -5   0  777.50   46.70 120-0.21242 0.30594-0.33961-0.25856-0.93623 0.96599
   1   5   1 2484.10  114.90  23 0.37338-0.25740 0.13915 0.45901 0.98833-0.88803
  -1   5  -1 2523.90  112.00  34 0.12128-0.23725 0.43719 0.16098 0.88341-0.98371
  -1   5  -1 2380.50  105.50 171 0.62492-0.74073 0.50172 0.09624 0.76547-0.86550
  -1  -5  -1 2659.40  103.50 113-0.37322 0.25725-0.13917-0.45899-0.98833 0.88804
   1   5   2  228.50   25.70  19 0.45052-0.31210 0.02629 0.57187 0.98937-0.81854
  -1   5  -2  247.90   30.30  38 0.02798-0.16640 0.52648 0.07168 0.81444-0.98527
  -1   5  -2  228.60   41.30 174 0.58141-0.71955 0.58936 0.00860 0.71637-0.88678
  -1  -5  -2  297.70   28.90 109-0.45038 0.31196-0.02631-0.57185-0.98939 0.81856
   1   5   3 2823.30  135.90  16 0.50939-0.34852-0.07025 0.66842 0.97519-0.73384
  -1   5  -3 2642.50  128.00  42-0.06302-0.09785 0.60385-0.00569 0.73322-0.97457
  -1   5  -3 2597.80  108.50 177 0.53182-0.69229 0.67013-0.07216 0.65974-0.90053
  -1  -5  -3 3309.70  141.50 106-0.50926 0.34839 0.07024-0.66841-0.97523 0.73387
   1   5   4 2473.90  107.10  13 0.55253-0.36921-0.14903 0.74719 0.95328-0.64139
  -1   5  -4 2726.20  151.20  45-0.14843-0.03490 0.66765-0.06949 0.64434-0.95623
  -1   5  -4 2449.70  110.00 180 0.47755-0.66034 0.74233-0.14436 0.59721-0.90837
  -1  -5  -4 3182.20  130.40 103-0.55241 0.36909 0.14903-0.74719-0.95332 0.64143
   1   5   5  282.20   38.90  10 0.58331-0.37754-0.21112 0.80928 0.92921-0.54679
  -1   5  -5  223.70   38.60  49-0.22629 0.02052 0.71795-0.11979 0.55202-0.93443
  -1  -5  -5  425.70   48.20 100-0.58319 0.37742 0.21113-0.80929-0.92925 0.54684
  -1  -5  -5  296.20   29.70 167 0.59927-0.80478-0.20087-0.39767-0.54447 0.16223
   1   5   6  974.10   60.60   9 0.60488-0.37666-0.25872 0.85689 0.90648-0.45353
  -1   5  -6  917.90   52.60  52-0.29590 0.06768 0.75591-0.15774 0.45943-0.91238
  -1  -5  -6 1305.90   71.80  99-0.60477 0.37655 0.25874-0.85690-0.90652 0.45358
   1   5   7  122.60   34.00   7 0.61978-0.36911-0.29426 0.89242 0.88696-0.36348
  -1   5  -7   69.90   35.00  55-0.35735 0.10668 0.78314-0.18498 0.36870-0.89217
  -1  -5  -7  108.80   35.40  97-0.61968 0.36901 0.29428-0.89244-0.88700 0.36353
   1   5   8   77.70   34.30   6 0.62986-0.35674-0.31990 0.91807 0.87144-0.27744
  -1   5  -8   87.70   35.60  57-0.41122 0.13811 0.80133-0.20317 0.28098-0.87498
  -1  -5  -8   85.90   37.70  96-0.62975 0.35663 0.31993-0.91809-0.87149 0.27749
   1   5   9   46.70   29.80   6 0.63641-0.34085-0.33746 0.93562 0.86011-0.19558
  -1   5  -9   55.20   29.50  60-0.45830 0.16273 0.81197-0.21381 0.19680-0.86133
  -1  -5  -9   56.20   37.50  96-0.63631 0.34074 0.33748-0.93565-0.86015 0.19562
  -1   6   8  465.00   56.00  14 0.53848-0.45241-0.12246 0.84026 0.96173-0.42726
   1  -6  -8  638.30   57.50 104-0.53838 0.45231 0.12250-0.84030-0.96175 0.42729
  -1   6   7  148.80   28.90  15 0.51856-0.45494-0.08633 0.80412 0.97149-0.50755
   1  -6  -7  190.70   34.70 105-0.51845 0.45483 0.08636-0.80415-0.97151 0.50758
   1  -6  -7  106.60   22.50 161 0.54064-0.60385-0.01389-0.70436-0.62587 0.16203
   1   6  -6   78.40   36.20 181 0.46684-0.50729 0.75497-0.03742 0.58482-0.97742
  -1   6   6   14.80   37.80  17 0.49275-0.45158-0.04184 0.75964 0.98080-0.58739
   1  -6  -6   34.20   37.00 107-0.49264 0.45147 0.04187-0.75967-0.98082 0.58742
   1  -6  -6    5.70   32.40 162 0.54922-0.59004-0.03726-0.68099-0.61717 0.22384
   1   6  -5  156.20   33.10 178 0.52076-0.53889 0.68605 0.03151 0.64704-0.96926
  -1   6   5  170.40   35.80  18 0.45998-0.44126 0.01149 0.70631 0.98809-0.66521
   1  -6  -5  138.20   38.60 108-0.45986 0.44114-0.01146-0.70634-0.98811 0.66523
   1  -6  -5  131.50   34.40 163 0.55966-0.57808-0.06708-0.65117-0.60548 0.28265
   1   6  -4   27.50   26.20 175 0.56968-0.56548 0.61003 0.10753 0.70302-0.95487
  -1   6   4   71.60   32.30  21 0.41919-0.42291 0.07375 0.64405 0.99126-0.73891
   1  -6  -4    0.50   33.40 111-0.41907 0.42280-0.07373-0.64407-0.99128 0.73893
   1  -6  -4   41.30   36.00 164 0.57133-0.56736-0.10259-0.61567-0.59066 0.33834
   1   6  -3  243.60   36.90 172 0.61261-0.58609 0.52854 0.18901 0.75165-0.93312
  -1   6   3  159.80   28.40  23 0.36958-0.39576 0.14438 0.57342 0.98781-0.80599
   1  -6  -3  287.50   30.60 113-0.36946 0.39564-0.14436-0.57344-0.98782 0.80600
   1  -6  -3  273.10   36.40 165 0.58360-0.55723-0.14298-0.57528-0.57260 0.39079
   1   6  -2 1287.40   78.60 169 0.64880-0.59996 0.44369 0.27386 0.79210-0.90319
  -1   6   2 1327.60   71.40  26 0.31090-0.35953 0.22189 0.49590 0.97507-0.86378
   1  -6  -2 1636.00   74.10 116-0.31077 0.35940-0.22188-0.49592-0.97507 0.86379
   1  -6  -2 1394.50  101.50 166 0.59582-0.54707-0.18740-0.53086-0.55126 0.43996
   1   6  -1  852.10   44.30  34 0.12197-0.05089 0.43649 0.28131 0.88387-0.92463
  -1   6   1  927.00   50.80  29 0.24367-0.31475 0.30387 0.41393 0.95068-0.90992
   1  -6  -1  982.60   49.00 119-0.24354 0.31462-0.30385-0.41395-0.95068 0.90992
   1   6   0 2023.80  105.80  30 0.21488-0.12135 0.33699 0.38080 0.93738-0.90761
  -1   6   0 2147.90  100.10  32 0.16939-0.26292 0.38706 0.33074 0.91314-0.94291
  -1   6   0 2404.00  151.00 170 0.64672-0.74021 0.44913 0.26842 0.78978-0.81944
  -1  -6   0 2431.60   97.10 120-0.21471 0.12118-0.33702-0.38078-0.93735 0.90759
   1  -6   0 2457.90  114.60 122-0.16926 0.26278-0.38705-0.33075-0.91313 0.94290
   1   6   1 1638.70   86.80  26 0.29894-0.18297 0.23698 0.48082 0.97145-0.87116
  -1   6  -1 1881.10   84.10  35 0.09039-0.20637 0.46788 0.24992 0.86221-0.96250
  -1   6  -1 1710.80   78.00 172 0.61421-0.73003 0.52515 0.19240 0.75345-0.85348
  -1  -6  -1 1956.70   90.50 116-0.29878 0.18281-0.23700-0.48080-0.97145 0.87115
   1   6   2  159.20   29.40  23 0.37118-0.23276 0.14218 0.57562 0.98803-0.81721
  -1   6  -2  228.60   27.00  39 0.00950-0.14792 0.54297 0.17483 0.79905-0.96988
  -1   6  -2  204.60   44.90 175 0.57608-0.71423 0.59888 0.11868 0.71031-0.88072
  -1  -6  -2  202.80   21.90 113-0.37103 0.23261-0.14219-0.57560-0.98804 0.81721
   1   6   3  221.90   28.00  20 0.43061-0.26973 0.05674 0.66106 0.99097-0.74961
  -1   6  -3  116.50   24.90  42-0.07047-0.09040 0.60976 0.10804 0.72595-0.96731
  -1   6  -3  149.30   31.90 177 0.53289-0.69335 0.66856 0.04900 0.66096-0.90174
  -1  -6  -3  218.50   28.00 110-0.43046 0.26959-0.05675-0.66105-0.99099 0.74963
  -1   6  -4  360.60   44.40  45-0.14715-0.03617 0.66676 0.05103 0.64576-0.95765
  -1   6  -4  389.50   56.10 180 0.48536-0.66815 0.73279-0.01524 0.60624-0.91740
  -1  -6  -4  386.50   45.40 107-0.47769 0.29436 0.01714-0.73493-0.98473 0.67284
  -1   6  -5  348.40   43.20  48-0.21886 0.01309 0.71350 0.00430 0.56132-0.94373
  -1  -6  -5  455.80   40.20 105-0.51423 0.30846 0.07892-0.79672-0.97328 0.59086
  -1  -6  -6  529.10   63.60 103-0.54194 0.31372 0.12914-0.84694-0.95974 0.50680
  -1  -6  -7    9.40   27.40 102-0.56258 0.31191 0.16891-0.88670-0.94628 0.42281
   1   7  -5  846.60   75.30 178 0.51335-0.53148 0.69634 0.14081 0.63852-0.96074
   1  -7  -5  901.20   61.70 112-0.39233 0.37360-0.11244-0.72499-0.99032 0.66745
   1  -7  -5  659.60   70.80 166 0.59583-0.61426-0.18743-0.65053-0.55125 0.22842
   1   7  -4  108.70   44.70 176 0.55738-0.55318 0.63059 0.20656 0.68900-0.94084
   1  -7  -4  124.00   28.70 114-0.35137 0.35510-0.16890-0.66853-0.98482 0.73247
   1   7  -3  931.80   62.30 173 0.59641-0.56989 0.56128 0.27586 0.73336-0.91483
  -1   7   3  706.00   61.50  26 0.30352-0.32969 0.23123 0.60620 0.97288-0.79106
   1  -7  -3 1067.00   65.80 116-0.30339 0.32956-0.23122-0.60621-0.97288 0.79106
   1   7  -2  146.10   33.60 171 0.63006-0.58121 0.48994 0.34720 0.77123-0.88232
  -1   7   2   33.40   32.80  29 0.24861-0.29724 0.29808 0.53935 0.95280-0.84151
   1  -7  -2   65.40   34.80 119-0.24848 0.29710-0.29806-0.53937-0.95279 0.84150
   1   7  -1 1164.30   89.20 169 0.65819-0.58702 0.41821 0.41894 0.80246-0.84318
  -1   7   1 1203.70   73.60 169 0.65385-0.72501 0.43022 0.40692 0.79767-0.75696
   1  -7  -1 1303.90   68.40 121-0.18725 0.25833-0.36756-0.46987-0.92318 0.88242
  -1   7   0  952.40   56.30 171 0.62832-0.72181 0.49397 0.34318 0.76928-0.79894
  -1  -7   0  902.80   53.20 123-0.15028 0.05676-0.40715-0.43028-0.90189 0.87212
  -1   7  -1  592.00   59.90 173 0.59816-0.71398 0.55787 0.27928 0.73535-0.83538
  -1  -7  -1  620.20   42.50 120-0.22539 0.10941-0.32487-0.51256-0.94248 0.84218
  -1   7  -2   40.20   45.00 175 0.56346-0.70161 0.62055 0.21660 0.69594-0.86635
  -1  -7  -2   23.40   30.60 117-0.29246 0.15404-0.24488-0.59255-0.96940 0.79858
  -1   7  -3   -0.50   39.30 178 0.52450-0.68497 0.68074 0.15641 0.65133-0.89212
  -1  -7  -3   -3.10   24.10 114-0.35033 0.18946-0.17029-0.66715-0.98462 0.74327
  -1   7  -4 1093.80   67.70 180 0.48168-0.66447 0.73732 0.09983 0.60199-0.91315
  -1  -7  -4 1233.70   74.20 112-0.39882 0.21550-0.10318-0.73426-0.99076 0.67887
   2   0 -13  571.90   43.90  83-0.69113 0.58634 0.62807-0.62807-0.55898-0.29837
   2   0 -12   24.70   24.40  82-0.68999 0.60765 0.64185-0.64185-0.53680-0.25001
   2   0 -11   14.50   38.20  81-0.68858 0.62868 0.65361-0.65361-0.51694-0.19935
   2   0 -10 7879.10  268.50  81-0.68710 0.64966 0.66314-0.66314-0.50014-0.14562
   2   0  -9 4955.10  209.40  80-0.68583 0.67083 0.67008-0.67008-0.48750-0.08773
   2   0  -8  270.10   30.00  80-0.68509 0.69254 0.67372-0.67372-0.48070-0.02400
  -2   0   8  302.40   33.70  63-0.51535 0.50790 0.81648-0.81649 0.08274 0.42196
   2   0  -7  521.50   37.10  80-0.68527 0.71518 0.67283-0.67283-0.48238 0.04821
  -2   0   7  527.00   34.70  65-0.54521 0.51531 0.81406-0.81406 0.01619 0.41798
   2   0  -6 7309.50  262.10  81-0.68679 0.73915 0.66490-0.66490-0.49696 0.13332
  -2   0   6 8012.10  303.60  67-0.57696 0.52460 0.80657-0.80657-0.06163 0.42527
   2   0  -5 2498.60  100.30  82-0.68970 0.76450 0.64461-0.64461-0.53222 0.23911
  -2   0   5 2854.80  119.90  70-0.61150 0.53670 0.79030-0.79030-0.15796 0.45107
   2   0  -411562.10  425.20  84-0.69191 0.78916 0.59904-0.59904-0.60228 0.37970
  -2   0   412038.70  410.60  74-0.64917 0.55192 0.75592-0.75592-0.28688 0.50946
   2   0  -3  642.20   37.70  89-0.68054 0.80024 0.49291-0.49291-0.73055 0.57850
  -2   0   3  681.40   32.50  80-0.68458 0.56488 0.67608-0.67608-0.47625 0.62830
  -2   0   2 4834.20  163.80  10 0.59230-0.73445-0.23048 0.23048 0.92042-0.83890
   2   0  -1 3546.30  145.70  19 0.45710-0.29250 0.01601-0.01601 0.98851-0.99951
   2   0  -1 3857.50  145.90 117-0.27947 0.44406-0.26089 0.26089-0.96493 0.95393
   2   0  -1 3682.40  137.40 127-0.11822 0.28292 0.84128-0.84128-0.53775 0.52667
  -2   0   1 3434.30  136.30  27 0.27944-0.44404 0.26109-0.26109 0.96487-0.95388
   2   0   0  356.00   24.00  35 0.09352 0.09352 0.46482-0.46482 0.86443-0.80489
  -2   0   0  420.50   25.80 128-0.09355-0.09355 0.82702-0.82702-0.55535 0.49592
   2   0   2  954.40   46.80  49-0.22547 0.45741 0.71746-0.71746 0.55306-0.35246
  -2   0  -2  966.20   46.80  57-0.40784 0.17590 0.80037-0.80037 0.28673-0.48733
  -2   0  -2  886.10   50.40 148 0.34154-0.57342 0.37866-0.37866-0.70719 0.50675
   2   0   3  195.80   18.30  51-0.27374 0.52814 0.74460-0.74460 0.49001-0.21888
  -2   0  -3  179.50   22.00  61-0.47253 0.21813 0.81405-0.81405 0.16972-0.44084
  -2   0  -3  168.10   16.50 156 0.47839-0.73266 0.13341-0.13341-0.67107 0.40012
  -2   0  -419330.50  650.40  63-0.51666 0.23981 0.81646-0.81646 0.07995-0.42160
  -2   0  -5 2358.00  118.70  66-0.54955 0.25025 0.81337-0.81337 0.00602-0.41821
  -2   0  -5 2062.10   92.60 164 0.57244-0.87150-0.10610 0.10610-0.58913 0.17717
  -2   0  -6 7709.30  295.90  67-0.57557 0.25383 0.80702-0.80702-0.05805-0.42466
  -2   0  -6 6425.90  260.00 165 0.58467-0.90612-0.14668 0.14668-0.57089 0.08842
  -2   0  -7 1635.80   87.10  69-0.59698 0.25279 0.79841-0.79841-0.11565-0.43760
  -2   0  -7 1406.30   71.30 166 0.58839-0.93224-0.15981 0.15981-0.56470 0.01173
  -2   0  -9   51.30   26.60  72-0.63050 0.24141 0.77596-0.77596-0.21868-0.47562
  -2   0 -10  357.50   50.20  73-0.64383 0.23228 0.76243-0.76243-0.26624-0.49859
  -2   0 -11  173.20   36.50  75-0.65531 0.22132 0.74744-0.74744-0.31200-0.52336
  -2   0 -12    1.80   33.40  76-0.66513 0.20868 0.73097-0.73097-0.35639-0.54950
   2   1 -13  255.00   38.40  80-0.68470 0.57991 0.67551-0.55587-0.47733-0.38001
   2  -1 -13  382.50   48.30  86-0.69082 0.58603 0.57036-0.68999-0.64114-0.21620
   2  -1 -13  449.40   43.60 128-0.09606-0.00798 0.82852-0.94823-0.55360-0.30357
   2   1 -12   48.50   25.50  79-0.68062 0.59828 0.69175-0.57212-0.44541-0.34141
   2  -1 -12   41.20   37.50  85-0.69140 0.60906 0.58062-0.70026-0.62764-0.15917
   2  -1 -12    8.00   30.30 127-0.11803 0.03639 0.84118-0.96088-0.53789-0.24877
   2   1 -11  706.10   50.00  78-0.67585 0.61596 0.70650-0.58687-0.41415-0.30214
   2  -1 -11  715.20   52.90  85-0.69169 0.63180 0.58805-0.70769-0.61759-0.09869
   2  -1 -11  765.70   42.80 126-0.13616 0.07692 0.85090-0.97061-0.52435-0.19180
   2   1 -10  868.70   51.60  77-0.67051 0.63307 0.71980-0.60017-0.38379-0.26197
   2  -1 -10 1025.30   64.00  85-0.69180 0.65436 0.59213-0.71177-0.61197-0.03379
   2  -1 -10 1015.70   55.70 125-0.15010 0.11325 0.85793-0.97764-0.51359-0.13206
   2   1  -9 1078.90   63.90  76-0.66477 0.64978 0.73164-0.61201-0.35468-0.22055
  -2  -1   9 1039.60   58.00  56-0.37925 0.39424 0.79123-0.91087 0.33405 0.24118
  -2  -1   9 1084.30   52.10 181 0.45926-0.44533 0.76365-0.88324 0.57604-0.00197
   2  -1  -9 1205.20   63.70  85-0.69180 0.67681 0.59203-0.71166-0.61211 0.03689
   2  -1  -9 1293.10   67.30 125-0.15924 0.14478 0.86232-0.98203-0.50635-0.06879
   2   1  -8  544.80   41.20  75-0.65886 0.66631 0.74196-0.62233-0.32737-0.17733
  -2  -1   8  599.60   42.80  57-0.39793 0.39047 0.79739-0.91703 0.30342 0.20128
  -2  -1   8  701.80   37.50 181 0.46361-0.47200 0.75870-0.87829 0.58108-0.07738
   2  -1  -8  563.20   46.60  85-0.69164 0.69909 0.58638-0.70601-0.61988 0.11518
   2  -1  -8  724.00   39.20 125-0.16264 0.17058 0.86392-0.98362-0.50363-0.00100
   2   1  -7  198.10   29.60  75-0.65311 0.68301 0.75062-0.63099-0.30280-0.13137
  -2   1   7  218.60   25.80  71-0.62117 0.59126 0.78361-0.66398-0.18798 0.62215
  -2  -1   7  197.00   24.30  58-0.41505 0.38514 0.80239-0.92203 0.27443 0.15974
  -2  -1   7  199.80   24.60 180 0.47873-0.50944 0.74090-0.86049 0.59858-0.16526
   2  -1  -7  210.90   30.10  86-0.69098 0.72089 0.57289-0.69252-0.63785 0.20369
   2  -1  -7  213.30   24.80 125-0.15886 0.18919 0.86214-0.98185-0.50666 0.07253
   2   1  -6  962.90   49.20  74-0.64811 0.70046 0.75727-0.63764-0.28269-0.08095
  -2   1   6 1069.40   47.00  74-0.65006 0.59770 0.75476-0.63513-0.29041 0.65405
  -2  -1   6 1056.30   50.20  58-0.43013 0.37777 0.80625-0.92589 0.24811 0.11553
  -2  -1   6 1190.30   56.20 178 0.50986-0.56290 0.70110-0.82069 0.63450-0.27156
   2  -1  -6 1014.40   53.40  87-0.68882 0.74118 0.54760-0.66723-0.66958 0.30594
   2  -1  -6 1066.40   62.40 126-0.14572 0.19844 0.85576-0.97547-0.51700 0.15339
   2   1  -5  641.60   37.50  74-0.64498 0.71978 0.76109-0.64146-0.27060-0.02251
  -2   1   5  657.90   31.50  78-0.67544 0.60063 0.70764-0.58801-0.41164 0.70475
  -2  -1   5  736.90   33.20  59-0.44213 0.36733 0.80894-0.92857 0.22660 0.06651
  -2  -1   5  688.10   32.90 175 0.56433-0.63969 0.61911-0.73870 0.69692-0.40436
   2  -1  -5  678.40   43.30  89-0.68249 0.75729 0.50349-0.62312-0.71950 0.42639
   2  -1  -5  630.00   38.50 127-0.11996 0.19508 0.84224-0.96195-0.53647 0.24336
   2   1  -4 3495.60  139.10  74-0.64618 0.74343 0.75966-0.64002-0.27519 0.05261
  -2   1   4 3495.50  138.90   2 0.66545-0.76270-0.42796 0.54759 0.79158-0.56900
  -2   1   4 3853.10  140.50  83-0.69102 0.59377 0.62976-0.51013-0.55632 0.77890
  -2  -1   4 3944.40  159.60  59-0.44840 0.35114 0.81019-0.92983 0.21517 0.00741
  -2  -1   4 3730.30  147.50 170 0.64642-0.74411 0.44990-0.56949 0.78945-0.56726
   2  -1  -4 3564.90  143.10  92-0.66537 0.76262 0.42806-0.54769-0.79157 0.56899
   2  -1  -4 3650.90  147.50 129-0.07687 0.17438 0.81671-0.93642-0.56670 0.34410
   2   1  -3 2201.70   85.20  75-0.65822 0.77792 0.74298-0.62335-0.32455 0.17250
   2   1  -3 2134.50   84.50 176 0.55647-0.43645 0.63208-0.51248 0.68795-0.83976
  -2   1   3 2083.40   80.00   7 0.62242-0.74212-0.30084 0.42047 0.88309-0.73104
  -2   1   3 2390.40   93.80  89-0.68191 0.56221 0.50025-0.38062-0.72292 0.87497
  -2   1   3 2287.00   90.20 124-0.17992 0.06001 0.87163-0.75192-0.48948 0.64158
   2  -1  -3 2176.80   90.10  97-0.62235 0.74205 0.30095-0.42058-0.88309 0.73104
   2  -1  -3 2271.80   94.90 132-0.01019 0.13010 0.77025-0.88996-0.60788 0.45578
  -2   1   217993.70  670.00  14 0.52612-0.66827-0.09984 0.21947 0.96807-0.88655
  -2   1   218655.40  616.00  97-0.61997 0.47782 0.29501-0.17538-0.88657 0.96809
  -2   1   219084.90  642.20 129-0.06006-0.08224 0.80579-0.68608-0.57772 0.65931
   2  -1  -217898.60  638.40   7 0.62004-0.47789-0.29491 0.17528 0.88658-0.96810
   2  -1  -218634.40  690.20 104-0.52605 0.66820 0.09995-0.21958-0.96807 0.88655
   2  -1  -217311.30  617.80 136 0.08637 0.05593 0.68820-0.80790-0.65563 0.57404
  -2   1   1 9210.60  310.30  24 0.35443-0.51903 0.16498-0.04534 0.98536-0.97437
  -2   1   1 9421.40  318.30 107-0.48017 0.31557 0.02119 0.09845-0.98415 0.99514
  -2   1   1 9983.30  335.20 136 0.07736-0.24205 0.69660-0.57689-0.65177 0.66285
   2  -1  -1 9376.00  331.40  17 0.48023-0.31563-0.02108-0.09855 0.98414-0.99513
  -2   1   025769.20  897.40  33 0.13734-0.32439 0.42077-0.30114 0.89379-0.95332
   2   1   211216.40  427.20  59-0.44936 0.68131 0.81038-0.69075 0.21339-0.01280
  -2   1  -212010.60  432.80  48-0.20938-0.02257 0.70770-0.58807 0.57304-0.77363
  -2   1  -210415.90  448.40 153 0.43335-0.66523 0.22324-0.10353-0.69029 0.48985
  -2  -1  -212336.00  428.30  70-0.61277 0.38083 0.78948-0.90911-0.16182-0.03878
   2  -1   212176.50  467.10  39-0.00634 0.23828 0.55678-0.67641 0.78542-0.58483
   2  -1   210331.90  381.20 165 0.58044-0.34856-0.13225 0.01254-0.57752 0.77796
   2   1   3 1529.50   75.20  59-0.44649 0.70089 0.80982-0.69019 0.21866 0.05246
  -2   1  -3 1654.90   70.30  53-0.31615 0.06176 0.76558-0.64595 0.43052-0.70165
  -2   1  -3 1494.00   81.90 157 0.49388-0.74815 0.09972 0.01999-0.66220 0.39126
  -2  -1  -3 1794.00   78.00  71-0.61843 0.36403 0.78562-0.90525-0.17931-0.09181
   2  -1   3 1627.10   70.30  43-0.08646 0.34085 0.62222-0.74185 0.71007-0.43894
   2   1   4 5088.60  184.10  59-0.43730 0.71415 0.80790-0.68827 0.23532 0.10634
  -2   1  -4 5395.90  219.50  57-0.39362 0.11677 0.79604-0.67640 0.31057-0.65223
  -2   1  -4 5252.30  186.70 160 0.53077-0.80744 0.01186 0.10785-0.63497 0.29352
  -2  -1  -4 5667.90  218.40  72-0.62599 0.34914 0.77982-0.89945-0.20361-0.13804
  -2  -1  -4 5906.30  184.10 132-0.00932-0.26735 0.76958-0.88929-0.60838 0.26692
   2  -1   4 5171.00  196.80  45-0.13624 0.41309 0.65909-0.77872 0.65779-0.31614
  -2   1  -5 1803.10   88.20  60-0.45178 0.15248 0.81083-0.69120 0.20894-0.62112
  -2   1  -5 1621.70   70.00 162 0.55211-0.85117-0.04535 0.16506-0.61407 0.20211
  -2  -1  -5 1920.00   98.10  72-0.63421 0.33492 0.77253-0.89216-0.23144-0.18074
  -2  -1  -5 1825.50   74.30 126-0.14109-0.15797 0.85343-0.97314-0.52058 0.10862
  -2  -1  -5 1558.40   69.90 166 0.58941-0.88847-0.16348 0.04377-0.56295 0.15099
  -2   1  -6  846.60   45.40  62-0.49702 0.17528 0.81620-0.69657 0.12106-0.60377
  -2   1  -6  643.00   38.30 163 0.56356-0.88501-0.07866 0.19837-0.60075 0.11828
  -2  -1  -6  675.40   49.70  73-0.64252 0.32077 0.76392-0.88356-0.26134-0.22138
  -2  -1  -6  804.10   35.90 125-0.16635-0.15511 0.86563-0.98533-0.50063 0.01817
  -2   1  -7 2453.30  126.40  64-0.53332 0.18913 0.81549-0.69586 0.04335-0.59659
  -2   1  -7 2079.30  109.60 164 0.56851-0.91236-0.09377 0.21348-0.59443 0.04145
  -2  -1  -7 2553.50  109.70  74-0.65059 0.30640 0.75406-0.87369-0.29255-0.26069
  -2  -1  -7 2489.00  103.60 125-0.16183-0.18203 0.86354-0.98325-0.50428-0.04869
  -2   1  -8  676.50   58.40  66-0.56316 0.19652 0.81054-0.69091-0.02679-0.59698
  -2  -1  -8  756.70   50.60  75-0.65824 0.29160 0.74295-0.86258-0.32465-0.29912
  -2  -1  -8  640.60   40.00 126-0.14305-0.22319 0.85442-0.97413-0.51907-0.10441
  -2   1  -9  979.20   66.50  68-0.58813 0.19904 0.80240-0.68277-0.09122-0.60308
  -2  -1  -9 1098.60   60.40  76-0.66533 0.27624 0.73058-0.85021-0.35739-0.33692
  -2   1 -10  426.10   44.20  70-0.60927 0.19773 0.79168-0.67205-0.15126-0.61357
  -2  -1 -10  513.60   51.70  77-0.67177 0.26022 0.71691-0.83655-0.39058-0.37425
  -2   1 -11  279.70   47.40  72-0.62729 0.19330 0.77874-0.65911-0.20790-0.62746
  -2  -1 -11  294.70   48.90  78-0.67746 0.24346 0.70192-0.82155-0.42412-0.41124
   2  -2 -13   46.00   31.70  89-0.68245 0.57766 0.50325-0.74251-0.71975-0.13759
   2   2 -12  456.10   49.60  76-0.66564 0.58329 0.72999-0.49072-0.35887-0.42795
   2  -2 -12  357.90   53.60  89-0.68351 0.60117 0.50938-0.74865-0.71319-0.07362
   2  -2 -12  414.60   35.90 133 0.02068-0.10232 0.74592-0.98533-0.62468-0.16198
   2   2 -11  350.20   38.00  75-0.65623 0.59634 0.74606-0.50679-0.31595-0.40034
   2  -2 -11  381.00   53.30  89-0.68392 0.62402 0.51182-0.75108-0.71055-0.00573
   2  -2 -11  535.90   45.20 133 0.00938-0.06863 0.75503-0.99445-0.61870-0.09746
   2   2 -10  870.10   57.90  74-0.64522 0.60777 0.76080-0.52154-0.27152-0.37424
   2  -2 -10  890.80   70.40  89-0.68358 0.64614 0.50980-0.74907-0.71274 0.06698
   2  -2 -10 1024.50   58.60 132 0.00360-0.04045 0.75960-0.99902-0.61556-0.03009
   2   2  -9 2443.30  120.50  72-0.63235 0.61735 0.77428-0.53502-0.22498-0.35025
   2  -2  -9 2676.60  133.00  89-0.68226 0.66727 0.50221-0.74148-0.72085 0.14562
   2  -2  -9 3098.40  106.30 132 0.00411-0.01856 0.75920-0.99862-0.61584 0.04070
   2   2  -8 1580.60   84.70  71-0.61718 0.62463 0.78651-0.54724-0.17539-0.32930
  -2  -2   8 1608.70   84.60  49-0.24164 0.23419 0.72692-0.96618 0.53246-0.02776
  -2  -2   8 1402.20   60.90 173 0.60083-0.60922 0.55261-0.79180 0.73836-0.23467
   2  -2  -8 1649.60   90.50  90-0.67945 0.68690 0.48735-0.72662-0.73622 0.23153
   2  -2  -8 1666.90   74.10 133 0.01196-0.00403 0.75297-0.99239-0.62008 0.11545
   2   2  -7  345.00   37.00  69-0.59894 0.62884 0.79744-0.55817-0.12118-0.31299
  -2   2   7  378.60   34.10   1 0.67421-0.70411-0.46261 0.70188 0.76036-0.32619
  -2  -2   7  390.90   26.70  49-0.23403 0.20413 0.72251-0.96178 0.54221-0.10805
  -2  -2   7  437.70   36.70 171 0.62266-0.65338 0.50677-0.74596 0.76294-0.32963
   2  -2  -7  426.10   42.70  91-0.67412 0.70403 0.46269-0.70196-0.76037 0.32620
   2  -2  -7  394.70   35.60 133 0.02857 0.00176 0.73942-0.97883-0.62874 0.19461
   2   2  -6 1149.80   67.70  67-0.57613 0.62848 0.80684-0.56758-0.05949-0.30414
  -2   2   6 1246.50   66.40   2 0.66446-0.71681-0.42435 0.66362 0.79466-0.43102
  -2   2   6 1175.50   68.30  79-0.67888 0.62653 0.69753-0.45827-0.43343 0.79707
  -2  -2   6 1220.60   56.30  48-0.21327 0.16092 0.71009-0.94936 0.56825-0.20461
  -2  -2   6 1269.40   55.10 169 0.65226-0.70530 0.43451-0.67370 0.79592-0.43298
   2  -2  -6 1206.10   64.30  92-0.66437 0.71673 0.42443-0.66370-0.79467 0.43103
   2  -2  -6 1278.40   71.20 135 0.05563-0.00290 0.71623-0.95564-0.64196 0.27834
   2   2  -5  153.20   16.50  65-0.54557 0.62037 0.81401-0.57474 0.01535-0.30846
  -2   2   5  200.70   28.30   5 0.64680-0.72161-0.36701 0.60628 0.83965-0.54654
  -2   2   5  133.70   23.30  83-0.69068 0.61588 0.63427-0.39501-0.54913 0.84224
  -2  -2   5  157.40   16.10  46-0.16955 0.09474 0.68206-0.92133 0.62040-0.32729
   2  -2  -5  173.70   27.50  95-0.64672 0.72152 0.36709-0.60635-0.83966 0.54655
   2  -2  -5  170.10   24.20 136 0.09499-0.01987 0.68002-0.91944-0.65920 0.36609
   2   2  -4 4042.20  167.30  62-0.49938 0.59663 0.81631-0.57704 0.11623-0.33881
   2   2  -4 4194.20  163.40 177 0.54193-0.44424 0.65497-0.41578 0.67133-0.89352
  -2   2   4 4355.60  154.40   8 0.61530-0.71255-0.28330 0.52257 0.89322-0.67064
  -2   2   4 4439.60  189.30  87-0.68848 0.59123 0.54451-0.30524-0.67329 0.89587
  -2   2   4 4625.00  163.30 127-0.11309 0.01557 0.83841-0.59899-0.54149 0.76409
  -2  -2   4 4387.30  151.10  43-0.08112-0.01613 0.61810-0.85736 0.71542-0.49284
   2  -2  -4 4561.90  158.50  98-0.61522 0.71247 0.28338-0.52264-0.89323 0.67065
   2  -2  -4 3850.50  158.20 139 0.14818-0.05067 0.62632-0.86574-0.67866 0.45606
   2   2  -3 3126.50  116.60  58-0.41347 0.53318 0.80196-0.56269 0.27713-0.42918
   2   2  -3 2994.80  117.60 169 0.65513-0.53512 0.42670-0.18752 0.79910-0.95091
  -2   2   3 3103.10  123.00  12 0.56103-0.68073-0.16561 0.40487 0.94745-0.79540
  -2   2   3 3059.90  147.00  92-0.66332 0.54362 0.42066-0.18139-0.79786 0.94991
  -2   2   3 3350.40  127.30 132-0.00656-0.11335 0.76748-0.52806-0.60993 0.76203
   2  -2  -3 3271.40  158.50   2 0.66340-0.54370-0.42058 0.18131 0.79785-0.94990
   2  -2  -3 3260.10  141.30 102-0.56095 0.68065 0.16568-0.40495-0.94747 0.79542
   2  -2  -3 3065.10  124.00 142 0.21548-0.09557 0.55008-0.78950-0.69661 0.54451
   2   2  -2 6797.00  237.90  47-0.19696 0.33912 0.69993-0.46066 0.58812-0.66964
   2   2  -2 7190.50  236.70 109-0.44231 0.58446-0.03876 0.27803-0.99021 0.90869
  -2   2   2 6809.90  252.70  18 0.47412-0.61627-0.01113 0.25040 0.98551-0.90399
  -2   2   2 6853.50  226.10  99-0.60534 0.46319 0.26004-0.02077-0.90585 0.98737
  -2   2   2 7369.30  254.50 137 0.10416-0.24646 0.67116-0.43174-0.66287 0.74446
   2  -2  -2 6522.80  249.60   9 0.60542-0.46327-0.25996 0.02070 0.90583-0.98735
   2  -2  -2 7104.30  258.50 108-0.47404 0.61619 0.01120-0.25047-0.98553 0.90401
   2  -2  -2 6552.10  268.80 146 0.29458-0.15228 0.44737-0.68678-0.70715 0.62556
  -2   2   111563.10  408.80  24 0.35093-0.51553 0.16967 0.06959 0.98471-0.97371
  -2   2   111665.20  405.40 105-0.51105 0.34645 0.07334 0.16592-0.97454 0.98553
  -2   2   112413.10  405.40 142 0.21101-0.37571 0.55545-0.31603-0.69566 0.70674
  -2   2   110947.30  395.70 170 0.64351-0.80818 0.45732-0.21814 0.78623-0.77517
  -2  -2   112917.70  420.20 117-0.29634 0.13174-0.24005 0.00078-0.97067 0.98166
   2  -2  -111882.00  479.20  15 0.51113-0.34653-0.07327-0.16599 0.97453-0.98552
   2  -2  -112709.90  426.40 114-0.35085 0.51545-0.16960-0.06967-0.98472 0.97373
   2  -2  -110701.70  429.00 150 0.37959-0.21489 0.31803-0.55745-0.70323 0.69214
  -2   2   016249.30  545.60  31 0.20241-0.38946 0.35098-0.11172 0.93112-0.99066
  -2   2   016842.30  575.00 112-0.39163 0.20458-0.11342 0.35268-0.99027 0.93073
  -2   2   016941.60  609.00 146 0.30568-0.49278 0.43169-0.19227-0.70761 0.64819
  -2   2   015805.50  553.10 176 0.55828-0.74526 0.62912-0.38994 0.69002-0.74934
  -2  -2   019222.50  571.80  98-0.61814 0.43109 0.29049-0.52976-0.88919 0.82965
   2  -2   016378.80  571.60  22 0.39172-0.20467 0.11349-0.35275 0.99025-0.93072
   2  -2   018178.90  579.80 121-0.20232 0.38937-0.35092 0.11165-0.93114 0.99067
   2  -2   014924.30  568.80 155 0.46170-0.27461 0.16799-0.40740-0.67924 0.73866
   2   2   1 5293.40  209.50  72-0.62971 0.83921 0.77665-0.53739-0.21602 0.34608
   2   2   1 5863.40  218.40 161 0.54286-0.33337-0.01985 0.25927-0.62369 0.75362
  -2   2  -1 5963.70  226.00  37 0.05066-0.26016 0.50571-0.26644 0.83255-0.96262
  -2   2  -1 5874.10  222.90 118-0.26934 0.05984-0.27320 0.51246-0.96118 0.83112
  -2   2  -1 5976.70  260.80 151 0.38272-0.59220 0.31282-0.07340-0.70272 0.57279
  -2   2  -1 5460.20  213.10 181 0.46573-0.67503 0.75626-0.51708 0.58353-0.71322
  -2  -2  -1 6560.60  245.80  88-0.68544 0.47594 0.52147-0.76074-0.69992 0.56985
   2  -2   1 6057.00  240.00  28 0.26943-0.05993 0.27326-0.51253 0.96117-0.83110
   2  -2   1 6614.50  217.20 171 0.62741-0.41810 0.49605-0.73523 0.76827-0.63858
  -2   2  -216637.40  637.40  43-0.08564-0.14631 0.62159-0.38232 0.71090-0.91149
  -2  -2  -219603.50  665.60  84-0.69177 0.45982 0.61379-0.85306-0.58082 0.38022
   2  -2   218114.10  655.10  32 0.16288 0.06907 0.39402-0.63328 0.90936-0.70876
   2  -2   219851.70  682.70 175 0.57594-0.34430 0.59914-0.83832 0.71015-0.51008
   2   2   312043.10  474.60  67-0.56553 0.81993 0.80995-0.57068-0.03266 0.30378
  -2   2  -313034.30  482.50  48-0.19903-0.05536 0.70124-0.46197 0.58563-0.85675
  -2   2  -313096.80  457.90 157 0.48242-0.73670 0.12479 0.11463-0.66888 0.39794
  -2  -2  -313947.40  466.20  81-0.68842 0.43403 0.65470-0.89396-0.51505 0.24392
   2  -2   312792.80  452.50  36 0.07939 0.17501 0.47854-0.71781 0.85426-0.58313
   2  -2   314203.70  462.40 177 0.53495-0.28099 0.66550-0.90468 0.66333-0.39289
  -2   2  -4 1327.40   68.90  52-0.29035 0.01350 0.75315-0.51388 0.46719-0.80885
  -2   2  -4 1260.50   66.10 159 0.51069-0.78736 0.06116 0.17826-0.65098 0.30953
  -2  -2  -4 1380.50   63.30  80-0.68512 0.40828 0.67354-0.91280-0.48105 0.13939
   2  -2   4 1184.30   74.30  38 0.01801 0.25883 0.53542-0.77468 0.80621-0.46456
   2  -2   4 1229.30   81.60 179 0.50523-0.22895 0.70730-0.94649 0.62916-0.28835
  -2   2  -5 2737.00  122.00  55-0.36349 0.06419 0.78550-0.54624 0.35912-0.77130
  -2   2  -5 2416.70  103.40 160 0.52908-0.82814 0.01617 0.22325-0.63644 0.22448
  -2  -2  -5 3127.80  113.60  80-0.68340 0.38410 0.68123-0.92049-0.46636 0.05417
  -2   2  -6 1212.90   60.60  58-0.42253 0.10079 0.80437-0.56511 0.26146-0.74417
  -2  -2  -6 1363.30   64.40  80-0.68310 0.36136 0.68243-0.92170-0.46402-0.01870
  -2  -2  -6 1259.90   46.70 155 0.46206-0.78352 0.16726-0.40667-0.67907 0.19661
  -2   2  -7 3583.30  147.60  61-0.47083 0.12664 0.81384-0.57457 0.17299-0.72624
  -2  -2  -7 4005.70  146.20  80-0.68384 0.33964 0.67937-0.91863-0.46996-0.08328
  -2  -2  -7 3837.60  130.10 149 0.36053-0.70438 0.34900-0.58842-0.70569 0.15272
  -2   2  -8  985.90   56.30  63-0.51089 0.14425 0.81653-0.57726 0.09223-0.71600
  -2  -2  -8  983.00   49.00  80-0.68520 0.31855 0.67319-0.91245-0.48171-0.14206
  -2   2  -9  -12.60   22.60  65-0.54453 0.15543 0.81416-0.57489 0.01777-0.71207
  -2  -2  -9   69.10   39.00  81-0.68686 0.29777 0.66452-0.90379-0.49765-0.19665
  -2   2 -10  289.10   44.70  67-0.57304 0.16149 0.80782-0.56856-0.05155-0.71328
  -2  -2 -10  351.10   52.10  81-0.68856 0.27702 0.65373-0.89299-0.51673-0.24810
  -2   2 -11  313.30   46.70  69-0.59735 0.16336 0.79823-0.55896-0.11670-0.71866
  -2  -2 -11  418.20   46.10  82-0.69008 0.25609 0.64100-0.88026-0.53820-0.29716
  -2   3  12  293.10   36.60   2 0.66598-0.58364-0.42992 0.78881 0.78990-0.00308
   2  -3 -12  265.10   42.40  92-0.66590 0.58355 0.42999-0.78889-0.78991 0.00310
  -2   3  11  239.70   37.60   2 0.66530-0.60540-0.42740 0.78630 0.79206-0.07577
   2  -3 -11  205.80   35.00  92-0.66521 0.60532 0.42748-0.78638-0.79207 0.07579
   2  -3 -11  216.60   30.90 139 0.15737-0.21662 0.61646-0.97559-0.68156-0.03459
   2   3 -10   78.70   28.20  71-0.61609 0.57865 0.78727-0.42837-0.17201-0.47375
  -2   3  10   32.70   40.60   3 0.66314-0.62570-0.41964 0.77854 0.79864-0.15288
   2  -3 -10   96.80   42.70  93-0.66305 0.62561 0.41971-0.77861-0.79865 0.15290
   2  -3 -10  101.60   31.00 139 0.15743-0.19429 0.61640-0.97553-0.68158 0.03593
   2   3  -9   -4.20   20.00  69-0.59506 0.58007 0.79933-0.44043-0.11027-0.46496
  -2   3   9   10.20   25.40   3 0.65902-0.64403-0.40545 0.76434 0.81030-0.23508
   2  -3  -9    0.10   24.70  93-0.65893 0.64394 0.40552-0.76442-0.81032 0.23509
   2  -3  -9  -29.10   28.00 140 0.16395-0.17841 0.60931-0.96843-0.68355 0.10841
   2   3  -8 1818.50   98.80  67-0.56922 0.57667 0.80895-0.45005-0.04187-0.46282
  -2   3   8 2297.30   85.20   4 0.65214-0.65959-0.38321 0.74211 0.82767-0.32297
   2  -3  -8 2359.10  100.10  94-0.65205 0.65951 0.38328-0.74218-0.82769 0.32299
   2  -3  -8 2064.20   96.10 140 0.17752-0.16958 0.59426-0.95339-0.68743 0.18280
   2   3  -7 1762.30   99.20  65-0.53653 0.56643 0.81517-0.45627 0.03612-0.47028
  -2   3   7 1850.60   94.40   5 0.64119-0.67110-0.35076 0.70966 0.85111-0.41695
  -2  -3   7 1605.00   87.60  41-0.03269 0.00279 0.57913-0.93803 0.76181-0.32764
   2  -3  -7 1912.00   84.20  95-0.64111 0.67101 0.35083-0.70973-0.85113 0.41696
   2  -3  -7 1878.80   81.40 141 0.19873-0.16839 0.56997-0.92910-0.69287 0.25874
   2   3  -6  709.10   37.20  62-0.49343 0.54578 0.81601-0.45711 0.12838-0.49202
  -2   3   6  672.00   47.70   7 0.62419-0.67655-0.30531 0.66421 0.88042-0.51678
  -2  -3   6  744.70   44.80  38 0.01925-0.07161 0.53431-0.89321 0.80725-0.44361
   2  -3  -6  763.30   40.90  97-0.62411 0.67646 0.30538-0.66428-0.88044 0.51680
   2  -3  -6  810.70   53.70 143 0.22800-0.17528 0.53481-0.89394-0.69908 0.33546
   2   3  -5 2415.00  100.00  59-0.43331 0.50811 0.80700-0.44810 0.24245-0.53556
   2   3  -5 2325.50  107.00 178 0.51089-0.43553 0.69969-0.34092 0.63569-0.92825
  -2   3   5 2541.20  105.70   9 0.59819-0.67299-0.24352 0.60242 0.91415-0.62104
  -2   3   5 2258.60  110.60 128-0.10042 0.02530 0.83111-0.47198-0.55054 0.84365
  -2  -3   5 2425.20   94.60  35 0.09972-0.17452 0.45873-0.81763 0.86878-0.57567
   2  -3  -5 2913.60  104.10  99-0.59810 0.67290 0.24358-0.60248-0.91417 0.62106
   2  -3  -5 2404.60  131.20 144 0.26541-0.19029 0.48703-0.84616-0.70470 0.41158
   2   3  -4  883.20   47.70  54-0.34374 0.44099 0.77767-0.41877 0.38960-0.61218
   2   3  -4  926.80   47.70 120-0.21911 0.31636-0.33203 0.69093-0.93949 0.71691
   2   3  -4  903.60   46.60 173 0.59843-0.50075 0.55733-0.19855 0.73566-0.95785
  -2   3   4  940.30   43.90  12 0.55922-0.65647-0.16204 0.52094 0.94874-0.72616
  -2   3   4  942.10   43.20 132-0.00683-0.09069 0.76768-0.40856-0.60978 0.83238
  -2  -3   4  838.60   38.10  30 0.21932-0.31657 0.33196-0.69086 0.93954-0.71696
   2  -3  -4 1117.30   53.10 102-0.55913 0.65638 0.16211-0.52101-0.94876 0.72618
   2  -3  -4  871.30   63.20 147 0.31030-0.21278 0.42507-0.78420-0.70773 0.48512
  -2   3   313177.80  451.90  16 0.50278-0.62248-0.05884 0.41774 0.97759-0.82554
  -2   3   311525.40  503.60  93-0.65600 0.53630 0.39583-0.03693-0.81802 0.97007
  -2  -3   313276.80  444.10  23 0.38035-0.50005 0.12947-0.48837 0.98917-0.83712
   2  -3  -313044.40  547.90   3 0.65609-0.53639-0.39577 0.03687 0.81799-0.97004
   2  -3  -314251.10  437.00 106-0.50268 0.62238 0.05890-0.41780-0.97761 0.82556
   2  -3  -312179.20  490.90 149 0.36107-0.24117 0.34813-0.70726-0.70564 0.55354
   2   3  -2  718.50   37.20  39 0.01144 0.13071 0.54125-0.18235 0.80070-0.88222
   2   3  -2  611.60   31.10 103-0.54953 0.69168 0.14350 0.21540-0.95517 0.87365
  -2   3   2  688.80   43.10  20 0.42533-0.56748 0.06463 0.29427 0.99116-0.90964
  -2   3   2  608.40   36.50  98-0.60924 0.46709 0.26913 0.08977-0.90104 0.98257
  -2   3   2  646.50   36.80 140 0.17707-0.31937 0.59477-0.23564-0.68731 0.76890
   2  -3  -2  641.00   42.10   8 0.60933-0.46718-0.26907-0.08983 0.90102-0.98254
   2  -3  -2  671.30   38.20 110-0.42524 0.56739-0.06457-0.29433-0.99117 0.90965
   2  -3  -2  614.00   42.80 152 0.41508-0.27278 0.25679-0.61592-0.69576 0.61417
  -2   3   124101.30  835.30  25 0.32691-0.49151 0.20133 0.15757 0.97939-0.96840
  -2   3   122731.60  781.00 168 0.66111-0.82577 0.40990-0.05112 0.80568-0.79462
   2  -3  -126239.10  791.20 115-0.32681 0.49141-0.20128-0.15762-0.97940 0.96841
   2  -3  -122383.00  777.60 156 0.46884-0.30414 0.15340-0.51252-0.67590 0.66482
   2   3   0  232.30   16.70  17 0.48113-0.29408-0.02256 0.38146 0.98392-0.92438
   2   3   0  207.50   14.90  85-0.69171 0.87876 0.58870-0.22980-0.61671 0.67625
   2   3   0  232.60   25.70 163 0.55807-0.37098-0.06244 0.42156-0.60734 0.66677
  -2   3   0  221.00   31.90  30 0.21295-0.40000 0.33917 0.01972 0.93643-0.99597
  -2   3   0  206.60   22.60 108-0.45986 0.27281-0.01147 0.37037-0.98811 0.92857
  -2   3   0  235.30   28.20 148 0.32798-0.51507 0.39916-0.04003-0.70771 0.64828
  -2   3   0  193.60   29.70 173 0.60533-0.79231 0.54359-0.18482 0.74344-0.80276
  -2  -3   0  246.70   18.90 107-0.48094 0.29389 0.02246-0.38136-0.98396 0.92443
   2  -3   0  246.50   27.20  18 0.45995-0.27290 0.01152-0.37042 0.98809-0.92856
   2  -3   0  192.20   27.80 120-0.21285 0.39989-0.33912-0.01978-0.93644 0.99597
   2  -3   0  106.70   29.20 159 0.51871-0.33161 0.04193-0.40106-0.64495 0.70438
   2   3   1  177.80   18.50   9 0.59874-0.38924-0.24475 0.60365 0.91355-0.78348
   2   3   1  125.00   16.70  79-0.68111 0.89061 0.69002-0.33112-0.44892 0.57899
   2   3   1  163.30   18.20 157 0.48104-0.27156 0.12775 0.23138-0.66964 0.79957
  -2   3  -1  207.10   28.40  35 0.09315-0.30264 0.46519-0.10629 0.86416-0.99423
  -2   3  -1  170.70   17.90 113-0.37180 0.16230-0.14114 0.50004-0.98814 0.85808
  -2   3  -1  156.20   25.00 151 0.38474-0.59423 0.30943 0.04970-0.70238 0.57245
  -2   3  -1  127.60   21.80 177 0.53937-0.74868 0.65887-0.30009 0.66840-0.79809
  -2  -3  -1  180.90   17.20  99-0.59860 0.38910 0.24469-0.60359-0.91362 0.78356
   2  -3   1  155.90   17.60  23 0.37190-0.16240 0.14119-0.50009 0.98813-0.85806
   2  -3   1  118.50   23.00 163 0.56157-0.35209-0.07275-0.28638-0.60318 0.73311
   2   3   2 8092.30  275.50   4 0.65289-0.42094-0.38556 0.74446 0.82589-0.62529
   2   3   2 7902.40  263.90 148 0.34113-0.10925 0.37929-0.02017-0.70721 0.90765
  -2   3  -2 7443.00  260.10  40-0.02254-0.20941 0.57061-0.21171 0.77104-0.97164
  -2   3  -2 7347.00  254.70 153 0.42906-0.66094 0.23125 0.12788-0.69168 0.49124
  -2   3  -2 7289.30  268.40 181 0.46836-0.69999 0.75321-0.39443 0.58658-0.78664
   2  -3   2 7515.30  244.90  27 0.28768-0.05573 0.25098-0.60988 0.96775-0.76716
   2  -3   2 6458.50  317.60 166 0.59543-0.36355-0.18588-0.17325-0.55202 0.75246
   2   3   3  188.90   16.60 137 0.11773 0.13654 0.65774-0.29861-0.66807 0.93901
  -2   3  -3  155.50   32.90  45-0.12738-0.12702 0.65274-0.29384 0.66741-0.93853
  -2  -3  -3  191.00   28.10  90-0.67589 0.42149 0.47048-0.82938-0.75292 0.48180
   2  -3   3  168.70   21.80  30 0.21387 0.04053 0.33814-0.69703 0.93688-0.66576
   2   3   4  959.90   45.90 125-0.16617 0.44284 0.86554-0.50642-0.50078 0.84223
  -2   3  -4 1007.80   68.00  48-0.21865-0.05820 0.71336-0.35446 0.56159-0.90324
  -2  -3  -4 1023.20   58.10  88-0.68544 0.40860 0.52151-0.88041-0.69988 0.35822
  -2   3  -5  454.60   35.90  52-0.29642-0.00287 0.75617-0.39727 0.45870-0.87088
  -2  -3  -5  537.70   40.10  87-0.68928 0.38998 0.55198-0.91088-0.66426 0.25208
  -2   3  -6  374.20   38.40  55-0.36216 0.04042 0.78500-0.42610 0.36119-0.84390
  -2  -3  -6  534.60   42.60  86-0.69076 0.36901 0.56946-0.92836-0.64230 0.15958
  -2   3  -7 1050.20   58.90  58-0.41772 0.07353 0.80312-0.44422 0.26981-0.82305
  -2  -3  -7 1098.30   67.00  85-0.69129 0.34709 0.57829-0.93719-0.63075 0.07751
  -2   3  -8  359.20   47.60  60-0.46485 0.09821 0.81300-0.45410 0.18443-0.80821
  -2  -3  -8  328.30   42.30  85-0.69142 0.32478 0.58099-0.93989-0.62715 0.00338
  -2   3  -9  113.00   45.60  63-0.50504 0.11594 0.81648-0.45758 0.10452-0.79882
  -2  -3  -9   81.10   36.30  85-0.69133 0.30224 0.57911-0.93801-0.62966-0.06465
  -2   3 -10  -21.40   23.90  65-0.53947 0.12793 0.81483-0.45594 0.02941-0.79424
  -2  -3 -10   40.10   43.20  86-0.69103 0.27948 0.57360-0.93250-0.63692-0.12791
  -2   4  11   91.50   36.30   6 0.63642-0.57653-0.33747 0.81600 0.86010-0.14381
   2  -4 -11  155.40   35.00  96-0.63633 0.57644 0.33754-0.81607-0.86012 0.14383
  -2   4  10  478.40   53.00   6 0.63176-0.59432-0.32493 0.80346 0.86826-0.22250
   2  -4 -10  594.80   52.70  96-0.63167 0.59423 0.32499-0.80352-0.86828 0.22252
   2  -4 -10  518.00   51.30 146 0.29382-0.33067 0.44843-0.92727-0.70711 0.06146
  -2   4   9  325.20   34.20   7 0.62434-0.60934-0.30568 0.78421 0.88020-0.30497
   2  -4  -9  313.60   40.70  97-0.62425 0.60926 0.30574-0.78427-0.88022 0.30499
   2  -4  -9  228.10   40.70 146 0.30148-0.31594 0.43766-0.91650-0.70747 0.13233
   2   4  -8  599.20   45.60  64-0.52513 0.53258 0.81611-0.33758 0.06156-0.56626
  -2   4   8  762.90   46.60   8 0.61327-0.62072-0.27841 0.75695 0.89594-0.39124
   2  -4  -8  728.50   48.60  98-0.61318 0.62063 0.27847-0.75701-0.89596 0.39126
   2  -4  -8  650.90   49.30 147 0.31479-0.30686 0.41856-0.89740-0.70779 0.20316
   2   4  -7  303.40   32.30  61-0.48108 0.51098 0.81502-0.33649 0.15304-0.58721
  -2   4   7  518.00   47.90   9 0.59732-0.62722-0.24157 0.72010 0.91511-0.48094
   2  -4  -7  370.80   49.40  99-0.59723 0.62713 0.24163-0.72016-0.91513 0.48096
   2  -4  -7  408.20   43.10 148 0.33369-0.30336 0.39059-0.86943-0.70754 0.27342
   2   4  -6  643.20   40.40  58-0.42415 0.47650 0.80479-0.32625 0.25863-0.62227
   2   4  -6  765.70   50.70 180 0.47322-0.42018 0.74750-0.26913 0.59220-0.95514
  -2   4   6  659.70   44.50  11 0.57482-0.62717-0.19339 0.67192 0.93671-0.57308
  -2  -4   6  619.50   37.60  30 0.21686-0.26921 0.33475-0.81328 0.93835-0.57471
   2  -4  -6  806.00   39.10 101-0.57472 0.62708 0.19344-0.67197-0.93673 0.57310
   2  -4  -6  747.80   48.60 149 0.35789-0.30516 0.35319-0.83203-0.70596 0.34234
   2   4  -5   32.80   19.00  54-0.34871 0.42352 0.77971-0.30118 0.38201-0.67512
   2   4  -5  -31.40   27.80 176 0.54767-0.47231 0.64609-0.16772 0.67790-0.97046
  -2   4   5   35.40   31.50  13 0.54367-0.61847-0.13216 0.61069 0.95877-0.66566
  -2  -4   5    7.50   18.30  26 0.29877-0.37358 0.23719-0.71572 0.97140-0.67829
   2  -4  -5  -30.40   30.10 103-0.54357 0.61838 0.13221-0.61074-0.95879 0.66568
   2  -4  -5  -26.60   29.50 151 0.38679-0.31167 0.30599-0.78483-0.70202 0.40891
   2   4  -4   56.30   18.00  50-0.24730 0.34455 0.73014-0.25161 0.52514-0.74772
   2   4  -4   30.50   20.70 172 0.61346-0.51577 0.52674-0.04837 0.75261-0.97479
  -2   4   4   12.00   23.40  16 0.50151-0.59876-0.05668 0.53521 0.97802-0.75544
  -2  -4   4   60.80   16.00  22 0.39795-0.49520 0.10462-0.58316 0.99069-0.76811
   2  -4  -4   65.40   26.70 106-0.50141 0.59867 0.05673-0.53526-0.97804 0.75546
   2  -4  -4   55.50   34.70 153 0.41942-0.32191 0.24895-0.72778-0.69457 0.47196
   2   4  -3 1163.00   66.00  44-0.11309 0.23279 0.64231-0.16378 0.68263-0.83468
   2   4  -3 1038.80   58.40 168 0.66658-0.54656 0.39382 0.08455 0.81168-0.96349
  -2   4   3 1231.40   62.60  19 0.44618-0.56588 0.03301 0.44552 0.98984-0.83779
  -2  -4   3 1123.80   46.70  16 0.50424-0.62394-0.06135-0.41718 0.97708-0.82503
   2  -4  -3 1156.80   60.40 109-0.44608 0.56578-0.03297-0.44557-0.98986 0.83781
   2  -4  -3 1108.20   52.90 155 0.45443-0.33452 0.18256-0.66140-0.68239 0.53029
   2   4  -2 6246.80  232.40  37 0.05200 0.09015 0.50446-0.02593 0.83360-0.91512
  -2   4   2 6386.30  256.60  23 0.37653-0.51868 0.13479 0.34374 0.98873-0.90721
  -2  -4   2 6286.30  218.60   9 0.59812-0.74027-0.24337-0.23516 0.91423-0.83271
   2  -4  -2 6901.80  229.10 113-0.37642 0.51857-0.13475-0.34379-0.98874 0.90722
   2  -4  -2 5558.00  218.70 157 0.49016-0.34785 0.10796-0.58680-0.66445 0.58286
   2   4  -1 5564.60  215.70  30 0.22780-0.06320 0.32227 0.15626 0.94355-0.95454
   2   4  -1 5472.20  199.40 162 0.54756-0.38286-0.03267 0.51150-0.61892 0.60783
  -2   4   1 5359.40  219.80  27 0.29332-0.45792 0.24399 0.23454 0.96964-0.95865
  -2   4   1 5352.20  208.60 168 0.66041-0.82507 0.41191 0.06646 0.80491-0.79385
  -2  -4   1 5328.00  214.10   3 0.66093-0.82553-0.41194-0.06659 0.80502-0.79403
  -2  -4   1 5915.70  220.40 120-0.22759 0.06299-0.32235-0.15619-0.94351 0.95450
   2  -4  -1 4774.70  196.80  11 0.57178-0.40718-0.18717-0.29136 0.93922-0.95021
   2  -4  -1 5971.30  200.60 117-0.29322 0.45782-0.24394-0.23459-0.96965 0.95866
   2  -4  -1 5136.80  195.30 160 0.52481-0.36011 0.02689-0.50573-0.64005 0.62896
   2   4   0  144.90   20.70  22 0.38266-0.19561 0.12625 0.35228 0.98942-0.92989
   2   4   0  111.90   16.80  87-0.68853 0.87558 0.54496-0.06643-0.67275 0.73229
   2   4   0  159.50   16.50 158 0.50281-0.31571 0.07951 0.39933-0.65646 0.71589
  -2   4   0  134.40   24.90  31 0.19978-0.38683 0.35391 0.12462 0.92976-0.98930
  -2   4   0  162.30   27.50 172 0.61789-0.80488 0.51725-0.03888 0.75759-0.81690
  -2  -4   0  225.60   22.00 112-0.38247 0.19542-0.12632-0.35221-0.98943 0.92989
   2  -4   0  163.20   26.10  15 0.51242-0.32537-0.07553-0.40300 0.97402-0.91448
   2  -4   0  191.40   25.00 121-0.19967 0.38672-0.35387-0.12466-0.92976 0.98930
   2  -4   0  159.70   37.00 162 0.55670-0.36960-0.05845-0.42038-0.60893 0.66835
   2   4   1  941.00   43.20  16 0.49688-0.28738-0.04880 0.52733 0.97954-0.84947
   2   4   1  983.80   55.30 154 0.43405-0.22456 0.22193 0.25691-0.69005 0.81999
  -2   4  -1  987.40   55.00  35 0.10101-0.31051 0.45746 0.02108 0.86968-0.99974
  -2   4  -1  802.20   43.10 175 0.56716-0.77647 0.61433-0.13596 0.70015-0.82984
  -2  -4  -1  998.80   48.10 106-0.49672 0.28722 0.04874-0.52727-0.97958 0.84951
   2  -4   1  712.60   46.20  19 0.44749-0.23800 0.03099-0.50952 0.98970-0.85964
   2  -4   1  784.80   44.20 165 0.58439-0.37490-0.14570-0.33313-0.57134 0.70127
   2   4   2 4590.80  189.50  11 0.57126-0.33932-0.18612 0.66465 0.93964-0.73905
   2   4   2 4419.10  177.70 148 0.33222-0.10034 0.39281 0.08603-0.70759 0.90803
  -2   4  -2 4432.00  184.50  39 0.00262-0.23457 0.54900-0.07047 0.79318-0.99378
  -2   4  -2 4392.10  205.50 178 0.51045-0.74208 0.70030-0.22193 0.63517-0.83524
  -2  -4  -2 5181.50  183.00 101-0.57113 0.33918 0.18608-0.66461-0.93970 0.73910
   2   4   3 1321.50   56.90   8 0.61652-0.36213-0.28627 0.76480 0.89154-0.62042
   2   4   3 1281.40   57.70 141 0.19030 0.06398 0.57974-0.10090-0.69080 0.96175
  -2   4  -3 1380.30   79.90  43-0.09074-0.16366 0.62551-0.14698 0.70574-0.97686
  -2  -4  -3 1648.50   72.40  98-0.61640 0.36200 0.28625-0.76478-0.89161 0.62048
   2   4   4 1286.90   63.10   5 0.64327-0.36643-0.35670 0.83523 0.84699-0.50533
   2   4   4 1301.70   58.40 133 0.00975 0.26692 0.75473-0.27590-0.61889 0.96035
  -2   4  -4 1461.40   76.00  47-0.17616-0.10068 0.68646-0.20793 0.61274-0.95439
  -2  -4  -4 1619.20   60.20  95-0.64316 0.36632 0.35669-0.83523-0.84705 0.50540
   2   4   5  745.50   37.30   3 0.65895-0.35966-0.40521 0.88375 0.81049-0.39831
  -2   4  -5  633.50   42.00  50-0.25243-0.04687 0.73302-0.25449 0.51844-0.93062
  -2  -4  -5  689.00   41.60  93-0.65885 0.35955 0.40522-0.88375-0.81056 0.39837
   2   4   6  836.70   52.20   2 0.66811-0.34637-0.43792 0.91645 0.78292-0.30020
  -2   4  -6  701.30   51.70  53-0.31950-0.00225 0.76712-0.28858 0.42566-0.90837
  -2  -4  -6  817.60   52.10  92-0.66801 0.34627 0.43793-0.91647-0.78298 0.30027
   2   4   7 1380.20   69.70   1 0.67340-0.32920-0.45913 0.93767 0.76363-0.21039
  -2   4  -7 1172.40   61.30  56-0.37804 0.03384 0.79081-0.31228 0.33600-0.88924
  -2  -4  -7 1427.90   77.90  91-0.67330 0.32910 0.45916-0.93769-0.76369 0.21045
  -2   4  -8  438.30   52.30  58-0.42896 0.06231 0.80597-0.32744 0.25017-0.87395
  -2  -4  -8  515.80   47.30  90-0.67619 0.30955 0.47185-0.95038-0.75160 0.12783
  -2   4  -9  499.70   50.80  61-0.47323 0.08414 0.81414-0.33561 0.16836-0.86266
  -2  -4  -9  617.60   52.90  90-0.67753 0.28843 0.47801-0.95654-0.74557 0.05127
  -2   4 -10  374.90   51.60  63-0.51176 0.10021 0.81653-0.33800 0.09040-0.85523
  -2  -4 -10  380.50   42.00  90-0.67774 0.26619 0.47901-0.95754-0.74458-0.02025
  -2   5  10  157.70   35.30  10 0.59112-0.55368-0.22791 0.82607 0.92163-0.27587
   2  -5 -10  173.00   36.80 100-0.59103 0.55359 0.22796-0.82613-0.92165 0.27589
  -2   5   9  713.70   53.80  11 0.58053-0.56554-0.20527 0.80343 0.93174-0.35652
   2  -5  -9  645.90   62.80 101-0.58044 0.56544 0.20532-0.80348-0.93176 0.35654
   2  -5  -9  627.80   42.90 152 0.41031-0.42477 0.26531-0.86385-0.69700 0.12186
  -2   5   8  736.30   54.80  12 0.56583-0.57328-0.17514 0.77331 0.94390-0.43921
   2  -5  -8  868.90   70.30 102-0.56573 0.57319 0.17519-0.77336-0.94393 0.43923
   2  -5  -8  751.80   55.40 153 0.42027-0.41234 0.24740-0.84594-0.69433 0.18969
  -2   5   7 1548.30   81.70  13 0.54599-0.57589-0.13653 0.73470 0.95739-0.52322
   2  -5  -7 1625.00   86.10 103-0.54589 0.57579 0.13658-0.73475-0.95741 0.52324
   2  -5  -7 1888.30  107.60 154 0.43417-0.40384 0.22169-0.82023-0.69001 0.25589
   2   5  -6  300.20   29.50 179 0.49727-0.44423 0.71773-0.11977 0.61999-0.98293
  -2   5   6  341.80   34.40  15 0.51977-0.57212-0.08848 0.68664 0.97096-0.60732
   2  -5  -6  389.70   37.90 105-0.51967 0.57203 0.08853-0.68669-0.97098 0.60734
   2  -5  -6  348.50   45.00 155 0.45154-0.39881 0.18827-0.78682-0.68358 0.31996
   2   5  -5  953.90   54.30 176 0.55868-0.48332 0.62847-0.03050 0.69048-0.98304
  -2   5   5  971.90   48.00  17 0.48581-0.56062-0.03028 0.62844 0.98274-0.68963
   2  -5  -5 1010.00   61.90 107-0.48571 0.56051 0.03032-0.62848-0.98276 0.68965
   2  -5  -5  893.50   49.20 156 0.47174-0.39662 0.14739-0.74593-0.67448 0.38137
   2   5  -4  534.10   40.80  48-0.20352 0.30077 0.70406-0.10589 0.58019-0.80277
   2   5  -4  646.10   43.70 172 0.61248-0.51479 0.52881 0.06915 0.75150-0.97369
  -2   5   4  692.50   55.60  19 0.44278-0.54004 0.03824 0.55992 0.99016-0.76758
   2  -5  -4  662.00   43.50 109-0.44268 0.53993-0.03820-0.55996-0.99018 0.76760
   2  -5  -4  586.00   49.30 157 0.49400-0.39648 0.09944-0.69799-0.66213 0.43952
   2   5  -3  152.30   24.70  43-0.08729 0.20699 0.62286-0.02470 0.70923-0.86128
   2   5  -3  162.80   32.80 169 0.65685-0.53684 0.42196 0.17601 0.80099-0.95280
  -2   5   3  203.00   28.40  22 0.38971-0.50941 0.11633 0.48183 0.99009-0.83804
  -2  -5   3   74.90   17.80  11 0.57462-0.69432-0.19297-0.40519 0.93688-0.78483
   2  -5  -3  171.60   26.70 112-0.38960 0.50930-0.11629-0.48187-0.99010 0.83805
   2  -5  -3  159.60   30.40 159 0.51739-0.39748 0.04512-0.64367-0.64597 0.49388
   2   5  -2 1981.30   88.40  37 0.04351 0.09864 0.51232 0.08584 0.82693-0.90845
  -2   5   2 1907.40   96.30  25 0.32636-0.46851 0.20205 0.39612 0.97925-0.89773
  -2  -5   2 1781.90   87.90   6 0.63114-0.77329-0.32328-0.27488 0.86931-0.78779
   2  -5  -2 2076.90   82.30 115-0.32625 0.46840-0.20201-0.39615-0.97926 0.89774
   2  -5  -2 1691.60   81.10 161 0.54092-0.39862-0.01466-0.58389-0.62559 0.54400
   2   5  -1    5.90   17.70  32 0.17770-0.01310 0.37812 0.22004 0.91785-0.92884
  -2   5   1   73.70   34.10  28 0.25361-0.41820 0.29218 0.30599 0.95489-0.94390
  -2   5   1   30.00   26.00 169 0.65186-0.81652 0.43559 0.16237 0.79548-0.78442
  -2  -5   1   15.10   16.50   2 0.66943-0.83403-0.44302-0.15514 0.77838-0.76739
  -2  -5   1    9.20   20.40 122-0.17749 0.01289-0.37818-0.21998-0.91780 0.92879
   2  -5  -1   13.30   30.10 118-0.25349 0.41809-0.29214-0.30602-0.95489 0.94390
   2  -5  -1  -29.30   24.70 163 0.56358-0.39888-0.07874-0.51981-0.60072 0.58963
   2   5   0 3224.40  133.40  26 0.30121-0.11416 0.23414 0.36403 0.97216-0.91263
  -2   5   0 3158.60  122.70  32 0.17355-0.36060 0.38260 0.21557 0.91551-0.97505
  -2   5   0 3212.10  134.50 172 0.61620-0.80318 0.52090 0.07706 0.75569-0.81500
  -2  -5   0 3664.50  143.20 116-0.30102 0.11397-0.23420-0.36397-0.97215 0.91261
   2  -5   0 3609.50  132.90 122-0.17343 0.36048-0.38256-0.21560-0.91551 0.97505
   2  -5   0 2860.60  125.50 165 0.58442-0.39733-0.14583-0.45271-0.57128 0.63070
   2   5   1  239.30   26.00  21 0.40364-0.19414 0.09644 0.50173 0.99098-0.86091
  -2   5  -1  216.60   38.20  36 0.08926-0.29876 0.46898 0.12918 0.86140-0.99146
  -2   5  -1  199.20   36.00 175 0.57418-0.78349 0.60223-0.00427 0.70814-0.83783
  -2  -5  -1  301.40   25.90 111-0.40347 0.19397-0.09649-0.50167-0.99099 0.86093
   2   5   2 1543.40   72.80  17 0.48179-0.24985-0.02365 0.62181 0.98376-0.78317
  -2   5  -2 1730.30   72.40  39 0.00415-0.23610 0.54766 0.05051 0.79450-0.99510
  -2   5  -2 1710.10   94.50 178 0.52681-0.75845 0.67742-0.07946 0.65399-0.85406
  -2  -5  -2 1965.80   90.10 107-0.48164 0.24969 0.02361-0.62177-0.98379 0.78320
   2   5   3  150.40   27.10  14 0.53808-0.28369-0.12172 0.71988 0.96195-0.69082
  -2   5  -3  230.90   34.70  42-0.07864-0.17576 0.61616-0.01800 0.71790-0.98902
  -2   5  -3  107.80   35.90 180 0.47531-0.72927 0.74501-0.14705 0.59462-0.86506
  -2  -5  -3   87.00   28.30 104-0.53794 0.28355 0.12169-0.71986-0.96199 0.69087
   2   5   4  178.90   25.60  11 0.57723-0.30039-0.19838 0.79655 0.93465-0.59300
  -2   5  -4  175.60   33.80  46-0.15676-0.12009 0.67340-0.07524 0.63499-0.97665
  -2  -5  -4  223.20   26.60 101-0.57711 0.30026 0.19837-0.79653-0.93470 0.59305
   2   5   5  353.30   31.90   9 0.60394-0.30464-0.25655 0.85471 0.90760-0.49542
  -2   5  -5  421.00   35.00  49-0.22878-0.07051 0.71943-0.12126 0.54888-0.96106
  -2  -5  -5  451.20   42.90  99-0.60382 0.30452 0.25654-0.85471-0.90765 0.49547
   2   5   6  376.60   39.40   7 0.62193-0.30019-0.29961 0.89777 0.88382-0.40111
  -2   5  -6  457.40   42.70  52-0.29408-0.02766 0.75501-0.15684 0.46198-0.94470
  -2  -5  -6  535.50   43.10  97-0.62182 0.30007 0.29961-0.89778-0.88388 0.40116
  -2   5  -7  163.90   37.30  55-0.35263 0.00843 0.78128-0.18312 0.37600-0.92924
  -2  -5  -7  120.10   31.90  96-0.63379 0.28959 0.33063-0.92879-0.86465 0.31141
  -2   5  -8   63.60   29.70  57-0.40474 0.03810 0.79946-0.20129 0.29199-0.91576
  -2  -5  -8    7.50   36.70  95-0.64154 0.27490 0.35206-0.95023-0.85028 0.22651
  -2   6   8  679.10   56.40  15 0.51171-0.51916-0.07428 0.79208 0.97430-0.46960
   2  -6  -8  821.80   68.70 105-0.51161 0.51906 0.07433-0.79213-0.97432 0.46963
   2  -6  -8  629.10   51.80 158 0.49852-0.49058 0.08929-0.80754-0.65928 0.15465
  -2   6   7  139.70   41.80  17 0.48911-0.51902-0.03576 0.75355 0.98185-0.54768
   2  -6  -7  123.10   43.00 107-0.48901 0.51891 0.03580-0.75359-0.98187 0.54770
   2  -6  -7   59.40   34.80 158 0.50741-0.47707 0.06886-0.78712-0.65331 0.21919
   2   6  -6  132.50   23.70 179 0.50307-0.45003 0.71016 0.00740 0.62668-0.98962
  -2   6   6  224.90   37.50  18 0.46062-0.51297 0.01048 0.70732 0.98799-0.62435
   2  -6  -6  181.60   41.60 108-0.46051 0.51287-0.01044-0.70736-0.98801 0.62437
   2  -6  -6   76.30   36.20 159 0.51872-0.46599 0.04190-0.76016-0.64495 0.28133
   2   6  -5  356.30   38.00 176 0.55615-0.48078 0.63259 0.08497 0.68759-0.98015
  -2   6   5  396.70   49.10  20 0.42539-0.50019 0.06455 0.65325 0.99116-0.69805
   2  -6  -5  439.10   45.00 110-0.42528 0.50008-0.06452-0.65328-0.99117 0.69806
   2  -6  -5  332.90   41.00 160 0.53194-0.45682 0.00887-0.72712-0.63394 0.34083
   2   6  -4   61.90   27.50 173 0.60286-0.50517 0.54856 0.16900 0.74066-0.96285
  -2   6   4   -3.20   37.60  22 0.38272-0.47997 0.12617 0.59163 0.98943-0.76685
   2  -6  -4   62.90   36.20 112-0.38261 0.47986-0.12613-0.59167-0.98944 0.76686
   2  -6  -4   40.80   39.80 161 0.54649-0.44897-0.02972-0.68853-0.62003 0.39742
   2   6  -3 1718.10   80.40 170 0.64233-0.52232 0.46031 0.25724 0.78491-0.93672
  -2   6   3 1684.20   89.10  25 0.33224-0.45194 0.19440 0.52340 0.98069-0.82864
   2  -6  -3 1989.00   87.40 115-0.33212 0.45182-0.19437-0.52343-0.98070 0.82865
   2  -6  -3 1425.20   83.10 163 0.56174-0.44183-0.07324-0.64501-0.60297 0.45088
  -2   6   2 1718.00   90.80  28 0.27408-0.41623 0.26762 0.45017 0.96292-0.88140
  -2   6   2 1469.80   81.40 168 0.66460-0.80694 0.39971 0.31785 0.80952-0.72808
   2  -6  -2 1921.60  104.10 118-0.27397 0.41612-0.26759-0.45020-0.96292 0.88140
   2  -6  -2 1506.10   87.50 164 0.57705-0.43475-0.12098-0.59727-0.58259 0.50100
  -2   6   1 2943.00  137.50  30 0.20906-0.37366 0.34354 0.37425 0.93450-0.92351
  -2   6   1 2832.00  128.90 170 0.63820-0.80286 0.47055 0.24701 0.78031-0.76925
   2  -6  -1 3082.00  125.90 120-0.20894 0.37354-0.34351-0.37429-0.93450 0.92350
   2  -6  -1 2352.70  120.70 166 0.59177-0.42707-0.17212-0.54613-0.55878 0.54770
  -2   6   0   52.50   33.30  33 0.13866-0.32571 0.41940 0.29839 0.89462-0.95416
  -2   6   0   88.10   37.80 173 0.60651-0.79349 0.54119 0.17637 0.74477-0.80409
  -2  -6   0   54.60   22.50 120-0.22576 0.03871-0.32444-0.39336-0.94266 0.88312
  -2   6  -1  230.80   43.00  37 0.06489-0.27439 0.49237 0.22543 0.84347-0.97354
  -2   6  -1  125.10   29.50 175 0.56978-0.77909 0.60985 0.10771 0.70314-0.83283
  -2  -6  -1  119.50   23.30 116-0.31693 0.10743-0.21402-0.50378-0.97681 0.84674
  -2   6  -2  317.70   38.60  40-0.01001-0.22194 0.55994 0.15786 0.78220-0.98280
  -2   6  -2  371.30   51.20 177 0.52851-0.76014 0.67497 0.04259 0.65594-0.85600
  -2  -6  -2  327.60   29.20 112-0.39272 0.16078-0.11187-0.60593-0.99035 0.78976
  -2   6  -3  104.00   35.50  43-0.08387-0.17053 0.62023 0.09757 0.71267-0.98379
  -2   6  -3  110.50   31.40 180 0.48333-0.73729 0.73529-0.01773 0.60390-0.87434
  -2  -6  -3  126.30   27.80 109-0.45287 0.19847-0.02244-0.69536-0.98909 0.71796
  -2   6  -4  313.50   44.80  46-0.15491-0.12194 0.67213 0.04566 0.63708-0.97873
  -2  -6  -4  319.70   33.70 106-0.49902 0.22217 0.05264-0.77044-0.97884 0.63719
  -2   6  -5  631.00   51.20  49-0.22184-0.07746 0.71529 0.00251 0.55761-0.96979
  -2  -6  -5  732.00   45.90 104-0.53359 0.23430 0.11366-0.83146-0.96432 0.55214
  -2   6  -6   58.10   39.90  51-0.28387-0.03787 0.74986-0.03206 0.47617-0.95888
  -2  -6  -6  -17.30   33.10 102-0.55905 0.23730 0.16194-0.87974-0.94882 0.46611
   2   7  -5   96.80   39.60 177 0.54491-0.46955 0.65038 0.18677 0.67474-0.96731
  -2   7   5  169.20   46.50  23 0.36239-0.43719 0.15421 0.68322 0.98672-0.69361
   2  -7  -5  205.50   41.20 113-0.36227 0.43707-0.15418-0.68325-0.98673 0.69362
   2  -7  -5  157.60   34.70 164 0.57500-0.49988-0.11430-0.72366-0.58555 0.29244
   2   7  -4  172.00   35.00 174 0.58719-0.48950 0.57878 0.25837 0.72292-0.94511
  -2   7   4   80.60   39.20  25 0.32074-0.41799 0.20930 0.62813 0.97780-0.75522
   2  -7  -4  183.00   43.70 115-0.32062 0.41788-0.20928-0.62816-0.97781 0.75523
   2  -7  -4   85.10   30.40 165 0.58402-0.48651-0.14444-0.69352-0.57193 0.34932
   2   7  -3   41.60   43.40 171 0.62367-0.50366 0.50452 0.33263 0.76408-0.91589
  -2   7   3  -11.00   35.00  28 0.27290-0.39260 0.26906 0.56837 0.96248-0.81042
  -2   7   3   61.80   30.60 168 0.66607-0.78609 0.39533 0.44182 0.81113-0.65931
   2  -7  -3   85.50   36.80 118-0.27278 0.39248-0.26904-0.56839-0.96248 0.81043
   2  -7  -3   46.90   42.40 166 0.59357-0.47366-0.17881-0.65915-0.55551 0.40341
   2   7  -2   24.80   32.00 169 0.65416-0.51182 0.42938 0.40777 0.79802-0.87945
  -2   7   2   17.30   24.70  30 0.21914-0.36129 0.33216 0.50527 0.93945-0.85793
  -2   7   2    6.80   41.10 170 0.64524-0.78758 0.45293 0.38422 0.78815-0.70671
   2  -7  -2   73.40   31.50 120-0.21902 0.36117-0.33213-0.50530-0.93945 0.85793
  -2   7   1  249.00   43.10  33 0.16018-0.32478 0.39689 0.44055 0.90776-0.89677
  -2   7   1  116.90   45.00 172 0.62027-0.78493 0.51206 0.32509 0.76026-0.74920
   2  -7  -1  217.70   38.70 123-0.16005 0.32465-0.39686-0.44057-0.90776 0.89676
  -2   7   0  120.40   30.20  35 0.09711-0.28416 0.46130 0.37613 0.86696-0.92650
  -2   7   0  112.20   45.00 174 0.59108-0.77807 0.57148 0.26567 0.72734-0.78665
  -2  -7   0   55.10   26.10 123-0.15163-0.03541-0.40574-0.43169-0.90271 0.84317
  -2   7  -1  147.80   28.50  38 0.03136-0.24086 0.52342 0.31401 0.81719-0.94726
  -2   7  -1  250.30   51.00 176 0.55777-0.76708 0.62994 0.20720 0.68945-0.81914
  -2  -7  -1  217.60   32.80 119-0.23327 0.02377-0.31580-0.52163-0.94612 0.81605
  -2   7  -2    1.80   37.20  41-0.03551-0.19644 0.58147 0.25596 0.75922-0.95982
  -2   7  -2   72.10   36.00 178 0.52058-0.75222 0.68629 0.15086 0.64683-0.84690
  -2  -7  -2   61.00   28.90 116-0.30475 0.07280-0.22950-0.60793-0.97329 0.77270
  -2   7  -3  395.20   46.80 180 0.47987-0.73383 0.73952 0.09763 0.59990-0.87034
  -2  -7  -3  431.80   37.50 113-0.36503 0.11063-0.15042-0.68701-0.98717 0.71604
  -2  -7  -4  628.00   47.20 111-0.41434 0.13749-0.08069-0.75674-0.99127 0.64962
   3   0 -13  -11.70   26.90  85-0.69153 0.68026 0.58357-0.58357-0.62368-0.20390
   3   0 -12  -29.10   33.60  85-0.69184 0.70302 0.59375-0.59375-0.60973-0.14732
   3   0 -11  502.10   48.30  84-0.69192 0.72555 0.60094-0.60094-0.59957-0.08695
   3   0 -10   94.10   26.30  84-0.69192 0.74800 0.60454-0.60454-0.59440-0.02159
   3   0  -9   72.00   20.60  84-0.69192 0.77045 0.60349-0.60349-0.59592 0.05046
  -3   0   9  122.90   23.70  64-0.52716 0.44863 0.81599-0.81599 0.05707 0.48839
   3   0  -8 1165.50   76.50  85-0.69187 0.79285 0.59597-0.59597-0.60662 0.13169
  -3   0   8 1226.70   75.70  66-0.55838 0.45740 0.81165-0.81165-0.01509 0.49002
   3   0  -7 6430.30  278.10  85-0.69131 0.81474 0.57874-0.57874-0.63015 0.22575
  -3   0   7 7561.40  265.10  69-0.59080 0.46737 0.80127-0.80127-0.09848 0.50288
   3   0  -6 6667.70  256.60  87-0.68862 0.83449 0.54570-0.54570-0.67186 0.33799
  -3   0   6 7635.70  281.90  71-0.62451 0.47863 0.78102-0.78102-0.19877 0.53264
   3   0  -4  551.20   38.80  94-0.64836 0.83914 0.37199-0.37199-0.83609 0.64328
  -3   0   4  651.20   40.00   4 0.64842-0.83919-0.37183 0.37183 0.83614-0.64333
  -3   0   4  681.10   37.40  81-0.68621 0.49544 0.66807-0.66807-0.49119 0.68400
   3   0  -316085.40  537.50 102-0.56149 0.77472 0.16676-0.16676-0.94707 0.82479
  -3   0   315952.40  538.50  12 0.56151-0.77474-0.16656 0.16656 0.94710-0.82482
  -3   0   317916.60  559.30  88-0.68468 0.47145 0.51653-0.51653-0.70540 0.82768
   3   0  -1 8282.50  294.20  23 0.37520-0.11708 0.13663-0.13663 0.98856-0.96978
   3   0  -1 7481.40  275.90 131-0.02394 0.28219 0.78052-0.78052-0.59994 0.61857
  -3   0   1 7927.60  283.70  35 0.08996-0.34808 0.46830-0.46830 0.86189-0.88067
  -3   0   1 8119.90  275.20 113-0.37521 0.11708-0.13643 0.13643-0.98859 0.96981
   3   0   012133.00  419.70  33 0.14029 0.14029 0.41772-0.41772 0.89564-0.80634
   3   0   011093.00  415.20 138 0.14032 0.14032 0.63461-0.63461-0.67607 0.76520
  -3   0   011365.00  416.10  45-0.14029-0.14029 0.66195-0.66195 0.65336-0.74266
  -3   0   013047.70  466.30 126-0.14032-0.14032 0.85304-0.85304-0.52117 0.43204
   3   0   114875.90  560.50 149 0.34912-0.04609 0.36696-0.36696-0.70670 0.86635
  -3   0  -117536.80  561.70  52-0.28938-0.01364 0.75266-0.75266 0.46854-0.62838
   3   0   2   86.60   14.50  44-0.11926 0.44474 0.64685-0.64685 0.67610-0.44573
   3   0   2   73.40   10.80 161 0.53684-0.21141-0.00384 0.00384-0.62948 0.85963
  -3   0  -2   85.00   18.50  56-0.38439 0.05892 0.79300-0.79300 0.32571-0.55607
  -3   0  -2   79.70    9.70 137 0.11455-0.43998 0.66091-0.66091-0.66688 0.43673
   3   0   311841.20  471.90  47-0.17537 0.52329 0.68594-0.68594 0.61367-0.31277
  -3   0  -313497.10  476.20  59-0.44893 0.10101 0.81030-0.81030 0.21418-0.51507
  -3   0  -313517.10  490.90 143 0.24144-0.58926 0.51803-0.51803-0.70140 0.40075
  -3   0  -4 1740.70   71.00  62-0.49592 0.12555 0.81615-0.81615 0.12332-0.49474
  -3   0  -4 1688.20   71.10 148 0.33920-0.70942 0.38223-0.38223-0.70731 0.33615
  -3   0  -5 9553.50  350.80  64-0.53210 0.13928 0.81561-0.81561 0.04610-0.48806
  -3   0  -6 5954.20  226.90  66-0.56115 0.14588 0.81103-0.81103-0.02185-0.49063
  -3   0  -7 1765.50   89.20  68-0.58519 0.14748 0.80359-0.80359-0.08332-0.49969
  -3   0  -7 1472.80   75.60 155 0.46269-0.90009 0.16599-0.16599-0.67879 0.09610
  -3   0  -8  492.80   50.40  70-0.60550 0.14533 0.79391-0.79391-0.14009-0.51345
  -3   0  -9   -1.90   39.10  71-0.62285 0.14023 0.78232-0.78232-0.19339-0.53068
  -3   0 -10  181.50   32.50  73-0.63778 0.13271 0.76900-0.76900-0.24404-0.55056
  -3   0 -11   74.70   46.00  74-0.65062 0.12310 0.75402-0.75402-0.29266-0.57247
   3  -1 -13  126.60   30.80  88-0.68570 0.67443 0.52322-0.64285-0.69797-0.12961
   3  -1 -13  161.40   32.00 128-0.09239 0.08190 0.82632-0.94603-0.55615-0.27131
   3   1 -12   33.10   34.70  82-0.68924 0.70042 0.64851-0.52888-0.52565-0.23139
   3  -1 -12   27.70   30.00  88-0.68655 0.69773 0.52916-0.64880-0.69123-0.06582
   3  -1 -12   15.70   35.10 127-0.10995 0.12185 0.83663-0.95634-0.54376-0.21319
   3   1 -11  302.20   35.20  81-0.68759 0.72122 0.66018-0.54055-0.50543-0.18109
   3  -1 -11  326.00   46.00  88-0.68683 0.72046 0.53122-0.65086-0.68887 0.00235
   3  -1 -11  441.70   40.40 127-0.12368 0.15798 0.84427-0.96398-0.53373-0.15271
   3   1 -10 2494.80  131.10  80-0.68595 0.74203 0.66947-0.54984-0.48861-0.12737
   3  -1 -10 2471.70  123.60  88-0.68645 0.74253 0.52847-0.64811-0.69201 0.07603
   3  -1 -10 2781.90  105.80 126-0.13317 0.18986 0.84934-0.96905-0.52662-0.08931
   3   1  -9  124.30   25.00  80-0.68462 0.76315 0.67590-0.55627-0.47658-0.06888
  -3  -1   9  160.80   22.10  58-0.41901 0.34048 0.80346-0.92309 0.26757 0.27788
  -3  -1   9  162.30   20.50 177 0.53529-0.61485 0.66500-0.78459 0.66371-0.11930
   3  -1  -9  172.20   41.10  88-0.68514 0.76367 0.51951-0.63914-0.70211 0.15665
   3  -1  -9  217.70   26.40 126-0.13779 0.21688 0.85174-0.97145-0.52311-0.02232
   3   1  -8 1941.90   77.20  80-0.68402 0.78500 0.67855-0.55892-0.47152-0.00341
  -3   1   8 1993.40   88.60  72-0.62523 0.52425 0.78043-0.66080-0.20113 0.67605
  -3  -1   8 2206.80   96.30  59-0.44190 0.34092 0.80889-0.92852 0.22702 0.24791
  -3  -1   8 2073.80   87.60 176 0.55508-0.65696 0.63432-0.75391 0.68637-0.21233
   3  -1  -8 2016.30  104.80  89-0.68224 0.78322 0.50210-0.62173-0.72097 0.24604
   3  -1  -8 2158.70   93.70 126-0.13661 0.23809 0.85113-0.97084-0.52401 0.04909
   3   1  -7 3796.40  146.90  80-0.68469 0.80811 0.67559-0.55596-0.47717 0.07277
  -3   1   7 4238.70  177.80  75-0.65272 0.52929 0.75116-0.63153-0.30119 0.70559
  -3  -1   7 4713.00  178.70  60-0.46473 0.34130 0.81298-0.93262 0.18466 0.21974
  -3  -1   7 4298.90  176.80 174 0.59072-0.71493 0.57216-0.69175 0.72693-0.32327
   3  -1  -7 4083.00  172.90  90-0.67639 0.79982 0.47275-0.59239-0.75072 0.34632
   3  -1  -7 4313.70  167.50 126-0.12831 0.25218 0.84677-0.96647-0.53028 0.12587
   3   1  -6 1149.00   54.10  81-0.68712 0.83300 0.66303-0.54340-0.50034 0.16647
  -3   1   6 1171.10   74.60   2 0.66487-0.81074-0.42583 0.54546 0.79341-0.45954
  -3   1   6 1226.20   57.90  78-0.67609 0.53021 0.70584-0.58621-0.41560 0.74947
  -3  -1   6 1347.10   57.40  62-0.48805 0.34218 0.81564-0.93527 0.13920 0.19467
  -3  -1   6 1183.40   59.50 170 0.64607-0.79260 0.45080-0.57039 0.78907-0.45578
   3  -1  -6 1061.50   59.10  92-0.66479 0.81067 0.42594-0.54557-0.79339 0.45952
   3  -1  -6 1170.60   56.00 127-0.11103 0.25730 0.83724-0.95695-0.54298 0.20907
   3   1  -5 8098.40  296.80  83-0.69094 0.85927 0.63081-0.51117-0.55466 0.29132
  -3   1   5 8437.10  320.70   5 0.64201-0.81034-0.35309 0.47272 0.84951-0.58617
  -3   1   5 8506.70  307.40  82-0.69053 0.52221 0.63606-0.51642-0.54626 0.80960
  -3  -1   5 9486.10  307.10  63-0.51299 0.34467 0.81652-0.93615 0.08777 0.17557
   3  -1  -5 8016.20  299.60  95-0.64194 0.81027 0.35320-0.47283-0.84949 0.58615
   3  -1  -5 8605.40  316.00 128-0.08224 0.25090 0.82009-0.93980-0.56310 0.29970
   3   1  -4  313.10   20.70  87-0.68884 0.87961 0.54771-0.42808-0.66945 0.47664
  -3   1   4  367.20   27.10   9 0.59797-0.78875-0.24303 0.36266 0.91439-0.72158
  -3   1   4  335.30   28.10  88-0.68660 0.49583 0.52956-0.40993-0.69077 0.88358
   3  -1  -4  343.90   26.30  99-0.59791 0.78868 0.24315-0.36278-0.91438 0.72157
   3  -1  -4  362.90   30.50 130-0.03863 0.22969 0.79109-0.91080-0.59114 0.39825
   3   1  -3 3294.00  126.00  98-0.61621 0.82944 0.28579-0.16615-0.89187 0.76959
  -3   1   3 3184.10  119.60  15 0.51809-0.73132-0.08550 0.20513 0.97169-0.84941
  -3   1   3 3516.40  142.70  94-0.64881 0.43558 0.37334-0.25371-0.83510 0.95738
  -3   1   3 3829.00  148.10 124-0.17748-0.03597 0.87058-0.75087-0.49151 0.61389
  -3   1   3 3284.50  126.00 172 0.61292-0.82642 0.52789-0.40829 0.75200-0.62984
  -3  -1   3 3233.80  127.40   8 0.61617-0.82940-0.28541 0.16577 0.89203-0.76975
   3  -1  -3 3131.80  143.20   4 0.64888-0.43565-0.37322 0.25358 0.83512-0.95741
   3  -1  -3 3464.40  135.90 105-0.51804 0.73126 0.08563-0.20526-0.97169 0.84941
   3  -1  -3 3272.30  136.10 133 0.02358 0.18987 0.74354-0.86325-0.62618 0.50380
  -3   1   2 6168.70  239.70  22 0.39055-0.62622 0.11515 0.00449 0.99016-0.93841
  -3   1   2 6335.80  225.20 102-0.56145 0.32577 0.16667-0.04703-0.94711 0.99886
  -3   1   2 6804.70  245.30 128-0.08683-0.14902 0.82293-0.70322-0.55997 0.61185
  -3  -1   2 6239.40  215.30  38 0.03113-0.26681 0.52363-0.64326 0.81701-0.76526
  -3  -1   2 6958.80  219.30  80-0.68495 0.44927 0.67438-0.79402-0.47945 0.53121
   3  -1  -2 6017.20  223.20  12 0.56150-0.32583-0.16654 0.04691 0.94711-0.99886
   3  -1  -2 6486.40  228.40 112-0.39050 0.62618-0.11502-0.00461-0.99018 0.93843
   3  -1  -2 6210.60  235.90 137 0.10759 0.12826 0.66780-0.78751-0.66422 0.61234
   3   1  -1 4390.80  152.00  27 0.28970-0.03157 0.24849-0.12885 0.96844-0.94966
  -3   1   1 4120.30  154.00  30 0.22385-0.48198 0.32679-0.20716 0.94170-0.96048
  -3   1   1 4252.20  164.10 110-0.42746 0.16934-0.06125 0.18088-0.99111 0.97233
  -3   1   1 4950.20  170.00 133 0.01272-0.27097 0.75236-0.63265-0.62048 0.60185
  -3  -1   1 4297.60  153.50  59-0.43781 0.17969 0.80801-0.92764 0.23440-0.25317
   3  -1  -1 4250.60  156.50  20 0.42751-0.16939 0.06138-0.18101 0.99109-0.97231
   3  -1  -1 4553.30  173.90 120-0.22381 0.48193-0.32667 0.20704-0.94174 0.96051
   3  -1  -1 3796.70  159.60 142 0.21322 0.04502 0.55280-0.67251-0.69614 0.71476
   3  -1  -1 4597.50  170.10 174 0.58267-0.32452 0.58708-0.70667 0.71780-0.69920
  -3   1   019057.60  620.80  37 0.05007-0.33064 0.50626-0.38662 0.83209-0.92140
   3  -1   017723.20  637.10 148 0.33294-0.05230 0.39172-0.51143-0.70757 0.79671
   3   1   1 2145.50  100.60  50-0.24631 0.54933 0.72958-0.60995 0.52642-0.36659
   3   1   1 2176.70   84.00 134 0.05020 0.25283 0.72099-0.60128-0.63939 0.79904
  -3   1  -1 2105.40  104.60  43-0.10153-0.20149 0.63370-0.51406 0.69469-0.85452
  -3   1  -1 2202.00   84.10 123-0.14635-0.15667-0.41126 0.53089-0.89948 0.73965
  -3   1  -1 2244.80   82.80 142 0.21348-0.51651 0.55249-0.43278-0.69619 0.53655
  -3  -1  -1 2276.60   82.30  65-0.54707 0.24404 0.81377-0.93341 0.01185-0.17169
   3  -1   1 2145.30   81.90  33 0.14641 0.15662 0.41136-0.53100 0.89945-0.73961
   3  -1   1 2020.80  112.60 155 0.45031-0.14728 0.19069-0.31040-0.68408 0.84372
   3   1   2 3553.40  137.00  52-0.30338 0.62885 0.75956-0.63993 0.44886-0.21850
  -3   1  -2 3716.10  148.50  49-0.22166-0.10382 0.71518-0.59555 0.55783-0.78820
  -3   1  -2 3858.60  160.40 146 0.29808-0.62351 0.44246-0.32275-0.70733 0.47718
  -3  -1  -2 3986.30  170.30  67-0.56955 0.24408 0.80885-0.92849-0.04272-0.18764
   3  -1   2 3813.00  149.70  37 0.04650 0.27898 0.50957-0.62920 0.82929-0.59892
   3  -1   2 3342.40  169.10 161 0.54591-0.22048-0.02814-0.09157-0.62062 0.85077
   3   1   3  804.70   42.30  53-0.32768 0.67560 0.77079-0.65115 0.41365-0.11276
  -3   1  -3  870.10   49.70  53-0.31397-0.03395 0.76457-0.64494 0.43369-0.73458
  -3   1  -3  831.70   57.90 150 0.36477-0.71259 0.34221-0.22250-0.70523 0.40457
  -3  -1  -3  799.60   50.30  68-0.58755 0.23963 0.80264-0.92228-0.08965-0.21124
   3  -1   3  784.20   46.10  40-0.02386 0.37178 0.57173-0.69136 0.76985-0.46895
  -3   1  -4 4436.90  175.70  56-0.38526 0.01489 0.79329-0.67366 0.32430-0.69572
  -3   1  -4 4555.70  169.90 152 0.41337-0.78358 0.25986-0.14015-0.69621 0.32505
  -3  -1  -4 4799.80  207.40  70-0.60299 0.23262 0.79530-0.91494-0.13281-0.23862
  -3   1  -5 7633.80  275.30  59-0.44136 0.04854 0.80878-0.68914 0.22799-0.66994
  -3   1  -5 7910.30  267.70 154 0.44649-0.83910 0.19815-0.07844-0.68558 0.24391
  -3  -1  -5 8232.20  305.10  71-0.61668 0.22386 0.78686-0.90649-0.17383-0.26812
  -3   1  -6 2887.00  139.60  62-0.48650 0.07123 0.81551-0.69588 0.14229-0.65477
  -3   1  -6 2726.40  122.40 156 0.46746-0.88246 0.15625-0.03654-0.67657 0.16439
  -3  -1  -6 2965.30  128.20  72-0.62898 0.21371 0.77730-0.89693-0.21354-0.29894
  -3   1  -7  379.00   37.50  64-0.52358 0.08586 0.81620-0.69656 0.06495-0.64796
  -3   1  -7  285.90   27.80 156 0.47912-0.91652 0.13184-0.01213-0.67067 0.08799
  -3  -1  -7  384.70   33.00  73-0.64009 0.20237 0.76659-0.88622-0.25237-0.33064
  -3   1  -8 1502.40   92.30  66-0.55454 0.09438 0.81245-0.69282-0.00585-0.64769
  -3  -1  -8 1666.40   84.00  74-0.65011 0.18994 0.75470-0.87433-0.29061-0.36293
  -3   1  -9  249.50   48.20  68-0.58074 0.09812 0.80526-0.68563-0.07151-0.65256
  -3  -1  -9  483.20   43.50  75-0.65909 0.17647 0.74158-0.86121-0.32841-0.39566
  -3   1 -10  181.90   46.40  70-0.60309 0.09803 0.79525-0.67562-0.13310-0.66150
  -3  -1 -10  115.00   44.90  77-0.66705 0.16199 0.72718-0.84682-0.36589-0.42871
  -3   1 -11  235.60   46.50  71-0.62225 0.09473 0.78279-0.66316-0.19143-0.67369
  -3  -1 -11  351.90   45.30  78-0.67399 0.14648 0.71144-0.83108-0.40313-0.46199
  -3   2  13    2.00   28.40   1 0.67235-0.66108-0.45476 0.69403 0.76770 0.05987
   3  -2 -13   40.10   31.50  91-0.67227 0.66100 0.45485-0.69411-0.76770-0.05988
   3  -2 -13   28.70   32.60 133 0.02764-0.03813 0.74018-0.97960-0.62827-0.19919
  -3   2  12  308.30   46.50   1 0.67273-0.68392-0.45635 0.69562 0.76623-0.00918
   3  -2 -12  199.90   39.60  91-0.67265 0.68383 0.45644-0.69571-0.76622 0.00918
   3  -2 -12  310.00   38.80 133 0.01503-0.00312 0.75050-0.98992-0.62171-0.13524
   3   2 -11  231.70   28.50  78-0.67557 0.70920 0.70729-0.46802-0.41242-0.27409
  -3   2  11  358.00   36.90   1 0.67199-0.70563-0.45329 0.69256 0.76906-0.08254
   3  -2 -11  302.20   36.60  91-0.67191 0.70554 0.45338-0.69265-0.76905 0.08254
   3  -2 -11  324.80   34.80 132 0.00708 0.02722 0.75685-0.99627-0.61745-0.06899
   3   2 -10  124.30   28.70  77-0.67015 0.72623 0.72061-0.48135-0.38186-0.23412
  -3   2  10  237.40   43.10   1 0.66982-0.72590-0.44455 0.68382 0.77701-0.16102
   3  -2 -10  244.90   45.50  91-0.66974 0.72582 0.44464-0.68391-0.77701 0.16102
   3  -2 -10  114.30   32.90 132 0.00429 0.05240 0.75905-0.99847-0.61594 0.00000
   3   2  -9 2701.30  105.90  76-0.66438 0.74291 0.73238-0.49311-0.35278-0.19268
  -3  -2   9 2507.60  109.30  51-0.26938 0.19085 0.74228-0.98155 0.49590 0.04956
   3  -2  -9 2932.30  112.40  92-0.66556 0.74409 0.42875-0.66802-0.79098 0.24552
   3   2  -8 1398.30   67.50  75-0.65853 0.75950 0.74249-0.50323-0.32591-0.14902
  -3   2   8 1548.70   85.10   3 0.65845-0.75943-0.40353 0.64280 0.81184-0.33692
  -3  -2   8 1472.90   69.60  51-0.27104 0.17006 0.74317-0.98243 0.49366-0.01874
   3  -2  -8 1386.90   62.20  93-0.65837 0.75935 0.40362-0.64289-0.81184 0.33691
   3  -2  -8 1444.00   65.60 133 0.01714 0.08434 0.74880-0.98822-0.62282 0.14790
   3   2  -7 2241.00  111.40  75-0.65305 0.77648 0.75070-0.51143-0.30257-0.10183
  -3   2   7 2462.90  116.70   5 0.64655-0.76998-0.36626 0.60553 0.84019-0.43579
  -3  -2   7 2495.30  121.50  50-0.26358 0.14015 0.73916-0.97843 0.50368-0.09928
   3  -2  -7 2404.90   97.50  95-0.64647 0.76990 0.36635-0.60562-0.84019 0.43579
   3  -2  -7 2392.20  108.10 134 0.03479 0.08909 0.73421-0.97363-0.63187 0.22746
   3   2  -6  422.10   30.40  74-0.64881 0.79469 0.75638-0.51712-0.28545-0.04842
  -3   2   6  541.10   46.40   7 0.62720-0.77308-0.31299 0.55226 0.87575-0.54188
  -3   2   6  475.00   33.10  82-0.69002 0.54414 0.64155-0.40228-0.53730 0.87117
  -3  -2   6  520.80   33.90  49-0.24031 0.09443 0.72615-0.96542 0.53418-0.20031
   3  -2  -6  460.20   37.10  97-0.62712 0.77300 0.31308-0.55235-0.87575 0.54188
   3  -2  -6  477.40   37.00 135 0.06158 0.08469 0.71094-0.95036-0.64472 0.31081
   3   2  -5 1721.40   79.10  74-0.64765 0.81598 0.75785-0.51858-0.28090 0.01756
   3   2  -5 1968.60   86.60 180 0.48427-0.31542 0.73413-0.49495 0.60499-0.86789
  -3   2   5 2068.80  106.50   9 0.59619-0.76451-0.23905 0.47832 0.91633-0.65299
  -3   2   5 1907.20   92.50  86-0.69024 0.52192 0.56258-0.32332-0.65108 0.91442
  -3  -2   5 2001.40   74.10  47-0.18510 0.01677 0.69232-0.93158 0.60226-0.33892
   3  -2  -5 1978.20  111.30  99-0.59611 0.76444 0.23914-0.47841-0.91634 0.65300
   3  -2  -5 1918.10   87.80 137 0.09884 0.06983 0.67632-0.91573-0.66076 0.39736
   3   2  -414890.80  566.90 172 0.62013-0.42894 0.51238-0.27319 0.76010-0.95263
  -3   2   415735.20  504.50  13 0.54781-0.73859-0.13999 0.37926 0.95628-0.76347
   3  -2  -416384.30  514.80 103-0.54774 0.73851 0.14009-0.37935-0.95628 0.76347
   3  -2  -414845.60  519.70 139 0.14760 0.04346 0.62693-0.86635-0.67847 0.48558
   3   2  -3 4841.00  176.30  81-0.68666 0.89989 0.66565-0.42638-0.49561 0.37333
   3   2  -3 5967.90  184.30 113-0.37801 0.59124-0.13253 0.37180-0.98893 0.86665
  -3   2   3 5368.60  229.30  17 0.47602-0.68925-0.01422 0.25348 0.98510-0.86282
  -3   2   3 5582.00  186.80  96-0.63183 0.41861 0.32541-0.08614-0.86801 0.99029
  -3   2   3 5867.40  192.50 131-0.03233-0.18112 0.78660-0.54719-0.59495 0.71734
  -3  -2   3 5132.30  176.30  23 0.37868-0.59190 0.13181-0.37107 0.98898-0.86670
   3  -2  -3 5112.70  203.70   6 0.63191-0.41868-0.32532 0.08605 0.86801-0.99029
   3  -2  -3 5281.50  253.00 107-0.47595 0.68918 0.01431-0.25358-0.98511 0.86283
   3  -2  -3 4955.00  194.60 142 0.20803 0.00542 0.55900-0.79842-0.69501 0.57262
  -3   2   211113.80  398.10  23 0.37777-0.61344 0.13307 0.10620 0.98888-0.93712
  -3   2   211087.30  391.40 102-0.56323 0.32755 0.17020 0.06907-0.94580 0.99756
  -3   2   212522.90  368.60 135 0.05550-0.29135 0.71634-0.47692-0.64190 0.69378
  -3   2   210822.50  386.80 173 0.60460-0.84043 0.54507-0.30588 0.74262-0.69084
   3  -2  -210735.00  399.20  12 0.56330-0.32763-0.17011-0.06916 0.94580-0.99755
   3  -2  -211864.00  386.20 113-0.37770 0.61337-0.13298-0.10629-0.98889 0.93714
   3  -2  -210561.30  379.00 145 0.27867-0.04282 0.46927-0.70869-0.70603 0.65415
   3   2  -1 5161.50  186.30  20 0.43485-0.17673 0.05033 0.18894 0.99075-0.97197
   3   2  -1 5282.40  185.60  53-0.31519 0.57332 0.76514-0.52587 0.43192-0.41314
  -3   2   1 5196.40  193.00  28 0.25720-0.51533 0.28791-0.04864 0.95636-0.97514
  -3   2   1 5323.20  192.10 108-0.47110 0.21298 0.00646 0.23280-0.98613 0.96735
  -3   2   1 5931.50  237.20 139 0.14149-0.39973 0.63338-0.39396-0.67646 0.65783
  -3   2   1 4926.70  196.80 178 0.51966-0.77782 0.68759-0.44840 0.64578-0.66437
  -3  -2   1 5860.80  193.70 110-0.43422 0.17610-0.05108-0.18819-0.99079 0.97202
   3  -2  -1 5078.70  198.40  18 0.47117-0.21305-0.00637-0.23289 0.98612-0.96734
   3  -2  -1 5938.20  211.10 118-0.25713 0.51526-0.28782 0.04855-0.95639 0.97516
   3  -2  -1 4853.70  206.70 149 0.35573-0.09748 0.35661-0.59603-0.70616 0.72479
   3   2   0 3547.70  155.40  59-0.44865 0.72922 0.81024-0.57098 0.21471-0.12540
  -3   2   0 3937.40  146.70  34 0.12623-0.40680 0.43216-0.19289 0.88666-0.97596
  -3   2   0 4058.80  151.10 113-0.36759 0.08702-0.14692 0.38618-0.98755 0.89825
  -3   2   0 4371.40  148.20 142 0.22107-0.50171 0.54332-0.30390-0.69775 0.60861
  -3  -2   0 4483.10  155.90  88-0.68510 0.40452 0.51924-0.75850-0.70241 0.61310
   3  -2   0 3903.40  147.80  23 0.36767-0.08709 0.14700-0.38627 0.98753-0.89823
   3  -2   0 3480.60  173.50 153 0.43317-0.15254 0.22357-0.46298-0.69035 0.77948
   3  -2   0 4391.10  155.00 170 0.63991-0.35943 0.46634-0.70553 0.78222-0.69325
   3   2   1 2710.80  123.70  60-0.46574 0.76876 0.81313-0.57387 0.18275-0.02292
  -3   2  -1 3209.70  126.10  39-0.00118-0.30184 0.55231-0.31305 0.78990-0.94974
  -3   2  -1 3148.50  122.60 118-0.26729-0.03574-0.27567 0.51494-0.96040 0.80056
  -3   2  -1 3224.50  130.90 146 0.29046-0.59349 0.45311-0.21369-0.70691 0.54727
  -3  -2  -1 3470.20  135.80  82-0.68968 0.38666 0.64472-0.88399-0.53203 0.37219
   3  -2   1 3052.50  110.90  28 0.26736 0.03566 0.27575-0.51502 0.96038-0.80054
   3  -2   1 2652.20  111.20 158 0.50397-0.20094 0.07683-0.31625-0.65568 0.81532
   3  -2   1 3542.20  139.00 174 0.58662-0.28382 0.57983-0.81902 0.72228-0.56293
  -3   2  -223359.20  753.60  44-0.11542-0.21006 0.64403-0.40476 0.68018-0.91054
   3  -2   219853.20  711.00 163 0.56208-0.23666-0.07426-0.16516-0.60256 0.83271
   3   2   3 1376.30   69.90  60-0.45525 0.80317 0.81145-0.57219 0.20249 0.09840
  -3   2  -3 1796.80   89.20  48-0.21292-0.13500 0.70988-0.47061 0.56868-0.86957
  -3   2  -3 1670.10   78.90 151 0.39222-0.74004 0.29679-0.05737-0.70102 0.40036
  -3  -2  -3 1878.90   72.10  78-0.67632 0.32840 0.70519-0.94446-0.41702 0.11613
  -3   2  -4 2102.00   98.90  52-0.29427-0.07610 0.75510-0.51584 0.46172-0.83314
  -3   2  -4 2151.00   85.50 153 0.42546-0.79568 0.23791 0.00151-0.69280 0.32163
  -3  -2  -4 2179.10   96.30  78-0.67414 0.30376 0.71108-0.95034-0.40397 0.03254
  -3   2  -5   45.00   22.50  55-0.36172-0.03110 0.78483-0.54557 0.36188-0.80383
  -3   2  -5    4.40   27.70 154 0.44900-0.84161 0.19325 0.04617-0.68460 0.24293
  -3  -2  -5   36.40   30.00  78-0.67420 0.28138 0.71091-0.95017-0.40435-0.03761
  -3   2  -6 3200.50  131.10  58-0.41785 0.00258 0.80315-0.56388 0.26960-0.78208
  -3  -2  -6 3262.10  121.40  78-0.67570 0.26043 0.70692-0.94618-0.41324-0.09924
  -3   2  -7 5717.30  229.10  60-0.46489 0.02718 0.81301-0.57374 0.18435-0.76736
  -3  -2  -7 5902.20  251.60  78-0.67804 0.24032 0.70017-0.93944-0.42786-0.15515
  -3   2  -8  699.90   62.90  63-0.50468 0.04451 0.81647-0.57720 0.10527-0.75881
  -3  -2  -8  787.70   51.00  79-0.68078 0.22061 0.69121-0.93048-0.44650-0.20704
  -3   2  -9   89.60   26.30  65-0.53858 0.05596 0.81494-0.57568 0.03145-0.75552
  -3  -2  -9  119.30   40.60  80-0.68361 0.20099 0.68034-0.91961-0.46807-0.25600
  -3   2 -10   13.30   34.50  67-0.56765 0.06259 0.80938-0.57012-0.03795-0.75665
  -3  -2 -10  -31.80   41.20  81-0.68628 0.18121 0.66771-0.90698-0.49185-0.30275
  -3   3  12   36.30   43.50   4 0.65024-0.66142-0.37736 0.73626 0.83206-0.07501
   3  -3 -12   41.30   27.90  94-0.65016 0.66134 0.37744-0.73634-0.83206 0.07502
   3  -3 -12  101.30   35.70 139 0.14340-0.13149 0.63138-0.99050-0.67709-0.07985
  -3   3  11 1015.40   72.10   5 0.64773-0.68136-0.36976 0.72866 0.83765-0.15114
   3  -3 -11  741.70   76.60  95-0.64764 0.68128 0.36984-0.72874-0.83766 0.15115
   3  -3 -11  866.10   63.40 138 0.13997-0.10566 0.63498-0.99410-0.67595-0.01049
  -3   3  10  256.20   36.70   5 0.64304-0.69912-0.35604 0.71494 0.84745-0.23146
   3  -3 -10  249.30   36.30  95-0.64296 0.69904 0.35612-0.71502-0.84746 0.23147
   3  -3 -10  287.10   42.30 139 0.14192-0.08523 0.63293-0.99206-0.67660 0.06067
   3   3  -9  885.70   52.30  73-0.63566 0.71419 0.77112-0.41223-0.23652-0.30894
  -3   3   9 1022.80   57.60   6 0.63548-0.71401-0.33491 0.69380 0.86179-0.31634
   3  -3  -9  890.00   53.70  96-0.63540 0.71393 0.33498-0.69388-0.86180 0.31635
   3  -3  -9 1030.30   53.00 139 0.14971-0.07062 0.62469-0.98381-0.67915 0.13372
  -3   3   8 5319.10  200.50   7 0.62395-0.72493-0.30469 0.66359 0.88079-0.40587
   3  -3  -8 5285.30  186.40  97-0.62387 0.72485 0.30477-0.66367-0.88080 0.40587
   3  -3  -8 5494.00  243.70 140 0.16385-0.06236 0.60942-0.96855-0.68352 0.20860
   3   3  -7  821.70   49.90  70-0.60271 0.72614 0.79546-0.43656-0.13199-0.27241
  -3   3   7  992.80   61.30   9 0.60688-0.73031-0.26335 0.62225 0.90406-0.49966
  -3  -3   7  708.30   43.10  40-0.02394-0.09949 0.57179-0.93069 0.76978-0.36538
   3  -3  -7  925.10   66.40  99-0.60680 0.73023 0.26343-0.62233-0.90407 0.49967
   3  -3  -7  776.80   58.50 141 0.18482-0.06094 0.58600-0.94513-0.68939 0.28498
   3   3  -6 2293.90  110.50  68-0.57958 0.72546 0.80567-0.44677-0.06846-0.26541
   3   3  -6 2557.30  119.30 181 0.46618-0.31965 0.75574-0.39696 0.58406-0.91734
  -3   3   6 2534.90  113.60  11 0.58210-0.72798-0.20857 0.56747 0.93032-0.59645
  -3  -3   6 2264.00   93.50  37 0.04781-0.19369 0.50835-0.86725 0.83032-0.49645
   3  -3  -6 2604.20  119.50 101-0.58202 0.72790 0.20864-0.56754-0.93033 0.59646
   3  -3  -6 2335.60   98.20 142 0.21301-0.06674 0.55305-0.91218-0.69609 0.36218
   3   3  -5   84.70   13.80  65-0.54719 0.71552 0.81376-0.45486 0.01156-0.27490
   3   3  -5  112.00   13.40 122-0.16548 0.33381-0.39108 0.74998-0.91094 0.64760
   3   3  -5   91.90   22.20 175 0.56554-0.39668 0.61708-0.25830 0.69830-0.96121
  -3   3   5  117.50   26.30  13 0.54682-0.71515-0.13811 0.49701 0.95688-0.69354
  -3  -3   5  157.60   13.30  32 0.16575-0.33408 0.39096-0.74986 0.91103-0.64769
   3  -3  -5   57.40   19.90 103-0.54674 0.71506 0.13819-0.49709-0.95690 0.69356
   3  -3  -5  130.20   37.00 144 0.24850-0.07984 0.50904-0.86817-0.70249 0.43909
   3   3  -4   77.30   10.70  62-0.49394 0.68472 0.81604-0.45714 0.12734-0.32015
   3   3  -4   41.00   10.20 114-0.35032 0.54110-0.17031 0.52921-0.98462 0.79181
   3   3  -4  109.70   28.90 169 0.64872-0.45754 0.44392-0.08515 0.79200-0.98453
  -3   3   4   18.20   23.80  16 0.49796-0.68873-0.05062 0.40952 0.97920-0.78639
   3  -3  -4   46.60   21.90 106-0.49787 0.68865 0.05070-0.40960-0.97921 0.78640
   3  -3  -4   35.00   31.70 146 0.29088-0.09982 0.45252-0.81165-0.70694 0.51405
   3   3  -3 1057.70   47.60  56-0.38122 0.59445 0.79192-0.43302 0.33085-0.45313
   3   3  -3 1072.60   48.60 101-0.57785 0.79108 0.19992 0.15898-0.93405 0.81177
  -3   3   3 1191.70   53.00  20 0.43297-0.64620 0.05317 0.30573 0.99085-0.86857
  -3   3   3  902.40   56.10  96-0.62984 0.41661 0.32015 0.03874-0.87135 0.99363
  -3  -3   3 1103.10   44.30  11 0.57812-0.79135-0.20023-0.15866 0.93387-0.81159
   3  -3  -3 1292.90   53.90 110-0.43289 0.64612-0.05310-0.30580-0.99087 0.86859
   3  -3  -3 1059.10   62.00 148 0.33902-0.12556 0.38252-0.74165-0.70732 0.58494
   3   3  -2 2226.30   88.00  43-0.10273 0.33841 0.63460-0.27570 0.69344-0.74520
   3   3  -2 1876.70   79.80  86-0.69074 0.92641 0.56911-0.21021-0.64275 0.59100
  -3   3   2 2281.20  104.30  24 0.35123-0.58690 0.16927 0.18962 0.98476-0.93301
  -3   3   2 2185.10   82.90 101-0.57698 0.34130 0.19809 0.16080-0.93481 0.98657
  -3   3   2 2161.10   93.80 138 0.12884-0.36469 0.64649-0.28736-0.67211 0.72398
  -3   3   2 2315.80   99.60 170 0.63677-0.87260 0.47403-0.11525 0.77872-0.72694
   3  -3  -2 2067.60   92.60  11 0.57706-0.34138-0.19802-0.16088 0.93480-0.98655
   3  -3  -2 2398.80   92.20 114-0.35114 0.58682-0.16920-0.18970-0.98478 0.93303
   3  -3  -2 2128.10   95.00 151 0.39094-0.15509 0.29896-0.65808-0.70126 0.64938
   3   3  -1  379.60   23.90  26 0.30133-0.04320 0.23399 0.12491 0.97220-0.95342
   3   3  -1  342.30   18.80  76-0.66656 0.92469 0.72817-0.36927-0.36343 0.38220
  -3   3   1  369.30   38.10  28 0.25523-0.51336 0.29025 0.06865 0.95556-0.97434
  -3   3   1  323.60   36.40 105-0.50995 0.25182 0.07144 0.28746-0.97496 0.95619
  -3   3   1  314.00   31.50 141 0.19873-0.45697 0.56996-0.21084-0.69287 0.67424
  -3   3   1  312.50   29.30 174 0.58009-0.83825 0.59174-0.23296 0.71487-0.73346
  -3  -3   1  458.50   22.60 116-0.30098 0.04285-0.23425-0.12465-0.97214 0.95336
   3  -3  -1  458.60   37.40  15 0.51004-0.25191-0.07137-0.28753 0.97495-0.95617
   3  -3  -1  389.90   35.60 118-0.25515 0.51327-0.29018-0.06872-0.95557 0.97435
   3  -3  -1  365.30   29.40 154 0.44394-0.18570 0.20307-0.56220-0.68654 0.70517
   3   3   0 2755.20   96.50  13 0.54704-0.26647-0.13854 0.49744 0.95675-0.86744
   3   3   0 2258.30  108.90  72-0.62681 0.90738 0.77914-0.42024-0.20632 0.29563
   3   3   0 2878.60  116.00 166 0.59215-0.31151-0.17352 0.53264-0.55810 0.64724
  -3   3   0 2583.80  107.70  33 0.15067-0.43124 0.40691-0.04801 0.90206-0.99136
  -3   3   0 2522.00  116.70 110-0.43455 0.15397-0.05059 0.40949-0.99077 0.90147
  -3   3   0 2622.00  145.80 144 0.26084-0.54148 0.49305-0.13392-0.70416 0.61502
  -3   3   0 2628.40  106.20 178 0.51613-0.79661 0.69251-0.33373 0.64171-0.73069
  -3  -3   0 3193.50  125.40 103-0.54684 0.26626 0.13838-0.49727-0.95684 0.86753
   3  -3   0 2543.90  103.10  20 0.43463-0.15406 0.05066-0.40956 0.99076-0.90145
   3  -3   0 3106.60  112.90 123-0.15058 0.43116-0.40684 0.04794-0.90207 0.99138
   3  -3   0 2579.70  137.70 157 0.49487-0.21423 0.09750-0.45663-0.66159 0.75072
  -3   3  -115462.10  552.80  37 0.04469-0.34772 0.51123-0.15233 0.82787-0.98770
   3  -3   114354.70  494.70 161 0.54068-0.23764-0.01400-0.34513-0.62583 0.78547
   3   3   2 2150.10   92.00 149 0.36277-0.03735 0.34541 0.01371-0.70546 0.93561
  -3   3  -2 1932.40   87.40  42-0.05639-0.26908 0.59854-0.23964 0.73960-0.96996
  -3  -3  -2 2235.60   96.60  90-0.67624 0.35076 0.47204-0.83094-0.75141 0.52104
   3  -3   2 1751.50  100.40 165 0.57893-0.25350-0.12717-0.23195-0.57982 0.80997
  -3   3  -310358.10  465.80  45-0.14858-0.19934 0.66776-0.30886 0.64417-0.94507
  -3  -3  -312467.20  438.10  87-0.68747 0.33955 0.53609-0.89499-0.68323 0.38234
  -3   3  -4   15.20   27.50  49-0.23021-0.14016 0.72027-0.36137 0.54707-0.91850
  -3  -3  -4   12.40   28.00  86-0.69094 0.32056 0.57212-0.93102-0.63885 0.26743
  -3   3  -5 3272.50  152.80  52-0.30129-0.09153 0.75855-0.39965 0.45183-0.89379
  -3  -3  -5 3837.10  160.70  85-0.69180 0.29898 0.59208-0.95098-0.61204 0.17009
  -3   3  -6 1149.20   56.70  55-0.36271-0.05256 0.78521-0.42631 0.36033-0.87281
  -3  -3  -6 1152.10   61.30  84-0.69192 0.27665 0.60207-0.96097-0.59796 0.08548
  -3   3  -7  119.80   36.50  58-0.41569-0.02203 0.80257-0.44367 0.27333-0.85634
  -3  -3  -7  123.20   25.90  84-0.69191 0.25419 0.60537-0.96427-0.59320 0.01019
  -3   3  -8   37.60   29.20  60-0.46142 0.00125 0.81248-0.45358 0.19092-0.84446
  -3  -3  -8   15.80   24.60  84-0.69192 0.23175 0.60387-0.96277-0.59537-0.05817
  -3   3  -9  129.90   44.30  62-0.50101 0.01839 0.81637-0.45747 0.11287-0.83694
  -3  -3  -9  135.30   40.80  84-0.69191 0.20929 0.59866-0.95756-0.60281-0.12125
  -3   3 -10   -6.30   38.10  65-0.53536 0.03029 0.81530-0.45640 0.03877-0.83337
  -3  -3 -10   31.00   29.90  85-0.69176 0.18669 0.59043-0.94932-0.61433-0.18027
  -3   4  11  105.80   25.70   8 0.61500-0.64863-0.28257 0.76110 0.89362-0.20711
   3  -4 -11  170.00   29.70  98-0.61491 0.64855 0.28264-0.76118-0.89364 0.20712
   3  -4 -11  161.80   38.40 144 0.26324-0.22894 0.48989-0.96873-0.70444 0.01800
  -3   4  10  871.50   67.50   9 0.60765-0.66373-0.26514 0.74368 0.90312-0.28713
   3  -4 -10  743.70   66.90  99-0.60757 0.66365 0.26521-0.74375-0.90313 0.28714
   3  -4 -10  743.00   68.20 144 0.26702-0.21032 0.48490-0.96374-0.70488 0.08894
  -3   4   9  114.90   38.90   9 0.59686-0.67538-0.24054 0.71907 0.91561-0.37016
   3  -4  -9   52.60   40.50  99-0.59677 0.67530 0.24061-0.71914-0.91563 0.37017
   3  -4  -9   42.20   24.40 145 0.27590-0.19681 0.47302-0.95185-0.70578 0.16035
  -3   4   8 1713.60   85.80  11 0.58163-0.68260-0.20756 0.68610 0.93075-0.45583
   3  -4  -8 1834.30   85.30 101-0.58154 0.68252 0.20763-0.68616-0.93077 0.45584
   3  -4  -8 1567.80  103.30 146 0.28998-0.18850 0.45377-0.93260-0.70688 0.23196
  -3   4   7 5351.40  211.10  12 0.56069-0.68412-0.16494 0.64347 0.94770-0.54330
   3  -4  -7 5334.70  213.40 102-0.56060 0.68403 0.16501-0.64354-0.94771 0.54331
   3  -4  -7 5382.00  258.40 147 0.30926-0.18538 0.42656-0.90540-0.70770 0.30329
   3   4  -6   57.30   14.70  63-0.50639 0.65226 0.81650-0.33797 0.10170-0.43557
   3   4  -6   51.90   27.00 178 0.51583-0.36930 0.69293-0.21455 0.64137-0.97465
  -3   4   6    9.70   20.20  14 0.53250-0.67838-0.11143 0.58996 0.96492-0.63105
  -3  -4   6   50.90   16.20  27 0.28085-0.42673 0.25938-0.73791 0.96537-0.63150
   3  -4  -6   87.10   26.80 104-0.53241 0.67829 0.11149-0.59002-0.96494 0.63107
   3  -4  -6   86.20   24.90 148 0.33355-0.18727 0.39081-0.86965-0.70755 0.37364
   3   4  -5  745.30   42.80  59-0.44518 0.61351 0.80956-0.33103 0.22105-0.48439
   3   4  -5  889.10   42.50 174 0.58998-0.42113 0.57356-0.09519 0.72609-0.98900
  -3   4   5  893.80   65.10  16 0.49531-0.66364-0.04616 0.52469 0.98003-0.71669
  -3  -4   5  774.10   46.00  22 0.39066-0.55898 0.11499-0.59353 0.99017-0.72683
   3  -4  -5  827.00   63.90 149 0.36241-0.19374 0.34600-0.82484-0.70550 0.44210
   3   4  -4 1736.70   78.80  54-0.35148 0.54225 0.78082-0.30229 0.37777-0.57058
   3   4  -4 1903.60   90.40 169 0.65106-0.45987 0.43774 0.04063 0.79459-0.98712
  -3   4   4 1963.60   83.10  19 0.44752-0.63830 0.03095 0.44758 0.98970-0.79689
   3  -4  -4 2032.20   84.40 109-0.44743 0.63821-0.03088-0.44765-0.98972 0.79691
   3  -4  -4 1812.30   87.00 151 0.39508-0.20402 0.29189-0.77073-0.70045 0.50756
   3   4  -3 3028.60  134.70  48-0.20459 0.41782 0.70473-0.22620 0.57889-0.70117
  -3   4   3 3167.80  134.40  22 0.38808-0.60131 0.11863 0.35990 0.98995-0.86767
   3  -4  -3 3524.30  123.60 112-0.38799 0.60121-0.11857-0.35996-0.98996 0.86768
   3  -4  -3 3088.40  139.90 153 0.43046-0.21701 0.22863-0.70747-0.69123 0.56885
   3   4  -2  690.30   35.20  39 0.00399 0.23168 0.54780-0.06927 0.79436-0.84611
   3   4  -2  557.10   34.40  89-0.68266 0.91834 0.50446-0.02593-0.71846 0.66671
  -3   4   2  782.50   51.40  26 0.31711-0.55278 0.21397 0.26456 0.97682-0.92507
  -3   4   2  664.50   39.80 170 0.64186-0.87769 0.46148 0.01689 0.78439-0.73261
   3  -4  -2  844.20   53.40 116-0.31701 0.55269-0.21391-0.26462-0.97683 0.92508
   3  -4  -2  763.80   55.10 156 0.46714-0.23129 0.15690-0.63574-0.67672 0.62484
   3   4  -1  279.10   21.10  29 0.23287 0.02525 0.31643 0.16211 0.94589-0.92711
   3   4  -1  257.20   22.80  82-0.69033 0.94846 0.63835-0.15982-0.54254 0.56132
   3   4  -1  309.20   20.60 164 0.57330-0.31506-0.10885 0.58769-0.58794 0.60657
  -3   4   1  297.60   35.60  29 0.23630-0.49442 0.31246 0.16607 0.94743-0.96621
  -3   4   1  362.50   37.30 173 0.59893-0.85709 0.55635-0.07798 0.73622-0.75482
  -3  -4   1  380.00   22.40 119-0.23260-0.02553-0.31658-0.16195-0.94581 0.92704
   3  -4  -1  341.20   30.00 119-0.23620 0.49433-0.31240-0.16613-0.94744 0.96622
   3  -4  -1  373.10   33.60 158 0.50348-0.24524 0.07796-0.55679-0.65601 0.67464
   3   4   0  969.90   55.80  21 0.41695-0.13637 0.07705 0.40148 0.99127-0.90196
   3   4   0  959.40   47.90 160 0.53142-0.25078 0.01020 0.46864-0.63440 0.72353
  -3   4   0 1102.40   55.00  33 0.14886-0.42944 0.40880 0.06973 0.90095-0.99026
  -3   4   0  966.20   54.70 176 0.54933-0.82980 0.64349-0.16512 0.67979-0.76876
  -3  -4   0 1218.60   51.50 111-0.41673 0.13615-0.07718-0.40135-0.99129 0.90198
   3  -4   0 1205.50   55.50 123-0.14876 0.42934-0.40874-0.06979-0.90096 0.99027
   3  -4   0  852.60   60.50 161 0.53783-0.25719-0.00644-0.47239-0.62855 0.71769
   3   4   1 1239.30   47.20  14 0.53485-0.23183-0.11575 0.59428 0.96369-0.80386
   3   4   1 1173.00   58.50 155 0.46068-0.15765 0.17006 0.30878-0.67969 0.83934
  -3   4  -1 1051.70   59.90  37 0.05887-0.36190 0.49804-0.01951 0.83890-0.99873
  -3   4  -1 1073.60   56.90 179 0.49496-0.79777 0.72070-0.24233 0.61733-0.77668
  -3  -4  -1 1341.10   63.50 104-0.53468 0.23166 0.11566-0.59419-0.96375 0.80392
   3  -4   1 1039.00   74.90 164 0.56865-0.26561-0.09420-0.38464-0.59424 0.75389
   3   4   2   52.90   14.70   9 0.60220-0.27673-0.25258 0.73112 0.90962-0.67926
   3   4   2   39.70   15.50 148 0.34358-0.01815 0.37553 0.10330-0.70707 0.93722
  -3   4  -2  105.10   30.60  40-0.02968-0.29580 0.57661-0.09808 0.76457-0.99493
  -3  -4  -2   39.60   13.20  99-0.60206 0.27659 0.25252-0.73106-0.90971 0.67934
   3  -4   2   18.20   41.70 166 0.59470-0.26927-0.18310-0.29574-0.55340 0.78355
   3   4   3   79.90   23.80   5 0.63915-0.29123-0.34503 0.82356 0.85503-0.55414
   3   4   3   85.20   15.60 139 0.15717 0.19065 0.61668-0.13784-0.68150 0.98216
  -3   4  -3   89.20   24.40  44-0.11365-0.23427 0.64272-0.16419 0.68204-0.98294
  -3  -4  -3  120.40   21.90  95-0.63903 0.29111 0.34499-0.82353-0.85512 0.55423
   3   4   4 2915.30  127.60   3 0.65933-0.28895-0.40647 0.88500 0.80948-0.43805
  -3   4  -4 2816.70  131.70  47-0.19108-0.17929 0.69618-0.21764 0.59517-0.96659
  -3  -4  -4 3229.70  148.80  93-0.65921 0.28884 0.40646-0.88499-0.80956 0.43814
   3   4   5  371.10   37.80   1 0.67041-0.27759-0.44687 0.92540 0.77492-0.33297
  -3   4  -5  315.30   43.40  50-0.26109-0.13173 0.73781-0.25927 0.50699-0.94895
  -3  -4  -5  335.00   35.80  91-0.67030 0.27748 0.44687-0.92540-0.77500 0.33305
  -3   4  -6 4097.50  178.80  53-0.32361-0.09166 0.76897-0.29044 0.41965-0.93213
  -3  -4  -6 4840.90  195.50  90-0.67641 0.26114 0.47281-0.95134-0.75066 0.23818
  -3   4  -7  390.90   44.10  56-0.37901-0.05871 0.79115-0.31262 0.33443-0.91744
  -3  -4  -7  502.60   49.90  90-0.67968 0.24196 0.48852-0.96705-0.73504 0.15203
  -3   4  -8 1065.10   81.50  58-0.42791-0.03226 0.80572-0.32719 0.25202-0.90556
  -3  -4  -8 1143.80   66.70  89-0.68126 0.22109 0.49672-0.97525-0.72661 0.07307
  -3   4  -9   67.20   47.80  61-0.47100-0.01161 0.81386-0.33533 0.17266-0.89673
  -3  -4  -9  106.50   31.60  89-0.68171 0.19909 0.49917-0.97770-0.72406-0.00001
  -3   5  10  271.20   45.50  12 0.56494-0.62102-0.17337 0.77153 0.94458-0.32859
   3  -5 -10  415.50   44.40 102-0.56485 0.62093 0.17343-0.77159-0.94459 0.32861
   3  -5 -10  314.90   43.30 150 0.37290-0.31621 0.32904-0.92758-0.70421 0.08827
  -3   5   9 1177.60   68.60  13 0.55139-0.62992-0.14684 0.74500 0.95402-0.40856
   3  -5  -9 1166.00   78.20 103-0.55130 0.62983 0.14690-0.74507-0.95404 0.40858
   3  -5  -9 1093.10   76.80 150 0.38032-0.30124 0.31680-0.91535-0.70311 0.15768
  -3   5   8  558.80   45.80  14 0.53330-0.63428-0.11289 0.71105 0.96451-0.48958
   3  -5  -8  592.30   48.20 104-0.53320 0.63418 0.11295-0.71111-0.96453 0.48960
   3  -5  -8  367.90   42.00 151 0.39177-0.29029 0.29755-0.89610-0.70110 0.22618
   3   5  -7  446.40   48.20 181 0.46547-0.34127 0.75655-0.15859 0.58324-0.98690
  -3   5   7  447.20   51.30  15 0.50971-0.63313-0.07079 0.66896 0.97508-0.57068
   3  -5  -7  495.10   54.00 105-0.50961 0.63304 0.07085-0.66902-0.97509 0.57069
   3  -5  -7  359.90   34.00 152 0.40699-0.28311 0.27118-0.86973-0.69781 0.29340
   3   5  -6  963.00   56.60 177 0.53330-0.38677 0.66795-0.06999 0.66143-0.99472
  -3   5   6  966.90   59.90  17 0.47957-0.62545-0.02000 0.61817 0.98429-0.65043
   3  -5  -6 1180.80   59.90 107-0.47948 0.62536 0.02006-0.61823-0.98431 0.65044
   3  -5  -6  946.70   56.00 153 0.42562-0.27934 0.23762-0.83617-0.69275 0.35885
   3   5  -5  229.80   37.60 174 0.59336-0.42451 0.56715 0.03082 0.72992-0.99283
  -3   5   5  202.80   36.30  19 0.44186-0.61019 0.03965 0.55851 0.99024-0.72690
   3  -5  -5  331.50   38.70 109-0.44177 0.61009-0.03960-0.55857-0.99026 0.72692
   3  -5  -5  177.70   43.80 154 0.44712-0.27846 0.19691-0.79546-0.68533 0.42193
   3   5  -4  383.30   41.30 170 0.64347-0.45229 0.45742 0.14054 0.78618-0.97871
  -3   5   4  382.10   34.80  22 0.39576-0.58653 0.10775 0.49042 0.99055-0.79774
   3  -5  -4  421.70   38.20 112-0.39566 0.58644-0.10769-0.49047-0.99056 0.79775
   3  -5  -4  395.40   35.80 156 0.47083-0.27977 0.14927-0.74782-0.67493 0.48204
  -3   5   3   87.50   32.50  24 0.34090-0.55412 0.18302 0.41514 0.98266-0.86038
  -3   5   3  132.90   23.40 168 0.66564-0.87915 0.39662 0.20134 0.81065-0.68850
   3  -5  -3  191.40   38.50 114-0.34080 0.55402-0.18297-0.41519-0.98267 0.86039
   3  -5  -3  165.60   39.90 158 0.49592-0.28246 0.09515-0.69370-0.66093 0.53855
  -3   5   2  531.20   49.00  27 0.27764-0.51331 0.26330 0.33486 0.96422-0.91247
  -3   5   2  470.90   44.70 170 0.63610-0.87193 0.47563 0.12234 0.77798-0.72620
   3  -5  -2  484.90   45.50 117-0.27753 0.51321-0.26325-0.33491-0.96423 0.91248
   3  -5  -2  369.50   47.40 159 0.52144-0.28559 0.03525-0.63379-0.64280 0.59092
  -3   5   1  735.30   51.90  31 0.20721-0.46533 0.34563 0.25254 0.93356-0.95234
  -3   5   1  715.30   44.90 173 0.60051-0.85866 0.55325 0.04472 0.73800-0.75660
  -3  -5   1  720.60   43.40 122-0.16965-0.08848-0.38663-0.21153-0.91335 0.89457
   3  -5  -1  719.70   55.40 121-0.20710 0.46523-0.34558-0.25259-0.93357 0.95235
   3  -5  -1  696.60   69.20 161 0.54640-0.28816-0.02948-0.56907-0.62012 0.63875
  -3   5   0  579.00   50.50  34 0.13164-0.41221 0.42663 0.17153 0.89016-0.97946
  -3   5   0  696.10   54.50 176 0.55946-0.83994 0.62718-0.02922 0.69137-0.78035
  -3  -5   0  726.60   39.10 116-0.31420 0.03363-0.21751-0.38066-0.97605 0.88675
   3  -5   0  584.80   52.70 164 0.56983-0.28919-0.09789-0.50066-0.59267 0.68181
  -3   5  -1 5814.90  218.50  37 0.05348-0.35650 0.50308 0.09508 0.83474-0.99458
  -3   5  -1 5740.20  220.20 178 0.51387-0.81667 0.69563-0.09766 0.63911-0.79846
  -3  -5  -1 6508.30  223.50 110-0.42653 0.12351-0.06264-0.53553-0.99114 0.83130
   3  -5   1 5315.90  246.70 166 0.59084-0.28781-0.16871-0.42984-0.56043 0.72008
  -3   5  -2 1176.50   72.20  40-0.02465-0.30082 0.57239 0.02577 0.76914-0.99950
  -3   5  -2 1169.50   62.70 181 0.46477-0.78990 0.75737-0.15940 0.58242-0.81215
  -3  -5  -2 1361.60   63.10 106-0.50632 0.18085 0.06515-0.66332-0.97632 0.74596
  -3   5  -3  410.60   45.40  43-0.10047-0.24746 0.63289-0.03473 0.69579-0.99668
  -3  -5  -3  471.70   35.90 102-0.56020 0.21228 0.16420-0.76237-0.94800 0.64711
  -3   5  -4  683.90   59.90  46-0.17225-0.19812 0.68387-0.08570 0.61728-0.98870
  -3  -5  -4  995.00   55.60 100-0.59572 0.22535 0.23827-0.83644-0.91676 0.54534
  -3   5  -5  366.00   45.10  49-0.23894-0.15388 0.72537-0.12720 0.53593-0.97788
  -3  -5  -5  401.60   41.20  97-0.61891 0.22609 0.29239-0.89056-0.88809 0.44614
  -3   5  -6  505.30   39.10  52-0.30003-0.11524 0.75793-0.15977 0.45361-0.96610
  -3  -5  -6  636.10   40.50  96-0.63396 0.21869 0.33110-0.92926-0.86435 0.35186
  -3   5  -7  315.90   49.20  55-0.35543-0.08229 0.78239-0.18423 0.37168-0.95469
  -3  -5  -7  233.90   38.20  95-0.64360 0.20588 0.35795-0.95611-0.84617 0.26316
  -3   6   8  391.00   55.30  17 0.48001-0.58099-0.02072 0.73851 0.98419-0.50926
   3  -6  -8  379.70   51.20 107-0.47991 0.58089 0.02077-0.73857-0.98421 0.50928
   3  -6  -8  392.10   44.80 156 0.47117-0.36969 0.14857-0.86682-0.67476 0.19984
   3   6  -7  241.30   40.50 180 0.47590-0.35170 0.74430-0.02674 0.59531-0.99897
  -3   6   7  239.30   49.30  19 0.45474-0.57817 0.01972 0.69808 0.98884-0.58444
   3  -6  -7  276.20   42.80 109-0.45464 0.57807-0.01967-0.69813-0.98886 0.58446
   3  -6  -7  308.50   53.70 157 0.48193-0.35806 0.12584-0.84409-0.66915 0.26474
   3   6  -6  838.10   53.00 177 0.53426-0.38773 0.66652 0.05103 0.66254-0.99582
  -3   6   6  809.70   58.90  20 0.42369-0.56957 0.06708 0.65072 0.99120-0.65733
   3  -6  -6  933.60   63.20 110-0.42359 0.56947-0.06703-0.65077-0.99121 0.65735
   3  -6  -6  733.70   75.90 157 0.49510-0.34882 0.09699-0.81525-0.66145 0.32754
   3   6  -5  112.60   31.50 174 0.58597-0.41712 0.58103 0.13652 0.72154-0.98445
  -3   6   5  130.50   42.30  22 0.38626-0.55459 0.12120 0.59660 0.98978-0.72644
   3  -6  -5   41.20   34.70 112-0.38616 0.55448-0.12115-0.59665-0.98980 0.72646
   3  -6  -5    9.50   38.10 159 0.51020-0.34153 0.06232-0.78057-0.65133 0.38793
   3   6  -4  670.70   45.50 171 0.62995-0.43877 0.49018 0.22737 0.77111-0.96364
  -3   6   4  796.80   58.20  24 0.34207-0.53285 0.18147 0.53633 0.98291-0.79010
   3  -6  -4  700.70   56.50 114-0.34197 0.53274-0.18142-0.53638-0.98293 0.79012
   3  -6  -4  617.40   50.60 160 0.52670-0.33564 0.02217-0.74043-0.63847 0.44558
   3   6  -3  178.30   25.20 168 0.66558-0.45207 0.39681 0.32074 0.81058-0.93274
  -3   6   3  166.80   37.70  27 0.29108-0.50431 0.24677 0.47103 0.96890-0.84662
  -3   6   3  186.60   36.40 169 0.65053-0.86404 0.43913 0.27842 0.79401-0.67185
   3  -6  -3  228.60   32.80 117-0.29098 0.50420-0.24672-0.47107-0.96891 0.84663
   3  -6  -3  270.80   41.00 161 0.54401-0.33055-0.02296-0.69530-0.62255 0.50016
  -3   6   2  218.60   40.80  29 0.23372-0.46940 0.31545 0.40235 0.94627-0.89452
  -3   6   2  278.10   42.80 171 0.62395-0.85978 0.50390 0.21366 0.76439-0.71261
   3  -6  -2  275.70   42.80 119-0.23361 0.46929-0.31540-0.40240-0.94628 0.89452
   3  -6  -2  248.40   37.10 163 0.56148-0.32563-0.07247-0.64579-0.60329 0.55141
  -3   6   1  545.00   48.50  32 0.17092-0.42905 0.38543 0.33237 0.91401-0.93279
  -3   6   1  627.40   58.90 174 0.59267-0.85082 0.56847 0.14909 0.72913-0.74773
   3  -6  -1  594.60   46.40 122-0.17081 0.42894-0.38538-0.33242-0.91402 0.93279
   3  -6  -1  498.70   59.30 165 0.57847-0.32022-0.12566-0.59260-0.58050 0.59913
  -3   6   0  438.00   32.90  35 0.10408-0.38465 0.45442 0.26338 0.87180-0.96111
  -3   6   0  441.40   42.50 176 0.55695-0.83742 0.63129 0.08626 0.68850-0.77747
  -3  -6   0  419.80   38.20 120-0.22437-0.05620-0.32603-0.39177-0.94200 0.85269
   3  -6   0  352.80   52.80 166 0.59434-0.31370-0.18173-0.53652-0.55407 0.64321
  -3   6  -1   -5.20   24.50  38 0.03491-0.33793 0.52020 0.19760 0.82006-0.97990
  -3   6  -1   -9.00   26.00 178 0.51722-0.82002 0.69100 0.02655 0.64297-0.80231
  -3  -6  -1   27.80   19.20 115-0.32600 0.02298-0.20233-0.51546-0.97920 0.81936
  -3   6  -2  492.60   49.00  41-0.03479-0.29068 0.58087 0.13693 0.75988-0.99024
  -3   6  -2  416.80   50.00 180 0.47406-0.79918 0.74650-0.02895 0.59317-0.82290
  -3  -6  -2  482.80   34.00 111-0.40710 0.08163-0.09124-0.62655-0.99113 0.76076
  -3   6  -3   67.90   39.00  44-0.10335-0.24457 0.63507 0.08273 0.69280-0.99370
  -3  -6  -3  122.60   27.50 108-0.46884 0.12092 0.00283-0.72063-0.98657 0.68568
  -3   6  -4  140.30   44.60  46-0.16940-0.20097 0.68196 0.03583 0.62057-0.99200
  -3  -6  -4  194.90   29.30 105-0.51445 0.14408 0.07931-0.79711-0.97319 0.60176
  -3   6  -5   92.00   35.20  49-0.23193-0.16089 0.72128-0.00348 0.54489-0.98685
  -3  -6  -5  159.70   28.70 103-0.54751 0.15469 0.13966-0.85745-0.95642 0.51447
  -3   6  -6  159.70   44.30  52-0.29030-0.12497 0.75312-0.03532 0.46726-0.97974
  -3  -6  -6  348.60   38.60 101-0.57114 0.15587 0.18611-0.90391-0.93969 0.42721
   3   7  -5   67.60   29.30 175 0.57143-0.40258 0.60700 0.23015 0.70502-0.96793
  -3   7   5   68.00   35.40  25 0.32813-0.49646 0.19974 0.63769 0.97970-0.71636
   3  -7  -5  -13.00   29.90 115-0.32803 0.49635-0.19970-0.63773-0.97971 0.71637
   3  -7  -5   -7.00   45.60 162 0.55726-0.38860-0.06010-0.77787-0.60828 0.34488
   3   7  -4   18.80   41.10 172 0.61171-0.42053 0.53044 0.30671 0.75063-0.94316
  -3   7   4   20.00   29.30  27 0.28593-0.47671 0.25313 0.58430 0.96716-0.77434
  -3   7   4   34.70   30.00 169 0.65250-0.84369 0.43386 0.40329 0.79619-0.60366
   3  -7  -4   40.80   31.80 117-0.28582 0.47660-0.25309-0.58434-0.96716 0.77435
   3  -7  -4   84.80   40.40 163 0.56824-0.37718-0.09295-0.74501-0.59477 0.40188
   3   7  -3  149.60   52.20 170 0.64548-0.43197 0.45232 0.38483 0.78841-0.91056
  -3   7   3  295.60   42.70  29 0.23832-0.45154 0.31012 0.52731 0.94833-0.82605
  -3   7   3  346.30   54.00 171 0.63157-0.84507 0.48642 0.35073 0.77292-0.65076
   3  -7  -3  284.90   46.50 119-0.23820 0.45143-0.31008-0.52735-0.94834 0.82605
   3  -7  -3  272.80   48.00 165 0.57976-0.36631-0.12996-0.70800-0.57856 0.45617
  -3   7   2   78.70   40.10  31 0.18570-0.42137 0.36942 0.46801 0.92227-0.87052
  -3   7   2  171.40   42.10 173 0.60686-0.84269 0.54047 0.29668 0.74517-0.69339
   3  -7  -2  192.30   43.70 121-0.18558 0.42126-0.36938-0.46805-0.92227 0.87052
   3  -7  -2   56.10   35.20 166 0.59137-0.35552-0.17063-0.66733-0.55950 0.50762
  -3   7   1  120.90   28.90  34 0.12883-0.38695 0.42951 0.40792 0.88834-0.90712
  -3   7   1  185.70   50.10 174 0.57834-0.83649 0.59488 0.24227 0.71288-0.73147
  -3   7   0   50.50   37.80  36 0.06872-0.34929 0.48874 0.34869 0.84636-0.93566
  -3   7   0  114.40   44.80 176 0.54611-0.82659 0.64853 0.18862 0.67611-0.76508
  -3   7  -1  251.20   35.30  39 0.00660-0.30963 0.54551 0.29192 0.79659-0.95643
  -3   7  -1  423.30   47.70 178 0.51038-0.81319 0.70039 0.13676 0.63510-0.79445
  -3  -7  -1  265.70   30.20 120-0.22997-0.07305-0.31960-0.51783-0.94461 0.78478
  -3   7  -2  139.70   43.70  42-0.05623-0.26924 0.59841 0.23902 0.73975-0.97012
  -3   7  -2  284.00   54.30 181 0.47148-0.79661 0.74955 0.08760 0.59020-0.81992
  -3  -7  -2  233.00   22.90 116-0.30806-0.01741-0.22532-0.61211-0.97428 0.74392
   4   0 -13   31.70   32.30 124-0.18008 0.26314 0.87170-0.87170-0.48934-0.30840
   4   0 -12  -25.50   35.70  88-0.68666 0.79137 0.52998-0.52998-0.69029-0.03698
   4   0 -11  649.50   53.90  88-0.68668 0.81384 0.53011-0.53011-0.69014 0.03340
   4   0 -10   29.80   18.70  88-0.68588 0.83548 0.52444-0.52444-0.69659 0.11037
   4   0  -9 1722.40   87.00  89-0.68377 0.85582 0.51092-0.51092-0.71152 0.19584
  -4   0   9 1629.90   85.80  66-0.56133 0.38927 0.81099-0.81099-0.02227 0.53796
  -4   0   9 1651.20   77.10 181 0.46558-0.63863 0.75644-0.75644 0.58336-0.06861
   4   0  -8 3493.80  149.30  90-0.67922 0.87372 0.48620-0.48620-0.73739 0.29224
  -4   0   8 3751.60  158.40  69-0.59375 0.39924 0.79995-0.79995-0.10661 0.55176
  -4   0   8 3768.00  140.20 179 0.49195-0.68732 0.72454-0.72454 0.61385-0.16947
   4   0  -7 3472.30  172.90  91-0.66974 0.88670 0.44465-0.44465-0.77700 0.40237
  -4   0   7 3622.70  177.00   1 0.66981-0.88676-0.44450 0.44450 0.77705-0.40242
  -4   0   7 3833.10  155.50  72-0.62647 0.40952 0.77942-0.77942-0.20519 0.57982
  -4   0   7 3443.70  129.40 175 0.56723-0.78494 0.61420-0.61420 0.70024-0.32624
   4   0  -6  165.40   22.50  94-0.64998 0.88938 0.37690-0.37690-0.83247 0.52837
  -4   0   6  170.40   24.90   4 0.65004-0.88944-0.37674 0.37674 0.83252-0.52842
  -4   0   6  203.10   23.10  75-0.65806 0.41866 0.74323-0.74323-0.32388 0.62798
   4   0  -5   20.80   16.90  98-0.60884 0.87069 0.26818-0.26818-0.90155 0.66798
  -4   0   5   -0.90   17.90   8 0.60888-0.87073-0.26801 0.26801 0.90159-0.66802
  -4   0   5   -5.40   13.50  80-0.68381 0.42196 0.67949-0.67949-0.46973 0.70330
   4   0  -4  234.80   23.70 104-0.52632 0.81063 0.10044-0.10044-0.96795 0.80490
   4   0  -4  226.10   27.60 124-0.17080 0.45541 0.86764-0.86764-0.49701 0.33383
  -4   0   4  248.70   23.40  14 0.52634-0.81064-0.10024 0.10024 0.96796-0.80492
  -4   0   4  265.00   17.00  86-0.69057 0.40627 0.56681-0.56681-0.64571 0.80875
   4   0  -2  226.50   19.00  14 0.53257-0.20337-0.11155 0.11155 0.96488-0.98687
   4   0  -2  273.80   21.40 122-0.17728 0.50648-0.37841 0.37841-0.91768 0.89570
   4   0  -2  227.50   17.60 130-0.05101 0.38041 0.79969-0.79969-0.58347 0.56131
  -4   0   2  192.50   16.70  32 0.17725-0.50645 0.37861-0.37861 0.91760-0.89561
  -4   0   2  236.30   17.20 104-0.53256 0.20336 0.11176-0.11176-0.96486 0.98684
   4   0  -127754.10  910.30 134 0.05081 0.30098 0.72046-0.72046-0.63968 0.68802
   4   0   0 5470.70  217.30  31 0.18705 0.18705 0.36795-0.36795 0.92300-0.80393
   4   0   0 5300.60  203.00 141 0.18709 0.18709 0.58341-0.58341-0.68998 0.80883
  -4   0   0 5446.60  205.40  47-0.18705-0.18705 0.69358-0.69358 0.59995-0.71903
  -4   0   0 5792.50  222.20 121-0.18705-0.18705-0.36778 0.36778-0.92307 0.80399
   4   0   1   88.00   16.20  37 0.05810 0.33845 0.49876-0.49876 0.83830-0.64870
   4   0   1  164.50   19.70 149 0.34929 0.04729 0.36669-0.36669-0.70669 0.89605
  -4   0  -1   78.90   12.40  52-0.30132-0.09523 0.75856-0.75856 0.45179-0.64139
  -4   0  -1  107.30   12.60 127-0.11426-0.28232 0.83907-0.83907-0.54064 0.35129
   4   0   2 4375.00  218.40  40-0.02973 0.44873 0.57665-0.57665 0.76452-0.50439
   4   0   2 4372.50  180.20 158 0.50523-0.08625 0.07393-0.07393-0.65482 0.91468
  -4   0  -2 5089.80  184.90  56-0.38251-0.03649 0.79236-0.79236 0.32877-0.58890
  -4   0  -2 5589.70  190.00 131-0.03480-0.38417 0.78837-0.78837-0.59347 0.33360
  -4   0  -3  607.50   35.60  59-0.44226 0.00082 0.80896-0.80896 0.22636-0.55702
  -4   0  -3  677.00   42.60 134 0.04633-0.48770 0.72435-0.72435-0.63754 0.30717
  -4   0  -4  168.30   34.50  62-0.48811 0.02421 0.81564-0.81564 0.13909-0.54028
  -4   0  -4  143.00   14.30 138 0.12168-0.58544 0.65377-0.65377-0.66952 0.26865
  -4   0  -5 2388.90   95.60  64-0.52461 0.03826 0.81614-0.81614 0.06270-0.53442
  -4   0  -5 2500.10  106.80 140 0.18423-0.67038 0.58668-0.58668-0.68924 0.21785
  -4   0  -6 3345.70  133.10  66-0.55453 0.04573 0.81245-0.81245-0.00580-0.53645
  -4   0  -7  797.90   55.50  68-0.57959 0.04835 0.80567-0.80567-0.06849-0.54429
  -4   0  -8  309.00   48.40  69-0.60091 0.04721 0.79642-0.79642-0.12680-0.55651
  -4   0  -9  278.20   37.40  71-0.61921 0.04307 0.78506-0.78506-0.18176-0.57208
  -4   0 -10  140.30   48.40  73-0.63498 0.03639 0.77179-0.77179-0.23413-0.59024
   4  -1 -13  158.40   39.90  91-0.67441 0.75667 0.46393-0.58357-0.75919-0.03862
   4  -1 -13  189.80   39.80 128-0.08119 0.16424 0.81943-0.93914-0.56381-0.23394
   4  -1 -12  123.90   38.60  91-0.67447 0.77917 0.46417-0.58380-0.75897 0.03169
   4  -1 -12   12.40   22.80 128-0.09482 0.20027 0.82778-0.94749-0.55446-0.17278
   4   1 -11  -22.90   29.00  85-0.69183 0.81898 0.59329-0.47365-0.61037-0.04638
  -4   1  11   45.80   25.80   1 0.67337-0.80053-0.45903 0.57866 0.76373-0.10699
   4  -1 -11   15.40   21.60  91-0.67329 0.80045 0.45913-0.57877-0.76371 0.10697
   4  -1 -11   64.80   33.20 127-0.10461 0.23246 0.83356-0.95327-0.54757-0.10916
   4   1 -10 3147.80  150.70  85-0.69185 0.84145 0.59419-0.47455-0.60911 0.02289
  -4   1  10 3727.90  164.80   1 0.67053-0.82014-0.44736 0.56699 0.77447-0.18826
   4  -1 -10 3346.00  149.30  91-0.67045 0.82006 0.44747-0.56710-0.77445 0.18823
   4  -1 -10 3730.30  157.80 127-0.11011 0.26035 0.83672-0.95643-0.54364-0.04258
   4   1  -9 6385.20  253.90  85-0.69172 0.86377 0.58885-0.46921-0.61650 0.10081
  -4   1   9 8005.60  319.20   2 0.66521-0.83726-0.42707 0.54670 0.79235-0.27666
   4  -1  -9 7383.40  288.80  92-0.66513 0.83719 0.42718-0.54681-0.79232 0.27664
   4  -1  -9 7735.20  270.90 127-0.11069 0.28332 0.83705-0.95676-0.54322 0.02751
   4   1  -8 3110.00  132.80  86-0.69106 0.88556 0.57416-0.45453-0.63619 0.19103
  -4   1   8 3508.50  152.60   4 0.65592-0.85042-0.39522 0.51485 0.81843-0.37327
  -4   1   8 3272.00  127.90  74-0.65030 0.45580 0.75444-0.63481-0.29138 0.73654
  -4  -1   8 3222.70  145.90  61-0.48067 0.28617 0.81498-0.93461 0.15384 0.29131
   4  -1  -8 3228.40  168.20  94-0.65585 0.85035 0.39534-0.51497-0.81840 0.37325
   4  -1  -8 3407.50  131.80 127-0.10546 0.30049 0.83405-0.95376-0.54697 0.10176
   4   1  -7  691.40   43.90  87-0.68843 0.90538 0.54407-0.42443-0.67382 0.29919
  -4   1   7  752.90   51.60   5 0.64009-0.85704-0.34763 0.46727 0.85326-0.47863
  -4   1   7  860.00   51.50  78-0.67327 0.45632 0.71327-0.59363-0.39899 0.77362
  -4  -1   7  811.00   40.90  63-0.50903 0.29208 0.81653-0.93616 0.09615 0.27848
   4  -1  -7  821.50   47.30  95-0.64002 0.85697 0.34776-0.46739-0.85324 0.47861
   4  -1  -7  778.60   41.90 128-0.09326 0.31069 0.82685-0.94655-0.55554 0.18084
   4   1  -6 6145.20  252.90  90-0.67913 0.91854 0.48577-0.36614-0.73782 0.43372
  -4   1   6 7250.90  259.00   8 0.61337-0.85278-0.27867 0.39830 0.89580-0.59170
  -4   1   6 7777.10  305.50  81-0.68871 0.44930 0.65266-0.53303-0.51856 0.82267
  -4  -1   6 7905.20  277.70  65-0.54034 0.30094 0.81473-0.93436 0.02743 0.27667
   4  -1  -6 6801.90  243.90  98-0.61331 0.85272 0.27879-0.39843-0.89578 0.59168
   4  -1  -6 7226.90  249.90 129-0.07254 0.31236 0.81395-0.93366-0.56958 0.26539
   4   1  -5  894.70   48.40  95-0.64770 0.90955 0.37000-0.25036-0.83755 0.60398
  -4   1   5 1004.80   58.00  12 0.56911-0.83097-0.18175 0.30138 0.94136-0.70779
  -4   1   5  987.30   57.90  86-0.69043 0.42858 0.56493-0.44529-0.64811 0.88168
  -4   1   5  944.40   40.50 172 0.61840-0.88075 0.51615-0.39655 0.75816-0.52491
  -4  -1   5  932.20   55.50   5 0.64772-0.90958-0.36975 0.25012 0.83766-0.60409
  -4  -1   5 1220.30   58.60  68-0.57754 0.31569 0.80637-0.92601-0.06315 0.29672
   4  -1  -5  994.60   57.50 102-0.56906 0.83091 0.18189-0.30152-0.94135 0.70778
   4  -1  -5  930.20   52.10 130-0.04134 0.30355 0.79300-0.91270-0.58948 0.35579
   4   1  -4 4003.50  167.20 103-0.54238 0.82668 0.12997-0.01034-0.95949 0.79645
   4   1  -4 4299.00  144.50 173 0.59874-0.31406 0.55674-0.43714 0.73600-0.89887
  -4   1   4 4046.20  134.80  16 0.49882-0.78312-0.05208 0.17171 0.97892-0.81588
  -4   1   4 4523.20  173.40  92-0.66908 0.38478 0.44207-0.32244-0.77931 0.94235
  -4  -1   4 3926.90  162.20  13 0.54232-0.82662-0.12963 0.01000 0.95956-0.79651
   4  -1  -4 3838.10  150.90   2 0.66915-0.38485-0.44194 0.32231 0.77935-0.94239
   4  -1  -4 4148.60  147.10 106-0.49877 0.78307 0.05222-0.17186-0.97892 0.81588
   4  -1  -4 4148.80  161.80 132 0.00264 0.28197 0.76035-0.88006-0.61503 0.45185
   4   1  -3 3016.10  116.90 119-0.23911 0.54586-0.30902 0.42866-0.94874 0.85623
  -4   1   3 2660.40  104.50  22 0.39596-0.70271 0.10747 0.01217 0.99056-0.89805
  -4   1   3 2976.20  108.30  98-0.61444 0.30769 0.28150-0.16187-0.89428 0.98679
  -4  -1   3 2722.80  104.60  29 0.23889-0.54564 0.30946-0.42909 0.94859-0.85607
  -4  -1   3 3057.00  104.30  80-0.68472 0.37797 0.67543-0.79506-0.47748 0.56999
   4  -1  -3 2587.70  113.10   8 0.61450-0.30775-0.28136 0.16173 0.89430-0.98681
   4  -1  -3 2794.10  103.40 112-0.39592 0.70267-0.10732-0.01231-0.99058 0.89807
   4  -1  -3 2580.60  117.20 135 0.06175 0.24526 0.71079-0.83050-0.64479 0.55212
  -4   1   2 8997.90  322.50  28 0.26338-0.59258 0.28054-0.16090 0.95883-0.93685
  -4   1   2 9716.30  337.30 105-0.52313 0.19393 0.09469 0.02494-0.96944 0.99142
  -4   1   211152.20  360.90 127-0.12050-0.20889 0.84254-0.72283-0.53607 0.55824
  -4  -1   2 9173.70  317.90  47-0.17672-0.15248 0.68683-0.80646 0.61209-0.59011
  -4  -1   210169.00  326.50  98-0.61532 0.28613 0.28364-0.40327-0.89308 0.91507
   4  -1  -2 9095.00  314.80  15 0.52318-0.19398-0.09455-0.02508 0.96944-0.99142
   4  -1  -2 9857.20  334.10 118-0.26335 0.59255-0.28040 0.16077-0.95887 0.93688
   4  -1  -2 8898.90  346.10 138 0.13755 0.19185 0.63750-0.75721-0.67513 0.65296
   4  -1  -210446.50  355.50 171 0.63369-0.30437 0.48141-0.60100 0.77529-0.79741
   4   1  -1  160.40   12.60  27 0.29672 0.05493 0.23975-0.12012 0.97075-0.92220
   4   1  -1  117.10   13.70 124-0.18058 0.53237 0.87192-0.75221-0.48893 0.53727
  -4   1   1  209.70   24.90  34 0.11686-0.46850 0.44165-0.32202 0.88048-0.92902
  -4   1   1  167.30   20.50 111-0.40663 0.05498-0.09193 0.21156-0.99111 0.94257
  -4   1   1  188.00   22.50 130-0.04622-0.30557 0.79639-0.67668-0.58647 0.53813
  -4  -1   1  147.60   13.30  56-0.38127 0.02962 0.79193-0.91157 0.33078-0.37933
   4  -1  -1  180.30   20.90  21 0.40667-0.05502 0.09206-0.21170 0.99109-0.94255
   4  -1  -1  174.50   24.50 143 0.22930 0.12249 0.53321-0.65292-0.69932 0.74766
   4  -1  -1  188.10   19.40 177 0.52946-0.17781 0.67359-0.79318 0.65702-0.60877
   4   1   0 7245.60  268.30  37 0.04186 0.33224 0.51384-0.39421 0.82562-0.70655
   4   1   0 7045.50  247.70 130-0.04920 0.42338 0.79844-0.67874-0.58461 0.70346
  -4   1   0 7360.40  270.50  40-0.02346-0.35064 0.57138-0.45175 0.77022-0.88929
  -4   1   0 7700.10  257.10 117-0.28675-0.08735-0.25195 0.37158-0.96748 0.84841
  -4   1   0 8861.80  347.10 133 0.02995-0.40413 0.73827-0.61856-0.62944 0.51059
  -4  -1   0 7943.60  265.10  60-0.46623 0.09213 0.81320-0.93284 0.18180-0.30088
   4  -1   0 7698.60  301.40  27 0.28679 0.08731 0.25208-0.37171 0.96745-0.84838
   4  -1   0 7002.00  279.40 148 0.33201 0.04218 0.39312-0.51283-0.70760 0.82645
   4   1   1 2636.20  124.30  43-0.09819 0.49473 0.63117-0.51154 0.69813-0.50853
   4   1   1 2553.40  108.50 140 0.17273 0.22385 0.59962-0.47991-0.68610 0.87545
  -4   1  -1 2821.90  126.90  45-0.14481-0.25174 0.66513-0.54550 0.64836-0.83796
  -4   1  -1 2971.30  117.50 122-0.18141-0.21514-0.37393 0.49356-0.91998 0.73038
  -4   1  -1 3336.70  119.90 137 0.10431-0.50089 0.67101-0.55130-0.66293 0.47358
  -4  -1  -1 3030.30  107.90  63-0.51295 0.11641 0.81652-0.93615 0.08786-0.27746
   4  -1   1 2838.20  113.90  32 0.18145 0.21509 0.37405-0.49368 0.91994-0.73034
   4  -1   1 2569.30  126.10 154 0.43540-0.03882 0.21937-0.33908-0.68960 0.87895
   4   1   2 1985.40   96.10  46-0.17350 0.59249 0.68470-0.56506 0.61584-0.35570
   4   1   2 2080.60   88.40 158 0.49653-0.07756 0.09377 0.02594-0.66054 0.92041
  -4   1  -2 2148.40   94.90  50-0.24424-0.17476 0.72840-0.60877 0.52910-0.78924
  -4   1  -2 2466.70   92.90 140 0.17278-0.59175 0.59956-0.47985-0.68611 0.42625
  -4  -1  -2 2377.70   84.50  65-0.54463 0.12564 0.81414-0.93378 0.01752-0.27766
   4  -1   2 2020.20   79.40 160 0.52604-0.10707 0.02382-0.14353-0.63902 0.89889
  -4   1  -3  530.60   33.00  53-0.32421-0.11723 0.76924-0.64961 0.41876-0.74942
  -4   1  -3  550.30   36.20 143 0.23192-0.67329 0.52997-0.41026-0.69979 0.36942
  -4  -1  -3  521.80   36.20  67-0.56888 0.12744 0.80904-0.92867-0.04103-0.28964
   4  -1   3  444.60   34.00 166 0.59247-0.15110-0.17472 0.05501-0.55752 0.88789
  -4   1  -4  849.20   48.50  56-0.38866-0.07523 0.79443-0.67479 0.31873-0.71992
  -4   1  -4  695.70   41.50 145 0.27977-0.74353 0.46778-0.34807-0.70612 0.30525
  -4  -1  -4  777.50   49.60  68-0.58877 0.12487 0.80214-0.92177-0.09295-0.30824
  -4   1  -5  854.60   47.30  59-0.44120-0.04514 0.80874-0.68911 0.22828-0.70000
  -4   1  -5  768.70   42.70 147 0.31594-0.80210 0.41690-0.29719-0.70780 0.23641
  -4  -1  -5  777.30   50.50  70-0.60574 0.11940 0.79377-0.91340-0.14081-0.33091
  -4   1  -6  283.70   36.70  61-0.48464-0.02416 0.81535-0.69572 0.14601-0.68826
  -4   1  -6  141.20   21.90 148 0.34114-0.84969 0.37927-0.25956-0.70721 0.16532
  -4  -1  -6  246.40   39.70  71-0.62055 0.11175 0.78407-0.90371-0.18601-0.35624
  -4   1  -7  -25.80   39.70  64-0.52105-0.01020 0.81631-0.69668 0.07047-0.68325
  -4  -1  -7   40.60   31.30  72-0.63362 0.10237 0.77309-0.89273-0.22937-0.38341
  -4   1  -8   39.10   37.90  66-0.55192-0.00177 0.81295-0.69331 0.00041-0.68372
  -4  -1  -8  -29.00   36.20  74-0.64520 0.09150 0.76083-0.88046-0.27143-0.41188
  -4   1  -9   44.30   43.30  68-0.57833 0.00219 0.80611-0.68647-0.06520-0.68864
  -4  -1  -9   43.50   30.80  75-0.65543 0.07929 0.74726-0.86689-0.31252-0.44131
  -4   1 -10  244.90   50.50  69-0.60105 0.00246 0.79635-0.67671-0.12720-0.69717
  -4  -1 -10  175.30   34.30  76-0.66440 0.06581 0.73234-0.85197-0.35289-0.47148
  -4   2  13    4.40   41.10   3 0.65612-0.73838-0.39587 0.63514 0.81791-0.02011
   4  -2 -13    1.60   39.20  93-0.65604 0.73830 0.39597-0.63524-0.81791 0.02010
   4  -2 -13   98.40   39.40 133 0.02842 0.05464 0.73954-0.97896-0.62866-0.16908
  -4   2  12   43.10   40.60   4 0.65493-0.75963-0.39203 0.63129 0.82091-0.09364
   4  -2 -12  -57.50   36.30  94-0.65485 0.75956 0.39213-0.63139-0.82091 0.09363
   4  -2 -12   -5.30   27.40 133 0.01906 0.08639 0.74724-0.98666-0.62383-0.10341
  -4   2  11  243.40   38.30   4 0.65190-0.77906-0.38247 0.62174 0.82823-0.17148
   4  -2 -11  190.60   29.60  94-0.65182 0.77898 0.38257-0.62184-0.82822 0.17147
   4  -2 -11  245.40   39.30 133 0.01414 0.11371 0.75122-0.99064-0.62124-0.03549
  -4   2  10 1742.20   88.80   5 0.64645-0.79605-0.36596 0.60523 0.84041-0.25419
   4  -2 -10 1607.50   90.80  95-0.64637 0.79598 0.36606-0.60533-0.84040 0.25418
   4  -2 -10 1735.80   75.50 133 0.01412 0.13612 0.75124-0.99065-0.62123 0.03500
   4   2  -9 1165.30   68.00  81-0.68814 0.86020 0.65663-0.41736-0.51169-0.00400
  -4   2   9 1426.30   73.60   6 0.63763-0.80968-0.34080 0.58006 0.85788-0.34220
   4  -2  -9 1464.10   74.80  96-0.63755 0.80961 0.34090-0.58016-0.85788 0.34219
   4  -2  -9 1488.50   69.00 133 0.01961 0.15302 0.74679-0.98621-0.62412 0.10840
   4   2  -8 3261.20  140.60  81-0.68860 0.88311 0.65342-0.41415-0.51726 0.07210
  -4   2   8 3661.80  154.90   7 0.62398-0.81849-0.30477 0.54404 0.88074-0.43558
  -4  -2   8 3348.60  143.00  52-0.29304 0.09853 0.75449-0.99375 0.46345-0.01829
   4  -2  -8 3442.60  129.40  97-0.62391 0.81841 0.30488-0.54414-0.88074 0.43558
   4  -2  -8 3968.40  170.90 134 0.03137 0.16366 0.73708-0.97650-0.63016 0.18495
   4   2  -7 1513.90   68.50  82-0.69022 0.90717 0.63958-0.40031-0.54053 0.16590
  -4   2   7 1776.20   74.00   9 0.60333-0.82028-0.25516 0.49442 0.90831-0.53368
  -4  -2   7 1786.20   92.10  51-0.28430 0.06734 0.75008-0.98934 0.47558-0.10095
   4  -2  -7 1770.40   71.80  99-0.60326 0.82021 0.25526-0.49453-0.90831 0.53368
   4  -2  -7 1749.20   83.90 134 0.05028 0.16714 0.72092-0.96034-0.63943 0.26473
   4   2  -6 1156.10   55.50  84-0.69192 0.93132 0.60343-0.36417-0.59600 0.29190
  -4   2   6 1343.10   70.70  11 0.57263-0.81203-0.18890 0.42816 0.93853-0.63443
  -4   2   6 1155.00   64.20  85-0.69168 0.45228 0.58761-0.34835-0.61819 0.92229
   4  -2  -6 1315.60   60.60 101-0.57256 0.81196 0.18900-0.42827-0.93853 0.63443
   4  -2  -6 1318.90   72.60 136 0.07733 0.16249 0.69663-0.93605-0.65176 0.34756
   4   2  -5 5133.50  203.00  89-0.68257 0.94442 0.50393-0.26467-0.71902 0.48545
   4   2  -5 5905.20  200.50 176 0.55286-0.29051 0.63788-0.39869 0.68384-0.91709
  -4   2   5 5945.80  207.20  14 0.52806-0.78991-0.10334 0.34261 0.96714-0.73357
  -4   2   5 5627.90  215.20  89-0.68162 0.41977 0.49867-0.25940-0.72458 0.95815
   4  -2  -5 5834.60  209.60 104-0.52799 0.78984 0.10345-0.34271-0.96714 0.73357
   4  -2  -5 5584.90  213.70 137 0.11346 0.14876 0.66200-0.90142-0.66646 0.43278
  -4   2   4 9835.70  360.50  18 0.46576-0.75006 0.00231 0.23696 0.98714-0.82409
  -4   2   4 9662.40  328.30  94-0.65353 0.36923 0.38793-0.14867-0.82414 0.98718
  -4   2   4 9771.60  339.00 172 0.61988-0.90455 0.51292-0.27374 0.75982-0.59695
   4  -2  -410200.60  349.20 108-0.46570 0.75000-0.00220-0.23706-0.98715 0.82410
   4  -2  -4 9467.80  363.60 139 0.15932 0.12528 0.61435-0.85377-0.68216 0.51898
  -4   2   3 3203.10  141.10  22 0.38355-0.69031 0.12499 0.11427 0.98952-0.89700
  -4   2   3 3381.30  118.00  99-0.60430 0.29755 0.25765-0.01839-0.90708 0.99959
  -4   2   3 3597.80  149.20 129-0.06410-0.24290 0.80846-0.56905-0.57511 0.66778
  -4   2   3 3275.10  123.00 177 0.54184-0.84884 0.65511-0.41592 0.67122-0.57873
   4  -2  -3 2787.00  126.80   9 0.60437-0.29762-0.25755 0.01828 0.90709-0.99960
   4  -2  -3 3449.70  142.50 112-0.38350 0.69025-0.12489-0.11438-0.98953 0.89702
   4  -2  -3 3107.40  141.00 142 0.21495 0.09206 0.55073-0.79015-0.69650 0.60383
  -4   2   2  129.00   20.80  27 0.28314-0.61234 0.25656-0.01730 0.96619-0.94420
  -4   2   2  108.10   19.60 104-0.53468 0.20548 0.11566 0.12361-0.96375 0.98574
  -4   2   2  139.40   24.80 132 0.00651-0.33591 0.75731-0.51789-0.61714 0.63931
  -4   2   2  112.60   13.60 181 0.45976-0.78908 0.76308-0.52389 0.57662-0.55450
   4  -2  -2  132.00   16.30  14 0.53475-0.20555-0.11555-0.12371 0.96375-0.98573
   4  -2  -2  134.60   18.10 117-0.28309 0.61229-0.25646 0.01719-0.96621 0.94423
   4  -2  -2  137.40   22.40 145 0.27919 0.05021 0.46857-0.70799-0.70608 0.68391
   4   2  -1 4206.10  152.90   3 0.65771-0.30606-0.40106 0.64033 0.81381-0.76527
   4   2  -1 4312.60  156.00  32 0.18402 0.16763 0.37125-0.13199 0.92135-0.87281
  -4   2   1 4369.40  168.80  32 0.17101-0.52266 0.38533-0.14606 0.91407-0.96261
  -4   2   1 4334.40  162.50 109-0.45075 0.09910-0.02574 0.26501-0.98935 0.94080
  -4   2   1 5162.60  204.30 136 0.07593-0.42772 0.69792-0.45850-0.65115 0.60281
  -4  -2   1 5054.90  160.40  93-0.65740 0.30575 0.40042-0.63969-0.81440 0.76585
  -4  -2   1 4693.10  161.20 122-0.18461-0.16704-0.37045 0.13119-0.92174 0.87319
   4  -2  -1 4222.10  172.20  19 0.45081-0.09916 0.02585-0.26511 0.98933-0.94079
   4  -2  -1 4977.50  178.10 122-0.17096 0.52261-0.38523 0.14596-0.91410 0.96264
   4  -2  -1 4041.20  180.00 149 0.34935 0.00245 0.36661-0.60603-0.70669 0.75503
   4  -2  -1 5199.50  175.10 168 0.66128-0.30963 0.40942-0.64860 0.80587-0.75761
   4   2   0 4469.50  185.40  47-0.17499 0.54908 0.68568-0.44642 0.61411-0.49503
  -4   2   0 4763.70  173.70  37 0.05643-0.43053 0.50032-0.26106 0.83702-0.95610
  -4   2   0 4527.60  193.20 113-0.36222-0.01188-0.15425 0.39352-0.98673 0.86765
  -4   2   0 5116.50  225.60 139 0.14154-0.51573 0.63333-0.39391-0.67648 0.55763
  -4  -2   0 5298.90  193.80  81-0.68723 0.31313 0.66241-0.90167-0.50146 0.38238
   4  -2   0 4198.30  182.70 153 0.42106-0.04688 0.24596-0.48538-0.69410 0.81295
   4  -2   0 5400.70  205.80 173 0.60785-0.23388 0.53844-0.77762 0.74629-0.62766
   4   2   1 5300.50  196.90  51-0.27614 0.67269 0.74586-0.50659 0.48675-0.29715
   4   2   1 5002.30  186.80 125-0.16717 0.56375 0.86600-0.62658-0.49997 0.68932
  -4   2  -1 5565.10  228.30  41-0.05220-0.34434 0.59515-0.35589 0.74359-0.93320
  -4   2  -1 5659.00  207.30 117-0.27846-0.11809-0.26212 0.50139-0.96456 0.77496
  -4   2  -1 6080.10  218.10 141 0.20095-0.59753 0.56736-0.32794-0.69340 0.50404
  -4  -2  -1 6317.80  227.10  78-0.67337 0.27682 0.71302-0.95229-0.39955 0.20995
   4  -2   1 5222.00  196.40 157 0.48890-0.09232 0.11071-0.35013-0.66519 0.85455
   4  -2   1 5887.30  262.20 176 0.56122-0.16492 0.62428-0.86347 0.69338-0.50437
   4   2   2  107.30   16.90  53-0.31677 0.73577 0.76587-0.52660 0.42963-0.16949
  -4   2  -2  184.20   36.50  45-0.14980-0.26919 0.66861-0.42934 0.64280-0.90294
  -4   2  -2   94.50   24.50 121-0.20551-0.21349-0.34736 0.58663-0.93276 0.67263
  -4   2  -2  173.40   26.50 144 0.25240-0.67137 0.50403-0.26461-0.70305 0.44318
  -4  -2  -2  193.50   23.30  76-0.66588 0.24688 0.72952-0.96878-0.36006 0.09992
   4  -2   2  101.90   30.10 162 0.54751-0.12853-0.03252-0.20690-0.61897 0.87884
  -4   2  -3 1409.70   61.80  49-0.23465-0.20680 0.72287-0.48361 0.54143-0.87210
  -4   2  -3 1445.90   72.90 146 0.29498-0.73635 0.44681-0.20739-0.70717 0.37680
  -4  -2  -3 1366.20   56.50  76-0.66340 0.22196 0.73418-0.97344-0.34815 0.01748
   4  -2   3 1210.20   68.30 166 0.59282-0.15145-0.17603-0.06339-0.55688 0.88725
  -4   2  -4 1780.60   87.50  52-0.30719-0.15671 0.76138-0.52211 0.44344-0.84463
  -4  -2  -4 1799.60   75.20  76-0.66399 0.20009 0.73311-0.97237-0.35091-0.05028
  -4   2  -5  371.40   41.70  55-0.36887-0.11748 0.78751-0.54825 0.35063-0.82235
  -4  -2  -5  365.60   36.70  76-0.66636 0.18001 0.72857-0.96784-0.36243-0.10929
  -4   2  -6 5902.60  233.30  58-0.42137-0.08742 0.80408-0.56481 0.26348-0.80573
  -4  -2  -6 6712.00  243.40  77-0.66972 0.16093 0.72157-0.96083-0.37959-0.16266
  -4   2  -7 1913.30  101.40  60-0.46625-0.06499 0.81321-0.57394 0.18176-0.79454
  -4  -2  -7 1998.40  119.40  78-0.67355 0.14231 0.71256-0.95183-0.40060-0.21218
  -4   2  -8   52.10   38.80  63-0.50481-0.04888 0.81647-0.57721 0.10499-0.78830
  -4  -2  -8   23.40   35.60  78-0.67749 0.12380 0.70181-0.94107-0.42435-0.25895
  -4   2  -9  125.00   41.30  65-0.53810-0.03804 0.81500-0.57573 0.03255-0.78638
  -4  -2  -9  138.40   27.90  79-0.68128 0.10514 0.68942-0.92868-0.45014-0.30370
  -4   3  12   -3.00   39.80   7 0.62813-0.73283-0.31539 0.67429 0.87426-0.14698
   4  -3 -12  -11.70   39.40  97-0.62805 0.73276 0.31548-0.67438-0.87426 0.14699
   4  -3 -12   41.30   40.40 138 0.13574-0.03029 0.63938-0.99851-0.67451-0.05272
  -4   3  11  472.30   42.50   7 0.62298-0.75013-0.30224 0.66114 0.88226-0.22551
   4  -3 -11  419.00   39.00  97-0.62290 0.75006 0.30233-0.66123-0.88226 0.22552
   4  -3 -11  389.40   43.20 138 0.13452-0.00668 0.64064-0.99977-0.67409 0.01736
  -4   3  10  890.20   49.60   8 0.61485-0.76445-0.28220 0.64110 0.89383-0.30761
   4  -3 -10  819.80   53.80  98-0.61477 0.76437 0.28229-0.64119-0.89383 0.30762
   4  -3 -10  798.50   58.20 138 0.13828 0.01197 0.63674-0.99587-0.67538 0.08916
  -4   3   9 2633.50  103.30   9 0.60283-0.77488-0.25401 0.61291 0.90890-0.39321
   4  -3  -9 2537.20  108.50  99-0.60275 0.77480 0.25410-0.61300-0.90891 0.39322
   4  -3  -9 2598.50  125.90 139 0.14739 0.02525 0.62716-0.98628-0.67840 0.16269
  -4   3   8  146.90   35.60  10 0.58567-0.78017-0.21613 0.57503 0.92699-0.48183
   4  -3  -8  131.50   37.40 100-0.58559 0.78009 0.21622-0.57512-0.92700 0.48184
   4  -3  -8  100.50   36.30 139 0.16229 0.03274 0.61113-0.97025-0.68306 0.23785
   4   3  -7 1139.30   55.80  77-0.67085 0.88780 0.71905-0.36015-0.38557 0.01094
  -4   3   7 1470.20   66.90  12 0.56171-0.77867-0.16695 0.52585 0.94696-0.57233
  -4  -3   7 1297.10   62.70  39 0.01336-0.23031 0.53955-0.89845 0.80231-0.42768
   4  -3  -7 1609.00   81.40 102-0.56164 0.77859 0.16704-0.52594-0.94697 0.57234
   4  -3  -7 1579.00   96.60 140 0.18337 0.03405 0.58766-0.94678-0.68901 0.31431
   4   3  -6  606.60   31.70  78-0.67376 0.91316 0.71203-0.35313-0.40181 0.09771
   4   3  -6  678.30   40.00 178 0.51144-0.27141 0.69895-0.34017 0.63631-0.93994
  -4   3   6  790.30   54.30  14 0.52896-0.76836-0.10497 0.46387 0.96670-0.66260
   4  -3  -6  738.40   43.00 104-0.52888 0.76828 0.10506-0.46396-0.96671 0.66261
   4  -3  -6  675.90   49.40 142 0.21093 0.02889 0.55555-0.91468-0.69564 0.39145
   4   3  -5 3193.50  121.70 114-0.34757 0.60942-0.17398 0.53288-0.98408 0.75051
   4   3  -5 3322.60  124.20 172 0.61233-0.34998 0.52913-0.17035 0.75133-0.98458
  -4   3   5 3457.70  130.00  17 0.48523-0.74708-0.02932 0.38821 0.98289-0.74932
  -4  -3   5 3139.90  124.40  24 0.34802-0.60987 0.17357-0.53247 0.98414-0.75057
   4  -3  -5 3351.10  137.70 107-0.48516 0.74701 0.02940-0.38830-0.98290 0.74933
   4  -3  -5 3195.60  153.40 143 0.24501 0.01720 0.51350-0.87263-0.70196 0.46828
  -4   3   4  442.50   37.10  20 0.42873-0.71303 0.05956 0.29934 0.99105-0.82801
  -4   3   4  408.10   30.50 169 0.64782-0.93249 0.44627-0.08749 0.79101-0.62813
   4  -3  -4  510.80   32.80 110-0.42865 0.71295-0.05947-0.29943-0.99106 0.82802
   4  -3  -4  347.60   46.80 145 0.28530-0.00069 0.46023-0.81935-0.70656 0.54338
  -4   3   3 3212.90  139.90  24 0.35874-0.66549 0.15916 0.19974 0.98612-0.89361
  -4   3   3 3089.70  134.50 173 0.59837-0.90537 0.55745-0.19867 0.73559-0.64309
   4  -3  -3 3588.50  141.40 114-0.35867 0.66542-0.15907-0.19983-0.98614 0.89362
   4  -3  -3 3135.10  145.10 148 0.33091-0.02391 0.39478-0.75390-0.70763 0.61496
  -4   3   2  486.00   48.70  27 0.27647-0.60567 0.26472 0.09418 0.96380-0.94181
  -4   3   2  370.20   34.00 177 0.54103-0.87035 0.65634-0.29756 0.67030-0.64818
   4  -3  -2  485.60   47.30 117-0.27640 0.60560-0.26464-0.09426-0.96382 0.94183
   4  -3  -2  399.30   44.30 150 0.38031-0.05092 0.31682-0.67595-0.70311 0.68095
   4   3  -1   84.10    8.20  26 0.29792 0.05373 0.23826 0.12064 0.97113-0.92259
   4   3  -1   68.80    7.60  52-0.29310 0.64475 0.75452-0.39562 0.46336-0.41481
  -4   3   1  118.90   30.30  31 0.18528-0.53693 0.36988-0.01098 0.92204-0.97059
  -4   3   1   88.60   17.50 180 0.47941-0.83106 0.74007-0.38129 0.59937-0.64762
  -4  -3   1  118.20    8.60 116-0.29723-0.05442-0.23894-0.11996-0.97096 0.92241
   4  -3  -1   82.50   31.00 121-0.18520 0.53685-0.36980 0.01090-0.92206 0.97061
   4  -3  -1  132.00   37.90 153 0.43134-0.07955 0.22699-0.58612-0.69095 0.73929
   4   3   0 6247.80  229.80   9 0.60277-0.22867-0.25388 0.61278 0.90897-0.78989
  -4   3   0 6559.60  279.00  35 0.09001-0.46411 0.46825-0.10935 0.86194-0.98101
   4  -3   0 5978.10  243.50 157 0.48137-0.10718 0.12705-0.48618-0.66946 0.78831
   4   3   1 5072.90  208.00   1 0.67026-0.27371-0.44628 0.80518 0.77545-0.58584
   4   3   1 5317.20  199.20 162 0.55501-0.15843-0.05360 0.41272-0.61085 0.80021
  -4   3  -1 5444.30  202.70  39-0.00428-0.39227 0.55499-0.19610 0.78722-0.97682
   4  -3   1 4721.00  182.70 160 0.52764-0.13106 0.01981-0.37894-0.63768 0.82703
   4   3   2 1402.50   57.90 149 0.35796 0.06102 0.35308 0.00604-0.70595 0.96581
  -4   3  -2 1287.40   67.00  43-0.09356-0.32543 0.62766-0.26876 0.70287-0.96300
  -4  -3  -2 1591.20   76.20  87-0.68748 0.26848 0.53615-0.89505-0.68316 0.42302
   4  -3   2 1185.60   84.80 163 0.56768-0.14870-0.09121-0.26792-0.59551 0.85537
  -4   3  -3 2209.50  107.80  47-0.17539-0.26606 0.68595-0.32705 0.61364-0.94431
  -4  -3  -3 2531.10  107.80  85-0.69148 0.25004 0.58240-0.94130-0.62526 0.29460
   4  -3   3 1881.80  105.90 167 0.59962-0.15825-0.20229-0.15683-0.54375 0.87412
  -4   3  -4 2656.40  121.40  50-0.24873-0.21516 0.73095-0.37205 0.52326-0.92445
  -4  -3  -4 2913.10  105.00  84-0.69190 0.22800 0.60687-0.96577-0.59102 0.18982
  -4   3  -5 4740.10  188.80  53-0.31362-0.17273 0.76441-0.40551 0.43420-0.90592
  -4  -3  -5 4963.70  178.40  83-0.69159 0.20525 0.61908-0.97798-0.57285 0.10113
  -4   3  -6  663.50   56.20  55-0.37061-0.13818 0.78815-0.42925 0.34786-0.89011
  -4  -3  -6  695.70   42.20  83-0.69138 0.18259 0.62362-0.98252-0.56591 0.02365
  -4   3  -7 1171.80   71.70  58-0.42054-0.11070 0.80386-0.44496 0.26492-0.87770
  -4  -3  -7 1413.80   77.10  83-0.69142 0.16018 0.62290-0.98180-0.56701-0.04577
  -4   3  -8   45.60   40.10  60-0.46427-0.08943 0.81291-0.45402 0.18554-0.86885
  -4  -3  -8   38.10   33.70  83-0.69162 0.13793 0.61828-0.97718-0.57407-0.10924
  -4   3  -9  351.50   56.80  63-0.50257-0.07357 0.81642-0.45752 0.10964-0.86348
  -4  -3  -9  476.70   48.10  84-0.69184 0.11570 0.61055-0.96945-0.58563-0.16821
  -4   4  11  393.80   38.60  10 0.58735-0.71451-0.21975 0.69828 0.92537-0.26862
   4  -4 -11  348.60   38.60 100-0.58727 0.71443 0.21983-0.69836-0.92538 0.26863
   4  -4 -11  492.30   58.10 144 0.24774-0.11989 0.51002-0.98885-0.70238 0.04565
  -4   4  10  225.30   39.70  11 0.57679-0.72639-0.19746 0.67599 0.93503-0.34882
   4  -4 -10  174.10   38.00 101-0.57671 0.72631 0.19754-0.67607-0.93505 0.34883
   4  -4 -10  237.50   43.00 144 0.25297-0.10273 0.50329-0.98213-0.70313 0.11690
  -4   4   9  380.40   41.80  12 0.56212-0.73417-0.16775 0.64628 0.94667-0.43098
   4  -4  -9  292.20   39.10 102-0.56203 0.73409 0.16783-0.64636-0.94668 0.43099
   4  -4  -9  446.10   50.60 144 0.26290-0.09026 0.49034-0.96918-0.70440 0.18869
  -4   4   8 5758.60  211.40  13 0.54235-0.73685-0.12967 0.60820 0.95954-0.51438
   4  -4  -8 5371.40  235.40 103-0.54226 0.73677 0.12975-0.60828-0.95956 0.51440
   4  -4  -8 5021.00  233.70 145 0.27763-0.08260 0.47069-0.94952-0.70594 0.26073
   4   4  -7  493.90   40.50 181 0.46737-0.24966 0.75437-0.27599 0.58543-0.95943
  -4   4   7  459.30   39.40  15 0.51630-0.73325-0.08233 0.56086 0.97244-0.59781
   4  -4  -7  511.90   38.90 105-0.51622 0.73317 0.08241-0.56094-0.97246 0.59783
   4  -4  -7  487.10   49.30 146 0.29716-0.07974 0.44375-0.92259-0.70728 0.33258
   4   4  -6 1654.20   72.40 176 0.55257-0.31254 0.63835-0.15998 0.68349-0.98712
  -4   4   6 1526.60   69.20  17 0.48269-0.72209-0.02511 0.50365 0.98354-0.67944
   4  -4  -6 1830.70   82.60 107-0.48260 0.72201 0.02519-0.50372-0.98356 0.67945
   4  -4  -6 1573.00   99.40 147 0.32136-0.08154 0.40896-0.88779-0.70780 0.40360
   4   4  -5  269.90   29.30 171 0.62477-0.36242 0.50204-0.02367 0.76531-0.99856
  -4   4   5  423.80   47.60  19 0.44029-0.70215 0.04205 0.43648 0.99037-0.75680
  -4  -4   5  258.70   20.20  12 0.56475-0.82660-0.17299-0.30554 0.94472-0.71115
   4  -4  -5  402.20   40.30 109-0.44021 0.70206-0.04198-0.43655-0.99038 0.75681
   4  -4  -5  432.20   46.00 149 0.34988-0.08767 0.36578-0.84461-0.70665 0.47296
  -4   4   4 3236.90  138.70  22 0.38827-0.67257 0.11836 0.36017 0.98997-0.82692
  -4   4   4 3068.00  126.30 169 0.65033-0.93500 0.43967 0.03870 0.79379-0.63091
   4  -4  -4 3543.00  121.60 112-0.38819 0.67249-0.11829-0.36025-0.98998 0.82694
   4  -4  -4 3213.40  177.40 150 0.38209-0.09748 0.31386-0.79270-0.70282 0.53964
  -4   4   3  895.60   57.90  25 0.32650-0.63325 0.20186 0.27667 0.97929-0.88678
  -4   4   3  839.40   48.20 172 0.61335-0.92034 0.52698-0.04861 0.75248-0.65998
   4  -4  -3 1110.50   55.50 115-0.32642 0.63317-0.20179-0.27674-0.97931 0.88679
   4  -4  -3 1022.80   82.50 152 0.41708-0.11008 0.25319-0.73203-0.69522 0.60255
   4   4  -2  417.90   21.20  47-0.19025 0.51945 0.69565-0.21711 0.59615-0.61813
  -4   4   2  561.60   48.70  28 0.25589-0.58509 0.28947 0.18906 0.95583-0.93384
  -4   4   2  517.50   34.60 175 0.56985-0.89917 0.60974-0.13137 0.70321-0.68109
   4  -4  -2  635.30   52.10 118-0.25580 0.58500-0.28940-0.18913-0.95584 0.93386
   4  -4  -2  552.90   51.50 155 0.45362-0.12423 0.18416-0.66299-0.68273 0.66056
   4   4  -1  799.30   43.10  31 0.19957 0.15207 0.35414 0.12439 0.92965-0.88111
   4   4  -1  887.70   54.80 166 0.59154-0.23975-0.17129 0.65012-0.55919 0.60753
  -4   4   1  950.50   59.30  32 0.17845-0.53010 0.37731 0.10123 0.91827-0.96682
  -4   4   1  915.50   45.60 178 0.52127-0.87292 0.68532-0.20695 0.64763-0.69588
  -4  -4   1 1016.30   47.30 121-0.19914-0.15250-0.35445-0.12408-0.92949 0.88095
   4  -4  -1 1054.90   70.00 122-0.17836 0.53001-0.37724-0.10129-0.91829 0.96683
   4  -4  -1  882.70   50.90 157 0.49030-0.13850 0.10765-0.58649-0.66437 0.71271
   4   4   0 1372.60   61.50  19 0.44132-0.06722 0.04049 0.43804 0.99028-0.87121
   4   4   0 1406.20   74.00 162 0.55234-0.17815-0.04600 0.52484-0.61382 0.73266
  -4   4   0 1457.20   62.20  35 0.09705-0.47115 0.46136 0.01717 0.86691-0.98599
  -4   4   0 1513.30   75.20 181 0.46923-0.84320 0.75219-0.27382 0.58759-0.70622
  -4  -4   0 1674.10   74.90 109-0.44105 0.06695-0.04070-0.43783-0.99032 0.87124
   4  -4   0 1266.80   70.50 160 0.52554-0.15136 0.02506-0.50390-0.63944 0.75829
   4   4   1  380.70   27.20  12 0.56438-0.16783-0.17225 0.65078 0.94500-0.75539
   4   4   1  393.70   32.60 156 0.47848-0.08190 0.13321 0.34563-0.67102 0.86037
  -4   4  -1  429.60   41.30  39 0.01482-0.41137 0.53826-0.05973 0.80354-0.99315
  -4  -4  -1  476.20   33.40 102-0.56419 0.16764 0.17212-0.65065-0.94509 0.75548
   4  -4   1  440.40   52.80 163 0.55786-0.16128-0.06184-0.41700-0.60758 0.79694
   4   4   2 3528.60  141.80   7 0.62456-0.20556-0.30623 0.78476 0.87987-0.61973
  -4   4  -2 3846.10  148.60  42-0.06538-0.35362 0.60573-0.12720 0.73093-0.99106
   4  -4   2 3587.20  165.40 165 0.58592-0.16694-0.15104-0.32779-0.56885 0.82871
   4   4   3  892.40   53.70   4 0.65436-0.21292-0.39023 0.86876 0.82231-0.49164
  -4   4  -3  991.90   60.00  45-0.14140-0.30005 0.66273-0.18420 0.65213-0.98280
  -4  -4  -3 1220.60   61.40  94-0.65424 0.21280 0.39018-0.86871-0.82241 0.49175
  -4   4  -4  294.00   33.40  48-0.21188-0.25202 0.70924-0.23071 0.56997-0.97116
  -4  -4  -4  443.00   40.50  92-0.66939 0.20549 0.44326-0.92179-0.77824 0.37705
  -4   4  -5  620.20   47.50  51-0.27621-0.21014 0.74589-0.26736 0.48666-0.95838
  -4  -4  -5  664.40   49.50  90-0.67724 0.19089 0.47667-0.95520-0.74689 0.27517
  -4   4  -6  926.90   69.30  54-0.33429-0.17450 0.77367-0.29514 0.40382-0.94607
  -4  -4  -6  885.30   58.60  89-0.68131 0.17252 0.49701-0.97554-0.72631 0.18406
  -4   4  -7  804.00   70.20  56-0.38638-0.14487 0.79367-0.31514 0.32248-0.93525
  -4  -4  -7 1007.80   62.20  89-0.68332 0.15207 0.50824-0.98677-0.71442 0.10164
  -4   4  -8  175.20   52.70  59-0.43288-0.12081 0.80690-0.32837 0.24322-0.92652
  -4  -4  -8  187.60   43.00  89-0.68408 0.13038 0.51280-0.99133-0.70949 0.02618
  -4   5  10   80.50   33.60  14 0.53309-0.68269-0.11251 0.71067 0.96462-0.37840
   4  -5 -10  184.70   38.10 104-0.53300 0.68261 0.11258-0.71074-0.96463 0.37841
   4  -5 -10  200.00   35.70 149 0.35281-0.20257 0.36119-0.95973-0.70641 0.12019
  -4   5   9  446.20   40.50  15 0.51637-0.68843-0.08246 0.68063 0.97241-0.45673
   4  -5  -9  447.70   51.40 105-0.51629 0.68834 0.08253-0.68070-0.97243 0.45674
   4  -5  -9  481.70   51.30 149 0.36151-0.18887 0.34744-0.94599-0.70559 0.18988
  -4   5   8   37.10   39.90  16 0.49479-0.68930-0.04528 0.64344 0.98019-0.53503
   4  -5  -8  -21.10   40.20 106-0.49471 0.68921 0.04535-0.64351-0.98020 0.53504
   4  -5  -8   19.60   31.20 150 0.37398-0.17895 0.32727-0.92582-0.70406 0.25885
   4   5  -7  627.60   42.30 179 0.49531-0.27761 0.72026-0.12230 0.61773-0.99173
  -4   5   7  671.10   49.60  18 0.46755-0.68450-0.00055 0.59871 0.98681-0.61218
   4  -5  -7  707.00   53.90 108-0.46746 0.68441 0.00061-0.59878-0.98683 0.61220
   4  -5  -7  610.50   55.20 151 0.39004-0.17261 0.30050-0.89905-0.70143 0.32673
   4   5  -6  100.30   30.10 175 0.56361-0.32358 0.62031-0.02235 0.69610-0.99973
  -4   5   6  -22.70   27.00  20 0.43383-0.67323 0.05188 0.54628 0.99081-0.68670
   4  -5  -6   35.20   29.00 110-0.43374 0.67314-0.05181-0.54635-0.99082 0.68672
   4  -5  -6   64.30   28.20 152 0.40937-0.16955 0.26698-0.86552-0.69723 0.39304
   4   5  -5 1573.90   87.70 172 0.62159-0.35924 0.50916 0.08881 0.76174-0.99499
  -4   5   5 1560.50   85.00  22 0.39296-0.65482 0.11172 0.48644 0.99035-0.75678
   4  -5  -5 1705.80   88.30 112-0.39288 0.65473-0.11166-0.48651-0.99037 0.75679
   4  -5  -5 1412.50   87.90 153 0.43153-0.16932 0.22664-0.82519-0.69089 0.45720
  -4   5   4 1235.60   72.40  24 0.34460-0.62890 0.17812 0.42005 0.98345-0.82040
  -4   5   4 1039.30   56.50 170 0.64300-0.92768 0.45861 0.13935 0.78566-0.62279
   4  -5  -4 1223.50   66.10 114-0.34451 0.62881-0.17805-0.42011-0.98346 0.82042
   4  -5  -4 1064.00   63.10 155 0.45593-0.17132 0.17959-0.77813-0.68176 0.51858
  -4   5   3 1917.80   99.90  27 0.28884-0.59559 0.24955 0.34862 0.96815-0.87564
  -4   5   3 1961.30   90.50 172 0.61239-0.91939 0.52900 0.06896 0.75140-0.65890
   4  -5  -3 2205.10   96.80 117-0.28875 0.59550-0.24949-0.34868-0.96816 0.87565
   4  -5  -3 1804.90  111.70 157 0.48181-0.17481 0.12610-0.72464-0.66922 0.57654
  -4   5   2 2241.90  112.60  30 0.22641-0.55561 0.32386 0.27430 0.94290-0.92092
  -4   5   2 2345.20  109.00 175 0.57666-0.90598 0.59786 0.00010 0.71097-0.68884
   4  -5  -2 2539.40  113.00 120-0.22632 0.55552-0.32380-0.27436-0.94292 0.92093
   4  -5  -2 2064.70  134.90 158 0.50833-0.17893 0.06670-0.66525-0.65266 0.63050
  -4   5   1 2398.40   95.80  33 0.15867-0.51032 0.39849 0.19968 0.90687-0.95541
  -4   5   1 1953.90  102.50 177 0.53642-0.88806 0.66331-0.06535 0.66501-0.71326
   4  -5  -1 2521.20  125.60 123-0.15857 0.51022-0.39843-0.19974-0.90688 0.95542
   4  -5  -1 2049.60  123.80 160 0.53453-0.18274 0.00218-0.60072-0.63161 0.67995
  -4   5   0  491.00   44.20  36 0.08744-0.46154 0.47075 0.12741 0.86009-0.97917
  -4   5   0  565.20   55.70 179 0.49245-0.86642 0.72391-0.12594 0.61443-0.73306
  -4  -5   0  556.90   31.30 116-0.31104-0.06306-0.22154-0.37663-0.97515 0.85608
   4  -5   0  473.00   48.30 163 0.55945-0.18527-0.06649-0.53206-0.60572 0.72456
  -4   5  -1 1232.30   74.40  39 0.01481-0.41136 0.53827 0.05990 0.80353-0.99314
  -4  -5  -1 1492.00   65.30 109-0.44000 0.04345-0.04231-0.55586-0.99040 0.80080
   4  -5   1 1123.20   66.80 165 0.58219-0.18561-0.13814-0.46040-0.57483 0.76419
  -4   5  -2  463.20   53.00  42-0.05723-0.36177 0.59921-0.00104 0.73880-0.99893
  -4  -5  -2  512.70   33.50 105-0.52337 0.10438 0.09513-0.69330-0.96932 0.70919
  -4   5  -3  345.40   49.30  45-0.12696-0.31448 0.65244-0.05428 0.66786-0.99852
  -4  -5  -3  367.00   29.40 101-0.57572 0.13428 0.19551-0.79367-0.93589 0.60522
  -4   5  -4   65.90   40.00  47-0.19314-0.27075 0.69750-0.09933 0.59270-0.99389
  -4  -5  -4  155.90   25.10  98-0.60842 0.14453 0.26721-0.86537-0.90207 0.50088
  -4   5  -5  549.80   44.60  50-0.25496-0.23138 0.73443-0.13627 0.51510-0.98682
  -4  -5  -5  756.00   51.10  97-0.62891 0.14256 0.31771-0.91588-0.87288 0.40116
  -4   5  -6  995.20   68.20  53-0.31202-0.19677 0.76366-0.16550 0.43650-0.97875
  -4  -5  -6 1115.10   66.20  95-0.64174 0.13294 0.35262-0.95078-0.84990 0.30765
  -4   6   8  184.50   51.90  19 0.44337-0.63788 0.03734 0.68046 0.99011-0.54495
   4  -6  -8  144.80   40.00 109-0.44328 0.63779-0.03728-0.68052-0.99012 0.54496
   4  -6  -8   73.80   52.00 155 0.45198-0.25695 0.18741-0.90566-0.68340 0.23820
   4   6  -7  676.60   48.00 179 0.50195-0.28425 0.71164 0.00592 0.62538-0.99939
  -4   6   7  675.70   49.90  21 0.41558-0.63253 0.07906 0.63873 0.99127-0.61664
   4  -6  -7  667.40   65.40 111-0.41549 0.63244-0.07900-0.63879-0.99128 0.61665
   4  -6  -7  647.50   60.30 155 0.46404-0.24661 0.16325-0.88151-0.67817 0.30347
   4   6  -6  171.70   41.90 176 0.56016-0.32013 0.62604 0.09152 0.69217-0.99579
  -4   6   6  316.70   45.80  22 0.38223-0.62163 0.12685 0.59095 0.98938-0.68528
   4  -6  -6  208.90   45.80 112-0.38213 0.62154-0.12679-0.59101-0.98939 0.68529
   4  -6  -6  199.90   50.10 156 0.47844-0.23862 0.13330-0.85156-0.67104 0.36685
   4   6  -5 1239.10   78.20 172 0.61020-0.34785 0.53358 0.18398 0.74894-0.98219
  -4   6   5 1476.80   86.60  24 0.34297-0.60483 0.18027 0.53753 0.98311-0.74953
  -4   6   5 1219.80   76.10 169 0.65246-0.91481 0.43396 0.28359 0.79615-0.56290
   4  -6  -5 1364.60   94.10 114-0.34288 0.60473-0.18021-0.53758-0.98312 0.74955
   4  -6  -5 1350.20   94.40 157 0.49477-0.23255 0.09773-0.81599-0.66165 0.42796
   4   6  -4   81.10   36.80 169 0.65122-0.36654 0.43731 0.28025 0.79477-0.95764
  -4   6   4   82.30   41.90  26 0.29771-0.58201 0.23852 0.47927 0.97106-0.80802
  -4   6   4   35.40   22.20 171 0.62974-0.91441 0.49069 0.22686 0.77087-0.60799
   4  -6  -4   12.30   42.80 116-0.29761 0.58191-0.23847-0.47933-0.97107 0.80803
   4  -6  -4   22.10   44.90 159 0.51253-0.22792 0.05679-0.77505-0.64964 0.48646
  -4   6   3  393.30   42.40  29 0.24664-0.55339 0.30040 0.41740 0.95196-0.85945
  -4   6   3  378.50   38.70 173 0.60282-0.90982 0.54865 0.16891 0.74061-0.64811
   4  -6  -3  387.80   39.20 119-0.24654 0.55329-0.30034-0.41745-0.95197 0.85946
   4  -6  -3  302.80   37.70 160 0.53116-0.22416 0.01087-0.72912-0.63463 0.54195
  -4   6   2  795.60   52.50  31 0.19036-0.51956 0.36432 0.35348 0.92479-0.90281
  -4   6   2  664.60   46.50 175 0.57179-0.90111 0.60639 0.11116 0.70542-0.68330
   4  -6  -2  813.00   53.80 121-0.19026 0.51946-0.36426-0.35353-0.92480 0.90281
   4  -6  -2  611.60   53.00 162 0.55004-0.22065-0.03955-0.67870-0.61630 0.59413
  -4   6   1  454.60   46.80  34 0.12984-0.48149 0.42847 0.28933 0.88900-0.93755
  -4   6   1  529.00   43.50 177 0.53690-0.88855 0.66259 0.05497 0.66556-0.71382
   4  -6  -1  438.30   59.50 164 0.56853-0.21674-0.09385-0.62440-0.59439 0.64273
  -4   6   0  298.50   45.10  36 0.06637-0.44047 0.49097 0.22682 0.84459-0.96366
  -4   6   0  229.90   38.70 179 0.49856-0.87253 0.71607 0.00149 0.62148-0.74011
  -4  -6   0  276.70   22.20 121-0.20229-0.17181-0.35096-0.36684-0.93112 0.81204
   4  -6   0  296.20   53.20 165 0.58599-0.21181-0.15131-0.56694-0.56872 0.68757
  -4   6  -1  297.50   31.20  39 0.00137-0.39792 0.55009 0.16771 0.79210-0.98171
  -4   6  -1  262.50   32.30 181 0.45726-0.85355 0.76590-0.04834 0.57372-0.76272
  -4  -6  -1  277.90   24.40 115-0.32184-0.07470-0.20770-0.51009-0.97813 0.78853
   4  -6   1  171.60   42.80 167 0.60180-0.20522-0.21114-0.50712-0.53920 0.72856
  -4   6  -2 1142.40   66.30  42-0.06371-0.35529 0.60440 0.11340 0.73255-0.99268
  -4  -6  -2 1300.30   64.90 111-0.41199-0.00701-0.08413-0.63367-0.99124 0.73111
  -4   6  -3  203.30   49.30  45-0.12756-0.31389 0.65287 0.06493 0.66722-0.99788
  -4  -6  -3  238.70   28.30 107-0.47720 0.03575 0.01634-0.73414-0.98484 0.65418
  -4   6  -4  206.90   34.00  47-0.18911-0.27479 0.69491 0.02289 0.59751-0.99870
  -4  -6  -4  266.30   34.30 105-0.52337 0.05947 0.09512-0.81291-0.96933 0.56814
   4   7  -3  523.60   56.40 168 0.66230-0.35530 0.40647 0.43068 0.80699-0.89948
  -4   7   3  397.20   48.60  31 0.20025-0.50700 0.35340 0.48404 0.93000-0.83749
  -4   7   3  452.60   45.20 174 0.58718-0.89418 0.57880 0.25835 0.72291-0.63041
   4  -7  -3  535.60   46.30 121-0.20014 0.50689-0.35335-0.48408-0.93001 0.83750
   4  -7  -3  579.00   61.10 164 0.56899-0.26199-0.09526-0.74270-0.59379 0.50112
  -4   7   2  151.80   33.30  33 0.14883-0.47803 0.40883 0.42860 0.90094-0.87895
  -4   7   2  239.40   49.40 176 0.55920-0.88853 0.62761 0.20954 0.69108-0.66896
   4  -7  -2  194.40   42.90 123-0.14873 0.47793-0.40878-0.42865-0.90094 0.87896
   4  -7  -2  193.10   40.90 165 0.58206-0.25266-0.13771-0.70025-0.57503 0.55286
  -4   7   1  112.20   39.60  35 0.09398-0.44563 0.46437 0.37306 0.86475-0.91330
  -4   7   1  175.70   46.30 177 0.52791-0.87956 0.67583 0.16132 0.65525-0.70350
   4  -7  -1  154.30   50.90 166 0.59477-0.24298-0.18335-0.65461-0.55327 0.60161
  -4   7   0  743.50   56.80  38 0.03662-0.41072 0.51863 0.31880 0.82144-0.94052
  -4   7   0  933.10   70.50 179 0.49351-0.86748 0.72256 0.11459 0.61565-0.73428
   5   0 -13   73.60   34.80 125-0.15619 0.33280 0.86088-0.86088-0.50878-0.25925
  -5   0  13  152.30   36.00   1 0.67140-0.84719-0.45088 0.45088 0.77127-0.00323
   5   0 -12  328.20   48.50 124-0.16994 0.36894 0.86725-0.86725-0.49771-0.19981
  -5   0  12  341.70   40.20   1 0.67064-0.86888-0.44782 0.44782 0.77406-0.07655
   5   0 -11  789.20   56.70  92-0.66810 0.88878 0.43826-0.43826-0.78269 0.15571
   5   0 -11  853.50   56.80 124-0.18041 0.40180 0.87184-0.87184-0.48907-0.13795
  -5   0  11 1034.60   67.00   2 0.66817-0.88885-0.43813 0.43813 0.78273-0.15575
   5   0 -10  325.00   35.70  93-0.66311 0.90624 0.41992-0.41992-0.79848 0.24203
  -5   0  10  352.50   36.60   3 0.66318-0.90631-0.41978 0.41978 0.79852-0.24208
   5   0  -9 3452.70  145.90  94-0.65413 0.91971 0.38984-0.38984-0.82268 0.33676
  -5   0   9 4062.60  164.80   4 0.65420-0.91977-0.38969 0.38969 0.82272-0.33680
  -5   0   9 3495.00  174.30  68-0.58877 0.32319 0.80214-0.80214-0.09296 0.57888
   5   0  -8  718.50   50.50  96-0.63846 0.92649 0.34341-0.34341-0.85619 0.44080
  -5   0   8  888.70   53.10   6 0.63852-0.92654-0.34325 0.34325 0.85624-0.44085
  -5   0   8  826.00   54.40  71-0.62107 0.33305 0.78368-0.78368-0.18768 0.60307
   5   0  -7  748.00   38.70  98-0.61127 0.92175 0.27393-0.27393-0.89845 0.55359
   5   0  -7  719.10   41.50 124-0.17943 0.49040 0.87142-0.87142-0.48989 0.14490
  -5   0   7  856.80   53.10   8 0.61132-0.92179-0.27376 0.27376 0.89849-0.55363
  -5   0   7  936.90   49.40  74-0.65195 0.34147 0.75223-0.75223-0.29804 0.64290
   5   0  -6   95.30   23.20 102-0.56447 0.89740 0.17268-0.17268-0.94488 0.67054
   5   0  -6  160.00   31.30 125-0.16383 0.49720 0.86447-0.86447-0.50267 0.22819
  -5   0   6   88.90   18.90  12 0.56450-0.89743-0.17249 0.17249 0.94491-0.67057
  -5   0   6  114.50   20.80  78-0.67809 0.34516 0.70001-0.70001-0.42820 0.70253
   5   0  -5 5648.20  219.50 107-0.48644 0.84182 0.03153-0.03153-0.98257 0.77876
   5   0  -5 5621.40  208.80 126-0.13889 0.49465 0.85231-0.85231-0.52227 0.31829
  -5   0   5 5862.60  202.40  17 0.48645-0.84182-0.03133 0.03133 0.98257-0.77877
  -5   0   5 6579.20  235.10  84-0.69175 0.33637 0.61450-0.61450-0.57977 0.78357
   5   0  -4 3538.70  146.30 113-0.36659 0.74441-0.14830 0.14830-0.98740 0.85413
   5   0  -4 3474.40  153.80 128-0.10198 0.48013 0.83203-0.83203-0.54944 0.41597
  -5   0   4 3505.60  142.10  23 0.36657-0.74439 0.14851-0.14851 0.98737-0.85410
  -5   0   4 3750.10  147.00  90-0.67789 0.30006 0.47973-0.47973-0.74387 0.87714
   5   0  -3 1693.60   78.20   8 0.61727-0.21699-0.28808 0.28808 0.89051-0.95326
   5   0  -3 2033.60  107.90 120-0.20837 0.60865-0.34415 0.34415-0.93421 0.87147
   5   0  -3 1758.60   78.00 130-0.04972 0.45027 0.79880-0.79880-0.58428 0.52132
   5   0  -3 2070.40   83.10 179 0.49138-0.09089 0.72526-0.72526 0.61319-0.67603
  -5   0   3 1828.90   82.70  30 0.20834-0.60861 0.34436-0.34436 0.93413-0.87139
  -5   0   3 2052.50   78.70  98-0.61724 0.21696 0.28829-0.28829-0.89045 0.95319
   5   0  -2 5316.00  195.00  16 0.50486-0.08213-0.06241 0.06241 0.97686-0.96908
   5   0  -2 4868.00  180.10 133 0.02182 0.40112 0.74498-0.74498-0.62527 0.63282
  -5   0   2 5408.00  189.90  38 0.03791-0.46064 0.51746-0.51746 0.82248-0.83026
  -5   0   2 5610.40  191.40 106-0.50485 0.08213 0.06262-0.06262-0.97685 0.96906
   5   0  -1 1278.10   58.00  23 0.36558 0.07959 0.14986-0.14986 0.98722-0.90891
   5   0  -1 1275.50   64.00 137 0.11617 0.32917 0.65930-0.65930-0.66748 0.74554
  -5   0   1 1291.30   60.00  44-0.11384-0.33133 0.64287-0.64287 0.68184-0.76015
  -5   0   1 1372.50   58.70 113-0.36558-0.07959-0.14967 0.14967-0.98725 0.90894
   5   0   0 2442.80  115.90  29 0.23381 0.23381 0.31534-0.31534 0.94631-0.79747
   5   0   0 2357.60  105.30 143 0.23387 0.23387 0.52754-0.52754-0.70013 0.84869
  -5   0   0 2475.00   92.50  49-0.23381-0.23381 0.72238-0.72238 0.54250-0.69134
  -5   0   0 2748.80  114.30 119-0.23381-0.23381-0.31517 0.31517-0.94637 0.79752
   5   0   1 5217.10  193.90 150 0.36783 0.12230 0.33729-0.33729-0.70487 0.92393
  -5   0  -1 5474.50  192.60  53-0.32464-0.16543 0.76944-0.76944 0.41812-0.63750
   5   0   2   33.50   14.90 158 0.49865 0.01387 0.08899-0.08899-0.65920 0.94877
  -5   0  -2  -12.00   25.60  57-0.39365-0.11887 0.79605-0.79605 0.31052-0.60042
  -5   0  -2   52.90   13.00 126-0.14353-0.36899 0.85466-0.85466-0.51870 0.22912
   5   0   3  933.00   51.50 167 0.59708-0.06216-0.19225 0.19225-0.54884 0.90892
  -5   0  -3  891.80   55.70  59-0.44730-0.08767 0.80998-0.80998 0.21718-0.57761
  -5   0  -3 1176.60   45.80 128-0.09967-0.43525 0.83066-0.83066-0.55107 0.19099
  -5   0  -4 3592.80  144.30  62-0.49015-0.06727 0.81579-0.81579 0.13499-0.56595
  -5   0  -4 3806.80  153.00 129-0.06016-0.49715 0.80586-0.80586-0.57766 0.14707
  -5   0  -5  -28.20   23.10  64-0.52525-0.05462 0.81611-0.81611 0.06129-0.56278
  -5   0  -6 1488.50   75.90  66-0.55459-0.04773 0.81244-0.81244-0.00596-0.56606
  -5   0  -7   87.60   40.10  68-0.57950-0.04526 0.80570-0.80570-0.06826-0.57428
  -5   0  -8  184.80   45.10  69-0.60089-0.04633 0.79643-0.79643-0.12674-0.58634
  -5   0  -9  406.20   47.80  71-0.61935-0.05032 0.78496-0.78496-0.18220-0.60140
  -5   1  13  197.40   46.40   4 0.65466-0.83044-0.39117 0.51081 0.82158-0.05354
   5  -1 -13   62.70   39.70 129-0.06404 0.24064 0.80842-0.92813-0.57515-0.19288
  -5   1  12  123.40   30.90   4 0.65250-0.85073-0.38434 0.50397 0.82681-0.12931
   5  -1 -12   76.00   24.20  94-0.65243 0.85066 0.38446-0.50409-0.82679 0.12929
   5  -1 -12  142.10   31.20 129-0.07413 0.27313 0.81497-0.93468-0.56853-0.12900
  -5   1  11  290.00   43.00   4 0.64804-0.86872-0.37068 0.49032 0.83698-0.21000
   5  -1 -11  188.90   40.20  94-0.64797 0.86865 0.37081-0.49044-0.83696 0.20998
   5  -1 -11  251.50   41.30 129-0.08036 0.30175 0.81891-0.93862-0.56436-0.06265
  -5   1  10 4673.40  183.60   5 0.64039-0.88352-0.34849 0.46812 0.85267-0.29623
   5  -1 -10 4012.50  160.20  95-0.64032 0.88345 0.34862-0.46825-0.85265 0.29620
   5  -1 -10 4681.50  174.10 128-0.08225 0.32604 0.82010-0.93981-0.56308 0.00657
   5   1  -9  808.10   52.40  91-0.67385 0.93943 0.46149-0.34186-0.76150 0.27558
  -5   1   9 1120.40   59.40   7 0.62814-0.89372-0.31542 0.43505 0.87425-0.38833
   5  -1  -9  956.70   62.90  97-0.62807 0.89365 0.31555-0.43518-0.87422 0.38830
   5  -1  -9 1021.00   64.20 129-0.07922 0.34540 0.81819-0.93790-0.56513 0.07913
   5   1  -8  732.40   44.80  93-0.66252 0.95055 0.41783-0.29820-0.80022 0.38483
  -5   1   8  841.80   54.50   8 0.60904-0.89707-0.26838 0.38801 0.90139-0.48600
  -5   1   8  720.80   38.70  77-0.66736 0.37933 0.72657-0.60694-0.36741 0.78280
  -5  -1   8  871.30   49.70   3 0.66257-0.95060-0.41764 0.29801 0.80031-0.38492
  -5  -1   8  745.70   44.00  63-0.51305 0.22502 0.81652-0.93615 0.08766 0.32773
   5  -1  -8  777.20   49.50  98-0.60898 0.89701 0.26852-0.38815-0.90137 0.48598
   5  -1  -8  811.20   49.50 129-0.07044 0.35902 0.81260-0.93231-0.57097 0.15547
   5   1  -7  119.30   17.70  96-0.63879 0.94927 0.34432-0.22469-0.85557 0.51071
  -5   1   7  140.90   31.50  11 0.57976-0.89023-0.20364 0.32327 0.93244-0.58757
  -5   1   7  146.40   19.80  80-0.68481 0.37433 0.67503-0.55540-0.47824 0.82310
  -5  -1   7  110.80   20.70   6 0.63882-0.94930-0.34411 0.22448 0.85566-0.51080
  -5  -1   7  142.90   20.30  65-0.54623 0.23575 0.81391-0.93354 0.01382 0.33104
   5  -1  -7   95.40   30.70 101-0.57970 0.89018 0.20378-0.32341-0.93242 0.58756
   5  -1  -7  182.90   37.50 130-0.05491 0.36588 0.80234-0.92204-0.58101 0.23602
   5   1  -6  539.40   31.80 100-0.58764 0.92057 0.22063-0.10099-0.92502 0.65069
  -5   1   6  597.20   31.30  14 0.53574-0.86867-0.11738 0.23702 0.96322-0.68889
  -5   1   6  683.90   41.80  84-0.69192 0.35899 0.60276-0.48312-0.59697 0.87130
  -5  -1   6  673.20   35.50  10 0.58764-0.92057-0.22037 0.10073 0.92509-0.65076
  -5  -1   6  742.50   46.80  68-0.58392 0.25099 0.80408-0.92372-0.07991 0.35424
   5  -1  -6  644.80   37.40 104-0.53570 0.86862 0.11753-0.23716-0.96321 0.68888
   5  -1  -6  756.00   48.90 131-0.03136 0.36473 0.78591-0.90562-0.59553 0.32105
   5   1  -5 6175.70  244.40 107-0.47698 0.83236 0.01598 0.10365-0.98489 0.78108
  -5   1   5 6520.30  225.10  18 0.47182-0.82720-0.00742 0.12705 0.98599-0.78219
  -5   1   5 6822.10  245.10  89-0.68265 0.32728 0.50440-0.38477-0.71852 0.92233
  -5  -1   5 6427.00  254.20  17 0.47691-0.83229-0.01566-0.10397 0.98491-0.78110
   5  -1  -5 6630.60  231.40 108-0.47179 0.82716 0.00757-0.12720-0.98599 0.78219
   5  -1  -5 6237.10  229.90 132 0.00169 0.35407 0.76109-0.88080-0.61451 0.41054
   5   1  -4 3202.90  129.50 118-0.26112 0.63894-0.28307 0.40271-0.95798 0.82471
  -5   1   4 3072.00  129.40  22 0.38431-0.76214 0.12394-0.00430 0.98959-0.85632
  -5   1   4 3293.60  122.60  94-0.65006 0.27223 0.37713-0.25750-0.83229 0.96557
  -5  -1   4 3181.40  119.00  28 0.26095-0.63878 0.28344-0.40307 0.95787-0.82460
   5  -1  -4 3237.30  128.90 112-0.38428 0.76211-0.12378 0.00415-0.98961 0.85634
   5  -1  -4 2788.60  124.30 134 0.04585 0.33230 0.72476-0.84447-0.63731 0.50384
  -5   1   3  735.70   45.20  28 0.27447-0.67475 0.26715-0.14752 0.96306-0.90032
  -5   1   3  728.90   35.30 100-0.58969 0.18942 0.22505-0.10542-0.92300 0.98574
  -5  -1   3  749.60   34.20  41-0.03377-0.36650 0.58002-0.69966 0.76082-0.69807
  -5  -1   3  834.20   36.00  89-0.68315 0.28287 0.50725-0.62688-0.71549 0.77823
   5  -1  -3  830.30   50.90 118-0.27445 0.67473-0.26700 0.14737-0.96310 0.90036
   5  -1  -3  741.70   43.80 137 0.10253 0.29802 0.67274-0.79245-0.66223 0.59927
   5   1  -2  284.30   21.00  13 0.55060-0.12788-0.14532 0.26496 0.95452-0.94674
   5   1  -2  313.10   30.00 125-0.14889 0.57184 0.85734-0.73763-0.51453 0.52208
  -5   1   2  332.10   21.50  33 0.15071-0.57344 0.40686-0.28723 0.90208-0.90987
  -5   1   2  321.20   24.00 106-0.50439 0.08167 0.06183 0.05781-0.97701 0.96923
  -5   1   2  440.50   31.30 125-0.15804-0.26490 0.86176-0.74205-0.50731 0.49976
  -5  -1   2  313.40   18.50  50-0.26157-0.16116 0.73807-0.85770 0.50636-0.51414
   5  -1  -2  266.50   21.60  16 0.50443-0.08170-0.06167-0.05796 0.97701-0.96923
   5  -1  -2  361.20   28.60 123-0.15069 0.57342-0.40672 0.28709-0.90214 0.90992
   5  -1  -2  270.90   26.20 140 0.17239 0.25055 0.59999-0.71970-0.68600 0.69355
   5  -1  -2  422.40   29.00 174 0.59081-0.16800 0.57199-0.69159 0.72703-0.71950
   5   1  -1 2862.30  110.20  25 0.32895 0.11623 0.19869-0.07905 0.97990-0.90158
   5   1  -1 2618.30  107.70 129-0.06130 0.50664 0.80661-0.68691-0.57692 0.65497
  -5   1   1 2676.40  111.20  38 0.02578-0.47095 0.52846-0.40883 0.81264-0.89095
  -5   1   1 2971.90  104.00 111-0.40543-0.03975-0.09367 0.21330-0.99107 0.91276
  -5  -1   1 2862.80  101.70  56-0.38640-0.05877 0.79368-0.91331 0.32244-0.40075
   5  -1  -1 2416.40  119.70  21 0.40546 0.03971 0.09381-0.21345 0.99105-0.91274
   5  -1  -1 2586.50  112.20 144 0.25441 0.19092 0.50142-0.62113-0.70332 0.78138
   5  -1  -1 3146.00  147.20 179 0.50732-0.06218 0.70451-0.82410 0.63157-0.55366
   5   1   011104.00  395.10 135 0.06892 0.39881 0.70433-0.58462-0.64805 0.79661
  -5   1   011915.20  402.80  43-0.08936-0.37826 0.62445-0.50482 0.70714-0.85598
  -5  -1   012006.90  394.00  60-0.45678-0.01085 0.81172-0.93135 0.19964-0.34849
   5  -1   010947.40  424.10 148 0.34481 0.12292 0.37363-0.49334-0.70700 0.85556
   5   1   1 1132.60   70.10  38 0.01834 0.47173 0.53512-0.41549 0.80649-0.58711
   5   1   1 1233.70   55.90 144 0.25467 0.23545 0.50109-0.38138-0.70336 0.92243
  -5   1  -1 1192.90   58.30  47-0.18919-0.30088 0.69496-0.57533 0.59741-0.81678
  -5   1  -1 1164.20   54.00 120-0.21986-0.27022-0.33118 0.45081-0.93985 0.72048
  -5  -1  -1 1462.80   59.60  62-0.50235 0.01228 0.81641-0.93604 0.11010-0.32947
   5  -1   1 1141.70   57.70 154 0.43644 0.05369 0.21742-0.33713-0.68924 0.90831
   5   1   2  147.10   14.20 157 0.48653 0.02599 0.11591 0.00380-0.66657 0.95615
  -5   1  -2  162.00   22.70  51-0.27301-0.23951 0.74421-0.62457 0.49101-0.78091
  -5   1  -2  143.40   19.80 123-0.14829-0.36423-0.40923 0.52887-0.90068 0.61077
  -5   1  -2  199.30   24.00 135 0.06114-0.57366 0.71133-0.59162-0.64452 0.35494
  -5  -1  -2  189.50   27.50  65-0.53548 0.02296 0.81528-0.93492 0.03850-0.32840
   5  -1   2  152.50   24.90 159 0.51962-0.00710 0.03970-0.15941-0.64424 0.93381
  -5   1  -3 6296.40  232.90  54-0.34258-0.19239 0.77719-0.65755 0.39135-0.75178
  -5  -1  -3 6807.60  227.90  66-0.56151 0.02654 0.81094-0.93057-0.02273-0.33770
   5  -1   3 5728.10  235.50 165 0.58473-0.04981-0.14689 0.02718-0.57079 0.93087
  -5   1  -4 1439.20   75.10  57-0.40039-0.15703 0.79815-0.67852 0.29930-0.73026
  -5   1  -4 1661.70   88.80 139 0.14589-0.70320 0.62874-0.50903-0.67792 0.24733
  -5  -1  -4 1463.40   73.90  68-0.58303 0.02561 0.80442-0.92405-0.07754-0.35342
  -5   1  -5 4027.80  184.90  59-0.44878-0.13109 0.81027-0.69063 0.21447-0.71596
  -5  -1  -5 4112.30  183.70  69-0.60138 0.02151 0.79617-0.91580-0.12815-0.37334
  -5   1  -6 1982.80   99.20  62-0.48965-0.11267 0.81576-0.69613 0.13599-0.70801
  -5  -1  -6 2079.70  108.20  71-0.61733 0.01501 0.78640-0.90604-0.17586-0.39616
  -5   1  -7  329.70   42.50  64-0.52451-0.10026 0.81615-0.69651 0.06292-0.70546
  -5  -1  -7  400.50   39.10  72-0.63133 0.00657 0.77521-0.89484-0.22151-0.42103
  -5   1  -8  714.30   57.30  66-0.55446-0.09276 0.81247-0.69283-0.00564-0.70744
  -5  -1  -8  840.60   70.60  73-0.64367-0.00355 0.76261-0.88224-0.26566-0.44742
  -5   1  -9  273.60   48.90  68-0.58033-0.08934 0.80541-0.68577-0.07043-0.71318
  -5  -1  -9  170.20   46.10  75-0.65451-0.01515 0.74861-0.86824-0.30866-0.47495
   5  -2 -13  -41.70   39.70  96-0.63210 0.80789 0.32613-0.56540-0.86755 0.09951
   5  -2 -13   33.10   42.00 134 0.03682 0.13979 0.73249-0.97191-0.63289-0.13515
  -5   2  12  208.00   43.60   7 0.62837-0.82660-0.31603 0.55530 0.87387-0.17636
   5  -2 -12  180.20   40.30  97-0.62830 0.82653 0.31614-0.55540-0.87386 0.17635
   5  -2 -12  262.70   45.40 133 0.03038 0.16862 0.73791-0.97733-0.62966-0.06787
  -5   2  11   31.70   35.90   7 0.62181-0.84249-0.29931 0.53858 0.88400-0.25702
   5  -2 -11   12.10   37.60  97-0.62174 0.84242 0.29942-0.53869-0.88399 0.25701
   5  -2 -11   14.50   39.10 133 0.02821 0.19318 0.73971-0.97913-0.62856 0.00154
  -5   2  10  726.40   45.00   8 0.61164-0.85477-0.27453 0.51379 0.89807-0.34162
   5  -2 -10  585.60   44.80  98-0.61157 0.85470 0.27464-0.51391-0.89806 0.34162
   5  -2 -10  820.20   53.40 133 0.03074 0.21305 0.73761-0.97702-0.62984 0.07333
  -5   2   9 1790.20   86.70   9 0.59662-0.86220-0.24001 0.47928 0.91587-0.42995
   5  -2  -9 1619.50   86.10  99-0.59655 0.86213 0.24012-0.47939-0.91586 0.42994
   5  -2  -9 1569.80   80.20 134 0.03850 0.22768 0.73107-0.97048-0.63372 0.14771
   5   2  -8 5691.20  256.50  90-0.67997 0.96800 0.48999-0.25073-0.73354 0.31815
  -5   2   8 6775.50  224.50  11 0.57503-0.86305-0.19382 0.43308 0.93654-0.52115
   5  -2  -8 6176.30  223.20 101-0.57496 0.86299 0.19393-0.43320-0.93653 0.52114
   5  -2  -8 7035.00  257.10 134 0.05212 0.23646 0.71931-0.95873-0.64031 0.22481
   5   2  -7  466.10   29.40  93-0.66148 0.97195 0.41418-0.17492-0.80325 0.45839
  -5   2   7  581.80   45.50  13 0.54462-0.85510-0.13395 0.37321 0.95821-0.61335
  -5   2   7  556.10   35.30 168 0.66069-0.97188 0.41111-0.17192 0.80522-0.46087
  -5  -2   7  577.10   33.20   3 0.66150-0.97198-0.41390 0.17464 0.80341-0.45855
   5  -2  -7  595.80   45.10 103-0.54456 0.85504 0.13407-0.37333-0.95821 0.61335
   5  -2  -7  619.90   47.40 135 0.07231 0.23866 0.70124-0.94066-0.64956 0.30457
   5   2  -6 2128.20   92.10  99-0.60044 0.93336 0.24884-0.00957-0.91156 0.63723
  -5   2   6 2652.20   95.80  16 0.50277-0.83570-0.05883 0.29809 0.97759-0.70326
  -5   2   6 2170.20  100.40  87-0.68807 0.35515 0.54099-0.30173-0.67747 0.95180
  -5   2   6 2488.40  102.00 173 0.59798-0.93150 0.55821-0.31903 0.73515-0.46118
  -5  -2   6 2469.80  101.20   9 0.60037-0.93329-0.24842 0.00915 0.91172-0.63739
  -5  -2   6 2498.00  107.70  49-0.24110-0.09183 0.72661-0.96587 0.53316-0.25883
   5  -2  -6 2390.40  111.00 106-0.50271 0.83564 0.05895-0.29821-0.97760 0.70327
   5  -2  -6 2365.50  105.90 137 0.09981 0.23355 0.67538-0.91479-0.66115 0.38667
   5   2  -5 2550.30  103.50 172 0.61423-0.25839 0.52510-0.28592 0.75348-0.95707
  -5   2   5 2541.10  107.40  19 0.44695-0.80232 0.03184 0.20743 0.98976-0.78596
  -5   2   5 2352.30   96.50  91-0.67052 0.31514 0.44773-0.20846-0.77422 0.97802
  -5   2   5 2667.40  104.50 178 0.52260-0.87844 0.68345-0.44426 0.64915-0.44556
   5  -2  -5 2546.50   98.40 109-0.44689 0.80227-0.03172-0.20755-0.98977 0.78597
   5  -2  -5 2279.60   95.60 138 0.13528 0.22048 0.63986-0.87928-0.67435 0.47038
  -5   2   4 4499.30  180.80  23 0.37568-0.75350 0.13597 0.10330 0.98862-0.85535
  -5   2   4 4155.50  164.20  96-0.63639 0.25856 0.33769-0.09843-0.86001 0.99329
   5  -2  -4 4637.50  158.60 113-0.37563 0.75345-0.13585-0.10342-0.98864 0.85537
   5  -2  -4 4100.80  171.80 140 0.17910 0.19905 0.59248-0.83190-0.68787 0.55440
  -5   2   3 7708.80  295.20  27 0.28976-0.69004 0.24841-0.00914 0.96846-0.90571
  -5   2   3 7804.00  287.20 100-0.58510 0.18482 0.21518 0.02409-0.92746 0.99021
   5  -2  -3 8735.00  297.80 117-0.28971 0.68999-0.24829 0.00902-0.96849 0.90574
   5  -2  -3 7777.10  299.70 143 0.23115 0.16940 0.53092-0.77034-0.69965 0.63669
  -5   2   2 3709.10  150.30  31 0.19294-0.61566 0.36148-0.12222 0.92617-0.93395
  -5   2   2 3670.20  150.40 105-0.51934 0.09662 0.08794 0.15132-0.97113 0.96334
   5  -2  -2 4319.80  158.40 121-0.19289 0.61561-0.36137 0.12210-0.92620 0.93399
   5  -2  -2 3750.30  164.00 146 0.29043 0.13251 0.45314-0.69256-0.70691 0.71446
   5   2  -1  439.50   20.90  26 0.31261 0.13256 0.21971 0.01955 0.97556-0.89725
  -5   2   1  480.70   45.90  35 0.09122-0.53639 0.46707-0.22780 0.86280-0.94111
  -5   2   1  442.30   25.20 109-0.44496-0.00022-0.03470 0.27396-0.98997 0.91165
  -5  -2   1  527.90   24.20  82-0.68916 0.24399 0.64916-0.88843-0.52455 0.44624
  -5  -2   1  446.20   23.50 116-0.31293-0.13224-0.21912-0.02014-0.97569 0.89738
   5  -2  -1  414.10   26.80 149 0.35485 0.09049 0.35800-0.59741-0.70624 0.78429
   5  -2  -1  507.30   35.30 170 0.63720-0.19207 0.47297-0.71215 0.77921-0.70129
   5   2   0 1544.70   72.90  38 0.02365 0.44397 0.53038-0.29111 0.81089-0.66204
   5   2   0 1674.60   73.00 126-0.14192 0.60965 0.85385-0.61443-0.51994 0.66850
  -5   2   0 1868.80   82.70  40-0.00898-0.45865 0.55905-0.31979 0.78311-0.93195
  -5   2   0 1793.50   76.10 113-0.36912-0.09850-0.14482 0.38409-0.98777 0.83893
  -5  -2   0 2052.80   84.60  77-0.66708 0.19945 0.72714-0.96641-0.36600 0.21715
   5  -2   0 1689.60   82.20 153 0.42105 0.04668 0.24598-0.48540-0.69410 0.84266
   5  -2   0 1778.70   85.60 174 0.58917-0.12171 0.57508-0.81426 0.72517-0.57689
   5   2   1 1333.40   68.60  44-0.10760 0.59767 0.63824-0.39897 0.68839-0.46902
   5   2   1 1480.00   61.00 134 0.05016 0.43996 0.72102-0.48160-0.63938 0.85844
  -5   2  -1 1619.70   89.80  43-0.10270-0.38737 0.63457-0.39531 0.69348-0.91285
  -5  -2  -1 1680.70   68.60  75-0.65650 0.16642 0.74566-0.98492-0.31707 0.09770
   5  -2   1 1429.60   71.70 157 0.48477 0.00536 0.11973-0.35915-0.66757 0.88664
  -5   2  -2  658.40   42.90  47-0.18719-0.32533 0.69367-0.45441 0.59978-0.88968
  -5  -2  -2  756.30   48.00  75-0.65338 0.14086 0.75023-0.98950-0.30393 0.01403
   5  -2   2  620.60   40.50 161 0.54144-0.02892-0.01603-0.22339-0.62509 0.91467
  -5   2  -3 2367.40  106.00  50-0.26165-0.27333 0.73811-0.49884 0.50626-0.86669
  -5  -2  -3 2666.20  105.50  75-0.65427 0.11930 0.74896-0.98823-0.30762-0.05281
   5  -2   3 2026.40  114.20 165 0.58709-0.05217-0.15518-0.08424-0.56690 0.92698
  -5   2  -4  342.20   42.70  53-0.32646-0.23096 0.77025-0.53098 0.41545-0.84641
  -5  -2  -4  434.80   29.80  75-0.65733 0.09991 0.74438-0.98364-0.32067-0.11029
  -5   2  -5 3777.00  155.90  56-0.38261-0.19726 0.79239-0.55313 0.32861-0.83010
  -5  -2  -5 4167.20  161.20  76-0.66155 0.08168 0.73747-0.97673-0.33950-0.16199
  -5   2  -6   43.00   40.30  58-0.43125-0.17107 0.80652-0.56725 0.24611-0.81813
  -5  -2  -6   69.50   29.70  76-0.66630 0.06399 0.72868-0.96795-0.36216-0.20986
  -5   2  -7  444.00   48.00  61-0.47347-0.15130 0.81417-0.57490 0.16790-0.81045
  -5  -2  -7  535.60   40.50  77-0.67120 0.04643 0.71824-0.95751-0.38748-0.25507
  -5   2  -8  664.60   54.90  63-0.51022-0.13700 0.81653-0.57726 0.09364-0.80672
  -5  -2  -8  567.40   52.20  78-0.67595 0.02873 0.70623-0.94550-0.41474-0.29834
  -5   3  12  219.50   50.00   9 0.59848-0.79671-0.24418 0.60308 0.91383-0.21632
   5  -3 -12  230.90   50.10  99-0.59841 0.79664 0.24428-0.60317-0.91383 0.21632
   5  -3 -12  342.10   48.10 138 0.13710 0.06190 0.63796-0.99709-0.67498-0.02255
  -5   3  11  568.90   50.40  10 0.58993-0.81061-0.22532 0.58422 0.92282-0.29585
   5  -3 -11  558.60   38.90 100-0.58986 0.81054 0.22542-0.58432-0.92283 0.29585
   5  -3 -11  526.00   53.10 138 0.13791 0.08348 0.63712-0.99625-0.67526 0.04824
  -5   3  10  699.00   53.90  11 0.57756-0.82069-0.19906 0.55796 0.93437-0.37792
   5  -3 -10  553.40   50.40 101-0.57749 0.82062 0.19916-0.55806-0.93437 0.37792
   5  -3 -10  699.70   60.20 139 0.14336 0.10042 0.63141-0.99054-0.67708 0.12057
  -5   3   9 3796.00  144.90  12 0.56036-0.82594-0.16428 0.52317 0.94794-0.46202
   5  -3  -9 3082.50  139.80 102-0.56029 0.82586 0.16438-0.52327-0.94794 0.46202
   5  -3  -9 3438.60  153.50 139 0.15378 0.11240 0.62033-0.97946-0.68045 0.19444
  -5   3   8   55.60   35.30  14 0.53706-0.82509-0.11982 0.47872 0.96251-0.54712
   5  -3  -8    5.80   33.70 104-0.53699 0.82502 0.11992-0.47882-0.96252 0.54713
   5  -3  -8   41.90   24.60 140 0.16952 0.11905 0.60318-0.96230-0.68518 0.26969
  -5   3   7 5659.30  201.70  16 0.50618-0.81666-0.06469 0.42359 0.97639-0.63153
   5  -3  -7 5376.90  216.60 106-0.50611 0.81659 0.06479-0.42369-0.97640 0.63153
   5  -3  -7 5482.70  213.10 141 0.19089 0.12008 0.57906-0.93819-0.69095 0.34596
   5   3  -6   41.40   15.30 176 0.55011-0.21660 0.64225-0.28347 0.68069-0.95466
  -5   3   6   38.50   23.10  18 0.46618-0.79911 0.00164 0.35726 0.98706-0.71273
  -5   3   6   -8.10   17.40 170 0.63799-0.97151 0.47105-0.11227 0.78008-0.50612
   5  -3  -6   19.10   24.00 108-0.46611 0.79904-0.00154-0.35736-0.98707 0.71274
   5  -3  -6   50.30   25.30 142 0.21808 0.11528 0.54694-0.90607-0.69715 0.42266
   5   3  -5  250.20   22.70 169 0.64927-0.29343 0.44246-0.08368 0.79262-0.99621
  -5   3   5  254.90   40.00  21 0.41576-0.77113 0.07880 0.28010 0.99127-0.78746
  -5   3   5  252.00   26.10 174 0.59283-0.94867 0.56817-0.20939 0.72931-0.52572
   5  -3  -5  362.40   36.60 111-0.41569 0.77107-0.07870-0.28020-0.99128 0.78748
   5  -3  -5  260.10   43.40 144 0.25112 0.10464 0.50568-0.86480-0.70287 0.49889
  -5   3   4 4980.20  229.50  24 0.35433-0.73216 0.16511 0.19379 0.98534-0.85207
  -5   3   4 5292.30  197.70 177 0.54068-0.91885 0.65687-0.29810 0.66990-0.53668
   5  -3  -4 5354.30  191.80 114-0.35427 0.73209-0.16501-0.19389-0.98536 0.85209
   5  -3  -4 5102.20  224.40 146 0.28969 0.08847 0.45418-0.81330-0.70686 0.57340
  -5   3   3  259.20   32.90  27 0.28252-0.68279 0.25733 0.10157 0.96596-0.90322
  -5   3   3  212.70   27.10 180 0.48448-0.88497 0.73388-0.37510 0.60522-0.54238
   5  -3  -3  283.80   32.10 117-0.28245 0.68273-0.25724-0.10166-0.96599 0.90324
   5  -3  -3  225.00   31.40 148 0.33305 0.06750 0.39157-0.75069-0.70757 0.64460
  -5   3   2 1201.10   68.10  31 0.20237-0.62509 0.35103 0.00787 0.93110-0.93888
   5  -3  -2 1304.10   59.80 121-0.20230 0.62503-0.35094-0.00796-0.93113 0.93891
   5  -3  -2 1122.80   77.20 150 0.37994 0.04300 0.31744-0.67657-0.70317 0.71072
  -5   3   1 2543.50  109.90  34 0.11715-0.56233 0.44135-0.08245 0.88067-0.95899
   5  -3  -1 2272.20  106.60 153 0.42859 0.01675 0.23212-0.59125-0.69183 0.76988
   5   3   0 1915.10   78.30   5 0.64157-0.17395-0.35184 0.71074 0.85037-0.70153
   5   3   0 1622.70   75.90  45-0.13197 0.59959 0.65604-0.29714 0.66245-0.51360
  -5   3   0 2230.30   85.50  38 0.03067-0.49829 0.52405-0.16515 0.81663-0.96547
   5  -3   0 1982.20   85.10 156 0.47678-0.00905 0.13681-0.49594-0.67191 0.82047
   5   3   1   13.80   11.10  49-0.23801 0.72808 0.72482-0.36592 0.53713-0.31776
   5   3   1   61.80   13.50 164 0.57462-0.08450-0.11309 0.47222-0.58608 0.80515
  -5   3  -1   25.00   33.80  41-0.05361-0.43647 0.59629-0.23739 0.74226-0.96163
  -5  -3  -1  111.50   29.60  89-0.68369 0.19362 0.51046-0.86936-0.71203 0.49266
   5  -3   1   60.90   33.10 159 0.52209-0.03197 0.03364-0.39277-0.64227 0.86134
  -5   3  -2 4449.90  196.00  45-0.13307-0.37945 0.65682-0.29793 0.66125-0.95115
   5  -3   2 4112.20  163.40 163 0.56218-0.04966-0.07454-0.28459-0.60244 0.89202
  -5   3  -3  148.50   29.20  48-0.20618-0.32879 0.70571-0.34682 0.57695-0.93738
  -5  -3  -3  211.90   24.70  84-0.69182 0.15685 0.61156-0.97046-0.58413 0.22370
   5  -3   3  130.40   36.10 166 0.59506-0.06015-0.18447-0.17465-0.55272 0.91280
  -5   3  -4  359.40   39.60  51-0.27232-0.28510 0.74384-0.38495 0.49193-0.92289
  -5  -3  -4  400.80   34.20  83-0.69113 0.13371 0.62800-0.98690-0.55908 0.12812
  -5   3  -5  114.80   42.90  54-0.33152-0.24835 0.77248-0.41358 0.40795-0.90944
  -5  -3  -5   81.80   29.20  82-0.69063 0.11076 0.63487-0.99377-0.54817 0.04668
  -5   3  -6  404.30   38.00  56-0.38419-0.21813 0.79293-0.43403 0.32604-0.89806
  -5  -3  -6  550.50   49.00  82-0.69057 0.08825 0.63562-0.99452-0.54696-0.02505
  -5   3  -7   91.50   39.00  58-0.43089-0.19388 0.80643-0.44753 0.24676-0.88930
  -5  -3  -7   51.30   31.40  83-0.69086 0.06609 0.63204-0.99094-0.55271-0.08984
  -5   3  -8  155.20   53.70  61-0.47224-0.17498 0.81402-0.45512 0.17028-0.88336
  -5  -3  -8  176.50   32.50  83-0.69130 0.04409 0.62512-0.98402-0.56358-0.14950
  -5   4  11   83.70   39.60  13 0.55283-0.77352-0.14962 0.62815 0.95308-0.32610
   5  -4 -11  118.70   47.20 103-0.55276 0.77344 0.14971-0.62824-0.95309 0.32611
   5  -4 -11  121.30   47.20 143 0.24202-0.02063 0.51729-0.99613-0.70150 0.07448
  -5   4  10   55.30   43.80  14 0.53867-0.78180-0.12280 0.60133 0.96163-0.40518
   5  -4 -10   83.10   39.90 104-0.53859 0.78172 0.12289-0.60142-0.96164 0.40519
   5  -4 -10  -44.80   42.10 144 0.24855-0.00476 0.50898-0.98782-0.70250 0.14598
  -5   4   9  347.60   44.60  15 0.51985-0.78542-0.08861 0.56714 0.97093-0.48501
   5  -4  -9  319.10   35.90 105-0.51977 0.78535 0.08870-0.56723-0.97094 0.48502
   5  -4  -9  388.50   40.50 144 0.25943 0.00675 0.49489-0.97373-0.70398 0.21798
  -5   4   8  162.60   46.40  16 0.49547-0.78350-0.04642 0.52495 0.97998-0.56459
   5  -4  -8  214.00   41.40 106-0.49540 0.78342 0.04651-0.52504-0.97999 0.56460
   5  -4  -8  150.70   30.20 145 0.27475 0.01382 0.47456-0.95340-0.70567 0.29018
   5   4  -7  571.40   38.70 179 0.49504-0.18385 0.72060-0.24223 0.61742-0.96176
  -5   4   7  578.10   43.90  18 0.46457-0.77505 0.00420 0.47433 0.98734-0.64248
   5  -4  -7  564.40   47.60 108-0.46450 0.77498-0.00411-0.47442-0.98736 0.64249
   5  -4  -7  517.70   44.20 146 0.29451 0.01646 0.44747-0.92630-0.70715 0.36216
   5   4  -6  417.50   30.80 174 0.58257-0.24905 0.58726-0.10889 0.71768-0.99165
  -5   4   6  341.00   40.00  20 0.42624-0.75917 0.06328 0.41525 0.99113-0.71680
  -5   4   6  357.10   31.30 170 0.64329-0.97680 0.45790 0.02047 0.78597-0.51201
   5  -4  -6  436.60   37.90 110-0.42617 0.75909-0.06319-0.41534-0.99115 0.71682
   5  -4  -6  400.60   42.50 147 0.31858 0.01478 0.41304-0.89188-0.70781 0.43332
   5   4  -5 1020.40   62.30 169 0.65167-0.29583 0.43610 0.04227 0.79527-0.99886
  -5   4   5 1162.40   71.20  23 0.37980-0.73518 0.13023 0.34830 0.98911-0.78531
  -5   4   5 1163.00   60.40 172 0.61032-0.96616 0.53333-0.05496 0.74907-0.54548
   5  -4  -5 1321.80   83.40 113-0.37973 0.73511-0.13015-0.34838-0.98913 0.78533
   5  -4  -5 1211.90   85.60 149 0.34665 0.00910 0.37078-0.84962-0.70688 0.50290
  -5   4   4 2578.30  121.60  25 0.32508-0.70291 0.20370 0.27483 0.97893-0.84566
  -5   4   4 2512.30  110.10 175 0.57159-0.94976 0.60673-0.12836 0.70520-0.57199
   5  -4  -4 2924.20  109.60 115-0.32501 0.70283-0.20362-0.27491-0.97895 0.84567
   5  -4  -4 2563.70  117.10 150 0.37820-0.00004 0.32033-0.79916-0.70344 0.56997
  -5   4   3 2751.60  128.30  28 0.26258-0.66286 0.28149 0.19704 0.95852-0.89577
  -5   4   3 3040.90  137.20 177 0.52813-0.92862 0.67552-0.19715 0.65550-0.59266
   5  -4  -3 3158.70  125.30 118-0.26251 0.66278-0.28141-0.19712-0.95854 0.89579
   5  -4  -3 2569.80  130.70 152 0.41242-0.01187 0.26156-0.74039-0.69646 0.63350
  -5   4   2  567.50   49.70  31 0.19361-0.61633 0.36074 0.11779 0.92652-0.93431
  -5   4   2  558.80   31.70 180 0.48118-0.90400 0.73792-0.25955 0.60141-0.60895
   5  -4  -2  752.30   48.40 121-0.19353 0.61626-0.36066-0.11787-0.92654 0.93433
   5  -4  -2  511.20   48.70 154 0.44826-0.02532 0.19469-0.67353-0.68489 0.69243
  -5   4   1 1401.50   77.60  34 0.12015-0.56532 0.43833 0.04021 0.88267-0.96098
   5  -4  -1 1245.20   73.00 157 0.48447-0.03913 0.12038-0.59921-0.66774 0.74580
  -5   4   0 1377.90   75.00  37 0.04459-0.51222 0.51132-0.03279 0.82779-0.97663
  -5  -4   0 1590.50   63.20 109-0.44808-0.01954-0.02988-0.44865-0.98965 0.84080
   5  -4   0 1178.80   67.20 159 0.51962-0.05189 0.03971-0.51854-0.64424 0.79280
  -5   4  -1  187.40   40.30  40-0.03068-0.45939 0.57745-0.09892 0.76365-0.98302
  -5  -4  -1  263.70   19.60 100-0.58386 0.09378 0.21253-0.69106-0.92863 0.70926
   5  -4   1  143.20   31.20 162 0.55228-0.06216-0.04584-0.43299-0.61388 0.83295
  -5   4  -2  734.40   54.70  44-0.10363-0.40889 0.63528-0.15674 0.69251-0.98241
  -5  -4  -2  799.40   42.10  96-0.63866 0.12614 0.34396-0.82249-0.85582 0.56592
   5  -4   2  605.50   50.50 165 0.58111-0.06860-0.13451-0.34433-0.57649 0.86607
  -5   4  -3  701.50   58.10  46-0.17275-0.36222 0.68420-0.20567 0.61670-0.97713
  -5  -4  -3  756.60   50.00  92-0.66332 0.12835 0.42064-0.89918-0.79787 0.43744
  -5   4  -4 3306.50  153.10  49-0.23711-0.32031 0.72430-0.24577 0.53829-0.96925
  -5  -4  -4 4233.80  192.00  91-0.67510 0.11768 0.46694-0.94547-0.75633 0.32537
  -5   4  -5  696.00   48.80  52-0.29625-0.28362 0.75608-0.27755 0.45894-0.96043
  -5  -4  -5  708.30   57.10  89-0.68091 0.10104 0.49488-0.97342-0.72851 0.22702
  -5   4  -6  926.00   70.90  54-0.35011-0.25221 0.78027-0.30174 0.37986-0.95188
  -5  -4  -6 1017.10   72.10  89-0.68377 0.08145 0.51092-0.98945-0.71153 0.13951
  -5   4  -7  725.50   63.30  57-0.39885-0.22592 0.79768-0.31915 0.30188-0.94442
  -5  -4  -7  858.00   56.40  88-0.68502 0.06025 0.51870-0.99723-0.70300 0.06045
  -5   5   9 1734.60  113.30  18 0.47538-0.74096-0.01317 0.61134 0.98524-0.49932
   5  -5  -9 1388.90  114.70 108-0.47530 0.74088 0.01325-0.61142-0.98526 0.49934
   5  -5  -9 1346.70   95.00 149 0.35169-0.08551 0.36295-0.96149-0.70651 0.22050
  -5   5   8  206.40   31.70  19 0.45042-0.73845 0.02645 0.57171 0.98938-0.57399
   5  -5  -8  181.40   36.50 109-0.45034 0.73837-0.02637-0.57179-0.98939 0.57400
   5  -5  -8  118.70   47.20 150 0.36493-0.07636 0.34195-0.94050-0.70521 0.28972
   5   5  -7  208.40   24.50 178 0.51925-0.20806 0.68816-0.09020 0.64530-0.98965
  -5   5   7  249.20   43.80  21 0.41982-0.73030 0.07281 0.52535 0.99126-0.64640
  -5   5   7  315.20   39.70 169 0.65905-0.97024 0.41579 0.18217 0.80341-0.45907
   5  -5  -7  151.60   45.20 111-0.41974 0.73022-0.07274-0.52543-0.99127 0.64641
   5  -5  -7  211.90   52.60 150 0.38155-0.07058 0.31476-0.91331-0.70291 0.35792
   5   5  -6  451.70   38.30 174 0.58785-0.25433 0.57755 0.02042 0.72368-0.99764
  -5   5   6  363.10   49.90  22 0.38305-0.71597 0.12571 0.47246 0.98946-0.71513
  -5   5   6  462.30   42.10 170 0.63679-0.97030 0.47398 0.12398 0.77874-0.50477
   5  -5  -6  391.00   50.60 112-0.38296 0.71589-0.12563-0.47253-0.98948 0.71515
   5  -5  -6  398.00   56.90 152 0.40128-0.06791 0.28119-0.87973-0.69914 0.42465
   5   5  -5  710.30   51.40 170 0.64341-0.28757 0.45758 0.14038 0.78611-0.98971
  -5   5   5  824.10   67.20  25 0.33977-0.69515 0.18451 0.41366 0.98242-0.77861
  -5   5   5  754.40   55.20 172 0.60988-0.96572 0.53425 0.06372 0.74858-0.54498
   5  -5  -5  769.60   65.80 115-0.33969 0.69506-0.18443-0.41373-0.98243 0.77863
   5  -5  -5  659.20   51.30 153 0.42371-0.06795 0.24112-0.83967-0.69332 0.48935
  -5   5   4  688.90   53.40  27 0.29000-0.66783 0.24811 0.35006 0.96854-0.83527
  -5   5   4  760.90   53.50 174 0.57844-0.95660 0.59470 0.00326 0.71299-0.57977
   5  -5  -4  640.50   46.60 117-0.28992 0.66774-0.24804-0.35013-0.96856 0.83528
   5  -5  -4  742.90   71.70 154 0.44832-0.07017 0.19457-0.79312-0.68487 0.55140
  -5   5   3   73.80   41.20  29 0.23418-0.63445 0.31492 0.28325 0.94648-0.88373
  -5   5   3  -12.20   29.70 177 0.54283-0.94332 0.65359-0.05563 0.67236-0.60952
   5  -5  -3    9.30   40.90 119-0.23410 0.63437-0.31485-0.28332-0.94649 0.88375
   5  -5  -3    9.30   22.20 156 0.47445-0.07390 0.14173-0.74027-0.67312 0.61016
  -5   5   2 1036.90   56.50  32 0.17321-0.59594 0.38296 0.21520 0.91532-0.92311
  -5   5   2 1033.70   60.10 179 0.50363-0.92645 0.70942-0.11146 0.62732-0.63486
   5  -5  -2 1074.40   66.50 122-0.17313 0.59585-0.38289-0.21527-0.91534 0.92312
   5  -5  -2  805.20   60.90 158 0.50129-0.07835 0.08299-0.68154-0.65747 0.66502
  -5   5   1  696.10   54.50  35 0.10843-0.55360 0.45009 0.14807 0.87479-0.95310
  -5   5   1  587.30   39.70 181 0.46152-0.90666 0.76109-0.16312 0.57866-0.65657
   5  -5  -1  550.40   52.70 160 0.52797-0.08263 0.01898-0.61753-0.63740 0.71545
  -5   5   0  383.80   51.00  38 0.04142-0.50904 0.51424 0.08392 0.82527-0.97412
  -5  -5   0  352.90   25.00 118-0.27374-0.19388-0.26787-0.33030-0.96284 0.81399
   5  -5   0  387.10   36.50 162 0.55356-0.08582-0.04945-0.54909-0.61247 0.76103
  -5   5  -1  137.60   40.70  40-0.02616-0.46392 0.57366 0.02451 0.76777-0.98715
  -5  -5  -1  222.40   17.20 110-0.43931-0.05076-0.04336-0.55481-0.99045 0.77108
   5  -5   1  246.20   48.00 164 0.57714-0.08702-0.12128-0.47726-0.58246 0.80152
  -5   5  -2  257.70   41.40  43-0.09275-0.41978 0.62704-0.02888 0.70370-0.99360
  -5  -5  -2  326.10   28.10 104-0.53127 0.01875 0.10942-0.70758-0.96552 0.67561
   5  -5   2  256.10   49.40 167 0.59787-0.08535-0.19536-0.40318-0.54727 0.83684
  -5   5  -3 2155.00  112.30  46-0.15708-0.37789 0.67362-0.07546 0.63463-0.99506
  -5  -5  -3 2802.30  126.40 100-0.58412 0.04915 0.21310-0.81127-0.92838 0.56795
  -5   5  -4  429.00   46.40  48-0.21823-0.33919 0.71311-0.11494 0.56211-0.99307
  -5  -5  -4  480.20   42.70  98-0.61533 0.05791 0.28365-0.88182-0.89307 0.46211
  -5   5  -5  461.10   58.30  51-0.27557-0.30430 0.74556-0.14739 0.48753-0.98902
  -5  -5  -5  764.40   51.60  96-0.63413 0.05426 0.33157-0.92973-0.86404 0.36255
  -5   6   7   63.60   36.50  23 0.37186-0.68233 0.14125 0.57655 0.98813-0.64326
  -5   6   7   61.20   36.40 170 0.64332-0.95451 0.45782 0.25974 0.78601-0.44167
   5  -6  -7   26.20   27.80 113-0.37177 0.68225-0.14118-0.57662-0.98814 0.64328
   5  -6  -7    0.70   45.90 155 0.45300-0.14203 0.18540-0.90365-0.68299 0.33800
   5   6  -6  575.80   44.10 174 0.58062-0.24710 0.59080 0.12676 0.71546-0.98943
  -5   6   6  565.30   54.30  25 0.33657-0.66950 0.18872 0.52908 0.98170-0.70737
  -5   6   6  534.20   48.10 171 0.62359-0.95711 0.50470 0.21286 0.76399-0.49002
   5  -6  -6  576.90   63.40 115-0.33648 0.66941-0.18865-0.52915-0.98172 0.70739
   5  -6  -6  448.10   63.60 156 0.46822-0.13486 0.15468-0.87293-0.67620 0.40172
   5   6  -5  219.30   35.00 171 0.62897-0.27313 0.49245 0.22510 0.77002-0.97361
  -5   6   5  183.50   44.20  27 0.29594-0.65132 0.24072 0.47707 0.97050-0.76669
  -5   6   5  200.70   32.70 173 0.60019-0.95603 0.55388 0.16367 0.73764-0.53405
   5  -6  -5  306.00   52.50 117-0.29585 0.65123-0.24066-0.47714-0.97051 0.76671
   5  -6  -5  188.80   38.90 157 0.48532-0.12956 0.11853-0.83678-0.66726 0.46329
  -5   6   4   85.70   42.30  29 0.25007-0.62790 0.29635 0.42144 0.95342-0.82014
  -5   6   4  -15.10   34.20 175 0.57310-0.95126 0.60412 0.11344 0.70691-0.57370
   5  -6  -4  111.80   44.80 119-0.24998 0.62781-0.29629-0.42151-0.95343 0.82016
   5  -6  -4   55.80   34.80 158 0.50384-0.12568 0.07714-0.79539-0.65577 0.52230
  -5   6   3  270.70   31.60  31 0.19935-0.59962 0.35439 0.36340 0.92954-0.86679
  -5   6   3  317.80   40.80 177 0.54246-0.94295 0.65417 0.06339 0.67193-0.60909
   5  -6  -3  242.30   38.70 121-0.19925 0.59953-0.35433-0.36347-0.92955 0.86681
   5  -6  -3  261.00   50.40 160 0.52324-0.12270 0.03079-0.74905-0.64134 0.57837
  -5   6   2  144.50   34.40  33 0.14444-0.56717 0.41341 0.30439 0.89823-0.90602
  -5   6   2  147.30   44.20 179 0.50853-0.93134 0.70289 0.01466 0.63296-0.64050
   5  -6  -2  115.90   33.60 123-0.14435 0.56707-0.41335-0.30445-0.89824 0.90603
   5  -6  -2  126.50   32.70 161 0.54295-0.12001-0.02009-0.69816-0.62360 0.63115
  -5   6   1   69.30   41.60  36 0.08631-0.53148 0.47185 0.24594 0.85928-0.93759
  -5   6   1   88.20   44.40 180 0.47167-0.91681 0.74933-0.03177 0.59041-0.66832
   5  -6  -1   65.60   33.10 163 0.56233-0.11699-0.07499-0.64327-0.60226 0.68031
  -5   6   0  358.10   38.20  38 0.02607-0.49369 0.52820 0.18960 0.81287-0.96172
   5  -6   0  283.40   53.80 165 0.58074-0.11301-0.13324-0.58501-0.57707 0.72563
  -5   6  -1   26.80   38.70  41-0.03507-0.45500 0.58110 0.13670 0.75962-0.97900
   5  -6   1   36.20   53.30 167 0.59756-0.10743-0.19412-0.52414-0.54790 0.76696
  -5   6  -2  191.50   33.50  43-0.09594-0.41658 0.62947 0.08833 0.70044-0.99034
  -5   6  -3   32.70   42.50  46-0.15552-0.37945 0.67255 0.04524 0.63639-0.99682
  -5  -6  -3   68.40   19.70 107-0.47582-0.05915 0.01410-0.73189-0.98514 0.62471
   6   0 -13  157.80   45.10 126-0.12819 0.39834 0.84670-0.84670-0.53037-0.20795
  -6   0  13  216.20   29.90   5 0.64394-0.91324-0.35861 0.35861 0.84564-0.10738
   6   0 -12  330.20   40.90 126-0.13832 0.43087 0.85201-0.85202-0.52270-0.14511
  -6   0  12  441.50   42.00   5 0.63942-0.93117-0.34576 0.34576 0.85454-0.18680
   6   0 -11  269.80   42.70 126-0.14501 0.45995 0.85541-0.85541-0.51755-0.07975
  -6   0  11  325.30   37.60   6 0.63138-0.94558-0.32391 0.32391 0.86891-0.27170
   6   0 -10    3.30   39.90 125-0.14784 0.48517 0.85681-0.85681-0.51535-0.01144
  -6   0  10   37.60   27.10   8 0.61824-0.95489-0.29046 0.29046 0.88915-0.36247
   6   0  -9  866.90   48.50  99-0.59741 0.95651 0.24204-0.24204-0.91493 0.45878
   6   0  -9 1010.60   67.30 126-0.14625 0.50597 0.85602-0.85602-0.51659 0.06030
  -6   0   9 1005.20   50.20   9 0.59745-0.95655-0.24186 0.24186 0.91497-0.45881
   6   0  -8 2318.30  104.70 102-0.56502 0.94657 0.17376-0.17376-0.94447 0.55885
   6   0  -8 2220.40  117.90 126-0.13949 0.52161 0.85261-0.85261-0.52181 0.13603
  -6   0   8 2605.60  102.50  12 0.56504-0.94660-0.17357 0.17357 0.94450-0.55888
   6   0  -7 2220.80  109.90 105-0.51530 0.91930 0.08080-0.08080-0.97284 0.65774
   6   0  -7 2451.00  112.40 126-0.12656 0.53108 0.84583-0.84583-0.53158 0.21631
  -6   0   7 2475.90   88.00  15 0.51531-0.91932-0.08060 0.08060 0.97285-0.65776
  -6   0   7 2621.50  110.40  77-0.66836 0.26436 0.72449-0.72449-0.37252 0.68761
   6   0  -6 1168.50   65.40 109-0.44136 0.86781-0.04022 0.04022-0.99029 0.74573
   6   0  -6 1143.60   69.60 127-0.10618 0.53309 0.83446-0.83446-0.54646 0.30169
  -6   0   6 1191.00   65.60  19 0.44135-0.86781 0.04043-0.04043 0.99028-0.74572
  -6   0   6 1252.70   58.00  81-0.68773 0.26128 0.65933-0.65933-0.50693 0.75149
   6   0  -5 2105.90   99.00 115-0.33803 0.78693-0.18662 0.18662-0.98207 0.80803
   6   0  -5 1992.90   95.70 129-0.07665 0.52596 0.81658-0.81658-0.56685 0.39258
  -6   0   5 2370.70   92.40  25 0.33801-0.78691 0.18683-0.18683 0.98203-0.80799
  -6   0   5 2407.90   98.80  86-0.69006 0.24116 0.56036-0.56036-0.65388 0.82792
   6   0  -4 1662.60   91.10 120-0.20785 0.67920-0.34474 0.34474-0.93395 0.83044
   6   0  -4 1376.20   77.10 131-0.03594 0.50764 0.78918-0.78918-0.59278 0.48902
  -6   0   4 1488.60   72.70  30 0.20781-0.67916 0.34495-0.34495 0.93387-0.83036
  -6   0   4 1693.00   83.80  93-0.66312 0.19177 0.41994-0.41994-0.79846 0.90196
   6   0  -3  831.50   48.40   9 0.59792-0.10412-0.24292 0.24292 0.91445-0.94742
   6   0  -3  964.70   48.60 133 0.01836 0.47574 0.74781-0.74781-0.62346 0.59021
   6   0  -3 1212.30   52.70 180 0.47836 0.01562 0.74134-0.74134 0.59815-0.63134
  -6   0   3 1030.80   53.40  37 0.06494-0.55874 0.49232-0.49232 0.84351-0.81054
  -6   0   3 1129.00   55.80  99-0.59790 0.10410 0.24313-0.24313-0.91439 0.94737
   6   0  -2 4606.70  178.80 136 0.08861 0.42788 0.68609-0.68609-0.65657 0.69383
  -6   0   2 5563.40  213.40  42-0.07106-0.44519 0.61023-0.61023 0.72538-0.76293
  -6   0   2 5436.70  186.30 106-0.49943-0.01682 0.05334-0.05334-0.97871 0.94115
   6   0  -1  598.20   36.40 140 0.17636 0.36252 0.59556-0.59556-0.68711 0.79488
  -6   0   1  633.00   30.30  47-0.18717-0.35153 0.69366-0.69366 0.59981-0.70790
  -6   0   1  598.90   34.80 112-0.38697-0.15173-0.12000 0.12000-0.98987 0.88179
   6   0   0  147.80   24.80 145 0.28064 0.28064 0.46660-0.46660-0.70620 0.88447
  -6   0   0  151.10   22.20  51-0.28057-0.28057 0.74816-0.74816 0.48070-0.65931
  -6   0   0  145.20   20.20 117-0.28057-0.28057-0.25954 0.25954-0.96532 0.78671
   6   0   1 6136.00  255.00 151 0.39544 0.18823 0.29127-0.29127-0.70038 0.94916
  -6   0  -1 7443.30  262.80  55-0.35438-0.22922 0.78198-0.78198 0.37330-0.62245
   6   0   2 4389.90  194.20 158 0.50730 0.09877 0.06911-0.06911-0.65339 0.97267
  -6   0  -2 4801.10  186.50  58-0.41305-0.19300 0.80184-0.80184 0.27786-0.59753
   6   0   3 3387.70  155.60 166 0.59559 0.03287-0.18651 0.18651-0.55170 0.94150
  -6   0  -3 3704.10  140.40  60-0.46048-0.16802 0.81233-0.81233 0.19271-0.58291
  -6   0  -4 3394.60  140.70  62-0.49955-0.15140 0.81631-0.81631 0.11588-0.57661
  -6   0  -5  766.40   55.30  64-0.53231-0.14109 0.81559-0.81559 0.04563-0.57689
  -6   0  -6 2395.00  119.00  66-0.56017-0.13567 0.81125-0.81125-0.01945-0.58234
  -6   0  -7  585.80   45.70  68-0.58412-0.13417 0.80400-0.80400-0.08045-0.59187
  -6   0  -8   50.10   43.60  70-0.60486-0.13589 0.79427-0.79427-0.13822-0.60463
  -6   1  13  850.40   56.20   7 0.62388-0.89318-0.30451 0.42414 0.88090-0.14264
  -6  -1  13  872.60   58.00   3 0.65920-0.92851-0.40606 0.28642 0.80981-0.07154
   6  -1 -13  756.10   67.90 130-0.04203 0.31218 0.79348-0.91319-0.58906-0.14926
  -6   1  12  534.60   49.20   8 0.61789-0.90964-0.28959 0.40922 0.88965-0.22191
  -6  -1  12  555.10   49.80   3 0.65605-0.94781-0.39564 0.27601 0.81809-0.15036
   6  -1 -12  416.90   46.30 130-0.04891 0.34145 0.79824-0.91795-0.58479-0.08302
  -6   1  11  283.70   39.30   8 0.60819-0.92240-0.26641 0.38604 0.90244-0.30524
  -6  -1  11  267.70   32.20   4 0.64963-0.96384-0.37551 0.25588 0.83343-0.23622
   6  -1 -11  284.40   39.50 130-0.05189 0.36682 0.80028-0.91999-0.58292-0.01438
  -6   1  10 1106.60   61.60  10 0.59351-0.93017-0.23314 0.35277 0.91917-0.39249
  -6  -1  10 1135.30   57.50   6 0.63807-0.97473-0.34202 0.22239 0.85706-0.33038
   6  -1 -10 1018.80   63.30 130-0.05053 0.38786 0.79936-0.91907-0.58377 0.05697
  -6   1   9 1476.30   74.30  11 0.57197-0.93108-0.18756 0.30719 0.93907-0.48292
  -6  -1   9 1589.90   76.40   8 0.61784-0.97695-0.28949 0.16986 0.88971-0.43356
   6  -1  -9 1306.10   65.70 101-0.57193 0.93103 0.18771-0.30734-0.93905 0.48290
   6  -1  -9 1423.30   72.90 130-0.04427 0.40400 0.79504-0.91475-0.58767 0.13138
  -6   1   8 1281.10   74.80  14 0.54105-0.92260-0.12724 0.24687 0.96029-0.57467
  -6  -1   8 1295.70   70.10  11 0.58237-0.96393-0.20914 0.08951 0.93007-0.54445
   6  -1  -8 1212.20   69.10 103-0.54100 0.92256 0.12739-0.24702-0.96028 0.57466
   6  -1  -8 1350.40   82.30 131-0.03240 0.41453 0.78665-0.90636-0.59491 0.20912
   6   1  -7  598.30   37.10 105-0.51979 0.92379 0.08874 0.03090-0.97093 0.65584
  -6   1   7  761.70   40.80  16 0.49759-0.90159-0.05000 0.16963 0.97931-0.66422
  -6   1   7  692.70   39.90  82-0.69007 0.28607 0.64109-0.52146-0.53805 0.85314
  -6  -1   7  760.70   38.80  15 0.51976-0.92376-0.08846-0.03117 0.97096-0.65587
  -6  -1   7  865.70   41.20  67-0.57480 0.17080 0.80727-0.92691-0.05607 0.37116
   6  -1  -7  712.30   45.20 106-0.49755 0.90156 0.05016-0.16979-0.97931 0.66422
   6  -1  -7  755.20   57.20 131-0.01405 0.41857 0.77317-0.89288-0.60568 0.29040
   6   1  -6 1665.20   84.00 111-0.41111 0.83756-0.08542 0.20505-0.99123 0.74667
  -6   1   6 2069.60   91.90  20 0.43837-0.86482 0.04499 0.07464 0.99051-0.74595
  -6   1   6 1732.30   76.20  86-0.69018 0.26373 0.56179-0.44215-0.65209 0.89665
  -6  -1   6 1914.20   73.60  21 0.41102-0.83748 0.08573-0.20537 0.99121-0.74665
   6  -1  -6 1857.70   97.00 110-0.43834 0.86479-0.04483-0.07480-0.99052 0.74596
   6  -1  -6 1654.80   84.30 133 0.01179 0.41512 0.75310-0.87281-0.61999 0.37522
   6   1  -5 1940.30   78.50 119-0.23772 0.68662-0.31064 0.43027-0.94812 0.77409
  -6   1   5 2118.90  101.00  23 0.36129-0.81019 0.15570-0.03607 0.98654-0.81251
  -6   1   5 1948.90   84.80  91-0.67344 0.22454 0.45977-0.34013-0.76312 0.93715
  -6  -1   5 1836.20   78.50  29 0.23757-0.68647 0.31098-0.43062 0.94800-0.77397
   6  -1  -5 1972.30  113.40 113-0.36127 0.81017-0.15554 0.03591-0.98657 0.81254
   6  -1  -5 1770.10   78.50 134 0.04624 0.40306 0.72443-0.84413-0.63750 0.46323
   6   1  -4   -8.00   29.40 125-0.16264 0.63433 0.86391-0.74421-0.50363 0.39988
  -6   1   4  -13.10   18.70  28 0.26718-0.73853 0.27597-0.15633 0.96031-0.85681
  -6   1   4   19.00   21.90  96-0.63576 0.16441 0.33598-0.21634-0.86115 0.96465
  -6  -1   4    0.40   10.70  39 0.01472-0.48607 0.53834-0.65798 0.80346-0.69995
  -6  -1   4   62.00   12.20  83-0.69133 0.21998 0.62464-0.74427-0.56433 0.66783
   6  -1  -4   22.30   23.80 118-0.26717 0.73852-0.27581 0.15617-0.96035 0.85685
   6  -1  -4   26.50   25.50 136 0.09038 0.38132 0.68441-0.80412-0.65730 0.55355
   6   1  -3 1617.40   77.20 127-0.11631 0.61040 0.84021-0.72051-0.53915 0.50590
  -6   1   3 1839.10   92.20  32 0.16102-0.65482 0.39599-0.27635 0.90826-0.87529
  -6   1   3 1686.90   73.00 101-0.57649 0.08269 0.19709-0.07746-0.93523 0.96821
  -6  -1   3 1798.20   68.80  47-0.18817-0.30563 0.69431-0.81394 0.59862-0.56565
  -6  -1   3 2092.60   86.70  93-0.65811 0.16431 0.40276-0.52239-0.81253 0.84551
   6  -1  -3 2071.40  115.30 122-0.16102 0.65482-0.39584 0.27620-0.90832 0.87535
   6  -1  -3 1831.40   84.20 139 0.14501 0.34909 0.62968-0.74939-0.67763 0.64438
   6  -1  -3 2120.30   85.90 169 0.65733-0.16334 0.42063-0.54022 0.80151-0.83470
   6   1  -2 4627.90  174.20 130-0.05082 0.56731 0.79956-0.67985-0.58359 0.62085
  -6   1   2 4925.10  170.50  37 0.05094-0.56719 0.50545-0.38582 0.83277-0.87032
  -6   1   2 5108.60  183.40 106-0.50038-0.01587 0.05496 0.06467-0.97839 0.94084
  -6  -1   2 4956.10  172.20  53-0.32548-0.19077 0.76981-0.88944 0.41689-0.45445
   6  -1  -2 4942.50  189.80 142 0.21025 0.30623 0.55635-0.67606-0.69550 0.73276
   6   1  -1  267.70   22.90  23 0.36828 0.17042 0.14616-0.02653 0.98762-0.87954
   6   1  -1  354.80   29.20 134 0.04010 0.49878 0.72970-0.60999-0.63451 0.74227
  -6   1   1  366.90   37.90  41-0.05483-0.48387 0.59728-0.47764 0.74109-0.84918
  -6   1   1  351.70   32.60 111-0.41644-0.12225-0.07760 0.19723-0.99128 0.88320
  -6  -1   1  382.50   23.20  57-0.41068-0.12801 0.80118-0.92081 0.28190-0.38998
  -6  -1   1  399.50   24.40 113-0.36834-0.17035-0.14589 0.02626-0.98766 0.87958
   6  -1  -1  361.30   34.90 145 0.28494 0.25394 0.46071-0.58042-0.70654 0.81430
   6  -1  -1  367.30   28.50 179 0.50507 0.03357 0.70752-0.82711 0.62898-0.52141
   6   1   0  162.30   23.00 140 0.16330 0.39798 0.61002-0.49031-0.68336 0.86163
  -6   1   0  182.40   28.50  46-0.15066-0.41049 0.66920-0.54957 0.64185-0.82046
  -6   1   0  125.00   24.80 115-0.33419-0.22696-0.19166 0.31130-0.98119 0.80258
  -6   1   0  230.70   21.60 127-0.11443-0.44685 0.83916-0.71945-0.54052 0.36225
  -6  -1   0  168.50   21.00  60-0.46671-0.09444 0.81327-0.93291 0.18089-0.35950
  -6  -1   0  129.60   18.40 120-0.22364-0.33751-0.32687 0.20723-0.94166 0.76304
   6  -1   0  199.60   32.80 150 0.36598 0.19530 0.34027-0.45998-0.70509 0.88336
   6   1   1  813.60   45.00 147 0.32217 0.26150 0.40777-0.28806-0.70779 0.95657
  -6   1  -1 1045.80   52.50  49-0.23426-0.34934 0.72265-0.60301 0.54193-0.79107
  -6   1  -1  773.30   46.90 118-0.26038-0.32322-0.28396 0.40359-0.95769 0.70855
  -6   1  -1 1077.00   68.20 129-0.07495-0.50872 0.81549-0.69578-0.56798 0.31920
  -6  -1  -1  941.50   50.00  63-0.50692-0.07667 0.81651-0.93614 0.10058-0.34972
   6  -1   1  886.50   55.40 154 0.44794 0.13573 0.19533-0.31504-0.68502 0.93380
   6   1   2  706.50   43.40 158 0.50439 0.10168 0.07587 0.04383-0.65540 0.97468
  -6   1  -2  906.70   48.90  52-0.30576-0.30029 0.76070-0.64107 0.44548-0.76515
  -6   1  -2  916.10   55.00 130-0.03867-0.56740 0.79111-0.67140-0.59112 0.27183
  -6  -1  -2  904.40   54.10  65-0.53797-0.06808 0.81501-0.93465 0.03285-0.35252
   6  -1   2  836.80   50.00 160 0.52345 0.08262 0.03028-0.14999-0.64117 0.96045
  -6   1  -3  145.90   32.80  55-0.36649-0.26201 0.78663-0.66700 0.35439-0.74459
  -6  -1  -3  143.40   27.10  66-0.56322-0.06528 0.81053-0.93016-0.02692-0.36328
   6  -1   3  156.40   23.70 165 0.58451 0.04395-0.14614 0.02643-0.57114 0.96093
  -6   1  -4  416.60   38.00  58-0.41811-0.23283 0.80322-0.68359 0.26914-0.72987
  -6  -1  -4  395.50   31.60  68-0.58449-0.06646 0.80386-0.92350-0.08142-0.37931
  -6   1  -5 1305.30   82.90  60-0.46220-0.21119 0.81260-0.69297 0.18945-0.72071
  -6  -1  -5 1462.30   86.40  70-0.60282-0.07058 0.79540-0.91503-0.13229-0.39896
  -6   1  -6  -27.60   40.20  62-0.50009-0.19575 0.81634-0.69670 0.11476-0.71655
  -6  -1  -6  101.00   25.60  71-0.61883-0.07701 0.78533-0.90496-0.18058-0.42121
  -6   1  -7 1320.70   95.80  64-0.53286-0.18544 0.81554-0.69590 0.04440-0.71672
  -6  -1  -7 1486.70   84.90  72-0.63292-0.08537 0.77375-0.89338-0.22697-0.44535
  -6  -1  -8 1344.40   87.20  74-0.64533-0.09541 0.76067-0.88031-0.27194-0.47091
  -6   2  12  198.70   27.50  10 0.59150-0.88325-0.22872 0.46799 0.92125-0.25351
  -6  -2  12  240.50   29.40   2 0.66789-0.95964-0.43706 0.19779 0.78367-0.11594
   6  -2 -12  267.30   50.10 134 0.04742 0.24513 0.72341-0.96283-0.63806-0.02975
  -6   2  11   51.30   35.60  11 0.58027-0.89448-0.20472 0.44399 0.93198-0.33477
  -6  -2  11    5.00   18.60   3 0.66286-0.97707-0.41866 0.17939 0.79946-0.20225
   6  -2 -11  -19.10   31.40 101-0.58021 0.89442 0.20484-0.44411-0.93197 0.33476
   6  -2 -11   51.90   40.10 134 0.04776 0.26718 0.72311-0.96253-0.63823 0.04092
  -6   2  10  191.30   27.20  12 0.56423-0.90089-0.17196 0.41123 0.94510-0.41842
  -6  -2  10  198.60   23.20   4 0.65260-0.98925-0.38464 0.14538 0.82658-0.29990
   6  -2 -10  148.20   28.90 102-0.56418 0.90083 0.17208-0.41135-0.94510 0.41842
   6  -2 -10  182.80   38.70 134 0.05261 0.28472 0.71888-0.95830-0.64054 0.11374
  -6   2   9 1453.90   73.20  13 0.54203-0.90114-0.12908 0.36835 0.95972-0.50357
  -6  -2   9 1367.30   65.10   6 0.63198-0.99108-0.32551 0.08624 0.86789-0.41174
   6  -2  -9 1325.30   85.80 103-0.54198 0.90108 0.12921-0.36848-0.95972 0.50357
   6  -2  -9 1394.40   74.10 135 0.06244 0.29728 0.71017-0.94958-0.64511 0.18882
  -6   2   8   16.10   29.20  15 0.51200-0.89355-0.07479 0.31405 0.97419-0.58857
  -6  -2   8   62.20   14.80  10 0.58843-0.96998-0.22206-0.01720 0.92432-0.53870
   6  -2  -8   46.60   30.60 105-0.51195 0.89350 0.07492-0.31418-0.97419 0.58857
   6  -2  -8   44.90   36.30 136 0.07777 0.30435 0.69622-0.93564-0.65195 0.26617
  -6   2   7 4132.40  161.30  18 0.47229-0.87630-0.00817 0.24744 0.98589-0.67080
  -6  -2   7 4250.30  145.80  17 0.48600-0.89001-0.03059-0.20867 0.98269-0.66760
   6  -2  -7 3928.20  162.20 108-0.47224 0.87625 0.00831-0.24757-0.98590 0.67081
   6  -2  -7 4184.10  193.60 137 0.09916 0.30536 0.67601-0.91543-0.66089 0.34561
  -6   2   6 2944.80  138.30  20 0.42123-0.84768 0.07073 0.16853 0.99124-0.74668
  -6   2   6 2385.80  131.70  89-0.68273 0.25627 0.50482-0.26555-0.71808 0.96264
   6  -2  -6 3162.20  159.40 110-0.42118 0.84764-0.07060-0.16866-0.99126 0.74669
   6  -2  -6 2782.80  114.80 138 0.12715 0.29976 0.64822-0.88764-0.67150 0.42673
   6   2  -5 3773.60  156.20 168 0.66142-0.21209 0.40901-0.16982 0.80602-0.97996
  -6   2   5 4300.10  159.50  24 0.35785-0.80675 0.16036 0.07890 0.98597-0.81193
  -6   2   5 3311.00  163.30  93-0.66074 0.21184 0.41164-0.17237-0.80535 0.97938
   6  -2  -5 4021.80  150.60 114-0.35781 0.80671-0.16023-0.07903-0.98599 0.81195
   6  -2  -5 4065.00  185.00 139 0.16217 0.28713 0.61125-0.85067-0.68302 0.50876
  -6   2   4 3155.20  126.20  27 0.28262-0.75397 0.25720-0.01794 0.96600-0.86250
  -6   2   4 2794.90  115.80  97-0.62447 0.15312 0.30629-0.06703-0.87989 0.98339
   6  -2  -4 3196.20  132.20 117-0.28258 0.75393-0.25708 0.01781-0.96603 0.86253
   6  -2  -4 3138.10  148.50 141 0.20443 0.26727 0.56327-0.80269-0.69420 0.59044
  -6   2   3 8055.80  277.20  31 0.19788-0.69168 0.35602-0.11675 0.92877-0.89580
   6  -2  -3 8362.30  281.60 121-0.19784 0.69164-0.35590 0.11663-0.92881 0.89584
   6  -2  -3 7289.30  297.20 144 0.25366 0.24043 0.50240-0.74181-0.70322 0.66997
  -6   2   2 1567.50   68.10  35 0.10761-0.62386 0.45091-0.21165 0.87423-0.91178
  -6   2   2 1365.90   62.10 105-0.51487-0.00137 0.08005 0.15922-0.97301 0.93546
   6  -2  -2 1520.90   78.20 147 0.30896 0.20753 0.42699-0.66641-0.70770 0.74496
   6   2  -1  388.70   25.80  22 0.38635 0.15235 0.12108 0.11819 0.98979-0.88171
   6   2  -1  506.80   31.40 127-0.11171 0.65059 0.83763-0.59821-0.54249 0.65025
  -6   2   1  562.70   44.80  39 0.01648-0.55518 0.53678-0.29752 0.80493-0.91302
  -6   2   1  374.90   30.50 109-0.44964-0.08906-0.02746 0.26673-0.98947 0.88139
  -6  -2   1  561.20   28.10  77-0.66911 0.13041 0.72290-0.96217-0.37637 0.26829
  -6  -2   1  481.40   28.20 112-0.38656-0.15213-0.12058-0.11869-0.98983 0.88175
   6  -2  -1  492.10   44.50 150 0.36857 0.17032 0.33609-0.57551-0.70478 0.81254
   6  -2  -1  516.80   38.50 171 0.62415-0.08552 0.50344-0.74263 0.76461-0.65704
   6   2   0 6016.30  220.20 133 0.00977 0.55151 0.75472-0.51530-0.61890 0.79717
  -6   2   0 6101.90  215.70  42-0.07131-0.48984 0.61042-0.37115 0.72514-0.90375
  -6  -2   0 6433.30  229.20  74-0.65218 0.09104 0.75190-0.99117-0.29901 0.12040
   6  -2   0 5195.00  230.20 153 0.42978 0.13150 0.22992-0.46934-0.69145 0.86973
   6   2   1 1072.10   50.80 142 0.20664 0.37703 0.56065-0.32124-0.69470 0.94348
  -6   2  -1 1191.00   65.20  46-0.15285-0.43075 0.67071-0.43145 0.63940-0.88854
  -6  -2  -1 1213.60   56.40  74-0.64698 0.06338 0.75868-0.99794-0.27829 0.02914
   6  -2   1  977.70   58.10 157 0.48911 0.09456 0.11027-0.34969-0.66507 0.91385
  -6   2  -2 1178.20   66.90  49-0.22665-0.37940 0.71816-0.47890 0.55157-0.87124
  -6  -2  -2 1357.10   66.20  74-0.64729 0.04124 0.75830-0.99757-0.27948-0.04019
   6  -2   2 1069.00   65.20 161 0.54268 0.06339-0.01937-0.22005-0.62387 0.94315
  -6   2  -3  888.00   61.50  52-0.29236-0.33613 0.75415-0.51489 0.46439-0.85459
  -6  -2  -3 1042.60   53.80  74-0.65041 0.02191 0.75430-0.99356-0.29182-0.09838
   6  -2   3  900.20   63.90 165 0.58680 0.04166-0.15416-0.08525-0.56738 0.95717
  -6   2  -4 1198.50   72.40  54-0.35035-0.30059 0.78037-0.54110 0.37950-0.84023
  -6  -2  -4 1064.10   71.60  75-0.65500 0.00405 0.74790-0.98717-0.31069-0.15004
  -6   2  -5   21.10   29.80  57-0.40132-0.27208 0.79843-0.55917 0.29775-0.82901
  -6  -2  -5   16.80   29.20  76-0.66028-0.01312 0.73962-0.97889-0.33373-0.19753
  -6   2  -6  191.40   42.30  59-0.44606-0.24978 0.80974-0.57047 0.21944-0.82123
  -6  -2  -6  184.80   33.70  76-0.66579-0.03006 0.72970-0.96896-0.35961-0.24218
  -6   2  -7   65.70   41.50  61-0.48538-0.23291 0.81542-0.57615 0.14452-0.81684
  -6  -2  -7  112.30   38.10  77-0.67121-0.04709 0.71822-0.95749-0.38752-0.28479
  -6   3  11  324.10   41.00  13 0.54783-0.86203-0.14002 0.49892 0.95627-0.35906
  -6  -3  11  277.40   25.10   1 0.67100-0.98521-0.44925 0.09035 0.77276-0.17555
   6  -3 -11  266.50   36.70 103-0.54776 0.86197 0.14013-0.49903-0.95627 0.35906
   6  -3 -11  318.40   44.30 139 0.14810 0.16684 0.62640-0.98553-0.67863 0.08133
  -6   3  10  314.00   35.70  14 0.53069-0.86735-0.10813 0.46703 0.96584-0.43916
  -6  -3  10  262.00   24.60   3 0.66105-0.99770-0.41233 0.05343 0.80470-0.27802
   6  -3 -10  309.40   35.70 104-0.53063 0.86728 0.10824-0.46714-0.96584 0.43916
   6  -3 -10  292.50   42.80 139 0.15513 0.18221 0.61889-0.97801-0.68087 0.15407
  -6   3   9  160.00   36.70  16 0.50801-0.86711-0.06784 0.42674 0.97572-0.51956
  -6  -3   9  148.00   16.10   6 0.63645-0.99555-0.33754-0.02136 0.86005-0.40390
   6  -3  -9  130.90   40.30 106-0.50794 0.86705 0.06795-0.42685-0.97572 0.51957
   6  -3  -9  155.30   45.80 140 0.16680 0.19293 0.60618-0.96531-0.68439 0.22810
  -6   3   8  913.70   58.30  17 0.47866-0.86021-0.01851 0.37741 0.98451-0.59889
   6  -3  -8  803.90   64.80 107-0.47860 0.86015 0.01863-0.37752-0.98452 0.59890
   6  -3  -8  891.40   69.40 140 0.18338 0.19875 0.58765-0.94678-0.68901 0.30323
  -6   3   7    8.30   31.60  19 0.44154-0.84554 0.04015 0.31875 0.99027-0.67517
  -6   3   7   60.60   20.90 176 0.55325-0.95794 0.63725-0.27847 0.68428-0.36960
   6  -3  -7   86.00   32.30 109-0.44148 0.84548-0.04004-0.31886-0.99028 0.67519
   6  -3  -7   -0.60   36.90 141 0.20510 0.19942 0.56248-0.92161-0.69435 0.37907
   6   3  -6 4137.10  156.50 174 0.58035-0.15334 0.59128-0.23250 0.71516-0.95947
  -6   3   6 3877.90  176.10  22 0.39572-0.82218 0.10779 0.25110 0.99055-0.74598
  -6   3   6 4358.40  170.80 179 0.50580-0.93281 0.70655-0.34777 0.62982-0.38551
   6  -3  -6 4243.80  176.40 112-0.39567 0.82212-0.10768-0.25122-0.99056 0.74600
   6  -3  -6 3846.90  169.70 143 0.23209 0.19482 0.52976-0.88889-0.69982 0.45505
  -6   3   5    9.20   33.40  24 0.34078-0.78968 0.18318 0.17572 0.98264-0.80860
   6  -3  -5   29.10   30.60 114-0.34072 0.78962-0.18307-0.17583-0.98266 0.80862
   6  -3  -5  -63.00   42.50 144 0.26430 0.18501 0.48850-0.84763-0.70457 0.53031
  -6   3   4 8719.90  335.60  27 0.27705-0.74840 0.26402 0.09488 0.96401-0.86050
   6  -3  -4 9008.90  360.60 117-0.27699 0.74834-0.26391-0.09499-0.96403 0.86053
   6  -3  -4 7703.10  344.40 146 0.30142 0.17028 0.43775-0.79688-0.70747 0.60371
  -6   3   3 3997.90  159.70  31 0.20588-0.69968 0.34712 0.01178 0.93289-0.89991
   6  -3  -3 4254.50  206.50 121-0.20582 0.69962-0.34701-0.01189-0.93292 0.89995
   6  -3  -3 3665.70  183.40 148 0.34278 0.15131 0.37675-0.73588-0.70712 0.67387
  -6   3   2 3661.10  140.50  34 0.12950-0.64575 0.42882-0.06992 0.88878-0.92634
   6  -3  -2 3657.60  172.50 151 0.38732 0.12917 0.30510-0.66423-0.70193 0.73919
  -6   3   1 6477.10  233.30  37 0.05072-0.58942 0.50565-0.14675 0.83260-0.94068
   6  -3  -1 5803.10  264.30 153 0.43351 0.10538 0.22294-0.58207-0.69024 0.79800
   6   3   0  506.50   33.80 125-0.15490 0.71617 0.86026-0.50113-0.50981 0.68808
  -6   3   0  596.30   55.60  40-0.02765-0.53350 0.57491-0.21601 0.76642-0.94503
  -6  -3   0  702.60   37.70  93-0.66247 0.10132 0.41766-0.77656-0.80037 0.62176
   6  -3   0  589.20   53.20 156 0.47945 0.08183 0.13115-0.49028-0.67050 0.84877
  -6   3  -1 2510.50  136.50  44-0.10321-0.48038 0.63496-0.27606 0.69295-0.94209
  -6  -3  -1 2851.00  115.90  87-0.68891 0.10531 0.54836-0.90726-0.66866 0.41952
   6  -3   1 2209.50  122.40 160 0.52301 0.06066 0.03137-0.39049-0.64153 0.89030
  -6   3  -2  531.30   54.00  47-0.17429-0.43175 0.68522-0.32633 0.61491-0.93458
  -6  -3  -2  605.60   33.40  84-0.69192 0.08587 0.60125-0.96015-0.59913 0.27945
   6  -3   2  450.20   34.30 163 0.56203 0.04404-0.07409-0.28503-0.60263 0.92191
  -6   3  -3  214.70   42.00  49-0.23991-0.38859 0.72592-0.36702 0.53469-0.92489
  -6  -3  -3  209.50   29.00  83-0.69124 0.06275 0.62622-0.98512-0.56187 0.17167
   6  -3   3  152.70   40.40 166 0.59452 0.03394-0.18243-0.17670-0.55373 0.94352
  -6   3  -4  206.80   38.00  52-0.29970-0.35125 0.75777-0.39887 0.45409-0.91482
  -6  -3  -4  168.70   26.10  82-0.69040 0.03946 0.63755-0.99645-0.54385 0.08312
  -6   3  -5  -21.70   38.50  55-0.35370-0.31970 0.78171-0.42281 0.37435-0.90561
  -6  -3  -5   55.10   28.20  82-0.69008 0.01669 0.64096-0.99986-0.53826 0.00701
  -6   3  -6  533.30   46.80  57-0.40220-0.29365 0.79870-0.43980 0.29627-0.89806
  -6  -3  -6  527.50   46.00  82-0.69026-0.00559 0.63916-0.99806-0.54122-0.06057
  -6   4  10  649.00   59.10  16 0.49309-0.82975-0.04242 0.52095 0.98070-0.45402
   6  -4 -10  641.60   66.60 106-0.49302 0.82968 0.04251-0.52105-0.98071 0.45403
   6  -4 -10  602.30   60.90 144 0.25162 0.08571 0.50503-0.98386-0.70294 0.17614
  -6   4   9  167.20   35.50  18 0.47013-0.82923-0.00469 0.48322 0.98632-0.53017
   6  -4  -9  164.40   32.50 108-0.47006 0.82916 0.00479-0.48332-0.98634 0.53019
   6  -4  -9  174.50   41.10 144 0.26338 0.09635 0.48970-0.96854-0.70446 0.24817
  -6   4   8  170.30   43.60  19 0.44142-0.82298 0.04033 0.43821 0.99028-0.60465
   6  -4  -8   74.20   34.50 109-0.44136 0.82291-0.04023-0.43830-0.99029 0.60467
   6  -4  -8  116.10   36.00 145 0.27925 0.10287 0.46848-0.94732-0.70608 0.32030
  -6   4   7 1287.20   79.90  21 0.40629-0.81029 0.09261 0.38592 0.99108-0.67599
  -6   4   7 1274.40   65.50 174 0.58514-0.98982 0.58257-0.10420 0.72059-0.40591
   6  -4  -7 1422.70   75.40 111-0.40622 0.81023-0.09252-0.38602-0.99110 0.67601
   6  -4  -7 1281.70   95.40 146 0.29921 0.10530 0.44086-0.91970-0.70738 0.39210
   6   4  -6  329.40   33.00 173 0.60523-0.17822 0.54379-0.06542 0.74333-0.98764
  -6   4   6  330.00   38.20  23 0.36422-0.79068 0.15171 0.32682 0.98701-0.74245
  -6   4   6  317.90   30.40 176 0.55047-0.97748 0.64168-0.16331 0.68110-0.43679
   6  -4  -6  371.40   38.70 113-0.36416 0.79061-0.15161-0.32692-0.98703 0.74247
   6  -4  -6  435.60   55.40 147 0.32314 0.10377 0.40634-0.88517-0.70778 0.46301
  -6   4   5  -38.20   39.60  26 0.31505-0.76395 0.21660 0.26193 0.97625-0.80222
  -6   4   5   50.80   22.40 178 0.51183-0.96117 0.69841-0.22004 0.63677-0.46284
   6  -4  -5   63.10   36.50 116-0.31498 0.76388-0.21651-0.26202-0.97627 0.80224
   6  -4  -5   35.00   44.60 149 0.35074 0.09857 0.36444-0.84327-0.70658 0.53232
  -6   4   4  408.60   42.10  28 0.25908-0.73043 0.28568 0.19285 0.95712-0.85361
  -6   4   4  404.90   33.90 181 0.47015-0.94181 0.75112-0.27274 0.58865-0.48509
   6  -4  -4  309.70   35.00 118-0.25901 0.73036-0.28559-0.19295-0.95714 0.85364
   6  -4  -4  357.30   49.30 150 0.38153 0.09017 0.31480-0.79363-0.70292 0.59916
  -6   4   3  670.40   42.40  31 0.19718-0.69098 0.35680 0.12173 0.92841-0.89543
   6  -4  -3  662.70   49.40 121-0.19711 0.69091-0.35671-0.12182-0.92843 0.89546
   6  -4  -3  562.70   55.20 152 0.41481 0.07928 0.25727-0.73610-0.69583 0.66258
  -6   4   2  450.80   46.00  34 0.13076-0.64701 0.42753 0.05100 0.88959-0.92715
   6  -4  -2  494.10   56.80 154 0.44966 0.06683 0.19197-0.67080-0.68434 0.72160
  -6   4   1  813.70   61.20  37 0.06162-0.60032 0.49546-0.01693 0.84099-0.94908
   6  -4  -1  750.70   59.20 157 0.48493 0.05396 0.11939-0.59822-0.66748 0.77525
  -6   4   0  507.30   48.10  40-0.00834-0.55281 0.55850-0.07997 0.78367-0.96228
   6  -4   0  439.00   49.10 159 0.51934 0.04194 0.04038-0.51922-0.64446 0.82273
  -6   4  -1  979.40   67.60  42-0.07732-0.50628 0.61513-0.13660 0.71920-0.96834
  -6  -4  -1 1026.70   54.80 100-0.59202 0.00842 0.23011-0.70864-0.92064 0.67150
   6  -4   1  864.20   61.40 162 0.55156 0.03211-0.04380-0.43503-0.61467 0.86345
  -6   4  -2  265.90   38.10  45-0.14386-0.46219 0.66446-0.18593 0.64942-0.96909
  -6  -4  -2  299.40   24.80  95-0.64550 0.03946 0.36349-0.84203-0.84224 0.52257
   6  -4   2  165.50   54.50 165 0.58026 0.02581-0.13163-0.34720-0.57780 0.89709
  -6   4  -3  120.20   37.90  48-0.20689-0.42161 0.70615-0.22762 0.57609-0.96629
  -6  -4  -3  123.30   23.80  92-0.66742 0.03893 0.43569-0.91422-0.78495 0.39475
  -6   4  -4  352.80   50.10  51-0.26575-0.38519 0.74034-0.26180 0.50077-0.96150
  -6   4  -5  -25.00   29.00  53-0.32015-0.35325 0.76741-0.28888 0.42471-0.95597
  -6  -4  -5   33.60   15.60  89-0.68217 0.00878 0.50171-0.98024-0.72138 0.19012
  -6   5   9   97.80   31.40  20 0.42852-0.78763 0.05986 0.53830 0.99105-0.53490
   6  -5  -9   56.00   35.00 110-0.42845 0.78755-0.05978-0.53839-0.99107 0.53492
  -6   5   8   -8.30   43.00  22 0.40048-0.78203 0.10100 0.49717 0.99083-0.60521
   6  -5  -8  183.40   49.20 112-0.40040 0.78195-0.10091-0.49725-0.99085 0.60522
   6  -5  -8    9.40   48.40 149 0.36304 0.01909 0.34500-0.94354-0.70543 0.31964
  -6   5   7  322.50   36.90  23 0.36700-0.77101 0.14791 0.45025 0.98744-0.67234
   6  -5  -7  263.30   38.80 113-0.36693 0.77093-0.14783-0.45034-0.98745 0.67236
   6  -5  -7  176.30   47.10 150 0.38005 0.02447 0.31727-0.91581-0.70315 0.38788
  -6   5   6   62.50   33.90  25 0.32784-0.75429 0.20013 0.39804 0.97962-0.73506
  -6   5   6   86.30   29.00 175 0.56228-0.98929 0.62253-0.02456 0.69459-0.45028
   6  -5  -6  154.20   33.00 115-0.32776 0.75421-0.20005-0.39812-0.97964 0.73508
   6  -5  -6  132.90   45.10 151 0.39997 0.02695 0.28347-0.88201-0.69942 0.45465
   6   5  -5  893.70   62.10 168 0.65919-0.20985 0.41540 0.18257 0.80356-0.97750
  -6   5   5  720.20   61.60  27 0.28294-0.73185 0.25681 0.34136 0.96611-0.79208
  -6   5   5  845.30   51.30 177 0.53097-0.98031 0.67137-0.07341 0.65876-0.48483
   6  -5  -5  811.90   56.60 117-0.28287 0.73177-0.25673-0.34144-0.96613 0.79210
   6  -5  -5  743.70   59.60 153 0.42244 0.02687 0.24346-0.84200-0.69370 0.51944
  -6   5   4 2825.20  129.30  29 0.23261-0.70396 0.31674 0.28143 0.94576-0.84226
  -6   5   4 2363.80  110.00 179 0.49639-0.96805 0.71887-0.12090 0.61898-0.51542
   6  -5  -4 2636.60  118.20 119-0.23253 0.70388-0.31665-0.28151-0.94578 0.84228
   6  -5  -4 2203.70  114.10 154 0.44697 0.02473 0.19721-0.79575-0.68539 0.58164
  -6   5   3  112.60   31.70  32 0.17745-0.67125 0.37839 0.21978 0.91771-0.88474
  -6   5   3   72.10   24.10 181 0.45905-0.95303 0.76388-0.16592 0.57579-0.54261
   6  -5  -3   98.70   32.60 122-0.17738 0.67118-0.37831-0.21986-0.91773 0.88476
   6  -5  -3   69.80   34.30 156 0.47296 0.02113 0.14484-0.74339-0.67387 0.64062
  -6   5   2  -42.10   35.40  34 0.11845-0.63470 0.44004 0.15812 0.88154-0.91909
   6  -5  -2   23.40   32.30 158 0.49968 0.01681 0.08666-0.68521-0.65853 0.69579
  -6   5   1 2612.20  116.20  37 0.05682-0.59552 0.49997 0.09820 0.83732-0.94540
   6  -5  -1 2313.90  120.70 160 0.52630 0.01259 0.02319-0.62173-0.63881 0.74658
  -6   5   0  -14.70   44.80  39-0.00610-0.55505 0.55657 0.04159 0.78563-0.96424
   6  -5   0   27.50   33.50 162 0.55194 0.00934-0.04487-0.55368-0.61426 0.79253
  -6   5  -1  501.00   44.80  42-0.06897-0.51462 0.60858-0.01041 0.72742-0.97657
   6  -5   1  538.90   53.20 164 0.57570 0.00797-0.11659-0.48196-0.58454 0.83332
  -6   5  -2  310.10   48.00  45-0.13062-0.47543 0.65507-0.05691 0.66391-0.98358
   6  -5   2  337.70   56.70 167 0.59674 0.00933-0.19093-0.40762-0.54950 0.86879
  -6   5  -3  995.50   74.20  47-0.19008-0.43842 0.69553-0.09737 0.59636-0.98656
  -6  -5  -3 1166.70   61.80 100-0.58437-0.04413 0.21362-0.81179-0.92815 0.53795
   6   6  -5  299.20   68.90 170 0.64254-0.19321 0.45977 0.25778 0.78515-0.95908
  -6   6   5  283.00   34.30  29 0.24558-0.69448 0.30164 0.41616 0.95151-0.77747
  -6   6   5  243.00   41.30 177 0.53232-0.98165 0.66940 0.04816 0.66031-0.48637
   6  -6  -5  321.70   43.60 119-0.24550 0.69440-0.30156-0.41623-0.95152 0.77749
   6  -6  -5  281.00   56.60 157 0.48127-0.03197 0.12726-0.84551-0.66951 0.49525
  -6   6   4  378.50   42.30  31 0.19959-0.67094 0.35413 0.36367 0.92966-0.82616
  -6   6   4  302.60   33.60 179 0.50263-0.97429 0.71074 0.00682 0.62617-0.52261
   6  -6  -4  439.40   43.40 121-0.19950 0.67085-0.35405-0.36374-0.92968 0.82617
   6  -6  -4  275.20   49.00 158 0.50018-0.02848 0.08551-0.80377-0.65820 0.55444
  -6   6   3  129.70   36.40  33 0.14961-0.64341 0.40802 0.30978 0.90141-0.86843
  -6   6   3  127.40   44.20 181 0.47016-0.96415 0.75110-0.03354 0.58867-0.55549
   6  -6  -3  169.30   39.30 123-0.14952 0.64332-0.40795-0.30985-0.90143 0.86845
   6  -6  -3  100.30   52.90 159 0.51995-0.02586 0.03889-0.75714-0.64398 0.61073
  -6   6   2  183.00   41.30  35 0.09634-0.61259 0.46205 0.25574 0.86642-0.90397
   6  -6  -2  109.10   39.90 161 0.54003-0.02354-0.01228-0.70598-0.62646 0.66371
  -6   6   1  421.90   53.10  38 0.04068-0.57937 0.51492 0.20287 0.82468-0.93277
   6  -6  -1  325.60   57.00 163 0.55980-0.02092-0.06752-0.65074-0.60530 0.71307
  -6   6   0   74.10   34.10  40-0.01641-0.54474 0.56541 0.15239 0.77653-0.95514
   6  -6   0   42.70   56.50 165 0.57865-0.01737-0.12625-0.59200-0.58024 0.75851
   7   0 -12 1032.30   79.50 127-0.10337 0.48946 0.83284-0.83284-0.54846-0.08964
  -7   0  12 1057.40   50.00  10 0.58909-0.97437-0.22348 0.22348 0.92367-0.28570
   7   0 -11   46.20   40.90 127-0.10654 0.51503 0.83468-0.83468-0.54620-0.02140
  -7   0  11  168.70   31.40  11 0.57237-0.98010-0.18837 0.18837 0.93874-0.37130
   7   0 -10  442.80   53.40 127-0.10570 0.53658 0.83419-0.83419-0.54680 0.04971
  -7   0  10  420.80   32.80  13 0.54760-0.97778-0.13959 0.13959 0.95641-0.45949
   7   0  -9   -4.70   35.20 128-0.10028 0.55355 0.83102-0.83102-0.55064 0.12406
  -7   0   9   -0.50   22.40  15 0.51167-0.96429-0.07421 0.07421 0.97432-0.54794
   7   0  -8  294.10   36.30 128-0.08955 0.56522 0.82460-0.82460-0.55811 0.20203
  -7   0   8  317.60   28.10  18 0.46062-0.93570 0.01047-0.01047 0.98799-0.63214
   7   0  -7  363.60   37.80 129-0.07262 0.57068 0.81400-0.81400-0.56953 0.28397
  -7   0   7  477.10   31.30  22 0.39034-0.88787 0.11544-0.11544 0.99014-0.70482
   7   0  -6 1357.50   78.90 116-0.29846 0.81844-0.23740 0.23740-0.97135 0.75655
   7   0  -6 1321.50   69.70 130-0.04833 0.56879 0.79785-0.79785-0.58515 0.37009
  -7   0   6 1500.40   71.00  26 0.29843-0.81840 0.23762-0.23762 0.97129-0.75650
   7   0  -5 1983.50   94.90 121-0.18719 0.72962-0.36762 0.36762-0.92315 0.77888
   7   0  -5 1785.80   88.20 131-0.01534 0.55819 0.77414-0.77414-0.60494 0.46039
  -7   0   5 1791.50   79.10  31 0.18715-0.72957 0.36784-0.36784 0.92306-0.77879
  -7   0   5 1787.00   81.70  88-0.68576 0.14334 0.52366-0.52366-0.69746 0.84173
   7   0  -4 1998.80  102.90 133 0.02792 0.53733 0.73996-0.73996-0.62841 0.55436
   7   0  -4 2399.00   93.30 171 0.63034-0.06519 0.48929-0.48929 0.77154-0.84544
  -7   0   4 2294.60  102.20  37 0.06528-0.63015 0.49200-0.49200 0.84377-0.77003
  -7   0   4 2244.40  100.50  94-0.65350 0.08863 0.38784-0.38784-0.82422 0.89795
   7   0  -3   10.20   22.60 136 0.08306 0.50458 0.69130-0.69130-0.65423 0.65069
   7   0  -3    4.80   10.90 179 0.49257 0.09491 0.72376-0.72376 0.61456-0.61809
  -7   0   3   38.10   18.20  41-0.05459-0.53274 0.59708-0.59708 0.74132-0.73811
  -7   0   3   12.90   14.60 100-0.59180 0.00448 0.22964-0.22964-0.92086 0.92407
   7   0  -2 3885.20  151.20 139 0.15143 0.45860 0.62285-0.62285-0.67970 0.74667
  -7   0   2 4244.40  158.20  46-0.16213-0.44765 0.67706-0.67706 0.62890-0.69623
  -7   0   2 4070.20  162.00 106-0.50787-0.10190 0.06783-0.06783-0.97575 0.90843
   7   0  -1 1236.70   63.90 143 0.23344 0.39899 0.52808-0.52808-0.70006 0.83753
  -7   0   1 1299.20   57.00  50-0.25290-0.37932 0.73329-0.73329 0.51781-0.65566
  -7   0   1 1129.40   59.80 111-0.41548-0.21674-0.07902 0.07902-0.99128 0.85343
   7   0   0   32.00   23.10 148 0.32741 0.32741 0.40000-0.40000-0.70772 0.91570
  -7   0   0   41.00   22.80  53-0.32734-0.32734 0.77064-0.77064 0.41415-0.62254
   7   0   1  616.70   39.30 153 0.42811 0.24911 0.23301-0.23301-0.69198 0.97047
  -7   0  -1  661.60   39.90  56-0.38803-0.28909 0.79422-0.79422 0.31977-0.59868
   7   0   2  870.10   50.60 160 0.52515 0.17446 0.02604-0.02604-0.63976 0.98876
  -7   0  -2  970.70   51.50  59-0.43790-0.26167 0.80803-0.80803 0.23424-0.58368
  -7   0  -3 1435.20   75.70  61-0.47940-0.24262 0.81485-0.81485 0.15634-0.57630
  -7   0  -4 1155.70   66.80  63-0.51443-0.23004 0.81650-0.81650 0.08472-0.57522
  -7   0  -5   22.70   23.30  65-0.54435-0.22257 0.81419-0.81419 0.01818-0.57920
  -7   0  -6  288.70   34.30  67-0.57017-0.21919 0.80867-0.80867-0.04429-0.58727
   7   1 -12  424.00   52.50 124-0.17774 0.56383 0.87069-0.75098-0.49129-0.14681
  -7   1  12  595.80   56.30  12 0.56857-0.95385-0.18065 0.30028 0.94179-0.30382
  -7  -1  12  563.60   37.70   9 0.60409-0.98937-0.25690 0.13727 0.90742-0.26945
   7  -1 -12  693.80   61.90 131-0.01988 0.40597 0.77752-0.89722-0.60232-0.03579
   7   1 -11  225.10   37.40 124-0.18402 0.59251 0.87337-0.75367-0.48604-0.08155
  -7   1  11  275.30   37.40  13 0.55201-0.95974-0.14804 0.26767 0.95362-0.38617
  -7  -1  11  195.90   30.10  10 0.58644-0.99417-0.21778 0.09815 0.92625-0.35881
   7  -1 -11  124.60   45.70 131-0.01991 0.42839 0.77754-0.89725-0.60230 0.03470
  -7   1  10  411.60   38.40  14 0.52875-0.95893-0.10460 0.22423 0.96680-0.46989
  -7  -1  10  490.30   33.10  12 0.55836-0.98854-0.16036 0.04073 0.94934-0.45243
   7  -1 -10  410.20   48.70 131-0.01563 0.44651 0.77435-0.89406-0.60478 0.10769
   7   1  -9  144.40   30.90 124-0.18539 0.63866 0.87395-0.75424-0.48489 0.05831
  -7   1   9  249.60   31.50  16 0.49688-0.94951-0.04880 0.16843 0.97954-0.55316
  -7  -1   9  230.20   21.90  15 0.51413-0.96676-0.07852-0.04111 0.97333-0.54695
   7  -1  -9  190.90   40.00 132-0.00652 0.45979 0.76745-0.88715-0.60995 0.18337
   7   1  -8  668.70   53.00 124-0.17926 0.65493 0.87135-0.75164-0.49003 0.13395
  -7   1   8  829.10   51.90  19 0.45423-0.92931 0.02052 0.09911 0.98891-0.63305
  -7  -1   8  792.50   40.60  19 0.44502-0.92010 0.03481-0.15444 0.98995-0.63410
   7  -1  -8  656.80   41.50 109-0.45421 0.92928-0.02035-0.09928-0.98891 0.63306
   7  -1  -8  805.10   53.20 132 0.00804 0.46763 0.75609-0.87580-0.61797 0.26190
   7   1  -7 3539.00  171.50 125-0.16742 0.66548 0.86611-0.74641-0.49976 0.21420
  -7   1   7 4341.40  169.70  22 0.39876-0.89629 0.10345 0.01618 0.99073-0.70541
  -7  -1   7 3954.60  158.80  25 0.33994-0.83746 0.18429-0.30392 0.98245-0.69713
   7  -1  -7 3862.00  166.80 112-0.39875 0.89627-0.10328-0.01635-0.99075 0.70543
   7  -1  -7 3878.00  164.10 133 0.02877 0.46929 0.73925-0.85896-0.62884 0.34327
   7   1  -6 2270.60  108.30 125-0.14861 0.66907 0.85720-0.73749-0.51475 0.29969
  -7   1   6 2459.00  105.80  25 0.32934-0.84931 0.19818-0.07855 0.97999-0.76520
  -7  -1   6 2318.50   95.10  31 0.19147-0.71145 0.36309-0.48273 0.92539-0.71059
   7  -1  -6 2206.70   87.30 115-0.32933 0.84930-0.19801 0.07838-0.98003 0.76523
   7  -1  -6 2421.20  113.40 135 0.05646 0.46400 0.71549-0.83520-0.64235 0.42729
   7   1  -5 3045.90  140.50 127-0.12116 0.66401 0.84290-0.72319-0.53559 0.39104
  -7   1   5 3362.70  127.10  29 0.24668-0.78910 0.30035-0.18071 0.95198-0.80771
  -7   1   5 2800.20  126.90  92-0.66649 0.12406 0.43219-0.31256-0.78801 0.93227
  -7  -1   5 3222.40  121.70  39 0.01133-0.55376 0.54135-0.66098 0.80061-0.65634
  -7  -1   5 3509.60  140.80  78-0.67731 0.13489 0.70234-0.82197-0.42322 0.56748
   7  -1  -5 3239.60  120.70 119-0.24668 0.78910-0.30018 0.18055-0.95203 0.80776
   7  -1  -5 3069.60  138.20 136 0.09192 0.45094 0.68295-0.80266-0.65794 0.51339
   7   1  -4 3819.50  156.90 128-0.08283 0.64807 0.82045-0.70075-0.56270 0.48865
  -7   1   4 4199.70  168.20  33 0.15406-0.71893 0.40335-0.28372 0.90411-0.83037
  -7   1   4 3850.10  155.90  97-0.62819 0.06331 0.31584-0.19621-0.87404 0.94778
  -7  -1   4 4136.60  150.80  46-0.16171-0.40316 0.67678-0.79642 0.62938-0.55564
  -7  -1   4 4562.90  157.10  86-0.69066 0.12578 0.56797-0.68761-0.64421 0.71795
   7  -1  -4 4224.30  154.50 123-0.15406 0.71893-0.40319 0.28356-0.90418 0.83044
   7  -1  -4 4097.30  170.00 138 0.13585 0.42940 0.63926-0.75897-0.67455 0.60051
   7   1  -3 2788.60  119.20 131-0.03075 0.61839 0.78546-0.66575-0.59590 0.59237
  -7   1   3 2948.20  117.50  37 0.05687-0.64420 0.49991-0.38028 0.83736-0.83416
  -7   1   3 2635.50  107.40 101-0.57338-0.01395 0.19068-0.07105-0.93786 0.94106
  -7  -1   3 3012.30  117.90  52-0.29339-0.29393 0.75467-0.87430 0.46294-0.45974
   7  -1  -3 3000.50  129.70 141 0.18865 0.39899 0.58163-0.70134-0.69038 0.68685
   7  -1  -3 3386.20  123.80 170 0.64254-0.05507 0.45977-0.57937 0.78515-0.78867
   7   1  -2 2281.30   92.20 134 0.03864 0.57140 0.73095-0.61124-0.63379 0.70076
  -7   1   2 2600.50  105.40  41-0.03889-0.57089 0.58426-0.46463 0.75610-0.82342
  -7   1   2 2187.70   98.80 106-0.50682-0.10295 0.06602 0.05361-0.97614 0.90881
  -7  -1   2 2471.30   95.10  56-0.38253-0.22725 0.79237-0.91200 0.32874-0.39606
   7  -1  -2 2525.10  115.90 144 0.25010 0.35993 0.50699-0.62670-0.70272 0.76969
   7  -1  -2 2172.10  115.00 175 0.57121 0.03859 0.60740-0.72699 0.70476-0.63791
   7   1  -1  858.70   42.00 138 0.12926 0.50316 0.64605-0.52635-0.67226 0.80973
  -7   1   1  986.90   51.70  45-0.12842-0.50380 0.65349-0.53386 0.66629-0.80414
  -7   1   1  799.00   53.50 110-0.43537-0.19686-0.04935 0.16898-0.99072 0.85287
  -7  -1   1  951.50   45.60  59-0.44330-0.18892 0.80918-0.92881 0.22448-0.36233
   7  -1  -1  859.20   54.80 147 0.31895 0.31348 0.41250-0.53221-0.70781 0.84528
   7   1   0  213.00   23.10 143 0.24432 0.41050 0.51438-0.39467-0.70186 0.90984
  -7   1   0  235.50   26.20  48-0.20899-0.44568 0.70746-0.58782 0.57352-0.78190
  -7  -1   0  191.60   22.70  62-0.48730-0.16737 0.81558-0.93521 0.14070-0.34908
   7  -1   0  248.30   28.50 151 0.39252 0.26231 0.29628-0.41599-0.70096 0.90894
   7   1   1 1495.30   75.50 151 0.38314 0.29407 0.31211-0.19240-0.70265 0.98114
  -7   1  -1 1574.30   67.40  51-0.27978-0.39734 0.74775-0.62812 0.48179-0.76070
  -7  -1  -1 1492.30   82.20  64-0.52123-0.15589 0.81631-0.93594 0.07006-0.34897
   7  -1   1 1588.30   86.60 156 0.46641 0.21081 0.15841-0.27812-0.67707 0.95556
  -7   1  -2  172.80   27.30  54-0.34121-0.35836 0.77662-0.65698 0.39342-0.74286
  -7  -1  -2  180.80   27.00  65-0.54873-0.15084 0.81350-0.93314 0.00795-0.35739
   7  -1   2  152.80   30.20 160 0.53465 0.16496 0.00185-0.12156-0.63149 0.98049
  -7   1  -3  311.30   42.50  57-0.39431-0.32771 0.79626-0.67662 0.30943-0.72940
  -7  -1  -3  317.90   31.00  67-0.57183-0.15019 0.80819-0.92782-0.04847-0.37150
   7  -1   3  327.40   30.50 166 0.59042 0.13159-0.16715 0.04744-0.56119 0.98069
  -7   1  -4  462.30   35.30  59-0.44023-0.30424 0.80854-0.68890 0.23004-0.72054
  -7  -1  -4  582.90   54.40  69-0.59170-0.15277 0.80087-0.92051-0.10095-0.38955
  -7   1  -5  344.60   29.40  61-0.48008-0.28684 0.81492-0.69528 0.15502-0.71604
  -7  -1  -5  210.20   32.30  70-0.60905-0.15786 0.79182-0.91145-0.15062-0.41041
  -7   1  -6  472.30   51.70  63-0.51479-0.27458 0.81649-0.69686 0.08395-0.71550
  -7  -1  -6  429.80   53.20  71-0.62435-0.16502 0.78115-0.90078-0.19823-0.43333
  -7   2  12  672.50   60.80  13 0.54317-0.92845-0.13122 0.37048 0.95907-0.32110
  -7  -2  12  651.50   43.50   8 0.61217-0.99745-0.27579 0.03653 0.89738-0.25941
  -7   2  11  208.50   36.30  14 0.52648-0.93421-0.10048 0.33975 0.96790-0.40046
  -7  -2  11  148.00   24.10  10 0.59150-0.99923-0.22874-0.01053 0.92124-0.35380
   7  -2 -11   97.10   47.50 135 0.07171 0.33678 0.70179-0.94121-0.64929 0.08170
  -7   2  10  130.40   27.70  16 0.50399-0.93416-0.06091 0.30018 0.97717-0.48026
  -7  -2  10  190.50   21.00  13 0.55496-0.98514-0.15373-0.08554 0.95167-0.45476
   7  -2 -10   76.70   43.60 136 0.07867 0.35221 0.69539-0.93480-0.65234 0.15525
  -7   2   9  427.70   43.50  18 0.47446-0.92709-0.01168 0.25095 0.98544-0.55906
  -7  -2   9  347.30   23.50  17 0.48790-0.94052-0.03373-0.20553 0.98218-0.55580
   7  -2  -9  243.20   41.60 108-0.47442 0.92704 0.01182-0.25108-0.98545 0.55907
   7  -2  -9  300.10   37.90 136 0.09037 0.36290 0.68442-0.92384-0.65730 0.23072
  -7   2   8  410.40   37.80  20 0.43660-0.91168 0.04768 0.19159 0.99064-0.63478
  -7  -2   8  302.10   18.80  24 0.35416-0.82924 0.16534-0.40460 0.98531-0.62946
   7  -2  -8  284.10   36.90 110-0.43656 0.91164-0.04754-0.19173-0.99065 0.63480
   7  -2  -8  278.50   36.60 137 0.10723 0.36844 0.66815-0.90757-0.66407 0.30800
  -7   2   7  258.90   26.60  22 0.38929-0.88682 0.11693 0.12234 0.99005-0.70473
   7  -2  -7  260.60   29.60 112-0.38925 0.88678-0.11679-0.12248-0.99008 0.70475
   7  -2  -7  263.20   39.20 138 0.12968 0.36839 0.64563-0.88505-0.67240 0.38684
  -7   2   6  935.70   57.00  25 0.33193-0.85191 0.19480 0.04447 0.98062-0.76583
   7  -2  -6  988.10   56.30 115-0.33190 0.85187-0.19466-0.04461-0.98065 0.76585
   7  -2  -6  873.90   65.80 139 0.15811 0.36235 0.61567-0.85509-0.68179 0.46673
  -7   2   5 3216.30  145.30  28 0.26488-0.80731 0.27874-0.03947 0.95942-0.81515
   7  -2  -5 3214.70  128.50 118-0.26485 0.80728-0.27860 0.03933-0.95946 0.81519
   7  -2  -5 3119.10  142.20 141 0.19278 0.35007 0.57687-0.81629-0.69142 0.54687
  -7   2   4  204.60   28.60  31 0.18973-0.75460 0.36501-0.12575 0.92445-0.85071
   7  -2  -4  168.90   31.70 121-0.18970 0.75457-0.36488 0.12561-0.92450 0.85076
   7  -2  -4  210.50   29.00 143 0.23374 0.33150 0.52770-0.76712-0.70011 0.62607
   7   2  -3  932.60   53.80 126-0.14198 0.72962 0.85388-0.61446-0.51990 0.51636
  -7   2   3 1166.80   58.50  35 0.10921-0.69653 0.44931-0.21005 0.87532-0.87211
   7  -2  -3 1048.80   61.20 145 0.28064 0.30700 0.46659-0.70601-0.70620 0.70266
   7   2  -2  724.50   44.80 129-0.07928 0.68931 0.81823-0.57882-0.56509 0.63206
  -7   2   2  843.50   44.50  38 0.02673-0.63651 0.52760-0.28834 0.81342-0.88074
   7  -2  -2  804.40   54.30 148 0.33261 0.27743 0.39223-0.63164-0.70758 0.77455
   7   2  -1 3512.50  141.00 133 0.01007 0.62236 0.75448-0.51506-0.61906 0.75654
  -7   2   1 3657.00  172.00  41-0.05437-0.57785 0.59690-0.35764 0.74153-0.87938
  -7  -2   1 3748.20  135.00  75-0.65885 0.02662 0.74198-0.98124-0.32732 0.18947
   7  -2  -1 3142.60  148.20 151 0.38809 0.24434 0.30379-0.54321-0.70179 0.83927
   7   2   0 1078.30   57.00 138 0.13843 0.51639 0.63658-0.39716-0.67543 0.88342
  -7   2   0 1161.50   68.50  45-0.13143-0.52324 0.65566-0.41639 0.66303-0.87141
  -7  -2   0 1310.00   64.10  74-0.64791-0.00676 0.75752-0.99678-0.28192 0.07354
   7  -2   0 1090.80   68.60 154 0.44481 0.21001 0.20139-0.44081-0.68622 0.89420
  -7   2  -1 1006.70   55.90  48-0.20277-0.47435 0.70359-0.46432 0.58110-0.86001
  -7  -2  -1 1021.40   58.30  74-0.64570-0.03142 0.76023-0.99950-0.27336-0.00555
   7  -2   1  851.80   57.70 158 0.49983 0.17739 0.08632-0.32574-0.65843 0.93692
  -7   2  -2 2770.10  125.60  51-0.26759-0.43198 0.74132-0.50206 0.49831-0.84775
  -7  -2  -2 2726.00  124.40  74-0.64763-0.05194 0.75787-0.99714-0.28082-0.06862
   7  -2   2 2397.00  104.20 162 0.54976 0.14985-0.03877-0.20065-0.61660 0.96560
  -7   2  -3  629.40   50.80  53-0.32579-0.39623 0.76995-0.53068 0.41643-0.83640
  -7  -2  -3  667.60   45.90  74-0.65168-0.07034 0.75259-0.99186-0.29695-0.12302
   7  -2   3  530.70   44.60 166 0.59120 0.13081-0.17001-0.06941-0.55981 0.97931
  -7   2  -4   52.20   41.30  56-0.37769-0.36678 0.79069-0.55142 0.33655-0.82705
  -7  -2  -4   82.40   19.40  75-0.65680-0.08767 0.74520-0.98446-0.31837-0.17213
  -7   2  -5   55.30   33.70  58-0.42381-0.34310 0.80470-0.56544 0.25921-0.82024
  -7  -2  -5  143.60   33.20  76-0.66237-0.10455 0.73603-0.97530-0.34329-0.21774
  -7   2  -6  -14.60   41.10  60-0.46474-0.32462 0.81299-0.57372 0.18463-0.81619
  -7  -2  -6   62.10   34.00  77-0.66800-0.12137 0.72525-0.96452-0.37065-0.26090
  -7   3  11  617.50   61.70  16 0.49632-0.90405-0.04785 0.40675 0.97972-0.41227
   7  -3 -11  638.00   70.80 140 0.16367 0.24481 0.60961-0.96874-0.68347 0.11588
  -7   3  10   48.80   36.40  18 0.47429-0.90447-0.01141 0.37030 0.98548-0.48857
   7  -3 -10   98.10   37.90 108-0.47423 0.90441 0.01152-0.37042-0.98549 0.48857
   7  -3 -10  104.30   34.70 140 0.17216 0.25872 0.60025-0.95938-0.68594 0.18885
  -7   3   9  142.20   30.20  19 0.44631-0.89894 0.03281 0.32609 0.98982-0.56344
   7  -3  -9  134.10   34.50 109-0.44626 0.89889-0.03269-0.32621-0.98984 0.56346
   7  -3  -9  132.60   45.40 141 0.18498 0.26829 0.58582-0.94495-0.68944 0.26286
  -7   3   8  846.20   53.00  21 0.41158-0.88666 0.08492 0.27398 0.99122-0.63537
   7  -3  -8  707.90   55.10 111-0.41153 0.88661-0.08480-0.27410-0.99124 0.63538
   7  -3  -8  859.20   71.90 141 0.20236 0.27331 0.56571-0.92484-0.69372 0.33765
  -7   3   7  368.30   43.90  23 0.36945-0.86697 0.14456 0.21433 0.98779-0.70247
   7  -3  -7  322.20   32.90 113-0.36940 0.86692-0.14444-0.21445-0.98781 0.70249
   7  -3  -7  330.30   55.20 142 0.22444 0.27362 0.53919-0.89832-0.69840 0.41284
  -7   3   6  107.80   30.60  25 0.31961-0.83958 0.21077 0.14813 0.97750-0.76270
   7  -3  -6   68.30   33.30 115-0.31956 0.83953-0.21065-0.14825-0.97752 0.76273
   7  -3  -6   73.40   41.00 144 0.25129 0.26917 0.50546-0.86459-0.70289 0.48783
  -7   3   5   57.00   25.70  28 0.26231-0.80473 0.28182 0.07708 0.95841-0.81414
   7  -3  -5   75.50   27.90 118-0.26226 0.80469-0.28170-0.07720-0.95844 0.81417
   7  -3  -5   71.40   43.10 145 0.28280 0.26005 0.46364-0.82277-0.70637 0.56182
  -7   3   4 1018.10   58.10  31 0.19848-0.76335 0.35536 0.00354 0.92908-0.85535
   7  -3  -4  951.50   55.70 121-0.19843 0.76331-0.35524-0.00366-0.92912 0.85539
   7  -3  -4  943.90   69.10 147 0.31866 0.24659 0.41293-0.77205-0.70781 0.63376
  -7   3   3 1475.40   80.00  34 0.12971-0.71703 0.42861-0.06971 0.88891-0.88571
   7  -3  -3 1262.70   80.10 149 0.35824 0.22940 0.35264-0.71176-0.70592 0.70239
  -7   3   2 1575.60   80.00  37 0.05806-0.66783 0.49880-0.13991 0.83827-0.90559
   7  -3  -2 1596.30  101.90 152 0.40058 0.20946 0.28241-0.64153-0.69929 0.76626
   7   3  -1   43.20   16.70 127-0.11014 0.74256 0.83674-0.47761-0.54362 0.68110
  -7   3   1   -8.90   20.40  40-0.01424-0.61798 0.56357-0.20467 0.77846-0.91631
   7  -3  -1   37.70   25.50 154 0.44434 0.18809 0.20231-0.56144-0.68640 0.82387
  -7   3   0  687.30   58.20  43-0.08515-0.56952 0.62122-0.26232 0.71138-0.91976
  -7  -3   0  715.20   36.50  91-0.66997 0.01530 0.44556-0.80446-0.77618 0.56780
   7  -3   0  576.40   50.40 157 0.48786 0.16696 0.11300-0.47212-0.66580 0.87379
  -7   3  -1  245.60   41.40  46-0.15305-0.52407 0.67085-0.31195 0.63917-0.91808
  -7  -3  -1  333.70   25.20  86-0.69025 0.01312 0.56260-0.92150-0.65106 0.37215
   7  -3   1  296.70   30.60 160 0.52924 0.14798 0.01576-0.37489-0.63630 0.91479
  -7   3  -2  161.30   41.70  48-0.21683-0.48274 0.71226-0.35336 0.56385-0.91329
  -7  -3  -2  166.20   26.80  84-0.69189-0.00768 0.60772-0.96662-0.58978 0.24035
   7  -3   2  160.80   38.00 163 0.56646 0.13315-0.08748-0.27165-0.59708 0.94608
  -7   3  -3   40.20   29.20  51-0.27588-0.44614 0.74572-0.38682 0.48711-0.90708
  -7  -3  -3  101.00   20.50  83-0.69112-0.03090 0.62827-0.98717-0.55867 0.13870
   7  -3   3   87.30   38.50 167 0.59761 0.12440-0.19433-0.16480-0.54779 0.96730
  -7   3  -4   98.00   44.70  53-0.32997-0.41449 0.77180-0.41290 0.41025-0.90075
  -7  -3  -4   38.70   22.90  82-0.69047-0.05400 0.63677-0.99566-0.54511 0.05462
  -7   3  -5  153.50   35.00  56-0.37918-0.38774 0.79121-0.43231 0.33415-0.89518
  -7  -3  -5  200.00   32.80  82-0.69035-0.07657 0.63814-0.99704-0.54287-0.01815
  -7   4   9  423.60   43.90  21 0.41336-0.86599 0.08232 0.39621 0.99125-0.56486
   7  -4  -9  366.60   40.10 111-0.41330 0.86593-0.08221-0.39632-0.99126 0.56488
   7  -4  -9  412.40   53.60 145 0.27323 0.18005 0.47662-0.95545-0.70553 0.27895
  -7   4   8  341.40   49.50  23 0.38089-0.85597 0.12872 0.34981 0.98923-0.63338
   7  -4  -8  310.90   45.60 113-0.38083 0.85591-0.12862-0.34992-0.98925 0.63340
   7  -4  -8  288.30   58.80 146 0.28959 0.18607 0.45430-0.93314-0.70686 0.35079
  -7   4   7    0.40   35.40  24 0.34239-0.83991 0.18105 0.29748 0.98298-0.69766
   7  -4  -7  -51.20   35.90 114-0.34233 0.83986-0.18094-0.29759-0.98300 0.69768
   7  -4  -7  -48.90   43.20 147 0.30973 0.18833 0.42588-0.90472-0.70771 0.42215
  -7   4   6 1416.00   83.00  26 0.29772-0.81770 0.23850 0.24003 0.97107-0.75627
   7  -4  -6 1402.10   91.60 116-0.29766 0.81764-0.23840-0.24013-0.97109 0.75630
   7  -4  -6 1218.00   81.20 148 0.33350 0.18696 0.39089-0.86972-0.70755 0.49249
  -7   4   5  642.70   60.50  29 0.24710-0.78953 0.29985 0.17868 0.95216-0.80789
   7  -4  -5  596.80   53.80 119-0.24705 0.78947-0.29975-0.17879-0.95219 0.80792
   7  -4  -5  535.50   64.40 149 0.36061 0.18225 0.34888-0.82771-0.70569 0.56114
  -7   4   4   69.10   25.10  31 0.19115-0.75602 0.36345 0.11508 0.92521-0.85148
   7  -4  -4  101.70   27.90 121-0.19109 0.75596-0.36335-0.11518-0.92524 0.85151
   7  -4  -4   78.40   34.30 151 0.39061 0.17463 0.29953-0.77836-0.70132 0.62728
  -7   4   3  937.20   61.80  34 0.13088-0.71820 0.42741 0.05112 0.88967-0.88646
   7  -4  -3  818.00   65.70 153 0.42287 0.16477 0.24266-0.72150-0.69357 0.69004
  -7   4   2   62.20   36.20  36 0.06765-0.67742 0.48976-0.01123 0.84555-0.91288
   7  -4  -2  129.60   36.40 155 0.45654 0.15349 0.17836-0.65719-0.68150 0.74847
  -7   4   1  121.50   31.20  39 0.00297-0.63519 0.54869-0.07016 0.79348-0.93134
   7  -4  -1  115.50   30.80 157 0.49060 0.14183 0.10698-0.58582-0.66419 0.80167
  -7   4   0  356.10   39.80  42-0.06165-0.59303 0.60275-0.12422 0.73455-0.94293
   7  -4   0  337.60   52.30 160 0.52387 0.13095 0.02924-0.50808-0.64083 0.84881
  -7   4  -1   62.30   39.80  44-0.12487-0.55225 0.65093-0.17240 0.67011-0.94902
   7  -4   1   36.90   43.90 162 0.55509 0.12213-0.05382-0.42502-0.61076 0.88926
  -7   4  -2  381.90   38.90  47-0.18564-0.51393 0.69267-0.21414 0.60162-0.95106
   7  -4   2  242.00   40.00 165 0.58298 0.11663-0.14085-0.33798-0.57359 0.92258
  -7   4  -3  212.70   43.80  50-0.24321-0.47881 0.72781-0.24928 0.53044-0.95041
  -7  -4  -3  163.50   25.80  92-0.66703-0.05499 0.43420-0.91273-0.78626 0.36629
  -7   5   7  113.10   31.00  26 0.30964-0.80716 0.22350 0.37467 0.97470-0.68938
   7  -5  -7   25.10   35.60 116-0.30957 0.80710-0.22340-0.37476-0.97473 0.68940
   7  -5  -7   92.60   43.70 151 0.38428 0.11378 0.31020-0.90874-0.70246 0.41689
  -7   5   6  217.40   38.20  28 0.26882-0.78879 0.27400 0.32416 0.96094-0.74614
   7  -5  -6  227.80   36.20 118-0.26875 0.78872-0.27391-0.32426-0.96096 0.74616
   7  -5  -6  205.80   54.80 152 0.40427 0.11619 0.27597-0.87451-0.69846 0.48340
  -7   5   5   41.30   32.50  30 0.22310-0.76553 0.32765 0.27051 0.94134-0.79708
   7  -5  -5   47.50   25.10 120-0.22303 0.76546-0.32756-0.27060-0.94137 0.79710
   7  -5  -5  -37.20   37.60 153 0.42661 0.11624 0.23578-0.83432-0.69245 0.54789
  -7   5   4  295.10   42.80  32 0.17295-0.73782 0.38325 0.21492 0.91517-0.84143
   7  -5  -4  257.80   42.60 122-0.17288 0.73775-0.38316-0.21501-0.91520 0.84146
   7  -5  -4  186.20   57.20 155 0.45087 0.11437 0.18958-0.78812-0.68385 0.60981
  -7   5   3  353.00   54.30  34 0.11908-0.70640 0.43941 0.15876 0.88196-0.87875
   7  -5  -3  341.50   41.20 156 0.47648 0.11116 0.13744-0.73599-0.67207 0.66853
  -7   5   2  234.20   45.70  37 0.06243-0.67220 0.49469 0.10347 0.84161-0.90893
   7  -5  -2  286.00   38.60 158 0.50276 0.10727 0.07962-0.67816-0.65649 0.72346
  -7   5   1  360.50   38.90  39 0.00408-0.63630 0.54772 0.05044 0.79443-0.93229
   7  -5  -1  345.80   48.20 160 0.52893 0.10349 0.01653-0.61508-0.63657 0.77404
  -7   5   0   50.30   41.90  41-0.05486-0.59981 0.59730 0.00086 0.74106-0.94944
   7  -5   0  120.60   38.00 162 0.55417 0.10066-0.05119-0.54735-0.61179 0.81978
  -7   5  -1  261.10   46.80  44-0.11333-0.56379 0.64249-0.04433 0.68238-0.96129
   7  -5   1  285.20   51.60 164 0.57759 0.09963-0.12276-0.47579-0.58180 0.86029
   8   0 -11  -38.00   31.40 129-0.06541 0.56744 0.80932-0.80932-0.57426 0.03638
  -8   0  11   -7.80   24.80  17 0.48880-0.99005-0.03523 0.03523 0.98193-0.44426
   8   0 -10  -17.70   41.10 129-0.06121 0.58564 0.80656-0.80656-0.57698 0.10960
  -8   0  10   16.80   21.40  19 0.45059-0.97430 0.02618-0.02618 0.98936-0.52222
   8   0  -9  -40.70   30.40 130-0.05236 0.59918 0.80060-0.80060-0.58262 0.18576
  -8   0   9   31.90   20.50  22 0.39923-0.94539 0.10278-0.10278 0.99076-0.59415
   8   0  -8  542.60   52.70 130-0.03817 0.60738 0.79076-0.79076-0.59142 0.26506
  -8   0   8  557.00   38.30  25 0.33233-0.90093 0.19428-0.19428 0.98072-0.65463
   8   0  -7  171.30   44.30 131-0.01784 0.60944 0.77600-0.77600-0.60350 0.34765
  -8   0   7  224.20   23.50  29 0.24897-0.84003 0.29765-0.29765 0.95295-0.69740
   8   0  -6 1067.80   70.60 133 0.00959 0.60442 0.75487-0.75487-0.61881 0.43346
  -8   0   6 1107.80   52.00  33 0.15136-0.76486 0.40618-0.40618 0.90248-0.71745
   8   0  -5  568.40   36.50 134 0.04518 0.59122 0.72534-0.72534-0.63699 0.52215
  -8   0   5  582.10   36.10  37 0.04556-0.68151 0.51043-0.51043 0.82855-0.71406
   8   0  -4 1256.00   71.60 136 0.09009 0.56871 0.68469-0.68469-0.65718 0.61285
  -8   0   4 1503.30   63.70  42-0.05988-0.59852 0.60133-0.60133 0.73625-0.69229
   8   0  -3  851.40   52.10 139 0.14534 0.53585 0.62933-0.62933-0.67773 0.70391
  -8   0   3  778.60   41.10  46-0.15725-0.52360 0.67374-0.67374 0.63444-0.66100
   8   0  -2    7.20   28.70 142 0.21158 0.49200 0.55477-0.55477-0.69578 0.79247
  -8   0   2   28.80   20.50  49-0.24226-0.46104 0.72727-0.72727 0.53166-0.62875
   8   0  -1  982.70   70.40 146 0.28852 0.43745 0.45579-0.45579-0.70679 0.87398
  -8   0   1 1037.70   58.40  53-0.31411-0.41164 0.76464-0.76464 0.43348-0.60110
   8   0   0   68.00   23.60 150 0.37418 0.37418 0.32694-0.32694-0.70403 0.94172
  -8   0   0  142.20   29.50  56-0.37410-0.37410 0.78941-0.78941 0.34231-0.58046
  -8   0  -1  137.00   26.70  58-0.42424-0.34641 0.80481-0.80481 0.25848-0.56715
  -8   0  -2    1.50   24.60  60-0.46648-0.32661 0.81324-0.81324 0.18133-0.56054
  -8   0  -3  665.80   52.30  62-0.50245-0.31310 0.81641-0.81641 0.10991-0.55964
  -8   0  -4   41.20   35.10  64-0.53338-0.30461 0.81549-0.81549 0.04322-0.56349
   8   1 -11   88.20   37.30 126-0.13854 0.64057 0.85212-0.73241-0.52254-0.01534
  -8   1  11   34.10   27.70  17 0.47885-0.98010-0.01882 0.13846 0.98446-0.44679
  -8  -1  11   35.90   23.30  17 0.48492-0.98617-0.02880-0.09084 0.98297-0.44530
   8  -1 -11    0.30   27.70 133 0.01504 0.48699 0.75050-0.87021-0.62171 0.08383
   8   1 -10   99.80   35.70 126-0.13739 0.66181 0.85153-0.73183-0.52342 0.05604
  -8   1  10  127.30   31.30  19 0.44661-0.97032 0.03235 0.08728 0.98979-0.52265
  -8  -1  10   69.90   17.20  20 0.43416-0.95787 0.05137-0.17101 0.99079-0.52364
   8  -1 -10   61.90   34.30 133 0.02195 0.50248 0.74488-0.86459-0.62534 0.15796
   8   1  -9   94.60   25.50 126-0.13188 0.67870 0.84866-0.72895-0.52760 0.13073
  -8   1   9  105.30   28.90  21 0.40501-0.95116 0.09447 0.02516 0.99103-0.59442
  -8  -1   9   55.80   17.30  23 0.36114-0.90730 0.15590-0.27553 0.98652-0.58991
   8  -1  -9  -23.30   37.80 134 0.03358 0.51324 0.73523-0.85494-0.63127 0.23440
   8   1  -8  484.80   54.40 127-0.12128 0.69050 0.84297-0.72326-0.53550 0.20914
  -8   1   8  523.30   39.70  24 0.35277-0.92137 0.16721-0.04757 0.98505-0.65897
  -8  -1   8  495.40   29.80  28 0.25950-0.82810 0.28518-0.40481 0.95729-0.63120
   8  -1  -8  549.70   56.80 134 0.05045 0.51876 0.72077-0.84047-0.63952 0.31316
   8   1  -7  225.60   40.10 127-0.10469 0.69629 0.83360-0.71389-0.54752 0.29167
  -8   1   7  222.30   32.40  27 0.28935-0.88040 0.24891-0.12928 0.96832-0.71277
  -8  -1   7  205.90   18.90  34 0.12705-0.71810 0.43132-0.55095 0.88719-0.63164
   8  -1  -7  308.20   46.70 135 0.07316 0.51845 0.70046-0.82017-0.64993 0.39408
   8   1  -6  227.70   38.20 128-0.08090 0.69491 0.81925-0.69954-0.56400 0.37865
  -8   1   6  167.40   27.50  30 0.21548-0.82898 0.33632-0.21668 0.93767-0.75265
  -8  -1   6  188.60   17.60  40-0.02604-0.58746 0.57356-0.69320 0.76787-0.58285
   8  -1  -6  167.20   44.00 137 0.10231 0.51169 0.67296-0.79267-0.66214 0.47680
   8   1  -5 1863.50   89.80 130-0.04843 0.68483 0.79792-0.67821-0.58509 0.47025
  -8   1   5 2128.30   92.80  34 0.13351-0.76946 0.42472-0.30508 0.89135-0.77686
  -8  -1   5 1912.90   84.60  47-0.17420-0.46175 0.68516-0.80480 0.61502-0.50053
   8  -1  -5 2026.80  108.90 138 0.13846 0.49793 0.63655-0.75626-0.67544 0.56060
   8   1  -4 1805.10   89.90 132-0.00540 0.66419 0.76659-0.64688-0.61058 0.56625
  -8   1   4 1962.30   77.40  37 0.04723-0.70563 0.50889-0.38926 0.82986-0.78590
  -8  -1   4 1972.70   77.50  52-0.29280-0.36560 0.75437-0.87401 0.46377-0.41981
   8  -1  -4 1810.30   95.10 140 0.18204 0.47675 0.58916-0.70887-0.68866 0.64432
   8   1  -3 3029.40  125.50 134 0.05042 0.63077 0.72080-0.60109-0.63950 0.66568
  -8   1   3 3529.10  138.10  41-0.03901-0.64184 0.58436-0.46473 0.75598-0.78255
  -8  -1   3 3244.60  133.60  56-0.37727-0.30358 0.79054-0.91017 0.33723-0.36379
   8  -1  -3 3199.10  152.80 143 0.23315 0.44804 0.52844-0.64815-0.70001 0.72618
   8   1  -2 1323.90   69.30 138 0.12150 0.58208 0.65395-0.53424-0.66946 0.76614
  -8   1   2 1408.20   78.60  44-0.12134-0.58196 0.64836-0.52873 0.67388-0.77098
  -8  -1   2 1419.60   64.50  59-0.43662-0.26668 0.80775-0.92738 0.23653-0.33362
   8  -1  -2 1389.50   78.40 146 0.29133 0.41225 0.45190-0.57161-0.70697 0.80365
   8   1  -1   48.10   22.90 142 0.21015 0.51583 0.55648-0.43677-0.69547 0.86266
  -8   1   1   28.40   24.70  47-0.19719-0.52856 0.70007-0.58044 0.58785-0.75547
  -8  -1   1   94.40   18.90  61-0.48026-0.24548 0.81494-0.93457 0.15465-0.32227
   8  -1  -1   22.60   21.60 149 0.35530 0.37067 0.35728-0.47699-0.70620 0.87339
  -8   1   0  341.90   33.80  50-0.26532-0.48287 0.74010-0.62047 0.50135-0.73950
  -8  -1   0  340.00   26.40  63-0.51422-0.23398 0.81650-0.93614 0.08517-0.32331
   8  -1   0  267.50   35.50 153 0.42264 0.32573 0.24308-0.36279-0.69364 0.93134
  -8   1  -1  225.60   40.70  53-0.32562-0.44503 0.76987-0.65024 0.41669-0.72537
  -8  -1  -1  133.10   21.00  65-0.54192-0.22873 0.81452-0.93416 0.02380-0.33248
   8  -1   1  163.00   27.70 157 0.48958 0.28118 0.10923-0.22894-0.66479 0.97300
  -8   1  -2   79.70   33.60  56-0.37857-0.41453 0.79100-0.67136 0.33514-0.71435
  -8  -1  -2   33.70   24.80  67-0.56532-0.22778 0.81000-0.92963-0.03212-0.34709
  -8   1  -3  201.20   30.90  58-0.42496-0.39059 0.80499-0.68536 0.25722-0.70695
  -8  -1  -3  143.90   30.10  68-0.58556-0.22999 0.80344-0.92308-0.08429-0.36545
  -8   1  -4  151.00   46.00  60-0.46562-0.37237 0.81312-0.69348 0.18296-0.70323
  -8  -1  -4  178.20   41.90  70-0.60333-0.23466 0.79512-0.91475-0.13379-0.38647
  -8   2  11   19.50   35.40  18 0.46035-0.96160 0.01090 0.22837 0.98803-0.45036
  -8   2  10   70.30   27.00  20 0.43152-0.95522 0.05536 0.18390 0.99093-0.52378
   8  -2 -10    7.50   32.20 137 0.10815 0.41627 0.66725-0.90666-0.66443 0.19706
  -8   2   9  280.40   38.90  22 0.39540-0.94155 0.10826 0.13100 0.99052-0.59391
   8  -2  -9  235.20   52.20 138 0.12151 0.42531 0.65394-0.89335-0.66947 0.27260
  -8   2   8  467.40   36.60  24 0.35125-0.91985 0.16925 0.07002 0.98477-0.65868
   8  -2  -8  273.80   47.70 138 0.13971 0.42950 0.63524-0.87466-0.67586 0.34950
   8   2  -7  -27.10   29.30 124-0.18223 0.77384 0.87262-0.63320-0.48754 0.23169
  -8   2   7   24.40   34.70  26 0.29875-0.88980 0.23722 0.00204 0.97139-0.71584
   8  -2  -7   43.70   43.90 140 0.16307 0.42853 0.61027-0.84968-0.68329 0.42744
   8   2  -6  114.30   37.10 125-0.16322 0.77722 0.86418-0.62477-0.50316 0.31782
  -8   2   6  145.80   22.00  29 0.23822-0.85172 0.31023-0.07096 0.94829-0.76326
   8  -2  -6   70.40   21.20 119-0.23820 0.85170-0.31008 0.07082-0.94834 0.76331
   8  -2  -6   98.30   31.20 141 0.19186 0.42214 0.57794-0.81736-0.69119 0.50585
   8   2  -5  262.10   40.80 126-0.13576 0.77216 0.85069-0.61127-0.52466 0.40982
  -8   2   5  201.70   28.80  32 0.17085-0.80680 0.38551-0.14624 0.91397-0.79947
   8  -2  -5  213.40   30.50 122-0.17083 0.80678-0.38536 0.14610-0.91403 0.79953
   8  -2  -5  255.40   45.50 142 0.22620 0.41020 0.53704-0.77646-0.69874 0.58390
   8   2  -4  634.30   50.00 128-0.09753 0.75633 0.82940-0.58998-0.55257 0.50823
  -8   2   4  669.20   43.40  35 0.09859-0.75699 0.45984-0.22057 0.86800-0.82403
   8  -2  -4  707.50   60.00 144 0.26601 0.39278 0.48624-0.72566-0.70476 0.66043
   8   2  -3  325.90   28.60 130-0.04531 0.72649 0.79576-0.55634-0.58703 0.61321
  -8   2   3  353.20   38.40  38 0.02398-0.70483 0.53008-0.29081 0.81116-0.83772
   8  -2  -3  328.80   41.70 147 0.31088 0.37031 0.42424-0.66365-0.70774 0.73391
   8   2  -2 2318.00  111.00 133 0.02542 0.67816 0.74202-0.50261-0.62713 0.72381
  -8   2   2 2617.00  126.50  41-0.05039-0.65291 0.59368-0.35441 0.74532-0.84241
   8  -2  -2 2578.60  136.70 149 0.35994 0.34364 0.34993-0.58935-0.70575 0.80244
  -8   2   1   -4.20   33.30  44-0.12225-0.60350 0.64902-0.40976 0.67292-0.84054
  -8  -2   1    2.30    9.60  76-0.66112-0.06463 0.73820-0.97747-0.33754 0.16992
   8  -2  -1   18.00   34.40 152 0.41180 0.31417 0.26265-0.50207-0.69662 0.86381
  -8   2   0   46.50   22.90  47-0.18996-0.55824 0.69545-0.45619 0.59650-0.83465
  -8  -2   0   33.10   14.70  75-0.65262-0.09558 0.75130-0.99057-0.30077 0.06263
   8  -2   0   23.10   29.80 155 0.46444 0.28393 0.16242-0.40184-0.67798 0.91568
  -8   2  -1  159.10   30.70  50-0.25255-0.51810 0.73309-0.49382 0.51827-0.82695
  -8  -2  -1  155.70   21.70  74-0.65120-0.11945 0.75324-0.99251-0.29500-0.01368
   8  -2   1  188.60   24.90 159 0.51528 0.25549 0.05022-0.28964-0.64759 0.95579
  -8   2  -2  322.80   43.80  53-0.30964-0.48346 0.76254-0.52328 0.43993-0.81914
  -8  -2  -2  184.50   29.20  75-0.65329-0.13981 0.75037-0.98963-0.30354-0.07567
   8  -2   2  217.70   35.90 163 0.56128 0.23188-0.07188-0.16754-0.60353 0.98224
  -8   2  -3  347.60   41.20  55-0.36125-0.45430 0.78465-0.54538 0.36262-0.81236
  -8  -2  -3  298.00   33.10  75-0.65720-0.15834 0.74458-0.98384-0.32012-0.12962
  -8   2  -4    9.50   34.60  57-0.40765-0.43034 0.80031-0.56104 0.28706-0.80733
  -8  -2  -4    6.10   27.50  76-0.66204-0.17596 0.73661-0.97588-0.34176-0.17851
  -8   3  10   74.80   23.50  21 0.40885-0.93256 0.08889 0.27001 0.99116-0.52402
  -8   3   9  169.00   40.90  23 0.37624-0.92240 0.13518 0.22372 0.98869-0.59208
   8  -3  -9  136.00   51.70 142 0.20731 0.33950 0.55985-0.91898-0.69485 0.29798
  -8   3   8  138.10   42.20  25 0.33722-0.90582 0.18787 0.17103 0.98185-0.65576
   8  -3  -8  190.80   48.60 142 0.22541 0.34381 0.53801-0.89713-0.69859 0.37223
  -8   3   7 1108.90   71.20  27 0.29160-0.88265 0.24613 0.11277 0.96907-0.71352
   8  -3  -7  942.30   69.50 117-0.29156 0.88261-0.24600-0.11289-0.96910 0.71355
   8  -3  -7 1111.90   99.50 144 0.24782 0.34379 0.50992-0.86905-0.70239 0.44653
  -8   3   6   48.40   22.80  29 0.23959-0.85309 0.30864 0.05026 0.94889-0.76387
   8  -3  -6   51.70   25.60 119-0.23955 0.85305-0.30852-0.05038-0.94893 0.76391
   8  -3  -6   95.30   30.70 145 0.27453 0.33947 0.47486-0.83398-0.70565 0.52031
  -8   3   5  580.40   51.90  32 0.18187-0.81782 0.37359-0.01469 0.92017-0.80567
   8  -3  -5  596.40   59.00 122-0.18183 0.81778-0.37347 0.01457-0.92021 0.80572
   8  -3  -5  594.20   59.00 146 0.30542 0.33098 0.43206-0.79119-0.70761 0.59277
   8   3  -4  413.80   37.30 124-0.17893 0.83772 0.87121-0.51208-0.49030 0.44597
  -8   3   4  443.50   47.30  34 0.11963-0.77803 0.43885-0.07995 0.88232-0.83836
   8  -3  -4  386.70   43.70 148 0.34013 0.31866 0.38082-0.73995-0.70726 0.66293
   8   3  -3 1837.10   95.30 126-0.13337 0.81456 0.84944-0.49032-0.52647 0.55264
  -8   3   3 2286.20   96.70  37 0.05442-0.73527 0.50221-0.14331 0.83547-0.86203
   8  -3  -3 2040.20  116.70 150 0.37806 0.30312 0.32055-0.67968-0.70346 0.72964
  -8   3   2 1660.40   83.80  40-0.01202-0.69128 0.56166-0.20276 0.78043-0.87752
   8  -3  -2 1614.10  103.70 153 0.41833 0.28525 0.25093-0.61005-0.69487 0.79156
  -8   3   1   49.00   38.50  42-0.07800-0.64775 0.61566-0.25676 0.71853-0.88615
   8  -3  -1   55.90   27.80 155 0.45973 0.26625 0.17197-0.53110-0.68012 0.84730
  -8   3   0  736.80   48.40  45-0.14205-0.60614 0.66319-0.30429 0.65141-0.88956
   8  -3   0  588.70   48.10 158 0.50076 0.24761 0.08420-0.44333-0.65782 0.89552
  -8   3  -1  158.10   40.80  48-0.20309-0.56755 0.70379-0.34489 0.58071-0.88939
   8  -3   1  160.20   33.40 161 0.53968 0.23108-0.01134-0.34778-0.62679 0.93500
  -8   3  -2  359.30   52.10  50-0.26040-0.53270 0.73743-0.37853 0.50792-0.88712
   8  -3   2  281.60   38.80 164 0.57461 0.21855-0.11306-0.24607-0.58610 0.96481
  -8   3  -3  224.70   44.20  53-0.31358-0.50196 0.76439-0.40549 0.43425-0.88399
  -8  -3  -3  239.00   28.70  83-0.69163-0.12392 0.61822-0.97712-0.57416 0.12442
  -8   4   8  445.90   52.10  26 0.31469-0.88329 0.21707 0.26146 0.97615-0.65006
   8  -4  -8  278.50   46.50 116-0.31463 0.88323-0.21696-0.26157-0.97617 0.65009
  -8   4   7  241.90   43.90  28 0.27382-0.86488 0.26794 0.21059 0.96282-0.70727
   8  -4  -7  139.80   42.10 118-0.27377 0.86482-0.26783-0.21070-0.96285 0.70729
   8  -4  -7   35.50   49.60 147 0.32491 0.26670 0.40372-0.88256-0.70776 0.45191
  -8   4   6  413.00   48.40  30 0.22772-0.84122 0.32236 0.15617 0.94351-0.75849
   8  -4  -6  268.50   52.90 120-0.22767 0.84117-0.32226-0.15628-0.94354 0.75852
   8  -4  -6  337.70   53.80 149 0.34849 0.26552 0.36794-0.84678-0.70675 0.52140
  -8   4   5   99.20   30.60  32 0.17683-0.81278 0.37906 0.09947 0.91736-0.80287
   8  -4  -5  113.60   27.20 122-0.17678 0.81273-0.37895-0.09958-0.91740 0.80290
   8  -4  -5   69.70   30.20 150 0.37509 0.26131 0.32545-0.80429-0.70390 0.58906
  -8   4   4   73.90   29.60  34 0.12194-0.78033 0.43652 0.04201 0.88384-0.83988
   8  -4  -4  120.60   49.60 152 0.40428 0.25451 0.27594-0.75478-0.69845 0.65412
  -8   4   3  285.70   44.20  37 0.06407-0.74492 0.49315-0.01462 0.84285-0.86941
   8  -4  -3  252.40   52.50 154 0.43547 0.24572 0.21925-0.69809-0.68957 0.71575
  -8   4   2  148.30   30.00  39 0.00442-0.70772 0.54742-0.06889 0.79473-0.89182
   8  -4  -2  125.70   48.50 156 0.46786 0.23572 0.15542-0.63425-0.67638 0.77306
  -8   4   1  620.40   63.60  42-0.05575-0.67000 0.59802-0.11948 0.74021-0.90784
   8  -4  -1  521.20   46.80 158 0.50052 0.22545 0.08473-0.56357-0.65798 0.82517
  -8   4   0   63.30   31.40  44-0.11528-0.63291 0.64393-0.16540 0.68032-0.91847
   8  -4   0   28.60   46.40 160 0.53236 0.21601 0.00779-0.48663-0.63356 0.87126
  -8   4  -1   50.30   36.90  46-0.17320-0.59745 0.68450-0.20596 0.61619-0.92486
   8  -4   1   65.80   31.50 163 0.56217 0.20859-0.07452-0.40432-0.60245 0.91066
   9   0 -10  260.30   57.50 131-0.01468 0.63265 0.77364-0.77364-0.60532 0.16766
  -9   0  10  176.40   30.10  25 0.32929-0.94652 0.19824-0.19824 0.97998-0.54261
   9   0  -9   -1.20   37.50 132-0.00276 0.64313 0.76456-0.76456-0.61205 0.24490
  -9   0   9   45.80   19.10  28 0.26556-0.90523 0.27792-0.27792 0.95968-0.59284
   9   0  -8    6.10   46.60 133 0.01444 0.64832 0.75098-0.75098-0.62140 0.32475
  -9   0   8   -8.90   18.60  31 0.18908-0.85120 0.36572-0.36572 0.92410-0.62779
   9   0  -7  146.70   31.10 134 0.03762 0.64754 0.73181-0.73181-0.63328 0.40714
  -9   0   7  169.20   26.40  35 0.10200-0.78658 0.45647-0.45647 0.87037-0.64458
   9   0  -6  172.70   37.00 135 0.06756 0.63999 0.70556-0.70556-0.64743 0.49180
  -9   0   6  220.90   21.50  39 0.00895-0.71597 0.54345-0.54345 0.79859-0.64333
   9   0  -5  647.80   56.80 137 0.10508 0.62487 0.67026-0.67026-0.66323 0.57811
  -9   0   5  615.40   40.10  43-0.08394-0.64554 0.62027-0.62027 0.71260-0.62788
   9   0  -4    2.10   24.00 139 0.15098 0.60136 0.62334-0.62334-0.67956 0.66494
  -9   0   4   39.20   18.50  46-0.17094-0.58098 0.68300-0.68300 0.61879-0.60459
   9   0  -3 1945.10  107.50 142 0.20586 0.56888 0.56158-0.56158-0.69452 0.75041
  -9   0   3 1898.80   84.90  50-0.24849-0.52588 0.73081-0.73081 0.52358-0.57991
   9   0  -2  505.30   48.90 145 0.26987 0.52726 0.48111-0.48111-0.70518 0.83158
  -9   0   2  557.00   36.40  53-0.31547-0.48136 0.76526-0.76526 0.43152-0.55838
  -9   0   1  298.10   33.70  56-0.37247-0.44681 0.78883-0.78883 0.34492-0.54231
  -9   0   0 1732.90   80.00  58-0.42086-0.42086 0.80394-0.80394 0.26437-0.53229
  -9   0  -1  259.20   33.20  60-0.46215-0.40202 0.81259-0.81259 0.18955-0.52800
  -9   0  -2  762.50   54.00  62-0.49765-0.38897 0.81623-0.81623 0.11978-0.52875
   9   1 -10  131.80   45.60 128-0.08574 0.70371 0.82226-0.70255-0.56072 0.12306
  -9   1  10  121.90   23.60  24 0.34892-0.96614 0.17237-0.05273 0.98432-0.54694
   9   1  -9   78.40   44.50 129-0.07640 0.71676 0.81641-0.69670-0.56702 0.19986
  -9   1   9   46.50   26.50  26 0.29966-0.93934 0.23608-0.11645 0.97168-0.60484
   9  -1  -9  118.50   47.30 136 0.07564 0.56472 0.69818-0.81789-0.65102 0.28387
   9   1  -8   81.30   42.90 129-0.06178 0.72454 0.80693-0.68722-0.57661 0.27996
  -9   1   8   60.60   24.40  29 0.24128-0.90341 0.30667-0.18703 0.94964-0.65333
   9  -1  -8   45.10   45.10 136 0.09451 0.56825 0.68048-0.80019-0.65900 0.36235
   9   1  -7   18.40   38.50 130-0.04103 0.72618 0.79278-0.67307-0.58967 0.36353
  -9   1   7   78.90   24.80  32 0.17453-0.85911 0.38154-0.26191 0.91607-0.69028
   9  -1  -7    1.20   40.90 137 0.11885 0.56630 0.65661-0.77632-0.66849 0.44234
   9   1  -6  208.00   42.40 132-0.01306 0.72061 0.77242-0.65271-0.60624 0.45061
  -9   1   6  222.10   24.10  35 0.10126-0.80828 0.45721-0.33758 0.86985-0.71460
   9  -1  -6  159.20   34.40 139 0.14913 0.55842 0.62531-0.74501-0.67897 0.52333
   9   1  -5  240.50   29.50 133 0.02340 0.70654 0.74369-0.62398-0.62609 0.54096
  -9   1   5  281.40   30.60  38 0.02425-0.75373 0.52983-0.41020 0.81138-0.72665
   9  -1  -5  285.90   52.30 141 0.18571 0.54423 0.58499-0.70470-0.68963 0.60450
   9   1  -4 1141.10   70.00 135 0.06988 0.68246 0.70346-0.58375-0.64847 0.63385
  -9   1   4 1201.70   68.30  41-0.05324-0.69869 0.59599-0.47636 0.74261-0.72841
   9  -1  -4 1059.00   77.00 143 0.22880 0.52354 0.53383-0.65354-0.69922 0.68460
   9   1  -3   72.10   31.80 138 0.12803 0.64670 0.64732-0.52761-0.67182 0.72770
  -9   1   3  118.20   27.40  45-0.12820-0.64617 0.65334-0.53370 0.66652-0.72285
  -9  -1   3  145.80   13.70  60-0.45090-0.32348 0.81067-0.93030 0.21056-0.26689
   9  -1  -3   80.20   30.10 145 0.27828 0.49645 0.46980-0.58951-0.70600 0.76188
  -9   1   2  196.90   29.20  48-0.19841-0.59842 0.70084-0.58121 0.58638-0.71324
  -9  -1   2  203.90   21.20  62-0.48932-0.30750 0.81573-0.93537 0.13666-0.26352
   9  -1  -2  138.90   35.10 148 0.33355 0.46358 0.39081-0.51052-0.70755 0.83394
  -9   1   1  112.30   29.90  50-0.26257-0.55670 0.73861-0.61898 0.50502-0.70241
  -9  -1   1  105.40   17.50  64-0.51976-0.29951 0.81636-0.93600 0.07326-0.27065
   9  -1  -1  165.30   35.80 151 0.39328 0.42624 0.29498-0.41469-0.70081 0.89771
  -9   1   0  961.10   48.90  53-0.32028-0.52144 0.76747-0.64784 0.42452-0.69243
  -9  -1   0  901.00   52.60  65-0.54507-0.29665 0.81408-0.93371 0.01652-0.28443
  -9   1  -1  262.70   35.90  55-0.37170-0.49248 0.78855-0.66891 0.34614-0.68459
  -9  -1  -1  131.70   24.70  67-0.56683-0.29734 0.80960-0.92924-0.03588-0.30257
  -9   1  -2 1392.40   71.80  58-0.41729-0.46933 0.80300-0.68337 0.27056-0.67953
  -9  -1  -2 1267.10   80.60  68-0.58595-0.30067 0.80329-0.92292-0.08534-0.32364
   9   2  -9  308.30   53.60 126-0.14205 0.78242 0.85392-0.61450-0.51984 0.15268
  -9   2   9  479.10   44.40  26 0.30680-0.94648 0.22709 0.01218 0.97387-0.60702
   9  -2  -9  408.70   52.40 139 0.15531 0.48506 0.61869-0.85811-0.68092 0.31377
   9   2  -8  138.60   42.40 126-0.13050 0.79326 0.84793-0.60852-0.52863 0.23198
  -9   2   8  125.60   33.30  28 0.25845-0.92058 0.28642-0.04716 0.95687-0.66055
   9  -2  -8  169.80   33.40 140 0.17467 0.48809 0.59746-0.83688-0.68664 0.38999
   9   2  -7  206.30   36.00 127-0.11298 0.79813 0.83835-0.59893-0.54157 0.31543
  -9   2   7  206.20   37.80  31 0.20338-0.88796 0.34990-0.11063 0.93162-0.70583
   9  -2  -7  296.60   41.80 141 0.19878 0.48637 0.56990-0.80932-0.69288 0.46674
   9   2  -6  579.50   45.70 128-0.08824 0.79578 0.82379-0.58438-0.55901 0.40338
  -9   2   6  748.70   49.40  33 0.14252-0.84955 0.41541-0.17614 0.89704-0.74178
   9  -2  -6  747.10   65.10 143 0.22782 0.47973 0.53504-0.77446-0.69904 0.54341
   9   2  -5  159.80   31.20 130-0.05463 0.78458 0.80215-0.56273-0.58118 0.49606
  -9   2   5  112.60   25.80  36 0.07737-0.80684 0.48048-0.24122 0.85278-0.76805
   9  -2  -5   34.90   27.80 144 0.26179 0.46815 0.49180-0.73122-0.70427 0.61914
   9   2  -4  278.60   39.70 132-0.01000 0.76234 0.77011-0.53069-0.60799 0.59337
  -9   2   4  339.00   36.40  39 0.00982-0.76174 0.54268-0.30341 0.79933-0.78513
   9  -2  -4  364.50   37.80 146 0.30052 0.45181 0.43901-0.67843-0.70743 0.69281
  -9   2   3  702.10   54.30  42-0.05808-0.71629 0.59989-0.36063 0.73798-0.79431
   9  -2  -3  641.10   59.80 148 0.34355 0.43118 0.37558-0.61500-0.70708 0.76296
  -9   2   2  212.80   39.80  44-0.12447-0.67235 0.65064-0.41137 0.67054-0.79740
   9  -2  -2  186.20   33.00 151 0.39000 0.40712 0.30055-0.53997-0.70144 0.82783
  -9   2   1 1177.20   65.70  47-0.18788-0.63140 0.69411-0.45485 0.59897-0.79636
   9  -2  -1 1174.10   76.40 154 0.43857 0.38095 0.21336-0.45278-0.68850 0.88540
  -9   2   0  803.90   55.10  50-0.24732-0.59440 0.73015-0.49088 0.52511-0.79303
   9  -2   0  496.90   44.20 157 0.48741 0.35450 0.11398-0.35340-0.66606 0.93347
  -9   2  -1  340.00   43.70  52-0.30226-0.56191 0.75902-0.51975 0.45046-0.78890
   9   3  -7  201.80   50.00 124-0.17482 0.85998 0.86942-0.51030-0.49370 0.26756
  -9   3   7  215.50   38.80  30 0.20950-0.89408 0.34305 0.01585 0.93472-0.70893
   9  -3  -7  384.00   55.50 145 0.27442 0.41074 0.47502-0.83414-0.70564 0.47950
   9   3  -6  194.90   43.30 125-0.15385 0.86140 0.85975-0.50063-0.51064 0.35500
  -9   3   6  364.10   46.50  33 0.15703-0.86405 0.40022-0.04132 0.90589-0.75063
   9  -3  -6  300.50   41.10 146 0.30098 0.40657 0.43837-0.79749-0.70745 0.55182
   9   3  -5 1406.90   88.70 127-0.12419 0.85413 0.84455-0.48542-0.53335 0.44822
  -9   3   5 1583.30   72.50  35 0.10048-0.82995 0.45798-0.09908 0.86931-0.78458
   9  -3  -5 1587.80  107.30 148 0.33126 0.39869 0.39425-0.75338-0.70762 0.62249
  -9   3   4  226.70   42.40  38 0.04106-0.79298 0.51457-0.15567 0.82499-0.81079
   9  -3  -4  216.30   55.30 150 0.36488 0.38746 0.34204-0.70117-0.70522 0.69060
  -9   3   3  808.20   55.10  40-0.01986-0.75451 0.56834-0.20945 0.77345-0.82978
   9  -3  -3  786.60   75.50 152 0.40125 0.37348 0.28123-0.64036-0.69914 0.75503
  -9   3   2  640.80   63.30  43-0.08089-0.71593 0.61792-0.25902 0.71565-0.84251
   9  -3  -2  522.20   60.00 154 0.43954 0.35759 0.21152-0.57065-0.68815 0.81455
  -9   3   1  213.40   34.20  45-0.14078-0.67849 0.66230-0.30340 0.65281-0.85020
   9  -3  -1  260.20   41.10 156 0.47862 0.34090 0.13292-0.49205-0.67094 0.86784
  -9   3   0  242.10   41.50  48-0.19852-0.64321 0.70091-0.34201 0.58625-0.85417
   9  -3   0  116.90   33.30 159 0.51710 0.32481 0.04583-0.40495-0.64620 0.91361
  10   0  -7  638.40   67.70 136 0.09366 0.68504 0.68129-0.68129-0.65866 0.46223
  10   0  -6  103.40   43.30 138 0.12560 0.67550 0.64980-0.64980-0.67095 0.54503
  10   0  -5  646.20   53.40 140 0.16452 0.65897 0.60868-0.60868-0.68372 0.62831
 -10   0   5  529.60   35.70  48-0.20273-0.62027 0.70356-0.70356 0.58115-0.52619
  10   0  -4   25.10   37.50 142 0.21094 0.63494 0.55553-0.55553-0.69565 0.71074
 -10   0   4   35.20   17.30  51-0.27175-0.57370 0.74354-0.74354 0.49270-0.50827
  10   0  -3  -48.20   38.00 144 0.26513 0.60315 0.48740-0.48740-0.70466 0.79026
 -10   0   3    9.50   18.20  54-0.33212-0.53578 0.77273-0.77273 0.40707-0.49316
 -10   0   2   44.00   19.40  56-0.38419-0.50616 0.79293-0.79293 0.32605-0.48267
 -10   0   1  852.70   55.60  58-0.42897-0.48383 0.80597-0.80597 0.25016-0.47731
  10   1  -7  320.00   44.20 133 0.02335 0.75536 0.74373-0.62403-0.62606 0.42963
 -10   1   7  347.80   32.90  37 0.05781-0.83591 0.49904-0.37941 0.83808-0.64206
  10  -1  -7  234.50   53.60 140 0.16565 0.61305 0.60744-0.72715-0.68406 0.48763
  10   1  -6   63.60   36.70 135 0.05480 0.74630 0.71696-0.59725-0.64157 0.51565
 -10   1   6  138.00   25.90  40-0.01107-0.78948 0.56085-0.44122 0.78126-0.65577
  10  -1  -6   77.80   37.30 141 0.19678 0.60431 0.57223-0.69194-0.69240 0.56648
  10   1  -5  178.00   35.60 136 0.09442 0.72907 0.68056-0.56085-0.65897 0.60355
 -10   1   5  193.00   32.60  43-0.08053-0.74247 0.61763-0.49800 0.71601-0.66105
  10  -1  -5  179.20   33.00 143 0.23357 0.58992 0.52791-0.64762-0.70008 0.64467
  10   1  -4  414.20   52.40 139 0.14340 0.70249 0.63138-0.51167-0.67709 0.69219
 -10   1   4  408.50   37.50  45-0.14820-0.69725 0.66750-0.54786 0.64459-0.66016
  10  -1  -4  371.20   41.30 145 0.27605 0.56984 0.47282-0.59253-0.70579 0.72089
 -10   1   3  348.00   37.30  48-0.21227-0.65563 0.70948-0.58984 0.56949-0.65559
  10  -1  -3  246.70   46.70 147 0.32393 0.54435 0.40517-0.52488-0.70777 0.79337
 -10   1   2  528.00   46.70  51-0.27156-0.61878 0.74344-0.62381 0.49296-0.64959
  10  -1  -2  458.70   51.30 150 0.37650 0.51417 0.32313-0.44283-0.70369 0.85980
 -10   2   5  153.20   30.80  40-0.01483-0.80817 0.56407-0.32480 0.77794-0.72298
 -10   2   4 1330.60   86.10  42-0.07659-0.76886 0.61457-0.37530 0.71993-0.73550
  10  -2  -4 1179.50   73.40 148 0.33679 0.50909 0.38590-0.62532-0.70742 0.72251
 -10   2   3   24.60   21.00  45-0.13746-0.73043 0.65995-0.42069 0.65645-0.74255
   0   0   0    0.00    0.00
;
_shelx_hkl_checksum              9616
loop_
_space_group_symop_operation_xyz
'x, y, z'
'-x, y+1/2, -z'
loop_
_atom_site_label
_atom_site_type_symbol
_atom_site_fract_x
_atom_site_fract_y
_atom_site_fract_z
_atom_site_U_iso_or_equiv
_atom_site_adp_type
_atom_site_occupancy
_atom_site_site_symmetry_order
_atom_site_calc_flag
_atom_site_refinement_flags_posn
_atom_site_refinement_flags_adp
O1 O 0.4511(2) 0.2409(3) -0.05629(17) 0.0311(4) Uani 1 1 d . .
O2 O 0.7763(2) 0.4899(3) 0.31944(16) 0.0297(4) Uani 1 1 d . .
O5 O 0.4347(2) 0.1358(3) 0.34236(18) 0.0326(4) Uani 1 1 d . .
O3 O 0.3843(2) 0.2825(3) 0.13250(16) 0.0298(4) Uani 1 1 d . .
N1 N 0.6673(2) 0.2383(4) 0.14890(19) 0.0270(4) Uani 1 1 d . .
O4 O 0.9836(2) 0.6601(3) 0.2513(2) 0.0402(5) Uani 1 1 d . .
C1 C 0.4967(3) 0.2535(4) 0.0629(2) 0.0264(5) Uani 1 1 d . .
C2 C 0.2541(3) 0.1231(5) 0.3368(3) 0.0383(6) Uani 1 1 d . .
H2A H 0.2287 0.2430 0.3884 0.057 Uiso 1 1 calc R U
H2B H 0.2327 -0.0189 0.3718 0.057 Uiso 1 1 calc R U
H2C H 0.1799 0.1368 0.2463 0.057 Uiso 1 1 calc R U
C3 C 0.4777(3) 0.3143(4) 0.2743(2) 0.0267(5) Uani 1 1 d . .
C4 C 0.4302(3) 0.5435(5) 0.3126(3) 0.0317(5) Uani 1 1 d . .
H4A H 0.3046 0.5559 0.2890 0.047 Uiso 1 1 calc R U
H4B H 0.4736 0.6568 0.2666 0.047 Uiso 1 1 calc R U
H4C H 0.4822 0.5640 0.4066 0.047 Uiso 1 1 calc R U
C5 C 0.8706(3) 0.5196(4) 0.2338(3) 0.0300(5) Uani 1 1 d . .
C6 C 0.8066(3) 0.3551(4) 0.1230(3) 0.0288(5) Uani 1 1 d . .
C7 C 0.6757(3) 0.2822(4) 0.2850(2) 0.0264(5) Uani 1 1 d . .
C8 C 0.8636(3) 0.3345(5) 0.0200(3) 0.0388(6) Uani 1 1 d . .
H8A H 0.8075(14) 0.228(3) -0.0504(18) 0.047 Uiso 1 1 calc R U
H8B H 0.962(3) 0.426(2) 0.0143(3) 0.047 Uiso 1 1 calc R U
C9 C 0.7747(3) 0.1016(5) 0.3797(3) 0.0346(6) Uani 1 1 d . .
H9A H 0.8905 0.0854 0.3724 0.052 Uiso 1 1 calc R U
H9B H 0.7127 -0.0386 0.3580 0.052 Uiso 1 1 calc R U
H9C H 0.7840 0.1434 0.4689 0.052 Uiso 1 1 calc R U
loop_
_atom_site_aniso_label
_atom_site_aniso_U_11
_atom_site_aniso_U_22
_atom_site_aniso_U_33
_atom_site_aniso_U_23
_atom_site_aniso_U_13
_atom_site_aniso_U_12
O1 0.0354(9) 0.0309(9) 0.0262(9) -0.0039(7) 0.0085(7) -0.0016(8)
O2 0.0283(9) 0.0304(9) 0.0301(9) -0.0055(7) 0.0090(7) -0.0042(7)
O5 0.0292(9) 0.0343(10) 0.0352(10) 0.0059(8) 0.0116(8) -0.0009(8)
O3 0.0257(8) 0.0375(10) 0.0249(9) -0.0023(7) 0.0063(7) -0.0024(7)
N1 0.0279(10) 0.0274(10) 0.0249(10) -0.0011(9) 0.0075(8) -0.0001(9)
O4 0.0316(9) 0.0401(11) 0.0488(12) -0.0039(9) 0.0127(9) -0.0071(9)
C1 0.0290(11) 0.0221(11) 0.0269(12) -0.0010(10) 0.0072(9) -0.0006(10)
C2 0.0301(12) 0.0440(16) 0.0424(16) 0.0054(13) 0.0136(11) -0.0048(12)
C3 0.0275(10) 0.0296(13) 0.0218(11) 0.0009(9) 0.0063(9) -0.0022(10)
C4 0.0301(12) 0.0341(14) 0.0300(13) -0.0023(10) 0.0086(10) 0.0012(11)
C5 0.0232(11) 0.0287(12) 0.0365(13) 0.0003(11) 0.0073(10) 0.0014(10)
C6 0.0251(11) 0.0292(12) 0.0321(12) 0.0024(10) 0.0093(10) 0.0028(10)
C7 0.0267(10) 0.0265(12) 0.0249(11) -0.0021(9) 0.0066(9) -0.0005(10)
C8 0.0318(12) 0.0493(17) 0.0372(15) -0.0004(13) 0.0135(11) 0.0017(13)
C9 0.0305(13) 0.0368(14) 0.0352(14) 0.0064(11) 0.0086(11) 0.0039(11)
loop_
_atom_type_symbol
_atom_type_description
_atom_type_scat_dispersion_real
_atom_type_scat_dispersion_imag
_atom_type_scat_source
C C 0.0033 0.0016 'International Tables Vol C Tables 4.2.6.8 and 6.1.1.4'
H H 0.0000 0.0000 'International Tables Vol C Tables 4.2.6.8 and 6.1.1.4'
N N 0.0061 0.0033 'International Tables Vol C Tables 4.2.6.8 and 6.1.1.4'
O O 0.0106 0.0060 'International Tables Vol C Tables 4.2.6.8 and 6.1.1.4'
loop_
_geom_angle_atom_site_label_1
_geom_angle_atom_site_label_2
_geom_angle_atom_site_label_3
_geom_angle
C5 O2 C7 108.78(18)
C3 O5 C2 115.71(19)
C1 O3 C3 111.71(17)
C1 N1 C6 121.0(2)
C1 N1 C7 111.66(19)
C6 N1 C7 108.46(19)
O1 C1 O3 123.7(2)
O1 C1 N1 126.5(2)
O3 C1 N1 109.79(19)
O5 C3 O3 107.88(18)
O5 C3 C4 115.15(19)
O3 C3 C4 107.75(19)
O5 C3 C7 106.44(19)
O3 C3 C7 103.44(18)
C4 C3 C7 115.4(2)
O4 C5 O2 122.4(2)
O4 C5 C6 129.1(2)
O2 C5 C6 108.5(2)
C8 C6 N1 128.3(3)
C8 C6 C5 126.4(2)
N1 C6 C5 105.2(2)
N1 C7 O2 104.44(18)
N1 C7 C9 112.6(2)
O2 C7 C9 107.61(19)
N1 C7 C3 103.02(18)
O2 C7 C3 112.50(18)
C9 C7 C3 116.1(2)
loop_
_geom_bond_atom_site_label_1
_geom_bond_atom_site_label_2
_geom_bond_distance
O1 C1 1.204(3)
O2 C5 1.367(3)
O2 C7 1.456(3)
O5 C3 1.388(3)
O5 C2 1.431(3)
O3 C1 1.346(3)
O3 C3 1.466(3)
N1 C1 1.385(3)
N1 C6 1.415(3)
N1 C7 1.451(3)
O4 C5 1.202(3)
C3 C4 1.504(4)
C3 C7 1.567(3)
C5 C6 1.490(4)
C6 C8 1.320(4)
C7 C9 1.512(3)
