#------------------------------------------------------------------------------
#$Date: 2016-06-26 05:10:45 +0300 (Sun, 26 Jun 2016) $
#$Revision: 183957 $
#$URL: file:///home/coder/svn-repositories/cod/cif/1/54/35/1543540.cif $
#------------------------------------------------------------------------------
#
# This file is available in the Crystallography Open Database (COD),
# http://www.crystallography.net/. The original data for this entry
# were provided by IUCr Journals, http://journals.iucr.org/.
#
# The file may be used within the scientific community so long as
# proper attribution is given to the journal article from which the
# data were obtained.
#
data_1543540
loop_
_publ_author_name
'Sebhaoui, Jihad'
'El Bakri, Youness'
'Rayni, Ibtissam'
'Essassi, El Mokhtar'
'Mague, Joel T.'
_publ_section_title
;
 4-(2-Oxopropyl)-1,3-bis(prop-2-yn-1-yl)-2,3,4,5-tetrahydro-1,5-benzodiazepin-2(1<i>H</i>)-one
;
_journal_coeditor_code           SJ4049
_journal_issue                   6
_journal_name_full               IUCrData
_journal_page_first              x161013
_journal_paper_doi               10.1107/S2414314616010130
_journal_volume                  1
_journal_year                    2016
_chemical_formula_iupac          'C18 H16 N2 O2'
_chemical_formula_moiety         'C18 H16 N2 O2'
_chemical_formula_sum            'C18 H16 N2 O2'
_chemical_formula_weight         292.33
_chemical_name_systematic
4-(2-Oxopropylidene)-1,3-bis(prop-2-yn-1-yl)-2,3,4,5-tetrahydro-1<i>H</i>-1,5-benzodiazepin-2-one
_space_group_crystal_system      triclinic
_space_group_IT_number           2
_space_group_name_Hall           '-P 1'
_space_group_name_H-M_alt        'P -1'
_symmetry_space_group_name_Hall  '-P 1'
_symmetry_space_group_name_H-M   'P -1'
_atom_sites_solution_hydrogens   mixed
_atom_sites_solution_primary     direct
_atom_sites_solution_secondary   difmap
_audit_creation_method           SHELXL-2014/7
_cell_angle_alpha                68.8030(10)
_cell_angle_beta                 78.5200(10)
_cell_angle_gamma                72.9800(10)
_cell_formula_units_Z            2
_cell_length_a                   8.6905(2)
_cell_length_b                   9.0249(3)
_cell_length_c                   10.8240(3)
_cell_measurement_reflns_used    5019
_cell_measurement_temperature    150(2)
_cell_measurement_theta_max      72.4006
_cell_measurement_theta_min      5.3525
_cell_volume                     752.69(4)
_computing_cell_refinement
;
<i>SAINT</i> (Bruker, 2016)
;
_computing_data_collection
;
<i>APEX3</i> (Bruker, 2016)
;
_computing_data_reduction
;
<i>SAINT</i> (Bruker, 2016)
;
_computing_molecular_graphics
;
<i>DIAMOND</i> (Brandenburg & Putz, 2012) and
<i>Mercury</i> (Macrae <i>et al.</i>, 2008)
;
_computing_publication_material
;
<i>SHELXTL</i> (Sheldrick, 2008)
;
_computing_structure_refinement
;
<i>SHELXL2014</i> (Sheldrick, 2015<i>b</i>)
;
_computing_structure_solution
;
<i>SHELXT</i> (Sheldrick, 2015<i>a</i>)
;
_diffrn_ambient_temperature      150(2)
_diffrn_detector_area_resol_mean 10.4167
_diffrn_measured_fraction_theta_full 0.963
_diffrn_measured_fraction_theta_max 0.941
_diffrn_measurement_device_type  'Bruker D8 VENTURE PHOTON 100 CMOS'
_diffrn_measurement_method       '\w scans'
_diffrn_radiation_monochromator  mirror
_diffrn_radiation_type           CuK\a
_diffrn_radiation_wavelength     1.54178
_diffrn_reflns_av_R_equivalents  0.0258
_diffrn_reflns_limit_h_max       10
_diffrn_reflns_limit_h_min       -10
_diffrn_reflns_limit_k_max       11
_diffrn_reflns_limit_k_min       -11
_diffrn_reflns_limit_l_max       13
_diffrn_reflns_limit_l_min       -12
_diffrn_reflns_number            5877
_diffrn_reflns_theta_full        67.000
_diffrn_reflns_theta_max         72.394
_diffrn_reflns_theta_min         5.352
_exptl_absorpt_coefficient_mu    0.686
_exptl_absorpt_correction_T_max  0.92
_exptl_absorpt_correction_T_min  0.82
_exptl_absorpt_correction_type   multi-scan
_exptl_absorpt_process_details
;
(<i>SADABS</i>, Bruker, 2016)
;
_exptl_crystal_colour            colourless
_exptl_crystal_density_diffrn    1.290
_exptl_crystal_density_method    'not measured'
_exptl_crystal_description       block
_exptl_crystal_F_000             308
_exptl_crystal_size_max          0.170
_exptl_crystal_size_mid          0.130
_exptl_crystal_size_min          0.130
_refine_diff_density_max         0.204
_refine_diff_density_min         -0.218
_refine_ls_extinction_coef       0.0185(19)
_refine_ls_extinction_expression Fc^*^=kFc[1+0.001xFc^2^\l^3^/sin(2\q)]^-1/4^
_refine_ls_extinction_method
;
<i>SHELXL2014</i> (Sheldrick, 2015<i>b</i>)
;
_refine_ls_goodness_of_fit_ref   1.048
_refine_ls_hydrogen_treatment    mixed
_refine_ls_matrix_type           full
_refine_ls_number_parameters     205
_refine_ls_number_reflns         2802
_refine_ls_number_restraints     0
_refine_ls_restrained_S_all      1.048
_refine_ls_R_factor_all          0.0412
_refine_ls_R_factor_gt           0.0381
_refine_ls_shift/su_max          0.000
_refine_ls_shift/su_mean         0.000
_refine_ls_structure_factor_coef Fsqd
_refine_ls_weighting_details
'w=1/[\s^2^(Fo^2^)+(0.0623P)^2^+0.1660P] where P=(Fo^2^+2Fc^2^)/3'
_refine_ls_weighting_scheme      calc
_refine_ls_wR_factor_gt          0.1043
_refine_ls_wR_factor_ref         0.1074
_reflns_number_gt                2554
_reflns_number_total             2802
_reflns_threshold_expression     'I > 2\s(I)'
_cod_data_source_file            sj4049sup1.cif
_cod_data_source_block           I
_cod_database_code               1543540
_shelx_space_group_comment
;
The symmetry employed for this shelxl refinement is uniquely defined
by the following loop, which should always be used as a source of
symmetry information in preference to the above space-group names.
They are only intended as comments.
;
_shelx_estimated_absorpt_t_min   0.892
_shelx_estimated_absorpt_t_max   0.916
_shelx_hkl_file
;
  -1   0   0    1.61    0.06
   1   0   0    1.62    0.06
  -2   0   0  284.27   10.21
   2   0   0  312.85   10.22
  -3   0   0  189.64    6.48
   3   0   0  187.09    6.43
  -4   0   0    0.75    0.08
   4   0   0    0.69    0.09
  -5   0   0   20.04    0.73
   5   0   0   19.81    0.74
   6   0   0    0.02    0.11
   6   0   0    0.57    0.14
   6   0   0    0.07    0.07
   7   0   0   30.35    1.07
   7   0   0   30.04    1.09
   7   0   0   29.07    1.11
  -8   0   0   11.71    0.46
   8   0   0   11.60    0.46
   8   0   0   11.50    0.48
  -9   0   0    1.07    0.10
   9   0   0    1.27    0.12
 -10   0   0    1.34    0.09
  10   0   0    1.23    0.10
   9  -1   0   16.73    0.62
  -9   1   0   16.22    0.60
   8  -1   0    0.42    0.12
   8  -1   0    0.21    0.08
  -8   1   0    0.07    0.07
   7  -1   0   41.62    1.46
   7  -1   0   41.74    1.49
   7  -1   0   40.57    1.49
   6  -1   0    0.18    0.08
   6  -1   0    0.05    0.09
   6  -1   0    0.53    0.13
   5  -1   0    4.03    0.22
   5  -1   0    3.92    0.26
   5  -1   0    4.01    0.22
  -5   1   0    3.59    0.22
   4  -1   0    1.07    0.11
  -4   1   0    0.97    0.09
   3  -1   0  145.64    4.72
  -3   1   0  130.69    4.72
   2  -1   0    1.84    0.08
  -2   1   0    1.80    0.08
   1  -1   0  152.13    4.88
  -1   1   0  133.47    4.88
   0   1   0   11.34    0.39
  -1  -1   0  137.13    4.83
   1   1   0  145.28    4.85
  -2  -1   0  168.47    5.83
   2   1   0  171.90    5.85
  -3  -1   0    6.94    0.27
   3   1   0    7.45    0.27
  -4  -1   0    0.24    0.06
   4   1   0    0.25    0.06
  -5  -1   0   80.21    2.78
   6   1   0   13.82    0.53
   6   1   0   13.95    0.54
   7   1   0    5.08    0.26
   7   1   0    4.94    0.25
  -8  -1   0   13.67    0.52
   8   1   0   13.38    0.52
   8   1   0   13.07    0.53
  -9  -1   0   17.97    0.65
   9   1   0   17.31    0.67
 -10  -1   0    0.04    0.04
  10   1   0    0.01    0.04
   9  -2   0   37.72    1.34
  -9   2   0   39.78    1.34
  -9   2   0   37.16    1.34
   8  -2   0    0.68    0.11
   8  -2   0    0.67    0.11
  -8   2   0    0.68    0.10
   7  -2   0    7.57    0.37
   7  -2   0    7.49    0.35
   7  -2   0    7.85    0.33
  -7   2   0    7.48    0.33
   6  -2   0   39.68    1.44
   6  -2   0   39.27    1.43
   6  -2   0   40.36    1.41
   5  -2   0    1.50    0.17
   5  -2   0    1.96    0.19
   5  -2   0    1.78    0.16
  -4   2   0  107.28    3.68
   3  -2   0    0.14    0.03
  -3   2   0    0.16    0.05
  -1  -2   0  335.62   11.66
   1   2   0  346.36   11.66
  -2  -2   0   77.56    2.68
   2   2   0   79.14    2.68
  -3  -2   0   90.14    3.13
   3   2   0   92.20    3.13
  -4  -2   0   58.98    1.97
   4   2   0   54.77    1.98
  -5  -2   0   -0.04    0.06
   6   2   0   10.32    0.41
   6   2   0    9.78    0.40
  -7  -2   0   42.76    1.48
   7   2   0   41.17    1.47
   7   2   0   41.19    1.49
  -8  -2   0   19.36    0.72
   8   2   0   19.10    0.73
   8   2   0   19.59    0.72
  -9  -2   0    1.16    0.12
   9   2   0    1.10    0.12
 -10  -2   0    0.18    0.05
  10   2   0    0.27    0.08
   9  -3   0    2.92    0.14
  -9   3   0    2.93    0.15
   8  -3   0    6.36    0.28
   8  -3   0    6.17    0.27
  -8   3   0    6.69    0.27
   7  -3   0    3.75    0.21
   7  -3   0    3.89    0.20
   7  -3   0    3.56    0.23
  -7   3   0    3.96    0.20
   6  -3   0    0.23    0.09
   6  -3   0    0.15    0.08
   6  -3   0    0.06    0.07
   5  -3   0    4.32    0.24
   5  -3   0    4.81    0.23
   4  -3   0    4.44    0.24
   4  -3   0    4.90    0.27
   4  -3   0    4.89    0.25
  -1  -3   0    0.70    0.04
   1   3   0    0.67    0.05
  -2  -3   0    0.07    0.03
   2   3   0    0.06    0.02
  -3  -3   0   97.59    3.27
  -3  -3   0   96.37    3.27
   3   3   0   91.84    3.27
  -4  -3   0    0.87    0.09
  -4  -3   0    0.99    0.10
  -5  -3   0    2.74    0.16
  -6  -3   0    5.68    0.29
   6   3   0    5.67    0.26
  -7  -3   0    0.65    0.15
   7   3   0    0.93    0.14
   7   3   0    1.02    0.12
  -8  -3   0   47.00    1.63
   8   3   0   45.36    1.62
   8   3   0   46.24    1.64
  -9  -3   0    0.29    0.07
   9   3   0    0.33    0.10
 -10  -3   0    2.76    0.16
  10   3   0    2.88    0.15
   8  -4   0    5.85    0.24
   8  -4   0    6.22    0.25
  -8   4   0    5.75    0.25
   7  -4   0   13.75    0.53
   7  -4   0   14.44    0.55
  -7   4   0   14.18    0.53
   6  -4   0    8.84    0.40
   6  -4   0    8.96    0.36
   6  -4   0    8.51    0.38
  -6   4   0    8.48    0.37
   5  -4   0   31.16    1.13
   5  -4   0   29.27    1.10
   5  -4   0   30.02    1.09
   4  -4   0    2.01    0.19
   4  -4   0    1.83    0.15
   4  -4   0    1.91    0.16
   3  -4   0   87.16    3.02
   3  -4   0   88.74    3.03
   3  -4   0   85.11    3.01
   1  -4   0   58.32    2.02
   0  -4   0   12.17    0.45
  -1  -4   0   83.76    2.82
  -1  -4   0   81.49    2.84
   1   4   0   82.17    2.82
  -2  -4   0   74.39    2.62
  -2  -4   0   76.38    2.62
   2   4   0   77.45    2.62
  -3  -4   0   64.26    2.15
  -3  -4   0   64.61    2.15
   3   4   0   57.04    2.15
  -4  -4   0    0.79    0.08
  -4  -4   0    0.74    0.13
  -4  -4   0    0.57    0.12
  -5  -4   0   16.32    0.61
  -5  -4   0   17.09    0.61
   5   4   0   16.24    0.61
  -6  -4   0   95.46    3.29
   6   4   0   95.16    3.28
   7   4   0   15.53    0.58
   8   4   0   12.73    0.48
   8   4   0   11.24    0.46
   9   4   0    0.13    0.05
  10   4   0    0.02    0.04
   7  -5   0    0.11    0.05
   7  -5   0    0.11    0.04
   6  -5   0    0.03    0.05
   6  -5   0    0.08    0.06
   5  -5   0    3.38    0.19
   5  -5   0    3.28    0.23
   5  -5   0    3.43    0.20
   4  -5   0    1.85    0.15
   4  -5   0    1.67    0.16
   4  -5   0    1.86    0.19
   3  -5   0    5.27    0.29
   3  -5   0    5.14    0.26
   3  -5   0    4.90    0.24
   2  -5   0    6.53    0.30
   2  -5   0    6.46    0.34
   1  -5   0  111.42    3.96
   1  -5   0  115.43    3.95
   1  -5   0  118.35    3.97
   0  -5   0   44.54    1.58
   0  -5   0   45.21    1.59
   0  -5   0   45.85    1.58
  -1  -5   0   23.14    0.83
  -2  -5   0   48.46    1.67
  -2  -5   0   46.73    1.68
  -2  -5   0   48.50    1.67
  -3  -5   0   11.78    0.47
  -3  -5   0   11.66    0.46
  -3  -5   0   12.62    0.45
  -3  -5   0   11.39    0.45
  -4  -5   0    8.89    0.35
  -4  -5   0    8.98    0.36
  -5  -5   0   15.50    0.59
  -5  -5   0   16.06    0.59
  -6  -5   0   39.94    1.38
   6   5   0   37.95    1.37
  -7  -5   0    7.77    0.35
   7   5   0    8.01    0.33
   8   5   0    7.51    0.32
   8   5   0    8.24    0.34
   9   5   0    3.51    0.18
  10   5   0    1.79    0.11
   6  -6   0    4.36    0.20
   6  -6   0    4.41    0.19
   5  -6   0    9.13    0.36
   5  -6   0    8.97    0.37
   4  -6   0    1.17    0.13
   4  -6   0    1.23    0.12
   3  -6   0   43.16    1.54
   3  -6   0   42.48    1.51
   3  -6   0   42.51    1.53
   2  -6   0    1.40    0.14
   2  -6   0    1.30    0.12
   2  -6   0    0.94    0.21
   1  -6   0   54.83    1.89
   1  -6   0   53.39    1.88
   1  -6   0   52.65    1.87
   0  -6   0    0.51    0.09
   0  -6   0    0.50    0.11
   0  -6   0    0.66    0.11
  -1  -6   0    0.26    0.07
  -1  -6   0    0.36    0.08
  -1  -6   0    0.23    0.06
  -2  -6   0   42.88    1.53
  -2  -6   0   43.57    1.53
  -2  -6   0   43.95    1.53
  -3  -6   0    0.07    0.06
  -3  -6   0    0.14    0.06
  -3  -6   0    0.11    0.04
  -4  -6   0    0.69    0.09
  -4  -6   0    0.75    0.11
  -5  -6   0  169.94    5.68
  -5  -6   0  160.70    5.67
  -6  -6   0   10.07    0.40
   6   6   0    9.61    0.39
  -7  -6   0    8.25    0.35
   7   6   0    7.95    0.32
   8   6   0    0.16    0.05
   9   6   0    0.03    0.04
   5  -7   0    1.56    0.09
   5  -7   0    1.41    0.10
   4  -7   0   28.84    1.05
   4  -7   0   30.00    1.05
   3  -7   0   20.12    0.73
   3  -7   0   19.18    0.73
   2  -7   0   10.09    0.40
   2  -7   0   10.07    0.41
   1  -7   0    3.81    0.20
   1  -7   0    4.01    0.21
   0  -7   0   21.08    0.79
   0  -7   0   20.64    0.77
   0  -7   0   21.79    0.78
  -1  -7   0    2.11    0.14
  -1  -7   0    2.27    0.15
  -1  -7   0    2.07    0.14
  -2  -7   0    1.24    0.12
  -2  -7   0    1.26    0.11
  -2  -7   0    1.24    0.12
  -3  -7   0    6.85    0.29
  -3  -7   0    6.70    0.30
  -3  -7   0    7.19    0.30
  -4  -7   0   -0.02    0.04
  -4  -7   0   -0.04    0.05
  -5  -7   0    0.05    0.05
  -5  -7   0    0.13    0.06
  -6  -7   0   21.96    0.84
  -6  -7   0   22.89    0.83
   6   7   0   23.53    0.82
  -7  -7   0    7.15    0.32
   7   7   0    7.76    0.30
   8   7   0    2.02    0.12
   9   7   0    0.23    0.07
   4  -8   0   24.70    0.87
   4  -8   0   24.83    0.88
   3  -8   0    0.29    0.07
   3  -8   0    0.37    0.06
   2  -8   0    3.15    0.16
   2  -8   0    3.09    0.16
   1  -8   0    5.13    0.23
   1  -8   0    5.06    0.24
   0  -8   0    7.76    0.35
   0  -8   0    8.36    0.34
   0  -8   0    8.08    0.33
  -1  -8   0   17.50    0.66
  -1  -8   0   17.88    0.66
  -1  -8   0   17.41    0.65
  -2  -8   0   12.92    0.51
  -2  -8   0   13.09    0.50
  -2  -8   0   13.17    0.50
  -3  -8   0   34.92    1.30
  -3  -8   0   36.40    1.29
  -3  -8   0   37.80    1.28
  -4  -8   0   33.57    1.16
  -4  -8   0   31.68    1.17
  -5  -8   0    0.66    0.10
  -5  -8   0    0.61    0.09
  -6  -8   0   19.39    0.73
   6   8   0   20.26    0.71
  -7  -8   0    0.60    0.12
   8   8   0    0.09    0.04
   2  -9   0    0.04    0.03
   2  -9   0    0.04    0.03
   1  -9   0    0.52    0.06
   1  -9   0    0.53    0.07
   0  -9   0    0.51    0.07
   0  -9   0    0.42    0.07
  -1  -9   0    3.83    0.18
  -1  -9   0    3.87    0.18
  -1  -9   0    4.13    0.22
  -2  -9   0    5.08    0.24
  -2  -9   0    4.98    0.22
  -2  -9   0    5.27    0.22
  -3  -9   0    5.79    0.25
  -3  -9   0    6.16    0.27
  -4  -9   0    0.34    0.07
  -4  -9   0    0.49    0.09
  -5  -9   0   17.61    0.64
  -5  -9   0   17.54    0.65
   5   9   0   17.79    0.63
  -6  -9   0    0.47    0.10
   6   9   0    0.44    0.10
   0 -10   0    4.06    0.16
  -1 -10   0    0.73    0.06
  -2 -10   0    9.24    0.34
  -3 -10   0    0.30    0.06
  -4 -10   0    9.69    0.36
   4  10   0    9.68    0.35
  -3 -10   1    8.78    0.32
  -2 -10   1    0.81    0.07
  -5  -9   1    9.82    0.38
  -4  -9   1    2.92    0.14
  -4  -9   1    2.79    0.16
  -3  -9   1    4.37    0.21
  -3  -9   1    4.13    0.19
  -2  -9   1   26.31    0.93
  -2  -9   1   26.20    0.91
  -2  -9   1   25.24    0.92
  -1  -9   1    0.01    0.04
  -1  -9   1    0.00    0.03
   0  -9   1    0.27    0.06
   0  -9   1    0.47    0.06
   1  -9   1    1.08    0.08
   1  -9   1    0.96    0.07
   2  -9   1    0.46    0.06
   2  -9   1    0.54    0.06
  -7  -8   1    4.11    0.21
  -6  -8   1    3.49    0.18
   5   8  -1    3.16    0.16
  -5  -8   1    2.80    0.17
  -5  -8   1    3.06    0.15
  -4  -8   1   27.90    1.06
  -4  -8   1   30.61    1.04
  -3  -8   1    8.85    0.34
  -3  -8   1    8.03    0.35
  -2  -8   1    1.87    0.13
  -2  -8   1    1.98    0.13
  -2  -8   1    1.89    0.14
  -1  -8   1    1.97    0.13
  -1  -8   1    1.56    0.15
  -1  -8   1    1.87    0.12
   0  -8   1    7.36    0.31
   0  -8   1    7.57    0.31
   1  -8   1   14.43    0.54
   1  -8   1   14.87    0.55
   2  -8   1    1.58    0.11
   2  -8   1    1.58    0.10
   3  -8   1    1.67    0.10
   3  -8   1    1.56    0.10
   4  -8   1   20.12    0.71
   4  -8   1   20.06    0.71
   8   7  -1    0.44    0.07
  -7  -7   1    4.86    0.23
  -6  -7   1    3.26    0.18
  -5  -7   1    1.24    0.12
  -5  -7   1    1.39    0.12
  -4  -7   1   26.25    0.98
  -4  -7   1   27.80    0.97
  -3  -7   1    7.07    0.30
  -3  -7   1    7.03    0.29
  -3  -7   1    6.93    0.31
  -2  -7   1   11.02    0.43
  -2  -7   1   10.61    0.43
  -2  -7   1   10.59    0.42
  -1  -7   1    0.37    0.10
  -1  -7   1    0.28    0.07
  -1  -7   1    0.36    0.09
   0  -7   1    0.04    0.06
   0  -7   1    0.06    0.06
   0  -7   1   -0.09    0.06
   1  -7   1   23.32    0.85
   1  -7   1   22.42    0.83
   2  -7   1    6.84    0.29
   2  -7   1    6.84    0.30
   3  -7   1    3.24    0.16
   3  -7   1    2.98    0.17
   4  -7   1    1.92    0.12
   4  -7   1    1.94    0.12
   5  -7   1    7.00    0.27
   5  -7   1    7.04    0.28
   9   6  -1    0.05    0.04
   8   6  -1    5.53    0.24
  -7  -6   1    0.17    0.07
   6   6  -1    3.57    0.19
  -6  -6   1    3.14    0.18
  -5  -6   1  212.89    7.21
  -5  -6   1  207.48    7.20
  -4  -6   1   37.53    1.31
  -4  -6   1   35.74    1.30
  -3  -6   1   10.91    0.42
  -3  -6   1   10.40    0.42
  -2  -6   1    2.22    0.15
  -2  -6   1    2.36    0.16
  -2  -6   1    2.32    0.14
  -1  -6   1    2.77    0.17
  -1  -6   1    2.93    0.17
  -1  -6   1    2.77    0.16
   0  -6   1    0.92    0.11
   0  -6   1    0.80    0.12
   0  -6   1    0.93    0.12
   1  -6   1   12.45    0.49
   1  -6   1   12.80    0.50
   1  -6   1   12.45    0.49
   2  -6   1   14.98    0.63
   2  -6   1   15.37    0.58
   2  -6   1   15.78    0.60
   3  -6   1    9.89    0.41
   3  -6   1    9.59    0.39
   3  -6   1    9.53    0.43
   4  -6   1    4.84    0.24
   4  -6   1    4.94    0.27
   4  -6   1    4.76    0.23
   5  -6   1    0.03    0.05
   5  -6   1   -0.01    0.04
   6  -6   1    0.03    0.04
   6  -6   1   -0.04    0.03
   9   5  -1    0.46    0.08
   8   5  -1    2.68    0.16
  -7  -5   1    6.05    0.29
   6   5  -1    7.92    0.34
  -6  -5   1    8.31    0.34
  -5  -5   1   36.78    1.31
  -5  -5   1   37.37    1.32
  -4  -5   1   16.70    0.62
  -4  -5   1   16.94    0.63
  -3  -5   1   13.03    0.49
  -3  -5   1   12.91    0.49
  -3  -5   1   12.27    0.48
  -2  -5   1    3.72    0.17
  -2  -5   1    3.83    0.19
  -2  -5   1    3.32    0.20
  -1  -5   1   10.31    0.40
  -1  -5   1   10.77    0.42
  -1  -5   1   10.33    0.41
   0  -5   1    0.08    0.07
   0  -5   1    0.11    0.06
   0  -5   1    0.11    0.04
   1  -5   1   26.13    0.94
   1  -5   1   25.35    0.94
   1  -5   1   27.45    0.96
   2  -5   1    0.06    0.06
   2  -5   1    0.02    0.07
   2  -5   1    0.08    0.10
   3  -5   1    4.03    0.25
   3  -5   1    4.16    0.21
   3  -5   1    4.24    0.23
   4  -5   1   49.03    1.74
   4  -5   1   48.99    1.75
   4  -5   1   48.37    1.72
   5  -5   1    0.14    0.07
   5  -5   1    0.10    0.08
   5  -5   1    0.05    0.06
   6  -5   1    0.40    0.09
   6  -5   1    0.38    0.08
   7  -5   1    1.32    0.09
   7  -5   1    1.24    0.10
  10   4  -1    0.31    0.07
   9   4  -1    1.65    0.12
   8   4  -1    8.70    0.37
  -6  -4   1   25.59    0.93
   5   4  -1    2.27    0.19
  -5  -4   1    2.78    0.16
  -5  -4   1    2.83    0.16
  -4  -4   1   15.12    0.55
  -4  -4   1   14.47    0.55
  -3  -4   1    1.00    0.12
  -3  -4   1    0.97    0.08
   2   4  -1   14.03    0.54
  -2  -4   1   14.74    0.54
  -2  -4   1   15.04    0.54
   1   4  -1   12.23    0.46
  -1  -4   1   12.77    0.46
   0   4  -1   37.61    1.25
   0   4  -1   35.05    1.25
   0  -4   1   35.85    1.26
   1  -4   1   22.89    0.81
   2  -4   1   49.64    1.72
   2  -4   1   48.71    1.73
   3  -4   1    2.22    0.15
   3  -4   1    2.20    0.21
   3  -4   1    1.68    0.15
   4  -4   1    4.08    0.22
   4  -4   1    4.25    0.25
   4  -4   1    3.87    0.21
   5  -4   1    8.71    0.36
   5  -4   1    8.87    0.40
   5  -4   1    8.35    0.38
   6  -4   1    0.57    0.11
   6  -4   1    0.61    0.15
   6  -4   1    0.75    0.10
  -7   4  -1    1.18    0.13
   7  -4   1    1.20    0.11
   7  -4   1    1.26    0.10
  -8   4  -1    0.81    0.14
   8  -4   1    0.66    0.08
   8  -4   1    0.81    0.08
  10   3  -1    0.92    0.09
   9   3  -1    7.53    0.32
  -9  -3   1    7.43    0.30
   8   3  -1    3.70    0.21
  -8  -3   1    4.22    0.22
   7   3  -1    0.06    0.06
  -7  -3   1    0.06    0.09
  -6  -3   1    2.87    0.23
  -6  -3   1    3.51    0.19
  -5  -3   1   19.68    0.72
  -4  -3   1    1.15    0.10
  -4  -3   1    1.00    0.12
   3   3  -1    9.33    0.37
  -3  -3   1    9.43    0.37
  -3  -3   1    9.85    0.36
   2   3  -1    0.18    0.04
  -2  -3   1    0.13    0.03
  -2  -3   1    0.09    0.03
   1   3  -1   78.71    2.68
  -1  -3   1   79.04    2.68
  -1  -3   1   76.76    2.69
   0   3  -1    9.98    0.36
   4  -3   1    3.37    0.23
   4  -3   1    3.46    0.19
   4  -3   1    2.94    0.20
   4  -3   1    3.39    0.21
   5  -3   1    2.76    0.19
   5  -3   1    2.59    0.21
   5  -3   1    2.43    0.16
   6  -3   1    0.01    0.07
   6  -3   1    0.05    0.08
   6  -3   1    0.04    0.07
   7  -3   1    7.95    0.35
   7  -3   1    7.96    0.34
   7  -3   1    8.30    0.37
  -8   3  -1    2.64    0.15
   8  -3   1    2.47    0.15
   8  -3   1    2.60    0.14
  -9   3  -1    0.71    0.10
  -9   3  -1    0.59    0.10
   9  -3   1    0.59    0.08
  10   2  -1    0.01    0.04
 -10  -2   1   -0.05    0.05
   9   2  -1    6.69    0.30
  -9  -2   1    6.90    0.28
   8   2  -1    3.64    0.21
  -8  -2   1    3.48    0.20
   7   2  -1    3.40    0.20
  -7  -2   1    3.57    0.20
   6   2  -1    1.75    0.15
  -6  -2   1    1.58    0.16
  -5  -2   1    0.02    0.05
  -4  -2   1   49.25    1.73
  -4  -2   1   50.44    1.74
   3   2  -1   17.52    0.63
  -3  -2   1   17.43    0.63
   2   2  -1   25.66    0.88
  -2  -2   1   24.42    0.88
   1   2  -1  105.03    3.49
  -1  -2   1   98.98    3.49
   0   2  -1  112.70    3.86
  -1   2  -1   23.41    0.81
  -1   2  -1   23.46    0.81
  -2   2  -1   10.06    0.36
  -3   2  -1   23.71    0.83
   3  -2   1   23.78    0.83
  -4   2  -1   56.86    2.18
   4  -2   1   65.30    2.21
   4  -2   1   66.29    2.21
   4  -2   1   63.83    2.20
   5  -2   1    1.28    0.16
   5  -2   1    1.18    0.14
   5  -2   1    1.34    0.14
   5  -2   1    1.35    0.19
   6  -2   1    0.22    0.08
   6  -2   1    0.44    0.14
   7  -2   1    2.48    0.21
   7  -2   1    2.32    0.18
   7  -2   1    2.44    0.17
  -8   2  -1   -0.09    0.05
   8  -2   1   -0.04    0.05
   8  -2   1    0.05    0.06
  -9   2  -1    2.02    0.12
   9  -2   1    2.02    0.13
   9  -2   1    1.88    0.13
  10   1  -1    5.97    0.25
 -10  -1   1    6.04    0.24
   9   1  -1    1.18    0.12
  -9  -1   1    1.11    0.11
   8   1  -1    2.95    0.19
  -8  -1   1    3.07    0.18
   7   1  -1    2.07    0.17
  -7  -1   1    2.14    0.15
   6   1  -1   25.06    0.93
  -6  -1   1   25.76    0.92
   5   1  -1   84.37    3.00
  -5  -1   1   88.90    3.01
   4   1  -1    4.28    0.21
  -4  -1   1    4.75    0.20
   3   1  -1    0.14    0.05
  -3  -1   1    0.19    0.04
   2   1  -1   31.32    1.04
  -2  -1   1   28.40    1.03
   1   1  -1   16.31    0.55
  -1  -1   1   15.14    0.55
   0   1  -1  144.87    4.97
  -1   1  -1  356.43   12.17
  -2   1  -1  106.52    3.65
   2  -1   1  106.21    3.65
  -3   1  -1    0.91    0.06
   3  -1   1    0.98    0.07
  -4   1  -1   12.14    0.43
   4  -1   1   11.11    0.44
  -5   1  -1    0.75    0.17
   5  -1   1    0.65    0.18
   5  -1   1    0.75    0.16
   5  -1   1    0.93    0.12
   5  -1   1    0.85    0.13
   6  -1   1   81.44    2.87
   6  -1   1   84.08    2.89
   7  -1   1    0.75    0.14
   7  -1   1    0.62    0.12
   7  -1   1    0.65    0.12
  -8   1  -1    2.77    0.17
   8  -1   1    2.97    0.19
   8  -1   1    2.52    0.21
   8  -1   1    2.87    0.17
  -9   1  -1    6.50    0.26
   9  -1   1    6.26    0.27
   9  -1   1    6.13    0.26
  10   0  -1    0.13    0.05
 -10   0   1    0.10    0.04
   9   0  -1    1.25    0.12
  -9   0   1    1.35    0.11
   8   0  -1    1.19    0.14
  -8   0   1    1.14    0.12
   7   0  -1    0.20    0.07
   7   0  -1    0.34    0.11
  -7   0   1    0.07    0.06
   6   0  -1   22.15    0.87
   6   0  -1   23.23    0.84
   6   0  -1   21.93    0.83
   5   0  -1    0.02    0.08
  -5   0   1    0.17    0.09
   4   0  -1    4.93    0.22
  -4   0   1    4.80    0.21
   3   0  -1   18.99    0.66
  -3   0   1   18.23    0.66
   2   0  -1   76.89    2.56
  -2   0   1   72.45    2.56
   1   0  -1   46.92    1.54
  -1   0   1   42.35    1.53
  -1   0  -1   12.71    0.45
   1   0   1   13.18    0.45
  -2   0  -1    0.53    0.04
   2   0   1    0.58    0.04
  -3   0  -1   83.84    2.91
   3   0   1   86.18    2.91
  -4   0  -1    6.41    0.25
   4   0   1    6.21    0.26
  -5   0  -1    1.61    0.15
   5   0   1    1.48    0.13
   6   0   1   45.48    1.58
   6   0   1   44.85    1.59
   6   0   1   44.36    1.61
   7   0   1   37.90    1.35
   7   0   1   37.18    1.36
   7   0   1   37.08    1.33
   8   0   1    3.29    0.21
   8   0   1    3.38    0.26
   8   0   1    3.37    0.19
  -9   0  -1    1.31    0.11
   9   0   1    1.33    0.12
   9   0   1    1.25    0.12
 -10   0  -1    0.43    0.07
  10   0   1    0.37    0.07
   9  -1  -1   20.75    0.77
  -9   1   1   21.57    0.76
   8  -1  -1   20.32    0.77
  -8   1   1   20.41    0.75
   7  -1  -1   42.52    1.52
   7  -1  -1   42.54    1.50
  -7   1   1   42.31    1.51
   6  -1  -1    7.19    0.33
   6  -1  -1    6.81    0.35
   6  -1  -1    7.58    0.33
   5  -1  -1    3.99    0.27
  -5   1   1    4.14    0.24
   4  -1  -1    0.75    0.11
  -4   1   1    0.73    0.08
   3  -1  -1   10.49    0.37
  -3   1   1    9.80    0.37
   2  -1  -1    0.02    0.02
  -2   1   1    0.02    0.01
   1  -1  -1    4.19    0.15
  -1   1   1    4.08    0.15
   0  -1  -1    0.41    0.02
  -1  -1  -1  141.04    4.75
   1   1   1  136.23    4.76
  -2  -1  -1   18.73    0.67
   2   1   1   19.93    0.67
  -3  -1  -1    0.97    0.06
   3   1   1    0.94    0.06
  -4  -1  -1  116.14    4.05
   4   1   1  119.77    4.05
  -5  -1  -1   61.08    2.13
   6   1   1    0.40    0.12
   6   1   1    0.55    0.14
   7   1   1  108.74    3.73
   7   1   1  107.87    3.75
  -8  -1  -1    8.85    0.37
   8   1   1    8.97    0.37
   8   1   1    9.04    0.39
  -9  -1  -1   10.86    0.42
   9   1   1   10.48    0.42
   9   1   1   11.07    0.44
 -10  -1  -1    0.75    0.09
  10   1   1    0.89    0.09
   9  -2  -1   12.96    0.49
  -9   2   1   13.10    0.48
   8  -2  -1    0.00    0.06
  -8   2   1    0.02    0.05
   7  -2  -1    1.47    0.17
   7  -2  -1    1.76    0.16
   6  -2  -1    6.49    0.32
   6  -2  -1    6.36    0.31
   6  -2  -1    5.89    0.29
  -6   2   1    6.20    0.29
   5  -2  -1    6.32    0.31
   5  -2  -1    6.38    0.31
   5  -2  -1    6.69    0.33
  -4   2   1    1.58    0.12
   3  -2  -1  204.41    6.86
  -3   2   1  197.12    6.87
  -1  -2  -1   69.39    2.46
   1   2   1   74.40    2.47
  -2  -2  -1   39.91    1.44
   2   2   1   44.00    1.44
  -3  -2  -1   47.61    1.63
   3   2   1   46.64    1.63
  -4  -2  -1   64.96    2.14
   4   2   1   58.52    2.14
  -5  -2  -1    0.60    0.13
   6   2   1   11.74    0.46
   6   2   1   11.81    0.45
   7   2   1    5.35    0.27
   7   2   1    5.33    0.24
  -8  -2  -1    8.94    0.38
   8   2   1    8.96    0.39
   8   2   1    9.14    0.37
  -9  -2  -1    3.58    0.19
   9   2   1    3.98    0.20
   9   2   1    3.62    0.20
 -10  -2  -1    8.57    0.33
  10   2   1    8.44    0.34
   9  -3  -1    0.38    0.07
  -9   3   1    0.42    0.08
   8  -3  -1   10.28    0.41
  -8   3   1   10.36    0.40
   7  -3  -1    0.28    0.08
   7  -3  -1    0.23    0.07
  -7   3   1    0.27    0.07
   6  -3  -1    0.69    0.16
   6  -3  -1    0.40    0.09
   6  -3  -1    0.39    0.09
  -6   3   1    0.69    0.13
   5  -3  -1    0.16    0.09
   5  -3  -1    0.27    0.10
   5  -3  -1    0.13    0.08
   4  -3  -1    3.93    0.22
   4  -3  -1    3.91    0.23
   4  -3  -1    4.01    0.24
  -1  -3  -1   68.59    2.42
   1   3   1   73.09    2.43
  -3  -3  -1   92.28    3.16
   3   3   1   91.99    3.16
  -4  -3  -1   16.32    0.60
  -4  -3  -1   16.45    0.59
  -5  -3  -1   33.29    1.17
   6   3   1   37.27    1.31
  -7  -3  -1    7.20    0.31
   7   3   1    6.36    0.28
   7   3   1    6.36    0.30
  -8  -3  -1   19.40    0.70
   8   3   1   18.08    0.71
   8   3   1   18.82    0.69
  -9  -3  -1    2.70    0.17
   9   3   1    2.39    0.16
   9   3   1    2.50    0.16
 -10  -3  -1    0.79    0.12
  10   3   1    0.56    0.09
   8  -4  -1    1.07    0.09
  -8   4   1    1.18    0.12
  -8   4   1    1.26    0.10
   7  -4  -1    1.86    0.14
   7  -4  -1    1.43    0.13
  -7   4   1    1.70    0.15
   6  -4  -1    1.24    0.14
   6  -4  -1    1.27    0.14
  -6   4   1    1.21    0.14
   5  -4  -1    2.39    0.17
   5  -4  -1    2.20    0.18
   5  -4  -1    2.34    0.20
  -5   4   1    1.92    0.18
   4  -4  -1   33.49    1.20
   4  -4  -1   34.18    1.23
   4  -4  -1   33.24    1.22
   3  -4  -1    0.30    0.08
   3  -4  -1    0.15    0.08
   3  -4  -1    0.51    0.16
   1  -4  -1   11.88    0.44
   0  -4  -1    0.34    0.07
  -1  -4  -1    5.87    0.23
  -2  -4  -1   51.62    1.72
  -2  -4  -1   48.40    1.73
   2   4   1   49.62    1.72
  -3  -4  -1    5.06    0.20
  -3  -4  -1    4.95    0.21
   3   4   1    4.55    0.21
  -4  -4  -1    1.34    0.12
  -4  -4  -1    1.44    0.10
  -5  -4  -1   31.02    1.15
  -5  -4  -1   34.67    1.15
   5   4   1   31.46    1.14
  -6  -4  -1    0.63    0.14
   6   4   1    0.62    0.11
   7   4   1   31.84    1.13
   8   4   1    1.17    0.14
   8   4   1    1.28    0.12
   9   4   1    8.06    0.32
   9   4   1    7.95    0.34
  10   4   1    4.02    0.19
   7  -5  -1    0.16    0.05
   7  -5  -1    0.33    0.10
   6  -5  -1    0.48    0.10
   6  -5  -1    0.46    0.10
   5  -5  -1    3.83    0.22
   5  -5  -1    3.67    0.20
   4  -5  -1    1.50    0.18
   4  -5  -1    1.52    0.15
   4  -5  -1    1.25    0.14
   3  -5  -1   14.53    0.58
   3  -5  -1   13.89    0.56
   3  -5  -1   14.29    0.54
   2  -5  -1   12.65    0.50
   2  -5  -1   12.16    0.48
   2  -5  -1   13.00    0.52
   1  -5  -1    2.55    0.16
   1  -5  -1    2.78    0.18
   1  -5  -1    2.71    0.15
   0  -5  -1   22.76    0.81
  -1  -5  -1   63.98    2.21
  -2  -5  -1    0.34    0.09
  -2  -5  -1    0.27    0.07
   2   5   1    0.38    0.08
  -3  -5  -1    2.36    0.13
  -3  -5  -1    2.29    0.16
  -4  -5  -1    9.10    0.35
  -4  -5  -1    8.54    0.35
  -5  -5  -1   23.45    0.85
  -5  -5  -1   23.36    0.85
  -6  -5  -1    7.04    0.30
   6   5   1    6.83    0.29
   7   5   1   36.10    1.27
   8   5   1    3.07    0.17
   9   5   1   12.91    0.48
   9   5   1   12.83    0.50
  10   5   1    0.10    0.04
   6  -6  -1    4.18    0.19
   6  -6  -1    4.14    0.19
   5  -6  -1    2.45    0.15
   5  -6  -1    2.60    0.16
   4  -6  -1    3.58    0.21
   4  -6  -1    3.81    0.20
   3  -6  -1    0.28    0.07
   3  -6  -1    0.28    0.08
   2  -6  -1    0.49    0.10
   2  -6  -1    0.40    0.12
   1  -6  -1   25.85    0.93
   1  -6  -1   25.45    0.94
   1  -6  -1   26.13    0.93
   0  -6  -1    2.26    0.14
   0  -6  -1    2.45    0.16
   0  -6  -1    2.26    0.15
  -1  -6  -1   22.47    0.81
  -1  -6  -1   21.86    0.80
  -1  -6  -1   22.20    0.81
  -2  -6  -1    2.15    0.15
  -2  -6  -1    2.26    0.15
  -2  -6  -1    2.14    0.13
  -3  -6  -1    2.19    0.13
  -3  -6  -1    2.11    0.14
  -3  -6  -1    1.74    0.14
  -4  -6  -1    2.56    0.15
  -4  -6  -1    2.40    0.16
  -5  -6  -1   17.20    0.64
  -5  -6  -1   16.85    0.63
  -6  -6  -1  145.25    4.75
  -6  -6  -1  134.03    4.75
   6   6   1  134.86    4.74
  -7  -6  -1   23.71    0.88
   7   6   1   24.53    0.87
   8   6   1    0.44    0.09
   8   6   1    0.65    0.10
   9   6   1    2.83    0.15
  10   6   1    2.56    0.13
   5  -7  -1    0.70    0.08
   5  -7  -1    0.79    0.08
   4  -7  -1   17.19    0.66
   4  -7  -1   17.96    0.65
   3  -7  -1    0.98    0.11
   3  -7  -1    1.02    0.11
   2  -7  -1    1.03    0.12
   2  -7  -1    1.18    0.13
   1  -7  -1   65.03    2.27
   1  -7  -1   66.34    2.26
   1  -7  -1   63.28    2.26
   0  -7  -1    0.17    0.06
   0  -7  -1    0.43    0.10
   0  -7  -1    0.13    0.06
  -1  -7  -1    0.43    0.11
  -1  -7  -1    0.03    0.05
  -1  -7  -1    0.17    0.06
  -2  -7  -1    0.11    0.05
  -2  -7  -1    0.13    0.06
  -2  -7  -1    0.15    0.06
  -3  -7  -1    4.03    0.20
  -3  -7  -1    4.30    0.21
  -3  -7  -1    4.01    0.20
  -4  -7  -1    0.71    0.09
  -4  -7  -1    0.42    0.10
  -5  -7  -1    0.75    0.10
  -5  -7  -1    0.78    0.10
  -6  -7  -1    1.27    0.12
  -6  -7  -1    1.11    0.12
   6   7   1    1.15    0.11
  -7  -7  -1    0.60    0.13
   7   7   1    0.68    0.09
   8   7   1    5.37    0.23
   8   7   1    5.58    0.24
   9   7   1    2.03    0.12
   4  -8  -1    0.16    0.04
   4  -8  -1    0.19    0.06
  -4   8   1    0.44    0.11
   3  -8  -1   12.76    0.48
   3  -8  -1   12.58    0.48
  -3   8   1   12.92    0.50
   2  -8  -1   -0.02    0.04
   2  -8  -1    0.02    0.04
   1  -8  -1    3.25    0.17
   1  -8  -1    2.97    0.17
   0  -8  -1   23.31    0.82
   0  -8  -1   21.40    0.82
   0  -8  -1   22.57    0.82
  -1  -8  -1    0.53    0.10
  -1  -8  -1    0.60    0.10
  -1  -8  -1    0.41    0.09
  -2  -8  -1    0.17    0.06
  -2  -8  -1    0.19    0.06
  -2  -8  -1    0.06    0.04
  -3  -8  -1    7.01    0.28
  -3  -8  -1    6.48    0.28
  -3  -8  -1    5.98    0.29
  -4  -8  -1    9.87    0.41
  -4  -8  -1    9.99    0.39
  -5  -8  -1    2.23    0.14
  -5  -8  -1    2.07    0.14
  -6  -8  -1    0.38    0.08
   6   8   1    0.51    0.08
  -7  -8  -1    0.99    0.14
   7   8   1    0.90    0.09
   8   8   1    9.34    0.36
   3  -9  -1    6.48    0.25
   3  -9  -1    6.72    0.25
   2  -9  -1    2.39    0.12
   2  -9  -1    2.42    0.12
   1  -9  -1    0.84    0.08
   1  -9  -1    0.95    0.08
   0  -9  -1   -0.02    0.04
   0  -9  -1   -0.04    0.04
  -1  -9  -1    0.05    0.04
  -1  -9  -1   -0.10    0.06
  -1  -9  -1    0.00    0.04
  -2  -9  -1    6.27    0.27
  -2  -9  -1    5.70    0.25
  -2  -9  -1    6.30    0.26
  -3  -9  -1    6.82    0.30
  -3  -9  -1    6.85    0.28
  -4  -9  -1    0.65    0.08
  -4  -9  -1    0.72    0.10
  -5  -9  -1    0.14    0.05
  -5  -9  -1    0.12    0.04
  -6  -9  -1    2.43    0.15
   6   9   1    2.42    0.13
   7   9   1    2.22    0.13
   1 -10  -1    3.47    0.14
   1 -10  -1    3.22    0.14
   0 -10  -1    0.04    0.03
   0 -10  -1    0.07    0.03
  -1 -10  -1    0.80    0.06
  -1 -10  -1    0.84    0.07
  -2 -10  -1    0.10    0.07
  -3 -10  -1    0.08    0.03
  -3 -10  -1    0.10    0.06
  -4 -10  -1    1.71    0.10
  -4 -10  -1    1.91    0.13
  -5 -10  -1    0.97    0.11
   5  10   1    1.15    0.08
  -4  -9   2    1.35    0.12
  -4  -9   2    1.32    0.09
  -3  -9   2    4.92    0.22
  -3  -9   2    4.66    0.20
  -2  -9   2   22.45    0.81
  -2  -9   2   21.42    0.78
  -1  -9   2    0.19    0.06
   0  -9   2    1.08    0.08
   0  -9   2    1.14    0.08
   1  -9   2    0.49    0.06
   1  -9   2    0.65    0.06
   7   8  -2    0.08    0.04
  -6  -8   2    0.09    0.05
  -5  -8   2    6.51    0.28
  -5  -8   2    6.77    0.27
  -4  -8   2    1.66    0.13
  -4  -8   2    1.66    0.11
  -3  -8   2    0.23    0.06
  -3  -8   2    0.33    0.07
  -2  -8   2    0.51    0.09
  -2  -8   2    0.50    0.11
  -2  -8   2    0.55    0.08
  -1  -8   2   24.63    0.88
  -1  -8   2   23.81    0.88
  -1  -8   2   24.62    0.87
   0  -8   2    0.36    0.07
   0  -8   2    0.35    0.08
   1  -8   2   -0.05    0.04
   1  -8   2    0.07    0.04
   2  -8   2    0.10    0.04
   2  -8   2    0.07    0.04
   3  -8   2    0.97    0.08
   3  -8   2    1.00    0.07
   8   7  -2    1.52    0.10
  -7  -7   2    2.96    0.18
  -6  -7   2    5.71    0.26
  -5  -7   2    1.69    0.12
  -5  -7   2    1.55    0.13
  -4  -7   2   18.71    0.70
  -4  -7   2   18.80    0.69
  -3  -7   2    3.37    0.18
  -3  -7   2    3.43    0.18
  -3  -7   2    3.19    0.18
  -2  -7   2    0.20    0.06
  -2  -7   2    0.30    0.07
  -2  -7   2    0.41    0.10
  -1  -7   2   12.23    0.48
  -1  -7   2   12.85    0.48
  -1  -7   2   12.18    0.48
   0  -7   2    1.51    0.13
   0  -7   2    1.34    0.12
   0  -7   2    1.31    0.15
   1  -7   2   21.68    0.80
   1  -7   2   21.78    0.79
   2  -7   2    5.37    0.24
   2  -7   2    5.06    0.23
   3  -7   2   -0.01    0.04
   3  -7   2   -0.03    0.04
   4  -7   2    0.04    0.04
   4  -7   2    0.05    0.04
   5  -7   2   25.66    0.91
   5  -7   2   26.47    0.91
   9   6  -2    0.60    0.08
   8   6  -2    0.34    0.08
  -7  -6   2    0.10    0.07
  -6  -6   2    7.16    0.31
  -5  -6   2    2.12    0.14
  -5  -6   2    1.92    0.14
  -4  -6   2    1.88    0.14
  -4  -6   2    1.98    0.14
  -3  -6   2   22.99    0.85
  -3  -6   2   24.99    0.87
  -3  -6   2   22.81    0.85
  -2  -6   2    8.67    0.35
  -2  -6   2    8.56    0.36
  -2  -6   2    8.82    0.36
  -1  -6   2    7.13    0.31
  -1  -6   2    7.26    0.31
  -1  -6   2    7.44    0.31
   0  -6   2    1.99    0.14
   0  -6   2    1.72    0.14
   0  -6   2    1.80    0.14
   1  -6   2    7.18    0.31
   1  -6   2    6.95    0.31
   2  -6   2   35.50    1.24
   2  -6   2   32.00    1.26
   2  -6   2   35.68    1.23
   3  -6   2    0.23    0.06
   3  -6   2    0.24    0.11
   3  -6   2    0.36    0.10
   4  -6   2    0.74    0.10
   4  -6   2    0.60    0.15
   4  -6   2    0.57    0.09
   5  -6   2   13.77    0.51
   5  -6   2   13.60    0.52
   6  -6   2    3.85    0.17
   6  -6   2    3.94    0.17
   9   5  -2    3.60    0.17
   8   5  -2    0.07    0.05
  -7  -5   2    3.33    0.20
  -6  -5   2    0.15    0.06
  -5  -5   2    2.62    0.16
  -5  -5   2    2.78    0.16
  -4  -5   2    8.88    0.36
  -4  -5   2    8.69    0.36
  -3  -5   2    0.62    0.14
  -3  -5   2    0.55    0.11
  -3  -5   2    0.61    0.09
  -2  -5   2   35.91    1.24
  -2  -5   2   33.22    1.24
  -2  -5   2   35.85    1.24
  -1  -5   2    8.90    0.37
  -1  -5   2    9.30    0.37
  -1  -5   2    9.36    0.36
   0  -5   2    0.87    0.13
   0  -5   2    0.51    0.12
   0  -5   2    0.68    0.09
   1  -5   2   19.68    0.74
   1  -5   2   21.00    0.76
   1  -5   2   20.16    0.74
   2  -5   2   39.37    1.31
   2  -5   2   31.71    1.32
   2  -5   2   39.93    1.35
   3  -5   2   51.44    1.83
   3  -5   2   51.95    1.85
   3  -5   2   53.15    1.86
   4  -5   2   22.27    0.86
   4  -5   2   22.31    0.82
   4  -5   2   22.68    0.84
   5  -5   2    4.67    0.26
   5  -5   2    4.67    0.23
   5  -5   2    4.66    0.22
   6  -5   2    1.15    0.10
   6  -5   2    1.20    0.11
   6  -5   2    1.31    0.13
   7  -5   2    0.87    0.08
   7  -5   2    0.90    0.07
   9   4  -2    0.06    0.04
   8   4  -2   10.52    0.42
   7   4  -2    0.61    0.12
  -7  -4   2    0.41    0.09
  -6  -4   2    0.14    0.06
  -5  -4   2    0.32    0.11
  -5  -4   2    0.32    0.09
  -4  -4   2    6.24    0.26
  -4  -4   2    6.05    0.27
  -3  -4   2    1.40    0.10
  -3  -4   2    1.59    0.14
  -2  -4   2   29.74    1.07
  -2  -4   2   30.02    1.06
   1   4  -2   27.49    1.02
  -1  -4   2   29.80    1.02
   0   4  -2   22.42    0.78
   0  -4   2   20.95    0.78
   1  -4   2    0.94    0.15
   1  -4   2    0.58    0.13
   1  -4   2    0.79    0.10
   2  -4   2    5.33    0.25
   2  -4   2    5.83    0.31
   2  -4   2    5.58    0.27
   3  -4   2    1.24    0.19
   3  -4   2    1.00    0.12
   3  -4   2    0.95    0.15
   4  -4   2    5.54    0.25
   4  -4   2    4.95    0.28
   4  -4   2    5.03    0.26
   4  -4   2    5.64    0.30
   5  -4   2   55.58    2.02
   5  -4   2   57.78    2.00
   5  -4   2   56.38    1.98
   6  -4   2    0.69    0.10
   6  -4   2    0.53    0.14
   6  -4   2    0.86    0.12
  -7   4  -2   17.01    0.63
   7  -4   2   16.95    0.63
   7  -4   2   17.50    0.64
   7  -4   2   17.63    0.66
   8  -4   2    1.05    0.08
   8  -4   2    1.09    0.09
  10   3  -2    2.08    0.12
   9   3  -2    0.09    0.05
  -9  -3   2    0.01    0.06
   8   3  -2    1.58    0.14
  -8  -3   2    1.34    0.14
   7   3  -2    6.59    0.30
  -7  -3   2    6.52    0.30
  -6  -3   2    0.48    0.12
  -6  -3   2    0.37    0.10
  -5  -3   2    2.10    0.22
  -5  -3   2    2.48    0.15
  -4  -3   2   10.39    0.42
  -4  -3   2   11.15    0.41
  -3  -3   2    4.54    0.22
  -3  -3   2    4.60    0.20
   2   3  -2   19.16    0.68
  -2  -3   2   18.81    0.67
  -2  -3   2   18.41    0.68
   1   3  -2   38.15    1.30
  -1  -3   2   36.42    1.30
   0   3  -2    4.89    0.19
   0   3  -2    4.64    0.19
   0  -3   2    4.41    0.19
  -1   3  -2   13.07    0.47
  -1   3  -2   13.54    0.46
   1  -3   2   11.90    0.48
  -2   3  -2   73.06    2.48
  -2   3  -2   71.03    2.48
   3  -3   2   59.60    2.08
   3  -3   2   60.04    2.06
   3  -3   2   57.48    2.07
   4  -3   2   17.90    0.67
   4  -3   2   17.37    0.65
   4  -3   2   16.34    0.65
   4  -3   2   18.04    0.68
   5  -3   2    2.77    0.17
   5  -3   2    2.86    0.19
   5  -3   2    3.21    0.20
   5  -3   2    3.10    0.22
   6  -3   2    4.03    0.22
   6  -3   2    3.58    0.23
   6  -3   2    3.51    0.20
   7  -3   2    0.07    0.05
   7  -3   2    0.17    0.08
   7  -3   2    0.09    0.06
  -8   3  -2   -0.02    0.05
   8  -3   2   -0.01    0.05
   8  -3   2    0.11    0.05
  10   2  -2    0.26    0.07
   9   2  -2    4.11    0.21
  -9  -2   2    4.39    0.19
   8   2  -2    4.97    0.25
  -8  -2   2    5.22    0.24
   7   2  -2    4.06    0.22
  -7  -2   2    3.64    0.21
   6   2  -2    0.13    0.06
  -6  -2   2    0.09    0.08
  -5  -2   2    0.65    0.10
  -5  -2   2    0.57    0.17
  -4  -2   2   40.18    1.47
  -4  -2   2   43.20    1.46
   3   2  -2   65.61    2.30
  -3  -2   2   65.38    2.29
  -3  -2   2   68.19    2.30
   2   2  -2    8.76    0.33
  -2  -2   2    8.56    0.33
  -2  -2   2    9.15    0.33
   1   2  -2    3.04    0.13
  -1  -2   2    3.06    0.13
   0   2  -2   15.55    0.55
  -1   2  -2   72.19    2.42
  -1   2  -2   68.68    2.41
  -2   2  -2    6.57    0.25
  -3   2  -2   44.66    1.55
   4  -2   2   95.57    3.32
   4  -2   2   95.77    3.33
   4  -2   2   98.62    3.34
   4  -2   2   95.30    3.32
   5  -2   2    0.33    0.07
   5  -2   2    0.57    0.11
   5  -2   2    0.43    0.11
   6  -2   2   60.18    2.12
   6  -2   2   61.10    2.15
   6  -2   2   60.19    2.13
   7  -2   2    1.35    0.15
   7  -2   2    1.41    0.13
   7  -2   2    1.52    0.17
   8  -2   2    1.36    0.11
   8  -2   2    1.22    0.12
   8  -2   2    1.41    0.14
  -9   2  -2    4.99    0.21
   9  -2   2    4.77    0.20
   9  -2   2    4.90    0.22
  10   1  -2    0.21    0.07
 -10  -1   2    0.02    0.04
   9   1  -2    2.02    0.14
  -9  -1   2    1.84    0.12
   8   1  -2    0.75    0.13
  -8  -1   2    0.69    0.11
   7   1  -2    7.89    0.35
  -7  -1   2    7.57    0.33
   6   1  -2    5.44    0.27
  -6  -1   2    5.48    0.26
   5   1  -2   10.66    0.42
  -5  -1   2    9.94    0.40
  -5  -1   2   10.97    0.42
  -4  -1   2    9.20    0.36
  -4  -1   2    9.59    0.37
   3   1  -2  197.45    6.44
  -3  -1   2  199.22    6.44
  -3  -1   2  168.29    6.43
   2   1  -2   61.02    2.10
  -2  -1   2   60.88    2.10
   1   1  -2    0.26    0.04
  -1  -1   2    0.18    0.03
   0   1  -2   18.75    0.66
  -1   1  -2   35.31    1.22
  -2   1  -2  241.72    7.36
   2  -1   2  186.16    7.30
  -3   1  -2   26.69    0.94
   3  -1   2   27.09    0.94
  -4   1  -2   92.01    3.11
   4  -1   2   88.47    3.11
  -5   1  -2    2.68    0.25
   5  -1   2    2.88    0.17
   5  -1   2    3.10    0.17
   5  -1   2    2.70    0.21
   5  -1   2    3.21    0.22
   6  -1   2    0.17    0.07
   6  -1   2    0.13    0.08
   6  -1   2    0.26    0.11
   7  -1   2    4.91    0.23
   7  -1   2    4.76    0.28
   7  -1   2    4.48    0.25
   8  -1   2    0.79    0.11
   8  -1   2    0.54    0.12
   8  -1   2    0.51    0.15
  -9   1  -2    0.08    0.04
   9  -1   2    0.07    0.05
   9  -1   2    0.09    0.05
   9   0  -2    0.11    0.05
  -9   0   2    0.17    0.05
   8   0  -2    0.88    0.13
  -8   0   2    0.79    0.11
   7   0  -2    3.05    0.19
  -7   0   2    2.66    0.17
   6   0  -2   20.64    0.77
  -6   0   2   20.37    0.76
   5   0  -2   13.90    0.54
  -5   0   2   13.49    0.52
  -4   0   2   16.15    0.61
  -4   0   2   17.26    0.61
   3   0  -2    0.10    0.04
  -3   0   2    0.07    0.03
   2   0  -2   13.24    0.47
  -2   0   2   13.13    0.47
   1   0  -2   70.65    2.49
  -1   0   2   74.96    2.50
   0   0  -2  416.72   14.25
   1   0   2  558.20   19.08
  -2   0  -2  922.57   32.80
   2   0   2 1000.00   32.81
  -3   0  -2    1.78    0.09
   3   0   2    1.71    0.10
  -4   0  -2    3.82    0.17
   4   0   2    3.63    0.18
  -5   0  -2   27.04    0.97
   5   0   2   27.43    0.96
   5   0   2   26.04    0.96
   6   0   2    4.85    0.23
   6   0   2    4.47    0.26
   6   0   2    5.06    0.23
   6   0   2    4.67    0.27
   7   0   2   12.72    0.53
   7   0   2   12.52    0.49
   7   0   2   12.52    0.51
   8   0   2    3.03    0.18
   8   0   2    3.12    0.24
   8   0   2    3.00    0.20
  -9   0  -2    0.16    0.05
   9   0   2    0.12    0.06
   9   0   2    0.14    0.06
 -10   0  -2   23.95    0.82
  10   0   2   22.85    0.82
  10   0   2   22.58    0.81
   9  -1  -2    2.44    0.14
  -9   1   2    2.34    0.13
  -8   1   2    0.30    0.09
   7  -1  -2   17.50    0.67
  -7   1   2   16.89    0.65
   6  -1  -2   15.63    0.61
  -6   1   2   15.47    0.59
   5  -1  -2   29.07    1.05
  -5   1   2   28.58    1.03
   4  -1  -2   94.24    3.31
  -4   1   2   97.76    3.31
   3  -1  -2   13.83    0.50
  -3   1   2   14.11    0.50
   2  -1  -2    5.88    0.22
  -2   1   2    5.65    0.22
   1  -1  -2   40.95    1.36
  -1   1   2   38.42    1.36
   0  -1  -2   24.77    0.85
  -1  -1  -2   89.45    3.15
   1   1   2   94.17    3.16
  -2  -1  -2    0.06    0.02
   2   1   2    0.08    0.03
  -3  -1  -2  216.51    7.35
   3   1   2  211.71    7.37
  -4  -1  -2    0.25    0.06
   4   1   2    0.24    0.07
  -5  -1  -2    4.89    0.23
   6   1   2   28.14    1.08
   6   1   2   30.45    1.06
   6   1   2   29.23    1.04
   7   1   2   32.75    1.26
   7   1   2   35.48    1.26
   7   1   2   35.95    1.24
   8   1   2   17.00    0.65
   8   1   2   16.60    0.63
  -9  -1  -2    0.46    0.10
   9   1   2    0.21    0.07
   9   1   2    0.34    0.09
 -10  -1  -2   10.22    0.38
  10   1   2   10.20    0.39
  10   1   2   10.33    0.38
   9  -2  -2    0.71    0.09
  -9   2   2    0.79    0.08
   8  -2  -2   11.08    0.45
  -8   2   2   11.15    0.44
  -8   2   2   11.59    0.44
   7  -2  -2    3.96    0.23
  -7   2   2    3.89    0.21
   6  -2  -2    9.35    0.41
  -6   2   2    9.56    0.39
   5  -2  -2    4.23    0.25
   5  -2  -2    4.18    0.24
  -5   2   2    3.90    0.21
   4  -2  -2    0.46    0.16
   4  -2  -2    0.55    0.12
  -4   2   2    0.58    0.11
   3  -2  -2   31.52    1.07
  -3   2   2   30.16    1.07
   2  -2  -2  220.93    7.42
  -2   2   2  212.86    7.42
   0  -2  -2   89.53    3.07
  -1  -2  -2  183.51    6.21
   1   2   2  179.35    6.22
  -2  -2  -2    1.37    0.07
   2   2   2    1.41    0.07
  -3  -2  -2   16.52    0.58
   3   2   2   16.16    0.58
  -4  -2  -2  143.24    4.71
   4   2   2  131.42    4.71
  -5  -2  -2    0.20    0.07
   6   2   2   28.13    1.03
   6   2   2   28.88    1.04
   6   2   2   29.24    1.02
   7   2   2    2.33    0.19
   7   2   2    2.75    0.16
   8   2   2    1.99    0.15
   8   2   2    2.08    0.16
  -9  -2  -2   22.21    0.81
   9   2   2   22.79    0.83
   9   2   2   22.12    0.81
 -10  -2  -2   19.19    0.66
  10   2   2   17.55    0.66
  10   2   2   18.42    0.67
   8  -3  -2    2.57    0.15
  -8   3   2    2.51    0.15
  -8   3   2    2.57    0.15
   7  -3  -2    0.07    0.07
   6  -3  -2    6.60    0.31
   6  -3  -2    6.28    0.30
  -6   3   2    6.03    0.28
   5  -3  -2   27.10    1.00
   5  -3  -2   26.63    0.99
  -5   3   2   27.99    0.99
   4  -3  -2    2.59    0.21
   4  -3  -2    2.77    0.21
   4  -3  -2    2.81    0.20
  -4   3   2    2.30    0.19
  -1  -3  -2   88.59    3.11
   1   3   2   92.73    3.10
   2   3   2    1.14    0.06
  -3  -3  -2   88.54    3.03
   3   3   2   87.97    3.03
  -4  -3  -2  113.68    4.10
  -4  -3  -2  125.87    4.12
  -5  -3  -2    1.24    0.15
   6   3   2    0.31    0.06
   7   3   2    5.16    0.26
   7   3   2    5.42    0.24
  -8  -3  -2   -0.03    0.08
   8   3   2    0.04    0.06
   8   3   2    0.13    0.07
  -9  -3  -2   10.96    0.42
   9   3   2   10.68    0.43
   9   3   2   10.34    0.41
 -10  -3  -2    3.25    0.17
  10   3   2    2.98    0.16
  10   3   2    3.02    0.16
  -8   4   2    0.36    0.08
  -8   4   2    0.43    0.11
   7  -4  -2    0.51    0.11
  -7   4   2    0.71    0.12
   6  -4  -2    0.54    0.14
   6  -4  -2    0.70    0.12
  -6   4   2    0.48    0.14
   5  -4  -2    1.32    0.15
   5  -4  -2    0.89    0.15
  -5   4   2    1.20    0.15
   4  -4  -2   21.18    0.80
   4  -4  -2   22.47    0.82
   4  -4  -2   22.82    0.84
  -4   4   2   20.96    0.80
   3  -4  -2   18.39    0.71
   3  -4  -2   18.88    0.69
   3  -4  -2   18.34    0.70
   2  -4  -2    0.79    0.12
   1  -4  -2    7.79    0.30
   0  -4  -2    3.96    0.17
  -1  -4  -2    2.71    0.13
  -2  -4  -2   70.32    2.46
  -2  -4  -2   72.59    2.47
   2   4   2   72.37    2.46
  -3  -4  -2  125.18    4.13
  -3  -4  -2  122.08    4.13
   3   4   2  114.12    4.13
  -5  -4  -2   70.35    2.39
  -5  -4  -2   67.73    2.40
   5   4   2   69.49    2.39
   6   4   2   21.12    0.76
   7   4   2    0.98    0.11
   7   4   2    0.79    0.13
   8   4   2   64.63    2.25
   8   4   2   64.99    2.27
   9   4   2    6.25    0.28
   9   4   2    6.25    0.26
  10   4   2   11.57    0.43
  10   4   2   11.88    0.45
   7  -5  -2    0.62    0.09
  -7   5   2    0.68    0.09
   6  -5  -2    3.13    0.18
   6  -5  -2    3.21    0.18
   5  -5  -2    0.37    0.08
   5  -5  -2    0.43    0.12
   4  -5  -2    2.79    0.18
   4  -5  -2    2.63    0.19
   3  -5  -2    3.30    0.19
   3  -5  -2    3.12    0.20
   2  -5  -2   -0.01    0.06
   2  -5  -2    0.24    0.08
   2  -5  -2    0.14    0.08
   1  -5  -2    9.34    0.36
   1  -5  -2    8.97    0.37
   1  -5  -2    9.26    0.39
   0  -5  -2   47.64    1.66
  -1  -5  -2   12.05    0.45
  -2  -5  -2  160.54    5.40
  -2  -5  -2  156.82    5.41
   2   5   2  156.69    5.40
  -3  -5  -2   23.91    0.84
  -3  -5  -2   24.86    0.85
   3   5   2   21.68    0.84
  -4  -5  -2    1.36    0.10
  -4  -5  -2    1.01    0.17
  -5  -5  -2    0.27    0.08
  -5  -5  -2    0.38    0.08
  -6  -5  -2   17.65    0.65
   6   5   2   17.33    0.64
   7   5   2   26.46    0.95
   8   5   2    8.36    0.36
   8   5   2    8.42    0.34
   9   5   2    0.48    0.10
   9   5   2    0.35    0.09
  10   5   2    0.04    0.08
  10   5   2   -0.02    0.05
   6  -6  -2    7.09    0.29
   6  -6  -2    7.26    0.30
  -6   6   2    7.34    0.30
   5  -6  -2    5.46    0.26
   5  -6  -2    5.41    0.24
   4  -6  -2    0.12    0.07
   4  -6  -2    0.09    0.06
   3  -6  -2    4.72    0.23
   3  -6  -2    4.27    0.24
   2  -6  -2   -0.04    0.06
   2  -6  -2    0.03    0.07
   1  -6  -2   10.37    0.41
   1  -6  -2   10.17    0.40
   1  -6  -2   10.03    0.42
   0  -6  -2   18.52    0.67
   0  -6  -2   18.06    0.66
   0  -6  -2   17.59    0.68
  -1  -6  -2    5.89    0.27
  -1  -6  -2    5.84    0.26
  -1  -6  -2    6.59    0.27
  -2  -6  -2   14.60    0.55
  -2  -6  -2   14.36    0.55
  -2  -6  -2   14.81    0.55
  -3  -6  -2    4.77    0.23
  -3  -6  -2    4.74    0.22
  -3  -6  -2    5.18    0.22
  -4  -6  -2   53.32    1.87
  -4  -6  -2   53.96    1.88
  -5  -6  -2   84.14    2.80
  -5  -6  -2   77.18    2.79
  -6  -6  -2    3.11    0.18
   6   6   2    3.26    0.17
  -7  -6  -2   85.45    2.98
   7   6   2   86.17    2.96
   8   6   2    0.80    0.11
   8   6   2    0.64    0.09
   9   6   2   13.43    0.50
   9   6   2   13.78    0.51
  10   6   2    1.81    0.12
   6  -7  -2    0.06    0.03
  -6   7   2   -0.05    0.04
   5  -7  -2    0.06    0.05
   5  -7  -2   -0.01    0.04
  -5   7   2    0.09    0.05
   4  -7  -2   -0.06    0.05
   4  -7  -2    0.14    0.06
   3  -7  -2   11.05    0.43
   3  -7  -2   10.81    0.44
   2  -7  -2  112.31    3.84
   2  -7  -2  110.48    3.86
   1  -7  -2   32.46    1.13
   1  -7  -2   30.78    1.14
   1  -7  -2   31.20    1.13
   0  -7  -2   17.85    0.67
   0  -7  -2   18.79    0.68
   0  -7  -2   17.63    0.68
  -1  -7  -2   35.03    1.30
  -1  -7  -2   36.39    1.29
  -1  -7  -2   38.05    1.30
  -2  -7  -2    5.86    0.26
  -2  -7  -2    5.89    0.26
  -2  -7  -2    5.73    0.26
  -3  -7  -2    0.58    0.09
  -3  -7  -2    0.47    0.08
  -3  -7  -2    0.32    0.11
  -4  -7  -2    1.22    0.12
  -4  -7  -2    1.39    0.12
  -5  -7  -2   -0.07    0.05
  -5  -7  -2    0.04    0.05
  -6  -7  -2    4.28    0.22
  -6  -7  -2    4.35    0.22
   6   7   2    4.52    0.20
  -7  -7  -2    0.67    0.14
   7   7   2    0.73    0.09
   8   7   2    0.05    0.04
   9   7   2    0.27    0.06
   9   7   2    0.36    0.08
   4  -8  -2   11.05    0.42
   4  -8  -2   11.45    0.41
  -4   8   2   11.03    0.42
   3  -8  -2    7.56    0.30
   3  -8  -2    7.21    0.31
  -3   8   2    7.95    0.32
   2  -8  -2    7.73    0.32
   2  -8  -2    7.97    0.33
  -2   8   2    8.03    0.36
   1  -8  -2    0.89    0.11
   1  -8  -2    0.81    0.10
   0  -8  -2    1.43    0.12
   0  -8  -2    1.17    0.13
   0  -8  -2    1.44    0.13
  -1  -8  -2    2.22    0.15
  -1  -8  -2    2.30    0.15
  -1  -8  -2    2.33    0.14
  -2  -8  -2    7.45    0.32
  -2  -8  -2    7.59    0.32
  -2  -8  -2    7.32    0.31
  -3  -8  -2   89.79    3.00
  -3  -8  -2   88.91    3.00
  -3  -8  -2   81.34    3.01
  -4  -8  -2    0.09    0.04
  -4  -8  -2   -0.02    0.05
  -5  -8  -2   10.20    0.39
  -5  -8  -2    9.27    0.40
  -6  -8  -2   34.81    1.20
  -6  -8  -2   31.15    1.21
   6   8   2   35.88    1.20
  -7  -8  -2    0.06    0.06
   7   8   2    0.08    0.04
   8   8   2    0.54    0.08
   8   8   2    0.52    0.08
   9   8   2    0.99    0.09
   3  -9  -2    2.61    0.12
   3  -9  -2    2.44    0.12
   2  -9  -2    0.93    0.08
   2  -9  -2    0.97    0.08
   1  -9  -2    9.86    0.38
   1  -9  -2    9.67    0.37
   0  -9  -2    1.36    0.10
   0  -9  -2    1.18    0.16
   0  -9  -2    1.42    0.11
  -1  -9  -2    0.66    0.11
  -1  -9  -2    0.74    0.08
  -1  -9  -2    0.70    0.09
  -2  -9  -2    1.26    0.10
  -2  -9  -2    1.30    0.12
  -2  -9  -2    1.37    0.11
  -3  -9  -2    2.68    0.15
  -3  -9  -2    2.42    0.15
  -4  -9  -2    4.59    0.22
  -4  -9  -2    4.75    0.21
  -5  -9  -2    1.32    0.10
  -5  -9  -2    1.35    0.12
  -6  -9  -2    1.75    0.14
   6   9   2    1.92    0.11
  -7  -9  -2    5.31    0.25
   7   9   2    5.22    0.21
   8   9   2    1.89    0.11
   1 -10  -2    0.01    0.03
   1 -10  -2   -0.05    0.03
   0 -10  -2    4.78    0.19
   0 -10  -2    4.73    0.20
  -1 -10  -2    7.04    0.27
  -1 -10  -2    7.19    0.28
  -2 -10  -2    8.49    0.33
  -2 -10  -2    9.01    0.35
  -3 -10  -2    0.49    0.10
  -3 -10  -2    0.64    0.07
  -4 -10  -2    8.41    0.33
  -4 -10  -2    8.09    0.31
  -5 -10  -2    0.77    0.07
  -5 -10  -2    0.57    0.10
   5  10   2    0.68    0.06
   6  10   2    2.18    0.11
  -3  -9   3    0.67    0.07
  -2  -9   3    0.54    0.07
  -1  -9   3    0.54    0.07
   0  -9   3    1.53    0.09
  -5  -8   3    0.05    0.05
  -4  -8   3    0.26    0.09
  -4  -8   3    0.33    0.07
  -3  -8   3    0.14    0.05
  -3  -8   3    0.00    0.04
  -2  -8   3    1.05    0.12
  -2  -8   3    1.15    0.09
  -1  -8   3    3.62    0.22
  -1  -8   3    3.55    0.17
  -1  -8   3    3.85    0.17
   0  -8   3    0.44    0.08
   0  -8   3    0.48    0.08
   1  -8   3   18.50    0.66
   1  -8   3   18.33    0.66
   2  -8   3    1.61    0.10
   2  -8   3    1.92    0.10
   3  -8   3    3.35    0.15
   3  -8   3    3.70    0.15
   7   7  -3    0.64    0.08
  -6  -7   3    0.29    0.10
  -5  -7   3    2.93    0.16
  -4  -7   3    0.31    0.09
  -4  -7   3    0.40    0.09
  -3  -7   3    9.72    0.37
  -3  -7   3    8.95    0.38
  -2  -7   3   16.33    0.58
  -2  -7   3   15.26    0.57
  -2  -7   3   14.92    0.59
  -1  -7   3    4.43    0.21
  -1  -7   3    3.94    0.22
  -1  -7   3    4.37    0.21
   0  -7   3    4.73    0.22
   0  -7   3    4.96    0.23
   1  -7   3    0.15    0.05
   1  -7   3    0.08    0.05
   2  -7   3    1.92    0.12
   2  -7   3    1.72    0.12
   3  -7   3    3.67    0.17
   3  -7   3    3.79    0.18
   4  -7   3    0.08    0.05
   4  -7   3    0.12    0.04
   8   6  -3    3.71    0.17
   7   6  -3    0.11    0.05
  -7  -6   3    0.07    0.07
  -6  -6   3    3.98    0.20
  -5  -6   3    4.28    0.20
  -5  -6   3    4.25    0.21
  -4  -6   3   38.41    1.42
  -4  -6   3   41.42    1.41
  -3  -6   3   50.11    1.80
  -3  -6   3   52.05    1.79
  -2  -6   3    7.99    0.33
  -2  -6   3    8.08    0.34
  -2  -6   3    7.74    0.34
  -1  -6   3   11.72    0.46
  -1  -6   3   11.51    0.46
  -1  -6   3   11.56    0.45
   0  -6   3    1.70    0.15
   0  -6   3    1.75    0.14
   0  -6   3    1.54    0.14
   1  -6   3   11.31    0.45
   1  -6   3   11.16    0.44
   2  -6   3   11.04    0.44
   2  -6   3   11.14    0.44
   3  -6   3    4.17    0.20
   3  -6   3    3.43    0.24
   3  -6   3    3.76    0.19
   4  -6   3    0.03    0.04
   4  -6   3    0.13    0.09
   4  -6   3    0.03    0.05
   5  -6   3   22.62    0.79
   5  -6   3   21.66    0.79
   6  -6   3    0.43    0.10
   6  -6   3    0.57    0.06
   9   5  -3    8.58    0.32
   8   5  -3    0.08    0.05
  -7  -5   3    0.22    0.06
  -6  -5   3    0.46    0.10
  -5  -5   3   13.54    0.53
  -4  -5   3    9.25    0.38
  -4  -5   3    9.40    0.38
  -3  -5   3   21.81    0.80
  -3  -5   3   22.16    0.81
  -2  -5   3   47.75    1.66
  -2  -5   3   46.82    1.66
  -1  -5   3    1.82    0.17
  -1  -5   3    1.82    0.14
  -1  -5   3    2.04    0.13
   0  -5   3    4.10    0.22
   0  -5   3    3.98    0.22
   0  -5   3    4.38    0.21
   1  -5   3   19.86    0.76
   1  -5   3   23.03    0.76
   1  -5   3   18.27    0.75
   2  -5   3   12.15    0.47
   2  -5   3   12.23    0.48
   2  -5   3   11.29    0.52
   3  -5   3    8.21    0.36
   3  -5   3    8.25    0.39
   3  -5   3    8.18    0.34
   4  -5   3    0.54    0.10
   4  -5   3    0.51    0.15
   5  -5   3    4.16    0.21
   5  -5   3    4.16    0.23
   5  -5   3    3.79    0.19
   6  -5   3    7.88    0.31
   6  -5   3    7.98    0.31
   6  -5   3    7.72    0.33
   7  -5   3    1.32    0.10
   7  -5   3    1.51    0.09
   9   4  -3    0.02    0.05
   8   4  -3    0.93    0.10
   7   4  -3    4.29    0.21
  -7  -4   3    3.95    0.23
  -6  -4   3   13.37    0.52
  -5  -4   3    0.11    0.05
  -4  -4   3    3.38    0.18
  -4  -4   3    3.34    0.19
  -3  -4   3    1.02    0.09
  -2  -4   3    0.32    0.08
  -2  -4   3    0.19    0.05
  -1  -4   3   40.31    1.37
  -1  -4   3   37.83    1.38
   0  -4   3   12.74    0.47
   0  -4   3   11.67    0.49
   0  -4   3   12.57    0.48
   1  -4   3   30.56    1.08
   1  -4   3   29.72    1.06
   1  -4   3   29.59    1.07
   2  -4   3    2.61    0.19
   2  -4   3    2.50    0.17
   2  -4   3    2.33    0.22
   3  -4   3    2.81    0.17
   3  -4   3    2.50    0.19
   3  -4   3    2.59    0.22
   4  -4   3   15.79    0.62
   4  -4   3   16.99    0.64
   4  -4   3   16.99    0.65
   4  -4   3   15.82    0.62
   5  -4   3    1.95    0.14
   5  -4   3    1.99    0.17
   5  -4   3    2.26    0.19
   6  -4   3    5.69    0.26
   6  -4   3    5.40    0.25
   6  -4   3    5.73    0.28
  -7   4  -3    7.74    0.31
   7  -4   3    7.28    0.30
   7  -4   3    7.76    0.31
   7  -4   3    7.49    0.32
   9   3  -3    2.04    0.13
   8   3  -3    3.27    0.18
  -8  -3   3    3.01    0.17
   7   3  -3   16.60    0.65
  -7  -3   3   17.26    0.63
  -6  -3   3    0.77    0.13
  -6  -3   3    0.85    0.15
  -5  -3   3    0.23    0.10
  -5  -3   3    0.28    0.09
  -4  -3   3    0.01    0.04
  -4  -3   3    0.00    0.07
  -3  -3   3    7.82    0.31
  -2  -3   3   47.77    1.66
   1   3  -3   40.82    1.46
  -1  -3   3   42.24    1.45
   0   3  -3    4.58    0.23
   0   3  -3    5.21    0.21
   0  -3   3    4.84    0.21
  -1   3  -3    1.69    0.14
  -1   3  -3    1.93    0.13
   1  -3   3    1.71    0.12
  -2   3  -3    1.31    0.13
   2  -3   3    1.02    0.15
   3  -3   3    1.55    0.18
   3  -3   3    1.82    0.18
   3  -3   3    1.98    0.14
   3  -3   3    1.78    0.20
   4  -3   3    1.21    0.15
   4  -3   3    1.46    0.17
   4  -3   3    1.61    0.13
   4  -3   3    1.73    0.15
   5  -3   3   30.52    1.10
   5  -3   3   31.51    1.14
   5  -3   3   30.98    1.12
   5  -3   3   29.98    1.10
   6  -3   3    0.64    0.13
   6  -3   3    0.62    0.11
   6  -3   3    0.57    0.14
   7  -3   3    0.17    0.07
   7  -3   3    0.09    0.06
   7  -3   3    0.15    0.06
  -8   3  -3    2.70    0.15
   8  -3   3    2.73    0.15
   8  -3   3    2.79    0.16
   8  -3   3    2.59    0.13
   9   2  -3    0.05    0.05
  -9  -2   3    0.07    0.05
   8   2  -3    0.37    0.11
  -8  -2   3    0.43    0.10
   7   2  -3    7.93    0.35
  -7  -2   3    7.89    0.34
   6   2  -3    0.07    0.06
  -6  -2   3    0.01    0.07
  -6  -2   3    0.16    0.07
  -5  -2   3    1.24    0.11
  -5  -2   3    1.43    0.16
  -4  -2   3   13.93    0.52
  -3  -2   3   16.85    0.59
  -3  -2   3   15.19    0.60
   2   2  -3  146.96    5.27
  -2  -2   3  158.73    5.26
  -2  -2   3  155.73    5.27
   1   2  -3   48.97    1.69
  -1  -2   3   48.40    1.69
   0   2  -3   42.37    1.46
   0  -2   3   41.25    1.45
  -1   2  -3    0.49    0.08
  -1   2  -3    0.45    0.06
  -2   2  -3   14.49    0.52
  -2   2  -3   13.25    0.51
  -3   2  -3    9.95    0.39
   4  -2   3    0.04    0.06
   4  -2   3    0.02    0.09
   4  -2   3    0.06    0.08
   4  -2   3    0.13    0.07
   5  -2   3    6.09    0.27
   5  -2   3    6.04    0.30
   5  -2   3    5.94    0.27
   5  -2   3    6.11    0.31
   6  -2   3    9.18    0.41
   6  -2   3    8.67    0.37
   6  -2   3    8.89    0.39
   6  -2   3    9.10    0.37
   7  -2   3    0.17    0.08
   7  -2   3    0.13    0.07
   7  -2   3    0.07    0.06
   8  -2   3    2.82    0.16
   8  -2   3    2.94    0.19
   8  -2   3    3.11    0.17
  -9   2  -3   -0.04    0.04
   9  -2   3    0.07    0.04
   9  -2   3    0.09    0.06
   9   1  -3    0.10    0.05
  -9  -1   3    0.26    0.07
   8   1  -3    1.12    0.13
  -8  -1   3    0.96    0.11
   7   1  -3    0.54    0.13
  -7  -1   3    0.46    0.12
   6   1  -3    0.89    0.15
  -6  -1   3    0.81    0.13
   5   1  -3   13.64    0.53
  -5  -1   3   13.81    0.52
  -5  -1   3   13.47    0.52
  -4  -1   3    5.88    0.25
  -4  -1   3    5.78    0.28
  -3  -1   3  117.65    3.93
  -3  -1   3  110.76    3.92
   2   1  -3    5.24    0.22
  -2  -1   3    5.09    0.21
  -2  -1   3    5.26    0.21
   1   1  -3   75.97    2.62
   0   1  -3   97.67    3.35
  -1   1  -3   64.12    2.15
  -1   1  -3   60.86    2.15
  -2   1  -3   72.21    2.48
  -3   1  -3  153.23    5.25
  -4   1  -3    2.25    0.15
   4  -1   3    1.70    0.19
   5  -1   3    6.31    0.27
   5  -1   3    5.97    0.30
   5  -1   3    6.05    0.27
   5  -1   3    5.87    0.31
   6  -1   3    8.99    0.39
   6  -1   3    8.96    0.37
   6  -1   3    8.72    0.40
   6  -1   3    8.90    0.37
   7  -1   3   18.06    0.68
   7  -1   3   17.97    0.70
   7  -1   3   18.78    0.72
   8  -1   3    5.28    0.26
   8  -1   3    5.41    0.27
   8  -1   3    5.03    0.24
  -9   1  -3    0.00    0.05
   9  -1   3    0.21    0.06
   9  -1   3    0.06    0.04
   9   0  -3    0.82    0.10
  -9   0   3    0.98    0.08
   8   0  -3    1.98    0.15
  -8   0   3    1.72    0.13
   7   0  -3    1.00    0.15
  -7   0   3    0.89    0.12
   6   0  -3   12.06    0.49
  -6   0   3   11.80    0.47
  -5   0   3    0.84    0.12
  -5   0   3    0.69    0.14
  -4   0   3   16.52    0.60
  -4   0   3   16.29    0.62
   3   0  -3   73.51    2.53
  -3   0   3   74.74    2.53
  -3   0   3   71.58    2.53
   2   0  -3   14.54    0.52
  -2   0   3   14.32    0.52
   1   0  -3    3.98    0.16
   0   0  -3  165.50    5.67
  -1   0  -3  164.26    5.65
  -2   0  -3   60.92    2.16
   2   0   3   64.68    2.16
  -3   0  -3    7.76    0.30
   3   0   3    7.65    0.30
  -4   0  -3    9.28    0.36
   5   0   3    6.86    0.35
   5   0   3    7.11    0.30
   5   0   3    7.27    0.34
   5   0   3    7.00    0.30
   6   0   3    2.90    0.22
   6   0   3    3.40    0.18
   6   0   3    3.26    0.18
   6   0   3    3.20    0.23
   7   0   3   38.99    1.40
   7   0   3   39.33    1.42
   7   0   3   40.05    1.43
   7   0   3   39.84    1.41
   8   0   3   19.62    0.75
   8   0   3   19.32    0.72
   8   0   3   19.63    0.74
   9   0   3   -0.05    0.06
   9   0   3    0.02    0.05
   9   0   3    0.13    0.10
 -10   0  -3    2.26    0.12
  10   0   3    2.55    0.14
  10   0   3    2.34    0.12
   9  -1  -3    0.10    0.05
  -9   1   3    0.23    0.06
   8  -1  -3    7.69    0.33
  -8   1   3    7.80    0.32
   7  -1  -3   86.21    2.99
  -7   1   3   82.95    2.97
  -7   1   3   87.97    2.97
   6  -1  -3   48.35    1.68
  -6   1   3   45.60    1.65
   5  -1  -3   24.53    0.90
  -5   1   3   24.16    0.88
  -4   1   3   11.39    0.45
  -4   1   3   11.63    0.45
   3  -1  -3   13.78    0.51
  -3   1   3   13.82    0.50
  -3   1   3   13.77    0.51
   2  -1  -3   11.73    0.42
  -2   1   3   11.65    0.42
   1  -1  -3  105.74    3.62
   0  -1  -3    8.38    0.31
   0  -1  -3    8.55    0.31
  -1  -1  -3   62.10    2.13
  -2  -1  -3   95.35    3.27
   3   1   3   17.85    0.64
  -4  -1  -3   40.16    1.41
  -5  -1  -3    0.16    0.08
   5   1   3    0.22    0.07
   5   1   3    0.33    0.10
   6   1   3    8.09    0.36
   6   1   3    8.14    0.38
   6   1   3    8.29    0.33
   6   1   3    7.80    0.33
   7   1   3    6.50    0.35
   7   1   3    6.89    0.32
   7   1   3    6.56    0.29
   7   1   3    6.48    0.29
   8   1   3    9.89    0.46
   8   1   3   10.45    0.43
   8   1   3   10.36    0.41
   9   1   3    4.34    0.20
   9   1   3    4.28    0.22
 -10  -1  -3    2.20    0.12
  10   1   3    2.13    0.12
  10   1   3    2.08    0.13
   9  -2  -3    2.44    0.14
  -9   2   3    2.42    0.12
   8  -2  -3    5.51    0.25
  -8   2   3    4.65    0.24
  -8   2   3    5.43    0.23
   7  -2  -3   22.43    0.83
  -7   2   3   22.10    0.83
  -7   2   3   22.18    0.81
   6  -2  -3    0.91    0.16
  -6   2   3    0.72    0.12
   5  -2  -3    7.95    0.36
  -5   2   3    7.88    0.33
   4  -2  -3    1.70    0.19
  -4   2   3    1.91    0.15
   3  -2  -3    0.28    0.08
   3  -2  -3    0.11    0.05
  -3   2   3    0.21    0.05
   2  -2  -3   61.79    2.12
   1  -2  -3   98.06    3.35
   0  -2  -3   20.49    0.71
   0  -2  -3   20.32    0.71
  -1  -2  -3   20.17    0.71
   1   2   3   20.59    0.71
  -2  -2  -3    2.37    0.11
   2   2   3    2.35    0.10
  -3  -2  -3   20.57    0.70
   3   2   3   18.84    0.70
  -4  -2  -3    0.04    0.04
   4   2   3   -0.03    0.07
  -5  -2  -3   58.93    2.07
   6   2   3    1.33    0.12
   6   2   3    1.35    0.18
   6   2   3    1.23    0.13
   7   2   3    2.13    0.14
   7   2   3    1.88    0.18
   8   2   3    0.42    0.11
   8   2   3    0.26    0.08
  -9  -2  -3    0.56    0.11
   9   2   3    0.37    0.08
   9   2   3    0.58    0.09
 -10  -2  -3    0.91    0.09
  10   2   3    0.58    0.08
  10   2   3    0.72    0.10
   8  -3  -3    2.83    0.16
  -8   3   3    2.74    0.16
  -8   3   3    2.71    0.14
   7  -3  -3    5.63    0.27
  -7   3   3    5.23    0.26
  -7   3   3    5.65    0.25
   6  -3  -3    8.44    0.38
  -6   3   3    8.56    0.36
   5  -3  -3    0.09    0.08
  -5   3   3    0.12    0.07
   4  -3  -3    4.60    0.27
  -4   3   3    4.92    0.24
   3  -3  -3    0.06    0.06
   2  -3  -3   46.54    1.62
   1  -3  -3    1.70    0.11
   0  -3  -3    9.93    0.36
   0  -3  -3   10.60    0.36
  -1  -3  -3    1.46    0.07
   1   3   3    1.55    0.07
  -2  -3  -3    5.94    0.23
   2   3   3    5.96    0.23
   3   3   3   26.53    0.94
  -4  -3  -3   28.66    1.02
   5   3   3   19.52    0.70
   6   3   3    0.40    0.09
   6   3   3    0.25    0.09
   7   3   3    0.41    0.09
   8   3   3    1.22    0.15
   8   3   3    1.10    0.11
  -9  -3  -3    1.07    0.13
   9   3   3    1.12    0.13
   9   3   3    1.15    0.11
 -10  -3  -3    4.25    0.20
  10   3   3    4.36    0.19
  10   3   3    4.19    0.20
   8  -4  -3    2.84    0.15
  -8   4   3    2.95    0.14
  -8   4   3    2.72    0.15
   7  -4  -3    1.38    0.13
  -7   4   3    1.24    0.12
  -7   4   3    1.19    0.12
   6  -4  -3    0.43    0.12
  -6   4   3    0.24    0.08
   5  -4  -3    0.08    0.08
  -5   4   3    0.18    0.08
   4  -4  -3    0.36    0.11
   4  -4  -3    0.09    0.09
  -4   4   3    0.02    0.09
   3  -4  -3    3.22    0.23
   3  -4  -3    2.88    0.22
  -3   4   3    2.85    0.23
   2  -4  -3   30.06    1.06
   1  -4  -3   10.83    0.41
   0  -4  -3    0.79    0.08
  -1  -4  -3    5.27    0.22
  -2  -4  -3   48.54    1.73
  -2  -4  -3   50.10    1.72
   2   4   3   50.74    1.72
  -3  -4  -3   26.81    0.94
  -3  -4  -3   27.75    0.94
   3   4   3   24.87    0.94
  -4  -4  -3   14.81    0.55
  -4  -4  -3   14.35    0.53
  -5  -4  -3   10.96    0.43
   5   4   3   11.31    0.42
   6   4   3    5.45    0.24
   7   4   3    0.93    0.10
   7   4   3    0.95    0.14
  -8  -4  -3    2.43    0.21
   8   4   3    2.22    0.17
   8   4   3    2.27    0.14
  -9  -4  -3   -0.10    0.09
   9   4   3    0.00    0.06
   9   4   3    0.07    0.05
  10   4   3    0.96    0.09
  10   4   3    1.11    0.12
   7  -5  -3    0.81    0.10
  -7   5   3    0.81    0.09
   6  -5  -3    1.69    0.14
  -6   5   3    1.60    0.18
   5  -5  -3    8.33    0.36
   5  -5  -3    8.62    0.35
  -5   5   3    7.54    0.36
   4  -5  -3    0.07    0.09
   4  -5  -3    0.12    0.08
   3  -5  -3   16.05    0.61
   3  -5  -3   15.16    0.59
   2  -5  -3    2.04    0.17
   2  -5  -3    1.83    0.18
   2  -5  -3    1.63    0.14
   1  -5  -3    0.63    0.09
   1  -5  -3    0.19    0.15
   1  -5  -3    1.16    0.17
   0  -5  -3   11.79    0.45
  -1  -5  -3    4.89    0.21
  -2  -5  -3    3.69    0.17
  -2  -5  -3    4.05    0.18
   2   5   3    3.77    0.18
  -3  -5  -3   51.03    1.71
  -3  -5  -3   49.28    1.71
   3   5   3   47.00    1.72
  -4  -5  -3    4.58    0.26
  -4  -5  -3    5.16    0.22
  -5  -5  -3    0.14    0.08
  -5  -5  -3   -0.02    0.04
  -6  -5  -3    5.98    0.25
   6   5   3    4.52    0.23
   7   5   3    5.55    0.24
   8   5   3    1.05    0.10
   8   5   3    0.85    0.13
   9   5   3    8.57    0.34
   9   5   3    8.62    0.35
  10   5   3   12.83    0.49
  10   5   3   13.40    0.48
   6  -6  -3    0.55    0.09
  -6   6   3    0.58    0.09
   5  -6  -3    0.11    0.06
   5  -6  -3    0.07    0.08
   4  -6  -3    7.90    0.34
   4  -6  -3    8.06    0.36
   3  -6  -3    8.34    0.35
   3  -6  -3    7.97    0.36
   2  -6  -3   19.44    0.73
   2  -6  -3   19.51    0.71
   2  -6  -3   18.84    0.71
   1  -6  -3   23.63    0.85
   1  -6  -3   23.15    0.85
   1  -6  -3   23.57    0.87
   0  -6  -3   18.74    0.71
   0  -6  -3   19.78    0.70
   0  -6  -3   19.79    0.70
   0   6   3   17.97    0.74
  -1  -6  -3    0.35    0.10
  -1  -6  -3    0.38    0.12
  -1  -6  -3    0.43    0.08
  -2  -6  -3    8.38    0.34
  -2  -6  -3    8.34    0.34
  -2  -6  -3    8.54    0.36
  -3  -6  -3    2.19    0.17
  -3  -6  -3    2.71    0.15
  -3  -6  -3    2.74    0.15
  -4  -6  -3    1.39    0.12
  -4  -6  -3    1.65    0.14
  -5  -6  -3   -0.09    0.07
  -5  -6  -3    0.06    0.05
  -6  -6  -3    0.16    0.06
   6   6   3    0.10    0.05
   7   6   3   27.12    0.97
   8   6   3   10.31    0.40
   8   6   3   10.41    0.42
   9   6   3    1.86    0.13
   9   6   3    1.79    0.11
  10   6   3   -0.07    0.05
  10   6   3    0.06    0.06
   5  -7  -3    0.03    0.04
  -5   7   3    0.01    0.05
   4  -7  -3    1.36    0.12
   4  -7  -3    1.17    0.11
  -4   7   3    1.40    0.13
   3  -7  -3    6.50    0.30
   3  -7  -3    6.59    0.28
   2  -7  -3   32.37    1.16
   2  -7  -3   32.04    1.15
   1  -7  -3    0.38    0.08
   1  -7  -3    0.45    0.12
   1  -7  -3    0.47    0.12
  -1   7   3    0.26    0.11
   0  -7  -3    1.04    0.12
   0  -7  -3    0.97    0.13
   0  -7  -3    1.32    0.12
  -1  -7  -3   12.31    0.46
  -1  -7  -3   11.60    0.46
  -1  -7  -3   10.85    0.45
  -2  -7  -3   13.47    0.52
  -2  -7  -3   13.37    0.52
  -2  -7  -3   14.04    0.52
  -3  -7  -3    0.10    0.05
  -3  -7  -3    0.31    0.09
  -3  -7  -3    0.19    0.06
  -4  -7  -3    8.54    0.36
  -4  -7  -3    8.64    0.35
  -5  -7  -3   11.55    0.47
  -5  -7  -3   12.65    0.48
  -6  -7  -3    0.28    0.10
  -7  -7  -3    0.12    0.08
   7   7   3    0.07    0.05
   8   7   3    0.05    0.04
   8   7   3    0.01    0.05
   9   7   3   16.33    0.58
   9   7   3   16.14    0.59
   4  -8  -3    0.98    0.08
   4  -8  -3    0.69    0.09
  -4   8   3    1.01    0.10
   3  -8  -3    1.01    0.10
   3  -8  -3    0.91    0.10
  -3   8   3    1.05    0.12
   2  -8  -3    0.78    0.10
   2  -8  -3    0.91    0.10
  -2   8   3    0.91    0.14
   1  -8  -3    1.78    0.17
   1  -8  -3    1.77    0.14
   1  -8  -3    1.96    0.13
   0  -8  -3    0.57    0.10
   0  -8  -3    0.56    0.11
   0  -8  -3    0.52    0.10
  -1  -8  -3    0.01    0.05
  -1  -8  -3    0.09    0.06
  -1  -8  -3    0.00    0.05
  -2  -8  -3    2.56    0.16
  -2  -8  -3    2.43    0.15
  -2  -8  -3    2.44    0.14
  -3  -8  -3    0.36    0.09
  -3  -8  -3    0.54    0.11
  -3  -8  -3    0.53    0.09
  -4  -8  -3    0.91    0.11
  -4  -8  -3    0.91    0.11
  -5  -8  -3   32.36    1.09
  -5  -8  -3   28.67    1.10
  -6  -8  -3    2.64    0.16
   6   8   3    2.66    0.14
  -7  -8  -3    0.48    0.13
   7   8   3    0.28    0.07
   8   8   3    0.06    0.04
   8   8   3    0.10    0.05
   9   8   3    1.11    0.12
   9   8   3    1.64    0.09
   3  -9  -3    2.74    0.13
   3  -9  -3    2.66    0.13
   2  -9  -3    1.12    0.08
   2  -9  -3    1.15    0.09
   1  -9  -3    3.93    0.19
   1  -9  -3    4.10    0.18
   0  -9  -3    1.02    0.13
   0  -9  -3    0.98    0.09
   0  -9  -3    1.11    0.10
  -1  -9  -3    1.66    0.11
  -1  -9  -3    1.54    0.13
  -1  -9  -3    1.75    0.12
  -2  -9  -3    3.99    0.19
  -2  -9  -3    3.49    0.20
  -2  -9  -3    3.99    0.18
  -3  -9  -3    4.87    0.22
  -3  -9  -3    4.58    0.23
  -4  -9  -3    0.07    0.04
  -4  -9  -3    0.00    0.05
  -5  -9  -3    2.21    0.14
  -5  -9  -3    2.21    0.13
  -6  -9  -3    3.37    0.18
   6   9   3    3.38    0.16
  -7  -9  -3    3.73    0.21
   7   9   3    3.95    0.16
   8   9   3    0.99    0.10
   8   9   3    1.09    0.08
   1 -10  -3    1.05    0.08
   1 -10  -3    1.06    0.07
   0 -10  -3    0.19    0.05
   0 -10  -3    0.15    0.04
  -1 -10  -3    0.20    0.08
  -1 -10  -3    0.28    0.06
  -1 -10  -3    0.15    0.04
  -2 -10  -3    0.88    0.11
  -2 -10  -3    0.59    0.08
  -3 -10  -3   12.80    0.48
  -3 -10  -3   12.22    0.46
  -4 -10  -3    2.03    0.11
  -4 -10  -3    2.10    0.13
  -5 -10  -3    0.02    0.04
  -5 -10  -3    0.00    0.05
   5  10   3    0.04    0.04
  -6 -10  -3    0.14    0.06
   6  10   3    0.14    0.04
   7  10   3    0.29    0.06
  -3 -11  -3    1.39    0.13
  -4  -8   4    0.35    0.10
  -3  -8   4    1.86    0.14
  -3  -8   4    1.89    0.11
  -2  -8   4    0.38    0.08
  -1  -8   4    0.59    0.08
   0  -8   4    0.05    0.04
   1  -8   4    3.68    0.16
   6   7  -4    2.60    0.13
  -6  -7   4    2.48    0.15
  -5  -7   4    8.99    0.36
  -4  -7   4    0.12    0.05
  -4  -7   4    0.18    0.05
  -3  -7   4    8.82    0.33
  -3  -7   4    8.12    0.35
  -2  -7   4    5.53    0.24
  -2  -7   4    5.65    0.26
  -1  -7   4    0.11    0.07
  -1  -7   4   -0.02    0.05
   0  -7   4    2.50    0.15
   0  -7   4    2.61    0.14
   1  -7   4    1.77    0.12
   1  -7   4    1.68    0.12
   2  -7   4   12.42    0.47
   2  -7   4   12.85    0.47
   3  -7   4    0.60    0.09
   3  -7   4    0.76    0.08
   4  -7   4    0.14    0.04
   7   6  -4    0.41    0.08
  -6  -6   4    0.01    0.05
  -5  -6   4    4.84    0.23
  -4  -6   4   10.81    0.46
  -4  -6   4   12.57    0.45
  -3  -6   4    0.12    0.06
  -3  -6   4    0.03    0.05
  -2  -6   4    0.08    0.05
  -2  -6   4    0.08    0.06
  -1  -6   4    0.11    0.06
  -1  -6   4   -0.02    0.05
   0  -6   4    0.08    0.07
   0  -6   4    0.12    0.07
   0  -6   4    0.11    0.08
   1  -6   4   11.58    0.46
   1  -6   4   11.96    0.46
   2  -6   4   23.29    0.83
   2  -6   4   22.85    0.84
   3  -6   4    0.81    0.11
   3  -6   4    0.90    0.10
   4  -6   4    0.10    0.06
   4  -6   4    0.09    0.10
   4  -6   4    0.24    0.07
   5  -6   4    1.42    0.09
   5  -6   4    1.27    0.12
   8   5  -4    0.12    0.05
   7   5  -4    1.11    0.11
  -7  -5   4    1.10    0.15
  -6  -5   4    0.48    0.10
  -5  -5   4    9.95    0.40
  -4  -5   4    0.08    0.07
  -4  -5   4    0.07    0.04
  -3  -5   4    0.89    0.11
  -2  -5   4    2.70    0.17
  -2  -5   4    3.40    0.18
  -1  -5   4    7.24    0.31
  -1  -5   4    7.13    0.31
   0  -5   4    3.22    0.21
   0  -5   4    3.55    0.20
   0  -5   4    3.46    0.19
   1  -5   4    0.27    0.09
   1  -5   4    0.13    0.07
   2  -5   4    0.03    0.14
   2  -5   4    0.12    0.07
   2  -5   4    0.10    0.07
   3  -5   4    7.93    0.34
   3  -5   4    7.84    0.33
   3  -5   4    7.81    0.37
   4  -5   4    3.10    0.16
   4  -5   4    2.83    0.20
   4  -5   4    3.01    0.17
   5  -5   4    0.02    0.07
   5  -5   4    0.01    0.05
   5  -5   4    0.03    0.04
   6  -5   4    0.97    0.11
   6  -5   4    0.89    0.08
   6  -5   4    1.10    0.11
   8   4  -4    0.08    0.05
   7   4  -4    1.86    0.14
  -7  -4   4    1.63    0.17
  -6  -4   4    8.75    0.36
  -5  -4   4    1.63    0.13
  -4  -4   4    0.55    0.09
  -4  -4   4    0.61    0.13
  -3  -4   4    0.16    0.08
  -3  -4   4    0.11    0.05
  -2  -4   4    4.81    0.24
  -2  -4   4    5.16    0.23
  -1  -4   4   11.59    0.46
  -1  -4   4   11.76    0.45
   0  -4   4   49.11    1.77
   0  -4   4   52.03    1.77
   1  -4   4    1.26    0.16
   1  -4   4    1.30    0.15
   1  -4   4    1.49    0.14
   2  -4   4    3.98    0.21
   2  -4   4    3.81    0.22
   2  -4   4    3.93    0.28
   3  -4   4    2.61    0.17
   3  -4   4    2.55    0.19
   3  -4   4    2.58    0.21
   4  -4   4    2.41    0.16
   4  -4   4    2.45    0.18
   4  -4   4    2.64    0.21
   4  -4   4    2.04    0.19
   5  -4   4    5.31    0.24
   5  -4   4    4.68    0.27
   5  -4   4    5.41    0.25
   6  -4   4    0.72    0.12
   6  -4   4    0.73    0.09
   6  -4   4    0.64    0.11
   7  -4   4    1.75    0.10
   7  -4   4    1.79    0.12
   7  -4   4    1.81    0.13
   9   3  -4    0.54    0.11
   8   3  -4    0.33    0.10
  -8  -3   4    0.33    0.06
   7   3  -4    0.00    0.06
  -7  -3   4   -0.01    0.06
   6   3  -4    6.91    0.31
  -6  -3   4    6.61    0.30
  -6  -3   4    7.17    0.30
  -5  -3   4    6.13    0.29
  -5  -3   4    6.33    0.28
  -4  -3   4    0.65    0.09
  -4  -3   4    0.81    0.11
  -3  -3   4    4.27    0.20
  -3  -3   4    3.98    0.23
  -2  -3   4    2.31    0.13
  -1  -3   4    4.87    0.21
   0   3  -4    5.94    0.28
   0  -3   4    6.25    0.26
  -1   3  -4    3.73    0.24
   1  -3   4    3.48    0.18
   2  -3   4   -0.02    0.08
   2  -3   4    0.21    0.11
   2  -3   4    0.00    0.11
   3  -3   4    0.07    0.07
   3  -3   4    0.14    0.09
   3  -3   4    0.12    0.10
   3  -3   4    0.51    0.17
   4  -3   4    1.44    0.16
   4  -3   4    1.64    0.19
   4  -3   4    1.31    0.19
   4  -3   4    1.63    0.14
   5  -3   4    2.04    0.19
   5  -3   4    2.41    0.16
   5  -3   4    2.04    0.19
   5  -3   4    2.17    0.16
   6  -3   4    0.93    0.15
   6  -3   4    0.47    0.12
   6  -3   4    0.64    0.10
   6  -3   4    0.77    0.14
   7  -3   4    0.56    0.11
   7  -3   4    0.57    0.12
   7  -3   4    0.64    0.08
  -8   3  -4    1.89    0.13
   8  -3   4    1.89    0.13
   8  -3   4    1.91    0.10
   8  -3   4    1.84    0.14
   9   2  -4    0.18    0.06
  -9  -2   4    0.21    0.05
   8   2  -4    1.43    0.13
  -8  -2   4    1.56    0.11
   7   2  -4    4.70    0.25
  -7  -2   4    4.53    0.22
   6   2  -4    4.70    0.25
  -6  -2   4    4.35    0.24
  -6  -2   4    4.81    0.23
  -5  -2   4    2.72    0.17
  -5  -2   4    2.81    0.18
  -4  -2   4    5.46    0.24
  -4  -2   4    5.11    0.26
  -3  -2   4    6.42    0.27
  -2  -2   4   35.25    1.24
  -1  -2   4   46.66    1.62
   0   2  -4    8.62    0.34
   0  -2   4    8.72    0.33
  -1   2  -4    9.18    0.40
  -1   2  -4   10.76    0.39
   1  -2   4   10.08    0.38
  -2   2  -4    0.05    0.08
  -3   2  -4    5.79    0.31
   3  -2   4    6.05    0.28
   3  -2   4    6.46    0.30
   3  -2   4    6.29    0.28
   4  -2   4    1.26    0.15
   4  -2   4    1.37    0.17
   4  -2   4    1.48    0.14
   4  -2   4    1.09    0.19
   5  -2   4    3.37    0.19
   5  -2   4    3.47    0.22
   5  -2   4    2.92    0.21
   5  -2   4    3.02    0.18
   6  -2   4    0.29    0.07
   6  -2   4    0.18    0.08
   6  -2   4    0.51    0.11
   6  -2   4    0.22    0.09
   7  -2   4   17.65    0.65
   7  -2   4   16.45    0.66
   7  -2   4   18.10    0.68
   8  -2   4    0.46    0.08
   8  -2   4    0.56    0.12
   8  -2   4    0.77    0.12
  -9   2  -4    2.43    0.12
   9  -2   4    2.43    0.12
   9   1  -4    0.98    0.11
  -9  -1   4    0.79    0.08
   8   1  -4    0.06    0.06
  -8  -1   4    0.06    0.05
   7   1  -4    9.83    0.42
  -7  -1   4   10.05    0.40
   6   1  -4    0.09    0.08
  -6  -1   4    0.04    0.06
  -6  -1   4   -0.02    0.08
   5   1  -4    3.30    0.22
  -5  -1   4    3.59    0.20
  -5  -1   4    3.63    0.19
  -4  -1   4    0.62    0.12
  -4  -1   4    0.48    0.09
  -3  -1   4   20.78    0.78
  -3  -1   4   21.60    0.76
  -2  -1   4    5.20    0.22
   1   1  -4    6.65    0.28
  -1  -1   4    6.82    0.27
   0   1  -4    0.67    0.09
   0  -1   4    0.80    0.08
  -1   1  -4    1.31    0.11
  -1   1  -4    1.43    0.09
  -2   1  -4   24.85    0.89
  -3   1  -4   35.92    1.27
  -4   1  -4   41.46    1.53
   4  -1   4   44.09    1.52
   4  -1   4   43.17    1.51
   4  -1   4   43.05    1.51
   5  -1   4   27.36    1.03
   5  -1   4   27.82    1.01
   5  -1   4   27.80    1.01
   5  -1   4   29.24    1.03
   6  -1   4    3.41    0.23
   6  -1   4    3.36    0.23
   6  -1   4    3.68    0.20
   6  -1   4    3.66    0.19
   7  -1   4    3.60    0.19
   7  -1   4    3.45    0.19
   7  -1   4    3.52    0.23
   7  -1   4    3.31    0.22
   8  -1   4    0.99    0.14
   8  -1   4    1.29    0.11
   8  -1   4    1.10    0.14
  -9   1  -4    0.00    0.05
   9  -1   4    0.05    0.07
   9  -1   4    0.05    0.07
   9  -1   4    0.06    0.04
   9   0  -4    1.33    0.12
  -9   0   4    1.46    0.09
   8   0  -4   10.19    0.41
  -8   0   4    9.82    0.39
   7   0  -4    0.94    0.14
  -7   0   4    1.00    0.12
   6   0  -4   12.82    0.52
  -6   0   4   13.15    0.51
   5   0  -4    2.95    0.22
  -5   0   4    2.88    0.18
  -5   0   4    3.13    0.18
   4   0  -4    0.70    0.23
  -4   0   4    1.37    0.11
  -4   0   4    1.16    0.14
  -3   0   4   36.59    1.31
  -3   0   4   37.40    1.30
   2   0  -4   16.06    0.59
  -2   0   4   16.01    0.58
   1   0  -4   42.43    1.45
  -1   0   4   40.56    1.44
   0   0  -4    8.62    0.32
   0   0  -4    8.54    0.33
  -1   0  -4    6.00    0.24
  -2   0  -4  126.08    4.32
  -3   0  -4   76.28    2.64
  -4   0  -4   53.83    1.89
   5   0   4   17.31    0.72
   5   0   4   18.49    0.68
   5   0   4   18.77    0.68
   5   0   4   19.25    0.70
   6   0   4    1.04    0.19
   6   0   4    0.78    0.11
   6   0   4    0.80    0.12
   6   0   4    1.04    0.17
   7   0   4   23.05    0.84
   7   0   4   22.45    0.85
   7   0   4   21.97    0.82
   7   0   4   22.17    0.83
   8   0   4    4.25    0.24
   8   0   4    4.49    0.21
   8   0   4    4.64    0.25
   9   0   4    1.56    0.11
   9   0   4    1.56    0.16
   9   0   4    1.36    0.14
 -10   0  -4    0.23    0.07
  10   0   4    0.18    0.04
   9  -1  -4    0.17    0.06
  -9   1   4    0.06    0.03
   8  -1  -4    0.67    0.12
  -8   1   4    0.59    0.08
   7  -1  -4   18.74    0.71
  -7   1   4   18.27    0.69
   6  -1  -4    0.84    0.16
  -6   1   4    0.52    0.11
   5  -1  -4   17.74    0.68
  -5   1   4   17.26    0.68
  -5   1   4   17.85    0.66
   4  -1  -4   -0.17    0.11
  -4   1   4    0.21    0.11
  -4   1   4   -0.12    0.06
  -3   1   4    8.08    0.32
  -3   1   4    7.93    0.33
   2  -1  -4   16.64    0.62
  -2   1   4   17.18    0.61
   1  -1  -4    3.10    0.14
  -1   1   4    2.92    0.14
   0  -1  -4  271.97    9.64
   0  -1  -4  288.71    9.61
  -1  -1  -4   24.55    0.86
  -2  -1  -4   52.18    1.81
  -3  -1  -4   11.10    0.42
   3   1   4   11.29    0.43
  -4  -1  -4   91.27    3.15
   5   1   4    3.41    0.18
   5   1   4    3.54    0.22
   6   1   4    6.08    0.27
   6   1   4    6.14    0.31
   6   1   4    6.40    0.27
   6   1   4    5.74    0.33
   7   1   4    7.34    0.36
   7   1   4    7.09    0.31
   7   1   4    6.97    0.34
   7   1   4    7.11    0.31
   8   1   4   28.50    1.01
   8   1   4   28.38    1.02
   8   1   4   27.18    1.03
   9   1   4    4.78    0.21
   9   1   4    4.45    0.31
   9   1   4    4.90    0.24
 -10  -1  -4    3.14    0.14
  10   1   4    2.95    0.14
   8  -2  -4    0.00    0.06
  -8   2   4    0.01    0.04
   7  -2  -4    4.87    0.26
  -7   2   4    5.28    0.26
  -7   2   4    5.83    0.25
   6  -2  -4    7.36    0.35
  -6   2   4    7.19    0.34
  -6   2   4    7.31    0.32
   5  -2  -4    0.65    0.18
  -5   2   4    0.51    0.12
   4  -2  -4    4.65    0.28
   4  -2  -4    4.87    0.23
  -4   2   4    4.43    0.23
   2  -2  -4    1.75    0.12
   1  -2  -4    3.27    0.14
   1  -2  -4    3.12    0.14
   0  -2  -4  281.75    9.48
   0  -2  -4  272.32    9.47
  -1  -2  -4   66.46    2.28
  -2  -2  -4    0.37    0.05
   2   2   4    0.31    0.05
  -3  -2  -4    2.68    0.13
   3   2   4    2.54    0.14
  -4  -2  -4    1.10    0.11
   5   2   4   78.60    2.69
   5   2   4   77.39    2.70
   6   2   4    2.18    0.23
   6   2   4    2.22    0.14
   6   2   4    2.32    0.24
   6   2   4    2.02    0.15
   7   2   4    1.73    0.20
   7   2   4    1.64    0.14
   7   2   4    1.73    0.13
   7   2   4    2.06    0.24
   8   2   4    0.12    0.06
   8   2   4    0.07    0.09
   9   2   4    0.28    0.08
   9   2   4    0.17    0.05
 -10  -2  -4    1.18    0.10
  10   2   4    1.18    0.14
  10   2   4    1.28    0.09
   8  -3  -4    0.65    0.10
  -8   3   4    0.47    0.07
  -8   3   4    0.41    0.11
   7  -3  -4    3.38    0.19
  -7   3   4    3.44    0.17
  -7   3   4    3.15    0.18
   6  -3  -4    0.01    0.08
  -6   3   4    0.05    0.06
  -6   3   4    0.18    0.08
   5  -3  -4    0.64    0.17
  -5   3   4    0.32    0.08
   4  -3  -4    1.63    0.21
  -4   3   4    1.36    0.16
   3  -3  -4   17.78    0.63
  -3   3   4   15.97    0.63
   2  -3  -4   79.96    2.68
   2  -3  -4   75.14    2.66
   1  -3  -4   12.52    0.46
   1  -3  -4   13.11    0.48
   1  -3  -4   13.27    0.47
   0  -3  -4   90.16    3.15
   0  -3  -4   89.77    3.13
   0  -3  -4   94.90    3.14
  -1  -3  -4   25.09    0.90
  -1  -3  -4   26.20    0.90
  -2  -3  -4    8.97    0.33
  -2  -3  -4    8.15    0.33
   2   3   4    8.84    0.33
  -3  -3  -4    5.89    0.26
  -3  -3  -4    6.77    0.26
   3   3   4    6.44    0.26
  -4  -3  -4    4.59    0.21
  -4  -3  -4    4.16    0.21
   5   3   4    5.96    0.25
   6   3   4    7.41    0.30
   6   3   4    7.22    0.32
   6   3   4    6.92    0.34
   7   3   4    3.32    0.23
   7   3   4    3.30    0.21
   7   3   4    3.68    0.18
   8   3   4    0.11    0.06
   8   3   4    0.18    0.09
   9   3   4    0.08    0.05
   9   3   4    0.12    0.08
 -10  -3  -4    0.87    0.11
  10   3   4    0.73    0.13
  10   3   4    0.85    0.08
   7  -4  -4    0.04    0.06
  -7   4   4    0.08    0.05
  -7   4   4    0.02    0.05
   6  -4  -4    2.31    0.18
  -6   4   4    2.18    0.16
  -6   4   4    1.91    0.15
   5  -4  -4    0.17    0.09
  -5   4   4    0.16    0.08
   4  -4  -4    0.67    0.17
  -4   4   4    0.78    0.16
   3  -4  -4    8.52    0.34
   3  -4  -4    8.22    0.38
  -3   4   4    7.61    0.36
   2  -4  -4   39.05    1.37
   1  -4  -4   34.79    1.22
   0  -4  -4   10.93    0.41
  -1  -4  -4    7.91    0.29
  -1  -4  -4    7.74    0.30
  -2  -4  -4    4.06    0.19
  -2  -4  -4    4.41    0.18
   2   4   4    4.32    0.19
  -3  -4  -4    0.58    0.08
  -3  -4  -4    0.52    0.08
   3   4   4    0.52    0.11
  -4  -4  -4   87.13    2.95
  -4  -4  -4   83.08    2.93
  -5  -4  -4    0.82    0.14
   5   4   4    1.21    0.11
   6   4   4    0.47    0.09
   7   4   4    0.32    0.09
   7   4   4    0.47    0.15
   8   4   4    6.28    0.30
   8   4   4    6.39    0.27
  -9  -4  -4    1.14    0.16
   9   4   4    1.18    0.14
   9   4   4    1.24    0.10
  10   4   4   10.32    0.41
  10   4   4   10.64    0.39
   7  -5  -4    0.05    0.06
  -7   5   4    0.11    0.05
   6  -5  -4    0.94    0.12
  -6   5   4    0.86    0.10
  -6   5   4    0.83    0.14
   5  -5  -4    0.96    0.15
  -5   5   4    0.91    0.13
  -5   5   4    0.79    0.16
   4  -5  -4   -0.07    0.08
   3  -5  -4    3.86    0.24
   2  -5  -4   20.16    0.75
   2  -5  -4   20.37    0.72
   2  -5  -4   18.56    0.73
   1  -5  -4    6.55    0.27
   0  -5  -4   14.50    0.54
  -1  -5  -4    0.15    0.04
  -2  -5  -4   28.29    0.97
  -2  -5  -4   25.97    0.95
  -3  -5  -4    6.73    0.30
  -3  -5  -4    7.06    0.28
  -5  -5  -4    1.39    0.13
   5   5   4    1.09    0.10
   6   5   4    4.95    0.22
   7   5   4    0.27    0.08
   7   5   4    0.23    0.08
   8   5   4   26.43    0.95
   8   5   4   26.42    0.96
   9   5   4   27.80    1.00
   9   5   4   27.74    0.99
  10   5   4    5.87    0.33
  10   5   4    6.07    0.24
   6  -6  -4    1.56    0.12
  -6   6   4    1.49    0.11
   5  -6  -4    2.93    0.18
  -5   6   4    3.05    0.17
   4  -6  -4    5.70    0.28
  -4   6   4    5.71    0.28
   3  -6  -4    9.65    0.40
   3  -6  -4   10.24    0.42
   2  -6  -4   10.61    0.44
   2  -6  -4   10.58    0.42
   2  -6  -4   10.69    0.43
   1  -6  -4    4.29    0.22
   1  -6  -4    3.91    0.20
   1  -6  -4    4.06    0.23
  -1   6   4    4.24    0.24
   0  -6  -4   13.06    0.53
   0  -6  -4   13.45    0.51
   0  -6  -4   14.08    0.51
   0   6   4   13.14    0.53
  -1  -6  -4    8.45    0.38
  -1  -6  -4    9.04    0.36
  -1  -6  -4    9.16    0.36
  -2  -6  -4   29.42    1.00
  -2  -6  -4   27.79    1.00
  -2  -6  -4   26.92    1.01
  -3  -6  -4    8.63    0.39
  -3  -6  -4   10.02    0.38
  -3  -6  -4    9.74    0.37
  -4  -6  -4    4.28    0.25
  -4  -6  -4    4.70    0.21
  -5  -6  -4    5.49    0.24
  -5  -6  -4    5.07    0.26
  -6  -6  -4    1.41    0.13
   6   6   4    1.32    0.11
   7   6   4   29.79    1.06
   8   6   4    6.65    0.30
   8   6   4    6.74    0.28
   9   6   4   17.19    0.63
   9   6   4   16.88    0.62
  10   6   4    1.88    0.10
   5  -7  -4   -0.03    0.05
  -5   7   4    0.06    0.05
   4  -7  -4    0.80    0.11
  -4   7   4    0.76    0.10
   3  -7  -4    1.40    0.14
   3  -7  -4    1.09    0.13
  -3   7   4    0.99    0.13
   2  -7  -4    1.51    0.15
   2  -7  -4    1.83    0.14
  -2   7   4    1.67    0.16
   1  -7  -4   68.74    2.35
   1  -7  -4   67.00    2.34
   1  -7  -4   67.47    2.36
  -1   7   4   66.55    2.36
   0  -7  -4   91.42    3.14
   0  -7  -4   92.24    3.15
   0  -7  -4   90.47    3.15
   0   7   4   89.59    3.15
  -1  -7  -4    5.88    0.26
  -1  -7  -4    5.61    0.27
  -1  -7  -4    5.55    0.25
  -2  -7  -4    2.01    0.14
  -2  -7  -4    1.96    0.13
  -2  -7  -4    1.81    0.15
  -3  -7  -4    4.59    0.24
  -3  -7  -4    4.63    0.22
  -3  -7  -4    4.55    0.21
  -4  -7  -4    5.12    0.25
  -4  -7  -4    5.20    0.24
  -5  -7  -4    0.02    0.07
  -5  -7  -4    0.05    0.05
  -6  -7  -4   26.10    0.96
   6   7   4   26.97    0.95
   7   7   4    0.01    0.04
   8   7   4    3.61    0.17
   8   7   4    3.45    0.19
   9   7   4    3.08    0.14
   9   7   4    2.89    0.18
   4  -8  -4    2.54    0.14
  -4   8   4    2.62    0.14
   3  -8  -4    0.07    0.05
   3  -8  -4    0.04    0.06
  -3   8   4   -0.05    0.06
   2  -8  -4    7.89    0.33
   2  -8  -4    7.77    0.31
  -2   8   4    7.80    0.33
   1  -8  -4    3.67    0.18
   1  -8  -4    3.57    0.19
   1  -8  -4    3.35    0.20
  -1   8   4    3.39    0.22
   0  -8  -4    1.80    0.13
   0  -8  -4    2.15    0.15
   0  -8  -4    1.82    0.14
  -1  -8  -4    8.23    0.34
  -1  -8  -4    7.64    0.32
  -1  -8  -4    7.81    0.34
  -2  -8  -4    2.70    0.15
  -2  -8  -4    2.65    0.16
  -2  -8  -4    2.52    0.17
  -3  -8  -4    4.06    0.20
  -3  -8  -4    4.01    0.20
  -3  -8  -4    3.91    0.19
  -4  -8  -4    1.15    0.13
  -4  -8  -4    0.93    0.11
  -5  -8  -4   43.43    1.58
  -5  -8  -4   45.56    1.56
  -6  -8  -4   -0.02    0.05
   6   8   4   -0.01    0.04
  -7  -8  -4    0.13    0.08
   7   8   4    0.30    0.06
   8   8   4    0.21    0.05
   8   8   4    0.06    0.07
   9   8   4    3.67    0.15
   3  -9  -4    3.66    0.17
   2  -9  -4    0.91    0.08
   2  -9  -4    0.75    0.10
   1  -9  -4    3.85    0.18
   1  -9  -4    3.69    0.17
   0  -9  -4    2.87    0.15
   0  -9  -4    2.90    0.18
   0  -9  -4    2.94    0.16
  -1  -9  -4   -0.02    0.05
  -1  -9  -4    0.04    0.05
  -1  -9  -4   -0.06    0.05
  -2  -9  -4   10.93    0.46
  -2  -9  -4   12.22    0.45
  -3  -9  -4    3.73    0.18
  -3  -9  -4    3.28    0.19
  -4  -9  -4    0.51    0.09
  -4  -9  -4    0.59    0.11
  -5  -9  -4    7.41    0.30
  -5  -9  -4    7.43    0.31
  -6  -9  -4    0.45    0.10
   6   9   4    0.52    0.07
  -7  -9  -4    0.94    0.17
   7   9   4    0.97    0.07
   8   9   4    1.79    0.09
   1 -10  -4    0.86    0.10
   0 -10  -4    0.86    0.07
   0 -10  -4    0.76    0.09
  -1 -10  -4    0.07    0.06
  -1 -10  -4    0.06    0.05
  -2 -10  -4    0.17    0.05
  -2 -10  -4    0.36    0.08
  -3 -10  -4    8.77    0.35
  -3 -10  -4    8.76    0.34
  -4 -10  -4    9.54    0.36
  -4 -10  -4    9.64    0.38
  -5 -10  -4   -0.07    0.05
   5  10   4   -0.01    0.03
  -6 -10  -4    0.61    0.11
   6  10   4    0.33    0.06
   7  10   4    0.41    0.05
   4  11   4    2.68    0.12
  -5  -7   5    1.20    0.14
  -4  -7   5    1.21    0.11
  -3  -7   5    8.27    0.33
  -2  -7   5   17.03    0.61
  -2  -7   5   16.04    0.59
  -1  -7   5    3.40    0.17
   0  -7   5    9.56    0.36
   6   6  -5   15.65    0.57
  -6  -6   5   15.34    0.57
  -5  -6   5    0.59    0.10
  -4  -6   5    0.41    0.09
  -3  -6   5    2.32    0.15
  -3  -6   5    2.51    0.15
  -2  -6   5   16.30    0.62
  -2  -6   5   16.85    0.61
  -1  -6   5   10.05    0.39
  -1  -6   5    9.79    0.40
   0  -6   5   10.36    0.40
   1  -6   5    7.19    0.30
   1  -6   5    7.33    0.30
   2  -6   5    5.27    0.24
   2  -6   5    5.33    0.23
   3  -6   5    0.00    0.09
   3  -6   5   -0.01    0.05
   4  -6   5    3.78    0.17
   7   5  -5   -0.09    0.07
   6   5  -5    0.61    0.11
  -6  -5   5    0.66    0.10
  -5  -5   5   21.48    0.79
  -4  -5   5    6.85    0.30
  -3  -5   5   17.73    0.63
  -3  -5   5   16.13    0.64
  -2  -5   5    7.17    0.31
  -2  -5   5    7.12    0.31
  -1  -5   5   39.69    1.40
  -1  -5   5   39.62    1.41
   0  -5   5    7.48    0.33
   0  -5   5    7.92    0.33
   1  -5   5    6.01    0.27
   1  -5   5    5.86    0.28
   2  -5   5    2.27    0.17
   2  -5   5    2.33    0.17
   3  -5   5   11.01    0.41
   3  -5   5   10.47    0.44
   3  -5   5    9.77    0.41
   4  -5   5    4.32    0.21
   4  -5   5    4.19    0.23
   4  -5   5    4.42    0.20
   5  -5   5    0.59    0.12
   5  -5   5    0.54    0.08
   6  -5   5    2.31    0.11
   7   4  -5    2.07    0.15
  -7  -4   5    1.48    0.18
   6   4  -5    0.42    0.12
  -5  -4   5    4.37    0.22
  -4  -4   5   13.88    0.54
  -3  -4   5    3.23    0.18
  -3  -4   5    3.27    0.20
  -2  -4   5    1.33    0.17
  -2  -4   5    1.34    0.11
  -1  -4   5    0.96    0.10
  -1  -4   5    0.78    0.16
   0  -4   5    0.63    0.17
   0  -4   5    1.12    0.12
   1  -4   5    1.48    0.19
   1  -4   5    1.15    0.15
   1  -4   5    0.92    0.16
   2  -4   5    0.86    0.17
   2  -4   5    0.81    0.14
   2  -4   5    1.04    0.22
   3  -4   5    6.36    0.30
   3  -4   5    6.28    0.32
   3  -4   5    6.31    0.28
   4  -4   5    6.23    0.28
   4  -4   5    6.25    0.27
   4  -4   5    6.04    0.30
   4  -4   5    5.62    0.28
   5  -4   5    0.98    0.10
   5  -4   5    0.80    0.13
   5  -4   5    0.88    0.13
   6  -4   5    0.15    0.05
   6  -4   5    0.34    0.10
   7  -4   5    0.98    0.08
   7  -4   5    0.69    0.10
   8   3  -5    0.18    0.08
   7   3  -5    6.60    0.29
  -7  -3   5    6.71    0.28
   6   3  -5    3.57    0.21
  -6  -3   5    3.62    0.19
  -6  -3   5    3.22    0.19
  -5  -3   5   35.14    1.27
  -5  -3   5   35.79    1.26
  -4  -3   5    0.43    0.09
  -4  -3   5    0.71    0.14
  -3  -3   5    2.70    0.20
  -3  -3   5    2.49    0.22
  -3  -3   5    3.06    0.16
  -2  -3   5    0.10    0.04
  -2  -3   5   -0.04    0.09
  -1  -3   5    0.01    0.09
  -1  -3   5    0.08    0.04
   0  -3   5   17.11    0.61
   0  -3   5   15.46    0.61
   1  -3   5    0.06    0.06
   1  -3   5   -0.02    0.11
   1  -3   5    0.09    0.08
   2  -3   5    0.08    0.08
   2  -3   5   -0.01    0.10
   2  -3   5   -0.06    0.09
   3  -3   5    4.80    0.24
   3  -3   5    4.70    0.24
   3  -3   5    4.76    0.26
   4  -3   5    5.66    0.27
   4  -3   5    6.17    0.27
   4  -3   5    5.57    0.30
   4  -3   5    5.96    0.30
   5  -3   5    0.74    0.11
   5  -3   5    0.95    0.16
   5  -3   5    0.96    0.17
   5  -3   5    0.70    0.12
   6  -3   5    0.60    0.09
   6  -3   5    0.53    0.14
   6  -3   5    0.50    0.11
   6  -3   5    0.52    0.13
   7  -3   5    4.62    0.20
   7  -3   5    4.46    0.22
   8  -3   5    0.70    0.06
   8  -3   5    0.41    0.08
   8   2  -5    3.67    0.20
  -8  -2   5    3.67    0.17
   7   2  -5    0.66    0.14
  -7  -2   5    0.73    0.10
   6   2  -5    2.51    0.20
  -6  -2   5    2.33    0.18
  -6  -2   5    2.82    0.16
   5   2  -5    5.11    0.27
  -5  -2   5    5.34    0.24
  -5  -2   5    4.90    0.24
  -4  -2   5    3.74    0.19
  -4  -2   5    3.49    0.20
  -3  -2   5    0.34    0.08
  -3  -2   5    0.34    0.08
  -2  -2   5   23.89    0.88
  -2  -2   5   25.25    0.88
  -1  -2   5    6.08    0.25
   0   2  -5   18.48    0.69
   0  -2   5   17.67    0.66
  -1   2  -5    9.57    0.41
   1  -2   5   10.03    0.38
   1  -2   5    9.70    0.40
   2  -2   5    4.57    0.23
   2  -2   5    4.46    0.27
   2  -2   5    4.84    0.24
   3  -2   5    7.01    0.31
   3  -2   5    7.49    0.32
   3  -2   5    7.04    0.31
   4  -2   5    1.68    0.15
   4  -2   5    1.77    0.17
   4  -2   5    1.75    0.15
   5  -2   5    2.93    0.31
   5  -2   5    4.11    0.23
   5  -2   5    4.12    0.20
   5  -2   5    3.65    0.20
   6  -2   5    0.07    0.06
   6  -2   5    0.22    0.11
   6  -2   5    0.01    0.07
   6  -2   5    0.00    0.06
   7  -2   5    2.54    0.22
   7  -2   5    2.28    0.18
   7  -2   5    2.65    0.15
   8  -2   5    3.78    0.17
   8  -2   5    3.63    0.19
   8   1  -5    0.49    0.13
  -8  -1   5    0.33    0.07
   7   1  -5   17.39    0.68
  -7  -1   5   19.05    0.67
   6   1  -5    3.30    0.23
  -6  -1   5    3.58    0.19
   5   1  -5    2.65    0.22
  -5  -1   5    3.07    0.18
  -5  -1   5    2.93    0.17
  -4  -1   5    6.90    0.30
  -4  -1   5    7.02    0.30
  -3  -1   5    7.43    0.31
  -3  -1   5    7.56    0.32
  -2  -1   5    6.13    0.26
  -1  -1   5   47.07    1.64
   0   1  -5   58.16    1.96
   0  -1   5   54.11    1.94
  -1   1  -5    4.20    0.21
   1  -1   5    4.37    0.20
  -2   1  -5   38.14    1.35
   3  -1   5  137.45    4.64
   3  -1   5  137.85    4.64
   3  -1   5  129.71    4.63
   4  -1   5   43.63    1.54
   4  -1   5   43.17    1.53
   4  -1   5   43.33    1.53
   5  -1   5   29.81    1.08
   5  -1   5   29.94    1.10
   5  -1   5   30.20    1.08
   6  -1   5   -0.09    0.05
   6  -1   5   -0.11    0.07
   6  -1   5    0.01    0.06
   7  -1   5    0.69    0.17
   7  -1   5    0.46    0.10
   7  -1   5    0.53    0.10
   8  -1   5    8.42    0.37
   8  -1   5    9.07    0.35
   9  -1   5    0.10    0.07
   9  -1   5    0.10    0.04
   8   0  -5    0.00    0.07
  -8   0   5    0.04    0.04
   7   0  -5    9.91    0.44
  -7   0   5   11.97    0.43
   6   0  -5    1.96    0.19
  -6   0   5    1.76    0.14
   5   0  -5    1.77    0.21
  -5   0   5    1.56    0.14
  -4   0   5   55.85    1.94
  -4   0   5   55.28    1.94
  -3   0   5    1.89    0.13
  -3   0   5    2.17    0.16
  -2   0   5    0.27    0.07
  -1   0   5   66.52    2.30
   0   0  -5   31.76    1.12
   0   0   5   31.76    1.12
  -1   0  -5   19.70    0.70
   1   0   5   18.71    0.69
  -2   0  -5   13.85    0.49
   2   0   5   11.90    0.48
  -3   0  -5   46.20    1.63
   4   0   5   14.57    0.56
   4   0   5   14.55    0.56
   4   0   5   15.12    0.55
   5   0   5   17.30    0.65
   5   0   5   17.42    0.66
   5   0   5   17.59    0.65
   6   0   5   16.86    0.63
   6   0   5   15.70    0.61
   6   0   5   16.00    0.61
   7   0   5    0.11    0.13
   7   0   5    0.32    0.10
   7   0   5    0.26    0.07
   7   0   5    0.17    0.08
   8   0   5    0.41    0.08
   8   0   5    0.64    0.14
   9   0   5    9.45    0.36
   9   0   5    9.64    0.39
   8  -1  -5    1.73    0.16
  -8   1   5    1.90    0.11
   7  -1  -5    0.99    0.15
  -7   1   5    0.99    0.10
   6  -1  -5   69.58    2.31
  -6   1   5   60.47    2.31
  -6   1   5   67.17    2.29
   5  -1  -5   36.18    1.32
  -5   1   5   35.89    1.31
  -5   1   5   37.53    1.30
  -4   1   5   18.30    0.68
  -4   1   5   18.30    0.69
  -3   1   5    0.17    0.07
  -3   1   5    0.04    0.10
  -3   1   5    0.09    0.05
  -2   1   5    1.23    0.10
   1  -1  -5    2.33    0.15
  -1   1   5    2.55    0.13
   0  -1  -5   39.01    1.36
   0  -1  -5   40.06    1.37
   0   1   5   37.52    1.36
  -1  -1  -5  262.48    8.70
  -1  -1  -5  246.78    8.69
   1   1   5  253.52    8.68
  -2  -1  -5   25.46    0.91
  -3  -1  -5   14.84    0.56
   4   1   5   49.99    1.74
   4   1   5   49.61    1.74
   5   1   5    2.47    0.17
   5   1   5    2.69    0.16
   5   1   5    2.76    0.18
   6   1   5   19.58    0.69
   6   1   5   17.24    0.71
   6   1   5   19.35    0.70
   7   1   5    0.70    0.17
   7   1   5    0.47    0.11
   7   1   5    0.50    0.11
   8   1   5    0.32    0.10
   8   1   5    0.54    0.10
   9   1   5    0.38    0.07
   9   1   5    0.30    0.11
  10   1   5    0.01    0.04
   8  -2  -5    1.98    0.17
  -8   2   5    1.78    0.11
   7  -2  -5   12.17    0.47
  -7   2   5   12.05    0.46
  -7   2   5   11.52    0.46
   6  -2  -5    0.00    0.09
  -6   2   5    0.31    0.09
  -6   2   5    0.19    0.06
   5  -2  -5   51.71    1.79
  -5   2   5   48.87    1.77
  -5   2   5   50.98    1.78
   4  -2  -5   16.39    0.63
  -4   2   5   16.81    0.63
  -4   2   5   17.34    0.64
  -3   2   5   28.10    1.03
  -3   2   5   28.57    1.02
   2  -2  -5    7.62    0.36
   1  -2  -5   15.34    0.56
   1  -2  -5   15.30    0.57
   0  -2  -5  108.49    3.72
   0  -2  -5  108.38    3.73
  -1  -2  -5   54.77    1.90
  -2  -2  -5   10.64    0.40
  -2  -2  -5   10.65    0.40
  -3  -2  -5    5.26    0.22
  -3  -2  -5    4.57    0.22
  -4  -2  -5   33.24    1.19
   5   2   5    0.35    0.07
   5   2   5    0.28    0.09
   5   2   5    0.11    0.07
   6   2   5    0.43    0.11
   6   2   5    0.48    0.12
   6   2   5    0.32    0.10
   7   2   5   22.07    0.80
   7   2   5   21.82    0.82
   7   2   5   21.29    0.79
   8   2   5    1.85    0.13
   8   2   5    1.72    0.23
   9   2   5    0.39    0.08
  10   2   5    0.67    0.07
  -8   3   5    2.28    0.11
   7  -3  -5    2.53    0.17
  -7   3   5    2.30    0.13
  -7   3   5    2.14    0.14
   6  -3  -5    0.12    0.09
  -6   3   5   -0.01    0.07
  -6   3   5    0.04    0.05
   5  -3  -5   12.34    0.51
  -5   3   5   12.01    0.49
  -5   3   5   12.36    0.48
   4  -3  -5    6.21    0.34
   4  -3  -5    6.21    0.29
  -4   3   5    6.54    0.30
  -4   3   5    5.72    0.28
   3  -3  -5   14.57    0.54
  -3   3   5   14.32    0.56
  -3   3   5   13.88    0.54
   2  -3  -5   21.94    0.80
  -2   3   5   22.57    0.82
   1  -3  -5   14.17    0.53
   1  -3  -5   14.68    0.53
   1  -3  -5   14.26    0.52
   0  -3  -5  115.33    3.96
   0  -3  -5  111.18    3.97
   0  -3  -5  120.06    3.97
  -1  -3  -5   15.32    0.58
  -1  -3  -5   16.49    0.58
  -2  -3  -5    5.34    0.22
  -2  -3  -5    4.95    0.22
  -3  -3  -5    1.22    0.12
  -3  -3  -5    1.26    0.11
  -4  -3  -5    7.01    0.29
  -4  -3  -5    7.09    0.31
   5   3   5    2.99    0.20
   5   3   5    2.74    0.23
   6   3   5    0.21    0.12
   6   3   5    0.14    0.08
   6   3   5    0.14    0.06
   7   3   5    0.61    0.10
   7   3   5    0.74    0.13
   8   3   5    9.23    0.37
   9   3   5    2.16    0.13
 -10  -3  -5    1.30    0.12
  10   3   5    1.28    0.09
   7  -4  -5   11.75    0.44
  -7   4   5   11.23    0.42
  -7   4   5   11.06    0.43
   6  -4  -5    9.43    0.40
  -6   4   5    9.56    0.39
  -6   4   5    9.68    0.38
   5  -4  -5    0.66    0.16
  -5   4   5    0.45    0.11
  -5   4   5    0.61    0.12
   4  -4  -5    2.16    0.22
  -4   4   5    2.52    0.17
  -4   4   5    2.27    0.17
   3  -4  -5    3.05    0.17
  -3   4   5    2.92    0.20
  -3   4   5    3.19    0.20
   2  -4  -5    4.66    0.21
  -2   4   5    3.96    0.27
  -2   4   5    4.95    0.25
   1  -4  -5   18.88    0.68
  -1   4   5   18.34    0.70
   0  -4  -5   12.65    0.47
   0  -4  -5   12.43    0.46
  -1  -4  -5    0.31    0.11
  -1  -4  -5    0.40    0.07
  -1  -4  -5    0.28    0.08
  -2  -4  -5    0.40    0.07
  -2  -4  -5    0.55    0.10
  -3  -4  -5   55.69    1.96
  -3  -4  -5   57.08    1.97
  -4  -4  -5    5.19    0.23
   4   4   5    5.24    0.23
   5   4   5   45.34    1.58
   6   4   5    5.67    0.29
   6   4   5    5.59    0.24
   7   4   5    3.28    0.18
   7   4   5    3.54    0.23
   8   4   5    0.99    0.10
  -9  -4  -5    4.17    0.22
   9   4   5    3.79    0.18
  10   4   5    0.07    0.04
  -7   5   5    1.61    0.10
   6  -5  -5    1.40    0.15
  -6   5   5    1.36    0.11
  -6   5   5    1.47    0.13
   5  -5  -5   23.12    0.86
  -5   5   5   23.81    0.86
  -5   5   5   23.14    0.84
   4  -5  -5   12.23    0.50
  -4   5   5   11.42    0.47
  -4   5   5   12.31    0.49
   3  -5  -5    5.06    0.25
   3  -5  -5    5.16    0.29
  -3   5   5    4.81    0.26
   2  -5  -5    2.17    0.14
  -2   5   5    1.89    0.17
   1  -5  -5   22.31    0.81
  -1   5   5   21.95    0.82
   0  -5  -5    5.56    0.24
   0   5   5    5.49    0.28
  -1  -5  -5    2.34    0.13
  -2  -5  -5    0.91    0.08
  -3  -5  -5    0.80    0.09
  -4  -5  -5    1.99    0.13
  -5  -5  -5    0.73    0.11
   5   5   5    0.55    0.09
   6   5   5    1.29    0.11
   8   5   5   18.74    0.69
   9   5   5    0.11    0.04
  10   5   5    0.01    0.04
  -6   6   5    2.53    0.13
   5  -6  -5    2.32    0.17
  -5   6   5    2.61    0.15
   4  -6  -5    0.80    0.15
  -4   6   5    0.81    0.11
   3  -6  -5    0.72    0.16
  -3   6   5    0.77    0.12
   2  -6  -5   15.82    0.58
   2  -6  -5   14.70    0.60
  -2   6   5   14.97    0.59
   1  -6  -5    2.55    0.15
   1  -6  -5    2.33    0.18
  -1   6   5    2.18    0.17
   0  -6  -5   10.59    0.41
   0  -6  -5   10.62    0.42
   0   6   5   10.29    0.44
  -1  -6  -5   71.49    2.45
  -1  -6  -5   70.74    2.44
   1   6   5   69.37    2.46
  -2  -6  -5    0.16    0.07
  -2  -6  -5    0.13    0.05
  -3  -6  -5    0.05    0.04
  -4  -6  -5    7.45    0.31
  -5  -6  -5   22.26    0.82
   5   6   5   22.38    0.80
  -6  -6  -5    1.93    0.17
   6   6   5    2.15    0.13
   7   6   5    2.27    0.13
   8   6   5    2.79    0.15
   9   6   5    4.47    0.19
  10   6   5   -0.01    0.03
  -5   7   5    3.98    0.18
   4  -7  -5    4.00    0.20
  -4   7   5    3.86    0.19
   3  -7  -5    0.14    0.07
  -3   7   5    0.22    0.07
   2  -7  -5    5.20    0.27
   2  -7  -5    5.75    0.28
   2  -7  -5    5.70    0.26
  -2   7   5    5.82    0.27
   1  -7  -5   59.35    2.44
   1  -7  -5   72.30    2.45
   1  -7  -5   73.24    2.44
  -1   7   5   76.10    2.46
   0  -7  -5    7.71    0.32
   0  -7  -5    7.19    0.34
   0  -7  -5    7.30    0.31
   0   7   5    7.25    0.34
  -1  -7  -5    8.30    0.34
  -1  -7  -5    8.58    0.35
  -2  -7  -5    1.77    0.13
  -2  -7  -5    1.84    0.13
  -3  -7  -5    5.59    0.25
  -4  -7  -5    0.12    0.06
  -5  -7  -5   -0.01    0.05
  -6  -7  -5   62.37    2.22
   6   7   5   65.04    2.21
   7   7   5    3.60    0.17
   8   7   5    0.12    0.04
   9   7   5    0.24    0.06
  -4   8   5    5.04    0.21
   3  -8  -5    3.99    0.20
  -3   8   5    4.02    0.19
   2  -8  -5    0.20    0.07
   2  -8  -5    0.42    0.10
  -2   8   5    0.18    0.07
   1  -8  -5   20.09    0.73
   1  -8  -5   20.39    0.72
   1  -8  -5   18.61    0.73
  -1   8   5   20.21    0.74
   0  -8  -5    9.98    0.42
   0  -8  -5   10.80    0.43
   0  -8  -5   11.03    0.41
   0   8   5   10.41    0.43
  -1  -8  -5    1.19    0.15
  -1  -8  -5    1.27    0.11
  -1  -8  -5    1.40    0.12
  -2  -8  -5    0.50    0.09
  -2  -8  -5    0.47    0.09
  -2  -8  -5    0.56    0.15
  -3  -8  -5    3.00    0.17
  -3  -8  -5    2.87    0.19
  -4  -8  -5    2.10    0.14
  -4  -8  -5    2.42    0.19
  -5  -8  -5    0.04    0.05
  -5  -8  -5    0.23    0.09
  -6  -8  -5    0.60    0.11
   6   8   5    0.79    0.09
   7   8   5   16.91    0.62
   8   8   5    2.46    0.12
   9   8   5    0.01    0.03
   1  -9  -5    1.27    0.12
   1  -9  -5    1.23    0.09
   0  -9  -5   21.32    0.79
   0  -9  -5   22.76    0.80
   0  -9  -5   22.09    0.81
  -1  -9  -5   10.75    0.40
  -1  -9  -5    9.84    0.40
  -1  -9  -5    9.67    0.39
  -2  -9  -5   -0.03    0.04
  -2  -9  -5   -0.02    0.07
  -3  -9  -5    0.47    0.13
  -3  -9  -5    0.71    0.09
  -4  -9  -5   11.88    0.47
  -4  -9  -5   11.83    0.46
  -5  -9  -5    7.03    0.31
   5   9   5    7.81    0.30
  -6  -9  -5    2.65    0.16
   6   9   5    2.60    0.13
   7   9   5    2.54    0.12
   8   9   5    0.66    0.06
  -1 -10  -5    0.71    0.12
  -2 -10  -5    6.04    0.26
  -3 -10  -5    0.09    0.05
  -4 -10  -5    1.33    0.11
  -5 -10  -5    2.61    0.15
   5  10   5    2.34    0.12
  -6 -10  -5    2.35    0.15
   6  10   5    2.37    0.11
   7  10   5    0.94    0.06
   3  11   5    0.05    0.03
   4  11   5    2.93    0.12
  -5  -6   6    2.86    0.16
  -4  -6   6   -0.01    0.04
  -3  -6   6    0.26    0.09
  -2  -6   6    3.24    0.18
  -1  -6   6    2.88    0.19
  -6  -5   6    2.67    0.16
  -5  -5   6    0.44    0.09
  -4  -5   6    2.09    0.13
  -3  -5   6    0.49    0.09
  -2  -5   6   11.77    0.46
  -1  -5   6    4.01    0.21
   0  -5   6    0.12    0.07
   3  -5   6    0.66    0.11
   4  -5   6    2.46    0.19
   4  -5   6    2.64    0.14
   5  -5   6   -0.05    0.08
   5  -5   6    0.08    0.05
  -6  -4   6    0.11    0.06
  -5  -4   6   18.65    0.70
  -4  -4   6    4.94    0.24
  -3  -4   6    0.06    0.04
  -2  -4   6    0.01    0.05
  -1  -4   6    9.05    0.37
   0  -4   6    3.03    0.18
   2  -4   6   26.15    0.97
   3  -4   6    1.47    0.19
   3  -4   6    1.58    0.15
   4  -4   6    0.00    0.08
   4  -4   6    0.04    0.08
   4  -4   6    0.02    0.06
   5  -4   6    4.08    0.18
   5  -4   6    3.57    0.20
   6  -4   6    0.40    0.10
   6  -4   6    0.52    0.08
  -6  -3   6    0.65    0.11
  -6  -3   6    0.76    0.12
  -5  -3   6    0.15    0.07
  -5  -3   6    0.18    0.05
  -4  -3   6    0.11    0.07
  -3  -3   6    1.47    0.12
  -3  -3   6    1.16    0.15
  -2  -3   6    2.86    0.16
  -2  -3   6    2.70    0.18
  -1  -3   6    0.28    0.09
  -1  -3   6    0.47    0.14
   0  -3   6    0.64    0.10
   0  -3   6    0.52    0.09
   1  -3   6    1.27    0.14
   1  -3   6    0.98    0.15
   1  -3   6    1.61    0.21
   2  -3   6    5.31    0.26
   2  -3   6    5.60    0.29
   3  -3   6   10.64    0.44
   3  -3   6   10.37    0.42
   3  -3   6   10.39    0.43
   4  -3   6    0.17    0.07
   4  -3   6    0.05    0.08
   4  -3   6    0.12    0.07
   5  -3   6   -0.06    0.07
   5  -3   6    0.03    0.06
   5  -3   6    0.05    0.06
   6  -3   6    0.86    0.10
   6  -3   6    0.93    0.12
   6  -3   6    0.91    0.11
   7  -3   6    0.10    0.04
   7  -3   6    0.06    0.05
  -8  -2   6   -0.05    0.05
  -7  -2   6    4.95    0.21
  -6  -2   6    8.25    0.36
  -6  -2   6    9.32    0.35
  -5  -2   6    0.10    0.06
  -5  -2   6    0.05    0.05
  -4  -2   6    2.04    0.14
  -4  -2   6    1.92    0.15
  -3  -2   6    0.14    0.06
  -3  -2   6    0.05    0.04
  -2  -2   6   13.79    0.52
  -2  -2   6   13.53    0.52
  -1  -2   6    0.62    0.13
  -1  -2   6    0.55    0.08
   0  -2   6   14.51    0.54
   0  -2   6   13.94    0.54
   1  -2   6   14.21    0.55
   1  -2   6   14.42    0.54
   1  -2   6   14.06    0.53
   2  -2   6    6.81    0.30
   2  -2   6    7.15    0.31
   3  -2   6   12.77    0.50
   3  -2   6   12.63    0.51
   3  -2   6   12.72    0.49
   4  -2   6   10.38    0.44
   4  -2   6   10.10    0.41
   4  -2   6   10.60    0.42
   5  -2   6    4.45    0.21
   5  -2   6    3.73    0.21
   5  -2   6    4.00    0.23
   6  -2   6    0.37    0.10
   6  -2   6    0.29    0.08
   6  -2   6    0.45    0.10
   7  -2   6    2.33    0.13
   7  -2   6    2.53    0.16
   8  -2   6    0.19    0.04
   8  -2   6    0.13    0.05
  -8  -1   6    0.12    0.04
  -7  -1   6    1.74    0.11
  -6  -1   6    0.16    0.05
  -5  -1   6    0.22    0.07
  -5  -1   6    0.14    0.06
  -4  -1   6    3.43    0.19
  -4  -1   6    3.43    0.19
  -3  -1   6   16.54    0.61
  -3  -1   6   15.85    0.61
  -2  -1   6   11.18    0.43
  -2  -1   6   10.94    0.43
  -1  -1   6    0.05    0.03
  -1  -1   6    0.12    0.06
   0  -1   6   20.79    0.77
   0  -1   6   21.92    0.78
   1  -1   6    3.79    0.19
   1  -1   6    3.79    0.19
   1  -1   6    4.00    0.21
   2  -1   6    2.15    0.16
   2  -1   6    2.20    0.15
   3  -1   6   13.23    0.54
   3  -1   6   14.09    0.53
   3  -1   6   14.03    0.52
   4  -1   6    0.35    0.09
   4  -1   6    0.31    0.08
   4  -1   6    0.40    0.11
   5  -1   6   11.24    0.44
   5  -1   6   10.80    0.44
   5  -1   6   11.15    0.46
   6  -1   6    0.91    0.11
   6  -1   6    0.81    0.14
   6  -1   6    0.92    0.12
   7  -1   6    0.01    0.05
   7  -1   6    0.11    0.06
   7  -1   6    0.21    0.07
   8  -1   6    2.10    0.14
   8  -1   6    1.96    0.12
  -8   0   6    1.82    0.10
  -7   0   6   21.71    0.78
  -6   0   6    0.02    0.05
  -5   0   6    0.27    0.07
  -4   0   6   26.35    0.94
  -4   0   6   25.22    0.93
  -3   0   6    0.01    0.04
  -3   0   6    0.05    0.06
  -2   0   6    0.46    0.10
  -2   0   6    0.24    0.06
  -2   0   6    0.39    0.08
  -1   0   6    0.02    0.03
  -1   0   6   -0.07    0.06
   0   0  -6   92.68    3.36
   0   0   6  101.43    3.35
  -1   0  -6   14.54    0.57
   1   0   6   15.28    0.55
   2   0   6   12.09    0.46
   2   0   6   11.91    0.46
   3   0   6    2.30    0.16
   3   0   6    2.41    0.15
   4   0   6   27.51    1.03
   4   0   6   28.20    1.03
   4   0   6   30.40    1.04
   5   0   6    0.59    0.11
   5   0   6    0.67    0.13
   5   0   6    0.96    0.13
   6   0   6    8.81    0.37
   6   0   6    9.20    0.40
   6   0   6    9.22    0.37
   7   0   6   26.42    0.96
   7   0   6   26.26    0.99
   7   0   6   27.23    0.96
   8   0   6    0.09    0.05
   8   0   6   -0.02    0.07
   9   0   6    1.87    0.11
   9   0   6    1.98    0.14
  -8   1   6    2.88    0.13
  -7   1   6    4.08    0.19
  -6   1   6   49.44    1.74
  -5   1   6    0.13    0.05
  -5   1   6    0.18    0.09
  -4   1   6   37.34    1.38
  -4   1   6   40.90    1.39
  -3   1   6   19.01    0.68
  -3   1   6   17.50    0.68
  -2   1   6   10.92    0.41
  -2   1   6   10.06    0.42
  -2   1   6    9.90    0.40
   1  -1  -6   -0.05    0.08
  -1   1   6   -0.04    0.04
  -1   1   6    0.14    0.06
   0  -1  -6   10.30    0.41
   0   1   6   10.48    0.40
  -1  -1  -6   77.57    2.69
  -2  -1  -6    0.35    0.11
   3   1   6   10.33    0.40
   3   1   6   10.06    0.40
   4   1   6    5.42    0.25
   4   1   6    5.65    0.26
   5   1   6   13.41    0.51
   5   1   6   13.08    0.51
   5   1   6   13.41    0.52
   6   1   6   14.04    0.55
   6   1   6   14.50    0.56
   6   1   6   14.23    0.54
   7   1   6    1.87    0.14
   7   1   6    1.71    0.14
   7   1   6    1.49    0.18
   8   1   6   12.10    0.46
   8   1   6   11.95    0.49
   8   1   6   11.92    0.46
   9   1   6    0.29    0.09
   9   1   6    0.36    0.07
  -8   2   6    2.49    0.12
  -7   2   6    0.10    0.04
  -6   2   6   24.28    0.91
  -6   2   6   26.11    0.91
  -5   2   6    0.79    0.14
  -5   2   6    0.62    0.10
  -4   2   6    0.91    0.14
  -4   2   6    0.91    0.12
  -3   2   6    1.99    0.15
  -3   2   6    2.36    0.17
  -2   2   6    0.53    0.14
  -2   2   6    0.45    0.12
   1  -2  -6    0.46    0.09
  -1   2   6    0.11    0.08
   0  -2  -6    1.04    0.11
  -1  -2  -6    9.82    0.39
  -2  -2  -6   39.91    1.38
  -2  -2  -6   37.84    1.36
  -3  -2  -6   10.11    0.39
   4   2   6   -0.02    0.05
   4   2   6    0.01    0.07
   4   2   6    0.06    0.07
   5   2   6    1.72    0.16
   5   2   6    1.53    0.14
   5   2   6    1.55    0.14
   6   2   6    0.94    0.12
   6   2   6    0.86    0.11
   7   2   6   16.66    0.63
   7   2   6   16.85    0.65
   7   2   6   16.61    0.63
   8   2   6    2.08    0.15
   8   2   6    1.92    0.13
   8   2   6    1.60    0.19
   9   2   6    0.04    0.04
 -10  -2  -6    8.77    0.33
  10   2   6    8.74    0.33
  -7   3   6    4.99    0.20
  -7   3   6    4.66    0.21
  -6   3   6    0.33    0.10
  -6   3   6    0.14    0.05
  -5   3   6   51.23    1.82
  -5   3   6   51.98    1.81
   4  -3  -6   22.44    0.82
  -4   3   6   22.06    0.81
  -4   3   6   22.11    0.82
   3  -3  -6    2.51    0.16
  -3   3   6    2.27    0.18
  -3   3   6    2.23    0.16
   2  -3  -6    7.89    0.32
  -2   3   6    7.52    0.32
  -2   3   6    7.69    0.33
   1  -3  -6    0.23    0.08
   1  -3  -6    0.31    0.09
  -1   3   6    0.06    0.08
   0  -3  -6    0.04    0.04
   0  -3  -6    0.13    0.08
  -1  -3  -6    3.89    0.19
  -2  -3  -6    8.27    0.32
  -2  -3  -6    7.83    0.33
  -3  -3  -6   13.21    0.51
  -3  -3  -6   12.73    0.48
  -4  -3  -6    5.49    0.24
   4   3   6    5.54    0.26
   4   3   6    5.66    0.25
   4   3   6    5.25    0.26
   5   3   6    0.46    0.15
   5   3   6    0.64    0.14
   5   3   6    0.41    0.07
   6   3   6    2.64    0.17
   6   3   6    2.43    0.15
   6   3   6    2.34    0.20
   7   3   6    2.84    0.16
   7   3   6    3.27    0.24
   7   3   6    2.70    0.18
   8   3   6    1.29    0.13
   8   3   6    0.91    0.10
   9   3   6    0.16    0.05
  10   3   6    0.05    0.04
  -7   4   6    6.49    0.26
  -7   4   6    6.89    0.26
  -6   4   6    0.02    0.05
  -6   4   6    0.05    0.05
  -5   4   6    0.41    0.11
  -5   4   6    0.39    0.10
  -4   4   6    3.01    0.19
  -4   4   6    2.73    0.18
   3  -4  -6   21.52    0.77
  -3   4   6   21.04    0.78
  -3   4   6   20.18    0.77
   2  -4  -6    6.07    0.27
  -2   4   6    6.11    0.28
  -2   4   6    5.76    0.28
   1  -4  -6    0.05    0.04
  -1   4   6    0.08    0.07
  -1   4   6    0.05    0.09
   0  -4  -6    0.11    0.04
   0   4   6    0.11    0.08
  -1  -4  -6    1.10    0.15
  -1  -4  -6    1.33    0.10
   1   4   6    1.37    0.16
  -2  -4  -6    7.55    0.33
  -2  -4  -6    7.95    0.31
  -4  -4  -6    4.30    0.20
   4   4   6    4.15    0.24
   4   4   6    4.13    0.20
   5   4   6    1.49    0.19
   5   4   6    1.62    0.12
   5   4   6    1.55    0.21
   6   4   6   14.53    0.60
   6   4   6   17.05    0.59
   7   4   6    0.05    0.08
   7   4   6    0.05    0.05
   8   4   6    1.12    0.10
   9   4   6    4.81    0.21
  10   4   6    6.48    0.25
  -6   5   6   21.56    0.77
  -5   5   6    8.73    0.35
  -5   5   6    8.25    0.34
  -4   5   6    3.12    0.19
  -4   5   6    3.10    0.19
   3  -5  -6    0.69    0.13
  -3   5   6    0.47    0.10
  -3   5   6    0.51    0.12
   2  -5  -6   22.88    0.83
  -2   5   6   22.51    0.84
   1  -5  -6    6.64    0.28
  -1   5   6    6.50    0.30
   0  -5  -6    0.01    0.04
   0   5   6    0.09    0.07
  -1  -5  -6    3.54    0.17
   1   5   6    2.93    0.19
  -2  -5  -6   20.80    0.76
   2   5   6   20.56    0.76
  -3  -5  -6    1.35    0.11
   3   5   6    1.41    0.17
  -4  -5  -6    3.70    0.19
   4   5   6    3.64    0.18
  -5  -5  -6   14.11    0.54
   5   5   6   14.24    0.53
   6   5   6   11.36    0.43
   7   5   6    3.40    0.17
   8   5   6    0.06    0.05
   9   5   6    1.82    0.11
  10   5   6   26.37    0.92
  -5   6   6    3.75    0.18
  -4   6   6   10.18    0.41
  -3   6   6    4.82    0.24
   2  -6  -6    0.48    0.11
  -2   6   6    0.50    0.12
   1  -6  -6    9.81    0.40
  -1   6   6   10.02    0.41
   0  -6  -6    2.59    0.15
   0   6   6    2.65    0.19
  -1  -6  -6    2.10    0.13
  -1  -6  -6    1.78    0.16
   1   6   6    1.85    0.17
  -2  -6  -6   13.64    0.50
   2   6   6   12.00    0.51
  -3  -6  -6   50.84    1.79
  -4  -6  -6    3.83    0.20
   4   6   6    3.81    0.19
  -5  -6  -6    9.72    0.39
   5   6   6    9.48    0.37
  -6  -6  -6    0.07    0.09
   6   6   6    0.03    0.05
   7   6   6    7.61    0.31
   8   6   6    0.53    0.07
   9   6   6   10.61    0.40
  10   6   6    1.73    0.09
  -5   7   6   -0.01    0.03
  -4   7   6    0.81    0.09
  -3   7   6    2.74    0.16
   2  -7  -6    0.15    0.07
  -2   7   6    0.08    0.07
   1  -7  -6    0.03    0.05
  -1   7   6    0.17    0.07
   0  -7  -6   44.93    1.55
   0  -7  -6   42.60    1.53
   0   7   6   43.78    1.55
  -1  -7  -6   -0.04    0.04
  -1  -7  -6    0.05    0.06
   1   7   6   -0.02    0.09
  -2  -7  -6   37.74    1.35
  -3  -7  -6    0.34    0.09
  -4  -7  -6    0.04    0.05
  -5  -7  -6   16.63    0.61
   5   7   6   15.36    0.59
  -6  -7  -6    0.13    0.07
   6   7   6    0.32    0.08
   7   7   6    2.38    0.13
   8   7   6    6.05    0.25
   9   7   6    4.93    0.20
  -4   8   6    2.78    0.13
  -3   8   6    0.01    0.05
  -2   8   6    0.07    0.06
   1  -8  -6    4.80    0.24
  -1   8   6    5.10    0.24
   0  -8  -6    1.10    0.11
   0  -8  -6    1.11    0.11
   0   8   6    0.97    0.14
  -1  -8  -6    2.10    0.14
  -1  -8  -6    1.97    0.14
  -2  -8  -6   54.47    1.92
  -3  -8  -6    0.11    0.05
  -4  -8  -6    0.05    0.05
  -5  -8  -6   11.69    0.48
   5   8   6   12.86    0.47
  -6  -8  -6   12.83    0.51
   6   8   6   13.72    0.50
   7   8   6    9.26    0.35
   8   8   6    0.23    0.06
   9   8   6    3.15    0.14
  -2   9   6    4.97    0.22
   0  -9  -6   15.60    0.59
  -1  -9  -6   10.58    0.42
  -2  -9  -6    1.64    0.13
  -3  -9  -6   21.86    0.81
  -4  -9  -6    1.11    0.11
  -5  -9  -6    0.96    0.11
   5   9   6    1.13    0.09
  -6  -9  -6    0.57    0.11
   6   9   6    0.48    0.07
   7   9   6    1.81    0.10
   8   9   6    2.09    0.10
  -1 -10  -6    8.95    0.36
  -2 -10  -6    6.42    0.28
  -3 -10  -6    1.25    0.11
  -4 -10  -6    0.04    0.04
   4  10   6    0.00    0.04
  -5 -10  -6    2.05    0.13
   5  10   6    2.02    0.11
   6  10   6    1.76    0.09
   7  10   6    0.00    0.02
   3  11   6    0.64    0.06
   4  11   6    2.13    0.10
  -5  -5   7    2.71    0.16
  -4  -5   7    1.92    0.13
  -3  -5   7    0.30    0.10
  -2  -5   7    7.32    0.31
  -1  -5   7    7.61    0.33
  -5  -4   7    1.62    0.13
  -4  -4   7    0.51    0.10
  -3  -4   7    3.60    0.19
  -2  -4   7    9.91    0.40
  -1  -4   7    2.52    0.16
   0  -4   7   13.12    0.51
   3  -4   7    2.65    0.21
   4  -4   7    0.21    0.08
   5  -4   7   13.80    0.52
  -5  -3   7    0.67    0.12
  -5  -3   7    0.46    0.10
  -4  -3   7    0.80    0.10
  -4  -3   7    0.74    0.13
  -3  -3   7   14.91    0.53
  -3  -3   7   13.22    0.54
  -2  -3   7    5.33    0.25
  -2  -3   7    4.75    0.24
  -1  -3   7   12.48    0.48
  -1  -3   7   12.12    0.47
   0  -3   7    1.47    0.15
   0  -3   7    1.39    0.14
   1  -3   7    9.96    0.40
   1  -3   7   10.20    0.45
   1  -3   7   10.05    0.42
   2  -3   7    0.08    0.07
   2  -3   7    0.01    0.10
   3  -3   7   -0.02    0.07
   4  -3   7    3.27    0.18
   4  -3   7    2.79    0.19
   4  -3   7    3.16    0.18
   5  -3   7    5.54    0.26
   5  -3   7    5.13    0.23
   5  -3   7    5.46    0.23
   6  -3   7   15.43    0.54
   6  -3   7   14.13    0.55
  -7  -2   7    2.33    0.13
  -6  -2   7    3.74    0.18
  -5  -2   7    2.16    0.15
  -5  -2   7    2.35    0.14
  -4  -2   7    1.24    0.12
  -3  -2   7   16.31    0.63
  -3  -2   7   16.58    0.61
  -2  -2   7    8.66    0.36
  -2  -2   7    9.05    0.37
  -1  -2   7   37.42    1.31
  -1  -2   7   36.06    1.30
   0  -2   7   37.02    1.28
   0  -2   7   36.47    1.31
   0  -2   7   34.03    1.27
   1  -2   7    0.77    0.13
   1  -2   7    0.72    0.12
   1  -2   7    0.86    0.15
   2  -2   7    5.36    0.26
   2  -2   7    5.21    0.25
   3  -2   7    0.01    0.06
   3  -2   7    0.03    0.07
   4  -2   7   10.39    0.40
   4  -2   7    9.75    0.40
   4  -2   7    9.55    0.41
   5  -2   7    2.44    0.18
   5  -2   7    2.26    0.15
   5  -2   7    2.29    0.16
   6  -2   7    2.18    0.16
   6  -2   7    2.24    0.14
   6  -2   7    2.38    0.14
   7  -2   7    1.71    0.12
   7  -2   7    1.94    0.11
  -7  -1   7    5.88    0.23
  -6  -1   7    3.68    0.18
  -5  -1   7    5.04    0.23
  -4  -1   7    0.40    0.10
  -4  -1   7    0.61    0.10
  -3  -1   7    9.83    0.40
  -3  -1   7   10.03    0.41
  -2  -1   7    6.15    0.28
  -2  -1   7    6.41    0.28
  -1  -1   7    4.48    0.21
  -1  -1   7    4.32    0.21
  -1  -1   7    3.87    0.24
   0  -1   7   36.23    1.32
   0  -1   7   37.20    1.32
   0  -1   7   38.45    1.33
   1  -1   7    1.33    0.12
   1  -1   7    1.71    0.14
   1  -1   7    1.25    0.15
   2  -1   7   28.10    1.00
   2  -1   7   27.07    0.99
   3  -1   7    3.77    0.20
   3  -1   7    3.65    0.19
   4  -1   7    0.67    0.15
   4  -1   7    0.24    0.07
   4  -1   7    0.17    0.07
   5  -1   7   70.03    2.49
   5  -1   7   71.80    2.51
   5  -1   7   73.25    2.49
   6  -1   7    0.01    0.06
   6  -1   7   -0.03    0.06
   6  -1   7   -0.06    0.05
   7  -1   7   17.96    0.70
   7  -1   7   18.52    0.68
   7  -1   7   19.30    0.68
   8  -1   7    0.37    0.07
   8  -1   7    0.38    0.08
  -7   0   7    2.34    0.12
  -6   0   7    5.60    0.24
  -5   0   7   11.42    0.44
  -4   0   7   24.67    0.90
  -3   0   7    0.09    0.05
  -3   0   7    0.07    0.05
  -2   0   7  158.63    5.30
  -2   0   7  154.66    5.29
  -2   0   7  148.72    5.28
  -1   0   7   43.33    1.52
  -1   0   7   43.31    1.53
  -1   0   7   43.59    1.53
   0   0   7    8.46    0.35
   0   0   7    8.82    0.35
   0   0   7    8.23    0.34
   1   0   7    4.28    0.21
   1   0   7    4.05    0.20
   1   0   7    4.17    0.21
   2   0   7    1.42    0.12
   2   0   7    1.61    0.13
   3   0   7    0.49    0.10
   3   0   7    0.53    0.11
   4   0   7    7.56    0.32
   4   0   7    7.25    0.34
   4   0   7    7.78    0.32
   5   0   7    8.55    0.36
   5   0   7    8.65    0.37
   5   0   7    8.58    0.36
   6   0   7   50.39    1.77
   6   0   7   51.52    1.79
   6   0   7   49.50    1.77
   7   0   7   18.37    0.67
   7   0   7   17.30    0.68
   7   0   7   18.41    0.67
   8   0   7    0.83    0.11
   8   0   7    0.90    0.09
   9   0   7    0.15    0.07
   9   0   7    0.16    0.04
  -7   1   7    1.13    0.08
  -6   1   7    5.79    0.25
  -5   1   7   16.45    0.61
  -4   1   7    4.73    0.23
  -4   1   7    4.95    0.24
  -3   1   7    3.68    0.19
  -3   1   7    3.26    0.20
  -2   1   7   17.01    0.63
  -2   1   7   17.05    0.64
  -1   1   7    4.63    0.22
  -1   1   7    4.76    0.22
  -1   1   7    4.57    0.23
   0   1   7  100.75    3.68
   0   1   7  113.51    3.69
   1   1   7    1.19    0.13
   1   1   7    1.00    0.11
   2   1   7    0.06    0.06
   2   1   7   -0.05    0.06
   3   1   7   30.88    1.08
   3   1   7   29.62    1.08
   4   1   7   25.96    0.95
   4   1   7   25.94    0.95
   4   1   7   27.14    0.96
   5   1   7    3.24    0.19
   5   1   7    3.05    0.19
   5   1   7    3.14    0.17
   6   1   7   16.18    0.63
   6   1   7   17.05    0.65
   6   1   7   17.56    0.64
   7   1   7   18.39    0.70
   7   1   7   19.10    0.71
   7   1   7   18.90    0.69
   8   1   7    2.52    0.18
   8   1   7    2.61    0.15
   8   1   7    2.75    0.15
   9   1   7    0.00    0.08
   9   1   7   -0.03    0.04
  -7   2   7    1.13    0.08
  -6   2   7    0.68    0.19
  -6   2   7    0.92    0.09
   5  -2  -7   17.44    0.68
  -5   2   7   18.41    0.67
  -5   2   7   18.35    0.67
   4  -2  -7    0.11    0.07
  -4   2   7    0.08    0.07
  -4   2   7    0.03    0.06
  -3   2   7  224.94    7.72
  -3   2   7  225.89    7.72
  -2   2   7    1.10    0.12
  -2   2   7    1.22    0.13
  -1   2   7    0.51    0.11
  -1   2   7    0.53    0.11
   0   2   7   27.25    0.97
   0   2   7   26.66    0.96
   1   2   7   97.84    3.33
   1   2   7   95.16    3.32
  -2  -2  -7   18.23    0.66
   2   2   7   17.10    0.65
   2   2   7   18.11    0.66
  -3  -2  -7    1.76    0.14
   3   2   7    1.84    0.14
   3   2   7    2.10    0.14
   4   2   7   15.57    0.58
   4   2   7   14.88    0.59
   4   2   7   15.96    0.59
   5   2   7    2.44    0.16
   5   2   7    2.20    0.16
   5   2   7    2.31    0.16
   6   2   7   10.51    0.43
   6   2   7   10.53    0.42
   6   2   7   10.62    0.42
   7   2   7    1.37    0.13
   7   2   7    1.35    0.16
   7   2   7    1.28    0.12
   8   2   7    1.90    0.17
   8   2   7    1.73    0.12
   8   2   7    1.77    0.12
   9   2   7    0.26    0.07
  -7   3   7    0.28    0.06
  -6   3   7    0.82    0.10
  -6   3   7    0.79    0.08
  -5   3   7    0.42    0.09
  -5   3   7    0.68    0.10
   4  -3  -7    1.06    0.14
  -4   3   7    0.92    0.12
  -4   3   7    0.92    0.11
   3  -3  -7    0.25    0.07
  -3   3   7    0.24    0.07
  -3   3   7    0.47    0.11
   2  -3  -7   74.26    2.51
  -2   3   7   71.07    2.50
  -2   3   7   70.16    2.49
   1  -3  -7   16.28    0.59
  -1   3   7   15.46    0.59
  -1   3   7   14.85    0.58
   0  -3  -7    4.31    0.21
   0   3   7    3.91    0.22
   0   3   7    4.42    0.21
  -1  -3  -7    4.52    0.21
   1   3   7    4.40    0.21
   1   3   7    3.98    0.22
  -2  -3  -7   15.21    0.57
   2   3   7   15.03    0.57
   2   3   7   15.24    0.57
  -3  -3  -7    5.38    0.24
   3   3   7    5.99    0.25
   3   3   7    5.25    0.26
  -4  -3  -7    3.12    0.23
   4   3   7    2.99    0.19
   4   3   7    3.05    0.18
   4   3   7    2.96    0.18
   5   3   7    5.20    0.25
   5   3   7    5.48    0.25
   5   3   7    5.70    0.26
   6   3   7   19.11    0.72
   6   3   7   19.98    0.71
   6   3   7   19.10    0.73
   7   3   7   -0.03    0.10
   7   3   7    0.17    0.06
   7   3   7    0.16    0.06
   8   3   7    1.41    0.11
   8   3   7    1.21    0.12
   8   3   7    1.39    0.20
   9   3   7    0.03    0.04
  10   3   7    1.30    0.08
  -6   4   7    0.03    0.05
  -6   4   7    0.00    0.04
  -5   4   7    8.36    0.33
  -5   4   7    8.17    0.34
   4  -4  -7   41.18    1.56
  -4   4   7   45.23    1.56
  -4   4   7   46.78    1.57
   3  -4  -7    2.37    0.16
  -3   4   7    2.24    0.16
  -3   4   7    2.51    0.16
   2  -4  -7    4.12    0.21
  -2   4   7    4.08    0.22
  -2   4   7    4.16    0.22
   1  -4  -7    0.78    0.10
  -1   4   7    0.74    0.15
  -1   4   7    0.92    0.12
   0  -4  -7   34.62    1.23
   0   4   7   35.22    1.23
   0   4   7   33.33    1.22
  -1  -4  -7    8.16    0.32
   1   4   7    6.88    0.34
   1   4   7    7.63    0.32
  -2  -4  -7    0.12    0.05
   2   4   7    0.19    0.09
   2   4   7    0.33    0.07
  -3  -4  -7    8.68    0.34
   3   4   7    8.69    0.35
   3   4   7    7.93    0.35
  -4  -4  -7   34.52    1.24
   4   4   7   36.36    1.24
   4   4   7   34.49    1.23
   4   4   7   34.20    1.24
   5   4   7   50.74    1.76
   5   4   7   50.54    1.76
   5   4   7   49.25    1.75
   6   4   7    0.58    0.10
   6   4   7    0.67    0.16
   6   4   7    0.48    0.15
   7   4   7    2.25    0.14
   7   4   7    2.42    0.18
   8   4   7    0.24    0.06
   9   4   7    1.84    0.11
  10   4   7    1.31    0.08
  -6   5   7    0.41    0.07
  -5   5   7    0.32    0.08
  -5   5   7    0.05    0.07
  -4   5   7    3.37    0.25
  -4   5   7    3.50    0.19
   3  -5  -7   43.92    1.55
  -3   5   7   44.12    1.56
  -3   5   7   43.41    1.54
   2  -5  -7    2.87    0.17
  -2   5   7    2.44    0.20
  -2   5   7    2.77    0.18
   1  -5  -7    0.93    0.11
  -1   5   7    0.89    0.12
   0  -5  -7    7.24    0.31
   0   5   7    7.08    0.31
  -1  -5  -7    0.75    0.09
   1   5   7    0.63    0.12
  -2  -5  -7    1.49    0.12
   2   5   7    1.46    0.14
  -3  -5  -7    1.51    0.12
   3   5   7    1.62    0.15
   3   5   7    1.63    0.15
  -4  -5  -7    2.60    0.16
   4   5   7    2.54    0.19
   4   5   7    2.50    0.16
  -5  -5  -7   42.49    1.42
   5   5   7   42.25    1.41
   5   5   7   35.37    1.41
   6   5   7    0.01    0.05
   7   5   7    5.42    0.24
   8   5   7    1.85    0.12
   9   5   7    0.05    0.04
  10   5   7   12.26    0.44
  -5   6   7    4.26    0.19
  -4   6   7    4.48    0.21
   3  -6  -7   -0.08    0.09
  -3   6   7    0.24    0.07
   2  -6  -7    1.55    0.14
  -2   6   7    2.03    0.15
   1  -6  -7   24.28    0.87
  -1   6   7   22.96    0.87
   0  -6  -7    7.53    0.32
   0   6   7    7.12    0.32
  -1  -6  -7   15.80    0.58
   1   6   7   14.61    0.58
  -2  -6  -7    4.45    0.22
   2   6   7    4.44    0.23
  -3  -6  -7  147.42    4.86
   3   6   7  134.49    4.84
   3   6   7  141.18    4.83
  -4  -6  -7   15.89    0.60
   4   6   7   15.69    0.58
  -5  -6  -7   12.66    0.49
   5   6   7   12.36    0.47
   6   6   7    4.69    0.21
   7   6   7    0.78    0.09
   8   6   7    0.29    0.07
   9   6   7    0.04    0.04
  -4   7   7   11.56    0.43
  -3   7   7    2.47    0.14
   2  -7  -7    1.61    0.15
  -2   7   7    1.83    0.13
   1  -7  -7   24.18    0.92
  -1   7   7   26.33    0.92
   0  -7  -7   43.10    1.54
   0   7   7   43.31    1.53
  -1  -7  -7   13.48    0.54
   1   7   7   14.46    0.54
  -2  -7  -7   20.13    0.74
   2   7   7   19.59    0.74
  -3  -7  -7   13.08    0.51
  -4  -7  -7    4.23    0.21
   4   7   7    4.21    0.20
  -5  -7  -7   14.70    0.58
   5   7   7   15.57    0.56
  -6  -7  -7   16.60    0.64
   6   7   7   17.16    0.62
   7   7   7    2.19    0.12
   8   7   7    3.74    0.17
   9   7   7    4.14    0.17
  -3   8   7    1.11    0.09
  -2   8   7    0.10    0.05
   1  -8  -7   16.21    0.62
  -1   8   7   16.95    0.62
   0  -8  -7    2.43    0.15
   0   8   7    2.70    0.16
  -1  -8  -7    3.89    0.20
   1   8   7    3.72    0.22
  -2  -8  -7   88.90    3.09
  -3  -8  -7    2.91    0.17
  -4  -8  -7    2.22    0.15
   4   8   7    2.26    0.13
  -5  -8  -7    1.63    0.14
   5   8   7    1.36    0.11
  -6  -8  -7    2.56    0.17
   6   8   7    2.58    0.13
   7   8   7    0.22    0.06
   8   8   7    0.03    0.03
   9   8   7    4.84    0.19
  -2   9   7    2.55    0.14
  -1   9   7    0.56    0.12
   0  -9  -7    3.25    0.18
  -1  -9  -7    6.03    0.27
  -2  -9  -7    0.52    0.09
  -3  -9  -7   24.35    0.89
  -4  -9  -7    7.41    0.31
   4   9   7    7.44    0.29
  -5  -9  -7    0.76    0.10
   5   9   7    0.58    0.08
  -6  -9  -7    2.60    0.16
   6   9   7    2.52    0.12
   7   9   7    1.83    0.10
   8   9   7    0.26    0.05
  -1 -10  -7    7.18    0.30
  -2 -10  -7    3.88    0.18
   2  10   7    3.54    0.16
  -3 -10  -7   10.61    0.41
   3  10   7   10.13    0.38
  -4 -10  -7    0.72    0.10
   4  10   7    0.68    0.07
  -5 -10  -7    2.19    0.14
   5  10   7    2.32    0.11
   6  10   7    0.94    0.07
   7  10   7    0.31    0.05
  -3  -5   8    2.40    0.19
  -2  -5   8    2.53    0.17
  -4  -4   8    7.80    0.32
  -3  -4   8    9.66    0.38
  -2  -4   8    0.24    0.06
  -1  -4   8    9.66    0.39
  -4  -3   8    3.80    0.20
  -4  -3   8    4.14    0.19
  -3  -3   8    4.19    0.20
  -3  -3   8    4.14    0.20
  -2  -3   8    6.28    0.27
  -2  -3   8    6.25    0.28
  -1  -3   8    0.09    0.05
  -1  -3   8   -0.07    0.06
   0  -3   8    2.24    0.15
   0  -3   8    1.90    0.16
   1  -3   8   24.08    0.87
   2  -3   8    0.40    0.11
   2  -3   8    0.89    0.17
   3  -3   8    0.07    0.08
   3  -3   8   -0.03    0.06
   4  -3   8    0.11    0.06
   4  -3   8    0.02    0.06
   5  -3   8    0.19    0.07
   5  -3   8    0.31    0.10
   6  -3   8    0.90    0.10
  -6  -2   8    0.10    0.05
  -5  -2   8    0.22    0.06
  -4  -2   8    7.19    0.28
  -4  -2   8    6.31    0.29
  -3  -2   8    0.14    0.06
  -3  -2   8    0.09    0.05
  -2  -2   8   19.19    0.75
  -2  -2   8   21.21    0.74
  -1  -2   8   36.90    1.28
  -1  -2   8   35.53    1.29
   0  -2   8   17.95    0.66
   0  -2   8   17.53    0.67
   1  -2   8    4.74    0.26
   1  -2   8    5.25    0.24
   1  -2   8    5.60    0.26
   2  -2   8    3.83    0.22
   2  -2   8    3.98    0.20
   3  -2   8    0.01    0.06
   3  -2   8    0.03    0.08
   4  -2   8   13.23    0.50
   4  -2   8   13.25    0.52
   5  -2   8    1.35    0.13
   5  -2   8    1.21    0.11
   6  -2   8    2.17    0.12
   6  -2   8    1.91    0.14
   6  -2   8    2.33    0.15
   7  -2   8    0.65    0.08
  -7  -1   8    4.78    0.19
  -6  -1   8    1.22    0.09
  -5  -1   8    3.31    0.16
  -4  -1   8    4.16    0.20
  -3  -1   8    1.48    0.13
  -3  -1   8    1.65    0.13
  -2  -1   8    1.34    0.12
  -2  -1   8    1.51    0.12
  -1  -1   8    4.61    0.25
  -1  -1   8    4.96    0.23
  -1  -1   8    4.85    0.23
   0  -1   8   76.83    2.59
   0  -1   8   72.88    2.58
   0  -1   8   73.69    2.58
   1  -1   8    2.01    0.17
   1  -1   8    2.00    0.14
   2  -1   8    2.60    0.16
   2  -1   8    2.80    0.17
   3  -1   8    0.17    0.06
   3  -1   8    0.34    0.08
   4  -1   8   12.59    0.49
   4  -1   8   12.97    0.51
   5  -1   8    1.44    0.15
   5  -1   8    1.52    0.12
   5  -1   8    1.28    0.14
   6  -1   8   -0.10    0.06
   6  -1   8   -0.02    0.04
   6  -1   8    0.02    0.07
   7  -1   8    4.71    0.21
   7  -1   8    5.05    0.21
   7  -1   8    5.13    0.23
  -7   0   8    6.05    0.23
  -6   0   8    1.60    0.10
  -5   0   8    9.94    0.39
  -4   0   8    3.23    0.17
  -3   0   8    1.72    0.13
  -2   0   8   75.97    2.65
  -2   0   8   76.85    2.66
  -2   0   8   77.03    2.67
  -1   0   8   18.64    0.67
  -1   0   8   17.58    0.66
  -1   0   8   17.26    0.66
   0   0   8   25.20    1.05
   0   0   8   32.79    1.07
   0   0   8   30.67    1.06
   1   0   8   10.33    0.40
   1   0   8    9.83    0.40
   2   0   8   11.26    0.46
   2   0   8   12.53    0.47
   3   0   8    7.87    0.33
   3   0   8    8.17    0.34
   4   0   8    0.05    0.06
   4   0   8    0.00    0.06
   5   0   8    6.23    0.27
   5   0   8    6.26    0.29
   5   0   8    6.15    0.29
   6   0   8   18.08    0.64
   6   0   8   17.31    0.66
   6   0   8   16.42    0.64
   7   0   8    6.51    0.29
   7   0   8    6.79    0.28
   7   0   8    6.82    0.28
   8   0   8    1.56    0.12
   8   0   8    1.59    0.10
  -7   1   8    0.04    0.03
  -6   1   8    0.40    0.07
   5  -1  -8   15.99    0.63
  -5   1   8   16.85    0.61
  -4   1   8    8.54    0.34
  -4   1   8    8.01    0.34
  -3   1   8   11.68    0.46
  -3   1   8   11.74    0.46
  -2   1   8   26.49    0.95
  -2   1   8   26.07    0.95
  -1   1   8    4.79    0.23
   0   1   8    8.30    0.34
   0   1   8    8.14    0.34
   1   1   8    9.37    0.38
   1   1   8    9.90    0.39
   2   1   8   15.61    0.60
   2   1   8   16.53    0.60
   3   1   8    4.93    0.23
   3   1   8    4.93    0.23
   4   1   8    2.25    0.16
   4   1   8    2.19    0.15
   5   1   8    0.66    0.10
   5   1   8    0.72    0.15
   5   1   8    0.75    0.11
   6   1   8    0.52    0.12
   6   1   8    0.28    0.09
   6   1   8    0.51    0.12
   7   1   8   48.17    1.64
   7   1   8   46.07    1.66
   7   1   8   46.61    1.65
   8   1   8    4.35    0.19
   8   1   8    4.15    0.19
   8   1   8    4.41    0.21
   9   1   8    0.08    0.04
  -7   2   8    4.91    0.19
  -6   2   8    7.07    0.28
   5  -2  -8    0.81    0.16
  -5   2   8    1.13    0.12
  -5   2   8    1.07    0.09
   4  -2  -8    5.80    0.28
  -4   2   8    6.13    0.27
  -4   2   8    6.38    0.27
  -3   2   8   71.21    2.38
  -3   2   8   65.47    2.37
  -2   2   8    8.62    0.36
  -2   2   8    9.03    0.37
  -1   2   8    7.42    0.35
  -1   2   8    9.71    0.35
   0   2   8    5.20    0.24
   0   2   8    5.17    0.24
   1   2   8    2.48    0.15
   1   2   8    2.62    0.16
  -2  -2  -8    4.18    0.21
   2   2   8    4.00    0.20
   2   2   8    4.30    0.21
  -3  -2  -8    0.32    0.08
   3   2   8    0.44    0.08
   3   2   8    0.42    0.07
   4   2   8   43.51    1.54
   4   2   8   43.92    1.54
   5   2   8   16.99    0.64
   5   2   8   17.38    0.64
   5   2   8   16.97    0.65
   6   2   8    9.42    0.38
   6   2   8    9.58    0.38
   6   2   8    9.35    0.40
   7   2   8   14.32    0.54
   7   2   8   13.97    0.55
   7   2   8   14.44    0.54
   8   2   8    2.10    0.13
   8   2   8    2.19    0.16
   8   2   8    2.07    0.13
   9   2   8    1.27    0.09
  -6   3   8    1.90    0.10
  -5   3   8    0.72    0.08
  -5   3   8    0.54    0.09
   4  -3  -8    5.70    0.28
  -4   3   8    5.78    0.25
  -4   3   8    6.13    0.26
   3  -3  -8    0.05    0.06
  -3   3   8    0.04    0.05
  -3   3   8   -0.01    0.06
   2  -3  -8   18.58    0.68
  -2   3   8   16.99    0.66
  -2   3   8   17.11    0.65
   1  -3  -8    0.02    0.05
  -1   3   8    0.05    0.06
  -1   3   8    0.02    0.06
   0  -3  -8    1.35    0.13
   0   3   8    1.12    0.11
   0   3   8    1.41    0.13
  -1  -3  -8    0.82    0.10
   1   3   8    0.71    0.12
   1   3   8    0.57    0.10
  -2  -3  -8    4.11    0.20
   2   3   8    3.90    0.20
   2   3   8    3.55    0.20
  -3  -3  -8    1.52    0.13
   3   3   8    1.38    0.13
   3   3   8    1.52    0.14
   4   3   8   14.25    0.54
   4   3   8   14.07    0.54
   5   3   8   33.85    1.21
   5   3   8   33.57    1.21
   5   3   8   34.48    1.21
   6   3   8   39.34    1.40
   6   3   8   39.64    1.41
   6   3   8   40.20    1.41
   7   3   8   14.08    0.54
   7   3   8   14.12    0.54
   7   3   8   14.78    0.56
   8   3   8    4.71    0.21
   8   3   8    4.87    0.25
   8   3   8    4.68    0.21
   9   3   8    0.31    0.07
  -6   4   8    0.34    0.08
  -6   4   8    0.28    0.08
  -5   4   8    7.56    0.30
  -5   4   8    7.69    0.30
   4  -4  -8    8.38    0.35
  -4   4   8    8.83    0.33
  -4   4   8    7.67    0.34
   3  -4  -8   12.27    0.49
  -3   4   8   12.51    0.48
  -3   4   8   12.53    0.49
   2  -4  -8   25.81    1.10
  -2   4   8   32.87    1.10
  -2   4   8   32.43    1.09
   1  -4  -8   -0.03    0.05
  -1   4   8    0.07    0.05
  -1   4   8    0.03    0.07
   0  -4  -8   10.64    0.43
   0   4   8   10.38    0.42
   0   4   8   10.34    0.42
  -1  -4  -8   11.21    0.44
   1   4   8   10.63    0.43
  -2  -4  -8    0.45    0.09
   2   4   8    0.44    0.09
   2   4   8    0.42    0.10
  -3  -4  -8   42.32    1.48
   3   4   8   41.47    1.47
   3   4   8   41.83    1.47
  -4  -4  -8   11.50    0.44
   4   4   8   11.86    0.44
   4   4   8    9.97    0.44
   5   4   8   49.19    1.69
   5   4   8   45.12    1.68
   5   4   8   50.03    1.69
   6   4   8    5.46    0.27
   6   4   8    5.69    0.25
   6   4   8    5.36    0.26
   7   4   8    3.81    0.19
   7   4   8    4.08    0.21
   7   4   8    4.18    0.25
   8   4   8    1.64    0.11
   9   4   8    0.44    0.07
  -5   5   8    2.94    0.14
  -4   5   8    1.10    0.12
  -4   5   8    1.02    0.09
   3  -5  -8    3.30    0.19
  -3   5   8    3.17    0.19
  -3   5   8    3.58    0.18
   2  -5  -8    9.19    0.38
  -2   5   8    9.31    0.38
  -2   5   8    9.09    0.38
   1  -5  -8    2.84    0.17
  -1   5   8    2.83    0.19
  -1   5   8    2.62    0.17
   0  -5  -8    8.07    0.34
   0   5   8    7.51    0.33
  -1  -5  -8    1.13    0.11
   1   5   8    1.04    0.13
  -2  -5  -8    1.88    0.14
   2   5   8    1.88    0.14
  -3  -5  -8    3.81    0.20
   3   5   8    3.67    0.20
  -4  -5  -8   24.74    0.87
   4   5   8   21.82    0.86
   4   5   8   25.04    0.87
   5   5   8   47.05    1.69
   5   5   8   50.24    1.71
   6   5   8   22.93    0.84
   6   5   8   22.84    0.82
   7   5   8    1.69    0.12
   8   5   8    2.94    0.15
   9   5   8    0.54    0.07
  -5   6   8    1.87    0.10
  -4   6   8   13.39    0.50
   3  -6  -8    7.79    0.35
  -3   6   8    8.32    0.33
   2  -6  -8    5.84    0.27
  -2   6   8    6.21    0.27
   1  -6  -8   17.67    0.66
  -1   6   8   17.17    0.66
   0  -6  -8    0.34    0.09
   0   6   8    0.44    0.08
  -1  -6  -8   11.01    0.44
   1   6   8   10.34    0.43
  -2  -6  -8   11.63    0.45
   2   6   8   10.92    0.44
  -3  -6  -8    1.94    0.14
   3   6   8    1.84    0.15
  -4  -6  -8   57.11    1.92
   4   6   8   53.96    1.90
   4   6   8   52.44    1.89
  -5  -6  -8    5.69    0.27
   5   6   8    5.80    0.25
   6   6   8    8.54    0.34
   7   6   8    0.76    0.09
   8   6   8    0.15    0.05
   9   6   8    0.63    0.07
  -4   7   8    0.34    0.06
  -3   7   8    1.81    0.11
   2  -7  -8    0.42    0.08
  -2   7   8    0.65    0.09
   1  -7  -8    2.45    0.16
  -1   7   8    2.62    0.16
   0  -7  -8    2.76    0.17
   0   7   8    3.02    0.17
  -1  -7  -8    0.20    0.06
   1   7   8    0.35    0.11
  -2  -7  -8    1.06    0.12
   2   7   8    1.23    0.14
  -3  -7  -8   11.89    0.47
   3   7   8   11.77    0.46
  -4  -7  -8   31.35    1.15
   4   7   8   32.85    1.13
  -5  -7  -8    0.88    0.12
   5   7   8    0.64    0.10
   6   7   8   25.43    0.90
   7   7   8    1.79    0.11
   8   7   8    2.10    0.11
   9   7   8    0.39    0.06
  -3   8   8    1.99    0.11
  -2   8   8    6.62    0.26
   1  -8  -8   11.87    0.46
  -1   8   8   11.80    0.45
   0  -8  -8    0.22    0.06
   0   8   8    0.23    0.07
  -1  -8  -8    1.88    0.14
   1   8   8    1.95    0.14
  -2  -8  -8    0.83    0.11
   2   8   8    0.78    0.17
  -3  -8  -8   51.22    1.82
   3   8   8   51.99    1.79
  -4  -8  -8    3.23    0.18
   4   8   8    3.33    0.16
  -5  -8  -8    0.37    0.11
   5   8   8    0.42    0.08
  -6  -8  -8   11.07    0.44
   6   8   8   10.46    0.40
   7   8   8   12.55    0.46
   8   8   8    0.53    0.06
  -1   9   8    1.69    0.11
   0  -9  -8   10.27    0.41
   0   9   8   10.73    0.44
  -1  -9  -8    0.21    0.06
  -2  -9  -8    3.31    0.17
  -3  -9  -8    1.13    0.11
   3   9   8    1.28    0.11
  -4  -9  -8   14.82    0.55
   4   9   8   13.83    0.52
  -5  -9  -8    0.04    0.05
   5   9   8    0.01    0.04
  -6  -9  -8    0.99    0.15
   6   9   8    0.74    0.07
   7   9   8    0.29    0.06
  -2 -10  -8    4.40    0.20
  -3 -10  -8    1.13    0.10
  -4 -10  -8    0.25    0.06
   4  10   8    0.40    0.08
   5  10   8    1.78    0.10
   6  10   8    1.41    0.09
  -2  -3   9    2.99    0.16
  -1  -3   9    5.87    0.25
   0  -3   9   19.60    0.71
   1  -3   9    9.56    0.37
   2  -3   9    5.83    0.25
   3  -3   9    0.95    0.11
   3  -3   9    1.12    0.16
   4  -3   9    0.18    0.07
   4  -3   9    0.18    0.08
  -5  -2   9    5.98    0.23
  -4  -2   9    0.23    0.05
  -3  -2   9    0.42    0.08
  -2  -2   9    0.57    0.10
  -2  -2   9    0.74    0.10
  -1  -2   9    1.02    0.11
  -1  -2   9    1.13    0.12
   1  -2   9    8.25    0.36
   1  -2   9    8.77    0.34
   2  -2   9   31.57    1.15
   2  -2   9   32.59    1.14
   3  -2   9    0.94    0.13
   3  -2   9    1.22    0.11
   4  -2   9   11.11    0.43
   4  -2   9   10.72    0.41
   5  -2   9    0.01    0.05
   5  -2   9    0.01    0.04
   6  -2   9    0.48    0.08
   6  -2   9    0.33    0.09
  -6  -1   9    3.24    0.14
  -5  -1   9    0.05    0.04
  -4  -1   9    9.78    0.38
  -3  -1   9    0.23    0.06
  -2  -1   9    2.41    0.15
  -1  -1   9    9.74    0.39
   0  -1   9   19.88    0.72
   0  -1   9   19.49    0.73
   1  -1   9    5.36    0.26
   1  -1   9    5.72    0.25
   2  -1   9    0.35    0.08
   2  -1   9    0.40    0.10
   3  -1   9    1.40    0.12
   3  -1   9    1.46    0.14
   4  -1   9    4.80    0.24
   4  -1   9    4.87    0.22
   5  -1   9    5.81    0.24
   5  -1   9    5.51    0.26
   6  -1   9    0.63    0.08
   6  -1   9    0.61    0.10
   7  -1   9    0.96    0.10
  -6   0   9    2.02    0.10
   5   0  -9    2.42    0.18
  -5   0   9    2.72    0.13
  -4   0   9    0.06    0.04
  -3   0   9    2.09    0.13
  -2   0   9   18.08    0.70
  -2   0   9   20.22    0.71
  -1   0   9    3.92    0.19
  -1   0   9    3.51    0.20
   0   0   9   10.28    0.41
   0   0   9   10.04    0.40
   1   0   9   43.06    1.52
   1   0   9   42.99    1.52
   2   0   9    0.15    0.06
   2   0   9    0.02    0.06
   3   0   9    5.11    0.24
   3   0   9    5.28    0.25
   4   0   9    0.44    0.11
   4   0   9    0.47    0.10
   5   0   9    0.05    0.06
   5   0   9   -0.01    0.04
   6   0   9    3.28    0.18
   6   0   9    3.38    0.16
   7   0   9   18.37    0.65
   7   0   9   17.48    0.66
  -6   1   9   10.19    0.37
   5  -1  -9    3.91    0.22
  -5   1   9    4.18    0.18
   4  -1  -9    2.64    0.18
  -4   1   9    2.89    0.15
  -3   1   9    0.79    0.10
  -3   1   9    0.96    0.13
  -2   1   9    0.77    0.10
  -2   1   9    0.61    0.12
  -1   1   9   11.30    0.44
  -1   1   9   11.54    0.45
   0   1   9    5.41    0.24
   0   1   9    5.14    0.24
   1   1   9   21.94    0.82
   1   1   9   23.35    0.83
  -2  -1  -9   12.09    0.48
   2   1   9   11.52    0.45
   2   1   9   11.63    0.46
   3   1   9    6.64    0.29
   3   1   9    6.62    0.29
   4   1   9    0.72    0.11
   4   1   9    0.70    0.10
   5   1   9    5.24    0.25
   5   1   9    5.51    0.25
   6   1   9    3.03    0.16
   6   1   9    3.28    0.18
   7   1   9    2.56    0.16
   7   1   9    2.88    0.14
   7   1   9    2.71    0.16
   8   1   9    2.46    0.12
   8   1   9    2.45    0.14
  -6   2   9    0.38    0.06
  -5   2   9    6.17    0.25
   4  -2  -9    9.72    0.40
  -4   2   9    9.60    0.37
  -4   2   9    9.44    0.37
   3  -2  -9   13.30    0.54
  -3   2   9   14.20    0.52
  -3   2   9   13.98    0.52
  -2   2   9   18.27    0.66
  -2   2   9   17.23    0.66
  -1   2   9   64.03    2.27
  -1   2   9   66.31    2.27
   0   2   9    0.34    0.10
   0   2   9    0.41    0.10
  -1  -2  -9    9.19    0.38
   1   2   9    8.44    0.36
   1   2   9    9.05    0.36
  -2  -2  -9   26.95    0.99
   2   2   9   27.22    0.98
   2   2   9   26.96    0.97
  -3  -2  -9    3.61    0.22
   3   2   9    3.50    0.18
   3   2   9    3.44    0.18
   4   2   9    4.13    0.20
   4   2   9    4.11    0.21
   5   2   9    2.80    0.17
   5   2   9    2.87    0.17
   6   2   9    1.95    0.16
   6   2   9    1.82    0.15
   6   2   9    2.02    0.13
   7   2   9    4.99    0.22
   7   2   9    4.68    0.23
   7   2   9    4.92    0.22
   8   2   9    9.96    0.40
   8   2   9   10.28    0.38
   8   2   9   10.68    0.39
  -6   3   9    0.13    0.04
  -5   3   9    0.35    0.08
  -5   3   9    0.13    0.04
   4  -3  -9    0.53    0.12
  -4   3   9    0.42    0.08
  -4   3   9    0.43    0.09
   3  -3  -9    1.58    0.14
  -3   3   9    1.52    0.12
  -3   3   9    1.59    0.12
   2  -3  -9    0.03    0.05
  -2   3   9    0.03    0.06
  -2   3   9    0.07    0.06
   1  -3  -9    4.42    0.22
  -1   3   9    4.21    0.21
  -1   3   9    4.13    0.21
   0  -3  -9    3.02    0.18
   0   3   9    2.77    0.17
   0   3   9    2.83    0.16
  -1  -3  -9    2.42    0.16
   1   3   9    2.56    0.16
   1   3   9    2.35    0.15
  -2  -3  -9    0.12    0.06
   2   3   9   -0.01    0.06
   2   3   9    0.22    0.06
  -3  -3  -9    0.07    0.07
   3   3   9    0.10    0.06
   3   3   9    0.17    0.06
   4   3   9   42.35    1.47
   4   3   9   40.62    1.46
   5   3   9    2.01    0.15
   5   3   9    2.16    0.15
   6   3   9   -0.02    0.06
   6   3   9    0.01    0.08
   6   3   9    0.01    0.06
   7   3   9    4.29    0.20
   7   3   9    4.35    0.20
   7   3   9    4.31    0.22
   8   3   9    3.09    0.19
   8   3   9    3.22    0.16
   8   3   9    3.32    0.16
  -5   4   9   15.58    0.56
  -5   4   9   15.72    0.56
   4  -4  -9    0.09    0.09
  -4   4   9    0.01    0.04
  -4   4   9   -0.08    0.04
   3  -4  -9    1.85    0.14
  -3   4   9    1.92    0.13
  -3   4   9    1.87    0.13
   2  -4  -9    2.80    0.18
  -2   4   9    2.95    0.16
  -2   4   9    2.77    0.17
   1  -4  -9    0.36    0.10
  -1   4   9    0.32    0.10
  -1   4   9    0.36    0.11
   0  -4  -9    1.72    0.14
   0   4   9    1.55    0.13
   0   4   9    1.50    0.15
  -1  -4  -9    3.57    0.20
   1   4   9    3.41    0.19
   1   4   9    3.56    0.20
  -2  -4  -9    0.76    0.11
   2   4   9    0.76    0.13
   2   4   9    0.71    0.11
  -3  -4  -9    6.69    0.29
   3   4   9    6.22    0.28
   3   4   9    6.03    0.28
  -4  -4  -9    5.08    0.25
   4   4   9    5.06    0.24
   4   4   9    4.73    0.23
   5   4   9    1.08    0.13
   5   4   9    1.33    0.13
   6   4   9    9.57    0.38
   6   4   9    9.64    0.38
   6   4   9    9.31    0.38
   7   4   9   23.73    0.86
   7   4   9   24.08    0.87
   7   4   9   23.75    0.85
   8   4   9    0.10    0.05
   9   4   9    9.70    0.36
  -5   5   9    1.46    0.09
  -4   5   9    1.02    0.08
  -4   5   9    0.74    0.11
   3  -5  -9    0.31    0.07
  -3   5   9    0.41    0.08
  -3   5   9    0.33    0.10
   2  -5  -9    1.17    0.12
  -2   5   9    1.29    0.11
  -2   5   9    1.24    0.14
   1  -5  -9    3.95    0.21
  -1   5   9    4.24    0.22
  -1   5   9    4.17    0.21
   0  -5  -9    0.06    0.04
   0   5   9   -0.07    0.05
   0   5   9    0.04    0.08
  -1  -5  -9    1.53    0.13
   1   5   9    2.08    0.18
   1   5   9    2.03    0.14
  -2  -5  -9    3.11    0.18
   2   5   9    2.87    0.17
   2   5   9    2.88    0.21
  -3  -5  -9    7.17    0.30
   3   5   9    6.19    0.29
  -4  -5  -9    4.38    0.22
   4   5   9    4.08    0.21
   5   5   9    0.01    0.07
   6   5   9    4.73    0.23
   6   5   9    5.01    0.24
   7   5   9    8.99    0.35
   8   5   9    0.09    0.05
   9   5   9    1.15    0.09
  -4   6   9    1.04    0.08
   3  -6  -9   -0.06    0.10
  -3   6   9    0.03    0.04
   2  -6  -9    0.04    0.06
  -2   6   9    0.14    0.05
   1  -6  -9   10.62    0.44
  -1   6   9   11.39    0.43
   0  -6  -9   12.21    0.50
   0   6   9   13.30    0.50
  -1  -6  -9    0.07    0.05
   1   6   9    0.05    0.06
  -2  -6  -9    4.32    0.22
   2   6   9    4.72    0.22
  -3  -6  -9   36.71    1.38
   3   6   9   40.88    1.37
  -4  -6  -9   15.12    0.59
   4   6   9   15.91    0.58
  -5  -6  -9   31.61    1.18
   5   6   9   35.64    1.18
   5   6   9   31.89    1.17
   6   6   9    0.09    0.06
   7   6   9    7.08    0.28
   8   6   9    0.51    0.08
   9   6   9    0.51    0.08
  -3   7   9    0.08    0.04
   2  -7  -9    8.79    0.36
  -2   7   9    8.64    0.34
   1  -7  -9    2.04    0.15
  -1   7   9    2.09    0.13
   0  -7  -9    5.44    0.26
   0   7   9    5.64    0.25
  -1  -7  -9   18.48    0.73
   1   7   9   20.91    0.73
  -2  -7  -9    0.40    0.10
   2   7   9    0.47    0.11
  -3  -7  -9   24.47    0.93
   3   7   9   26.88    0.92
  -4  -7  -9    7.34    0.32
   4   7   9    7.86    0.33
  -5  -7  -9   10.94    0.43
   5   7   9   10.89    0.41
   6   7   9    0.04    0.05
   7   7   9    0.10    0.05
   8   7   9    4.75    0.20
  -2   8   9    1.97    0.11
   1  -8  -9    0.02    0.06
  -1   8   9   -0.02    0.04
   0  -8  -9    0.01    0.06
   0   8   9    0.01    0.05
  -1  -8  -9   29.78    1.06
   1   8   9   28.71    1.04
  -2  -8  -9    7.36    0.32
   2   8   9    7.51    0.31
  -3  -8  -9   11.17    0.44
  -4  -8  -9   19.71    0.73
  -5  -8  -9   -0.02    0.07
   5   8   9    0.11    0.06
   6   8   9    2.10    0.12
   7   8   9    0.45    0.08
   8   8   9    0.61    0.08
  -1   9   9    7.05    0.29
   0  -9  -9    0.10    0.07
   0   9   9    0.25    0.06
  -1  -9  -9    3.41    0.18
  -2  -9  -9    4.87    0.22
  -3  -9  -9    5.35    0.24
  -4  -9  -9    1.62    0.13
  -5  -9  -9    1.80    0.14
   6   9   9    1.14    0.10
  -3 -10  -9    0.60    0.13
  -3  -2  10    0.34    0.08
  -2  -2  10    3.80    0.17
  -1  -2  10    0.60    0.09
   0  -2  10    0.61    0.09
   1  -2  10    3.39    0.17
   2  -2  10    3.99    0.22
   2  -2  10    3.83    0.18
   3  -2  10    0.05    0.07
   3  -2  10    0.04    0.05
   4  -2  10    9.25    0.36
   4  -2  10    9.39    0.35
   5  -2  10    0.41    0.11
  -4  -1  10    0.51    0.07
  -3  -1  10    1.01    0.09
  -2  -1  10    1.29    0.10
  -1  -1  10    5.22    0.23
   0  -1  10    0.03    0.08
   0  -1  10    0.10    0.05
   1  -1  10    2.59    0.17
   1  -1  10    2.67    0.15
   2  -1  10    9.95    0.39
   2  -1  10    9.85    0.40
   3  -1  10    3.58    0.19
   3  -1  10    3.74    0.18
   4  -1  10    2.40    0.13
   4  -1  10    2.24    0.15
   5  -1  10    0.69    0.10
   5  -1  10    0.81    0.08
   6  -1  10    1.98    0.10
   6  -1  10    1.73    0.12
   4   0 -10    0.14    0.06
  -4   0  10    0.02    0.03
  -3   0  10    0.24    0.07
  -2   0  10    2.29    0.13
  -1   0  10    5.70    0.26
  -1   0  10    5.94    0.25
   0   0  10    5.05    0.24
   0   0  10    5.04    0.23
   1   0  10    1.28    0.13
   1   0  10    1.44    0.12
   2   0  10   10.10    0.41
   2   0  10   10.44    0.40
   3   0  10   -0.05    0.04
   3   0  10    0.09    0.05
   4   0  10    0.01    0.04
   4   0  10   -0.07    0.05
   5   0  10    5.38    0.23
   5   0  10    5.39    0.24
   6   0  10    0.38    0.08
   6   0  10    0.23    0.06
  -5   1  10    0.81    0.07
   4  -1 -10    0.78    0.12
  -4   1  10    0.83    0.08
   3  -1 -10    0.03    0.06
  -3   1  10    0.04    0.04
  -2   1  10   17.95    0.68
  -2   1  10   19.49    0.69
  -1   1  10   18.90    0.68
  -1   1  10   17.92    0.68
   0   1  10   18.98    0.71
   0   1  10   19.54    0.71
  -1  -1 -10    4.60    0.25
   1   1  10    5.29    0.23
   1   1  10    4.95    0.23
  -2  -1 -10   10.19    0.43
   2   1  10   10.80    0.42
   2   1  10   10.57    0.41
   3   1  10    1.42    0.13
   3   1  10    1.72    0.13
   4   1  10    1.96    0.14
   4   1  10    2.11    0.13
   5   1  10    5.34    0.23
   5   1  10    5.18    0.24
   6   1  10    0.10    0.04
   6   1  10    0.10    0.05
   7   1  10    0.04    0.05
   7   1  10    0.03    0.03
  -5   2  10    0.10    0.03
   4  -2 -10    1.69    0.15
  -4   2  10    1.54    0.10
   3  -2 -10    0.18    0.06
  -3   2  10    0.20    0.06
  -3   2  10    0.30    0.07
   2  -2 -10   14.91    0.62
  -2   2  10   17.04    0.60
  -2   2  10   16.37    0.60
   1  -2 -10    6.11    0.29
  -1   2  10    6.56    0.28
  -1   2  10    6.42    0.27
   0  -2 -10    0.02    0.06
   0   2  10   -0.04    0.05
   0   2  10    0.12    0.05
  -1  -2 -10    1.23    0.13
   1   2  10    0.92    0.11
   1   2  10    1.01    0.11
  -2  -2 -10    0.45    0.12
   2   2  10    0.33    0.07
   2   2  10    0.38    0.10
   3   2  10    1.69    0.13
   3   2  10    2.02    0.13
   4   2  10   22.43    0.81
   4   2  10   21.88    0.81
   5   2  10    3.36    0.17
   5   2  10    2.81    0.16
   6   2  10    3.36    0.18
   6   2  10    3.52    0.17
   7   2  10    9.05    0.36
   7   2  10    9.29    0.35
   8   2  10    1.33    0.12
  -5   3  10    2.74    0.12
   4  -3 -10    5.98    0.27
  -4   3  10    6.23    0.24
  -4   3  10    5.71    0.24
   3  -3 -10    0.65    0.12
  -3   3  10    0.55    0.08
  -3   3  10    0.71    0.08
   2  -3 -10    0.00    0.05
  -2   3  10    0.05    0.05
  -2   3  10    0.05    0.05
   1  -3 -10    1.20    0.12
  -1   3  10    1.33    0.11
  -1   3  10    1.11    0.11
   0  -3 -10    2.72    0.18
   0   3  10    2.92    0.17
   0   3  10    3.11    0.17
  -1  -3 -10    6.01    0.29
   1   3  10    6.81    0.28
   1   3  10    6.07    0.27
  -2  -3 -10   13.18    0.52
   2   3  10   13.15    0.51
   2   3  10   13.64    0.51
  -3  -3 -10   11.27    0.47
   3   3  10   11.94    0.45
   3   3  10   11.82    0.46
   4   3  10    1.22    0.12
   4   3  10    1.24    0.12
   5   3  10    3.74    0.19
   5   3  10    3.67    0.19
   6   3  10    3.26    0.16
   6   3  10    3.19    0.17
   7   3  10    0.86    0.11
   7   3  10    0.81    0.09
   8   3  10    4.31    0.21
  -4   4  10    3.87    0.17
  -4   4  10    4.09    0.17
   3  -4 -10   -0.06    0.06
  -3   4  10   -0.02    0.04
  -3   4  10    0.04    0.04
   2  -4 -10    0.01    0.05
  -2   4  10    0.14    0.05
  -2   4  10    0.01    0.05
  -1   4  10    0.50    0.10
  -1   4  10    0.19    0.06
   0  -4 -10    0.01    0.05
   0   4  10    0.05    0.06
   0   4  10    0.06    0.05
  -1  -4 -10    0.29    0.09
   1   4  10    0.40    0.11
   1   4  10    0.35    0.09
  -2  -4 -10    4.97    0.24
   2   4  10    5.23    0.24
   2   4  10    4.88    0.23
  -3  -4 -10   15.44    0.60
   3   4  10   16.04    0.59
   3   4  10   15.45    0.59
   4   4  10    1.01    0.12
   4   4  10    1.34    0.12
   5   4  10    7.42    0.31
   5   4  10    7.20    0.31
   6   4  10    2.18    0.14
   6   4  10    2.17    0.14
   7   4  10    9.71    0.40
   7   4  10   10.85    0.39
  -4   5  10    0.30    0.06
   3  -5 -10    1.48    0.14
  -3   5  10    1.37    0.09
  -3   5  10    1.41    0.12
   2  -5 -10    3.37    0.19
  -2   5  10    3.64    0.18
  -2   5  10    3.42    0.17
   1  -5 -10    0.51    0.10
  -1   5  10    0.39    0.08
  -1   5  10    0.37    0.12
   0  -5 -10   20.90    0.80
   0   5  10   21.51    0.78
   0   5  10   21.92    0.78
  -1  -5 -10    4.26    0.22
   1   5  10    4.75    0.22
   1   5  10    4.52    0.23
  -2  -5 -10   12.71    0.52
   2   5  10   13.38    0.51
   2   5  10   13.92    0.51
  -3  -5 -10    0.07    0.06
   3   5  10    0.18    0.06
  -4  -5 -10    4.28    0.23
   4   5  10    4.95    0.22
   4   5  10    4.57    0.24
   5   5  10    0.27    0.09
   5   5  10    0.34    0.10
   6   5  10    0.53    0.11
  -3   6  10    0.04    0.03
   2  -6 -10    8.16    0.34
  -2   6  10    8.02    0.32
   1  -6 -10    2.42    0.15
  -1   6  10    2.47    0.14
   0  -6 -10    3.94    0.21
   0   6  10    4.39    0.20
  -1  -6 -10   10.60    0.44
   1   6  10   11.02    0.42
  -2  -6 -10    1.61    0.13
   2   6  10    1.72    0.13
  -3  -6 -10    7.49    0.33
   3   6  10    8.55    0.33
  -4  -6 -10    2.37    0.16
   4   6  10    2.53    0.15
   5   6  10    4.34    0.21
  -2   7  10    3.33    0.15
   1  -7 -10    0.31    0.11
  -1   7  10    0.41    0.07
   0  -7 -10   14.92    0.56
   0   7  10   14.20    0.54
  -1  -7 -10    1.78    0.14
   1   7  10    2.03    0.12
  -2  -7 -10    1.06    0.12
   2   7  10    1.08    0.10
  -3  -7 -10    3.44    0.19
   3   7  10    3.56    0.18
  -4  -7 -10    3.56    0.19
   4   7  10    3.55    0.19
  -5  -7 -10    0.64    0.21
  -1   8  10    3.98    0.17
   0  -8 -10    0.18    0.06
   0   8  10    0.29    0.07
  -1  -8 -10    7.51    0.31
   1   8  10    7.50    0.30
  -2  -8 -10    3.37    0.18
   2   8  10    3.23    0.16
  -3  -8 -10    0.12    0.05
  -4  -8 -10    0.04    0.06
  -5  -8 -10   20.88    0.77
  -1  -9 -10    0.31    0.11
  -2  -9 -10   -0.04    0.05
  -3  -9 -10    0.27    0.09
  -4  -9 -10    0.17    0.07
  -1  -2  11    0.82    0.10
   0  -2  11   -0.05    0.05
   1  -2  11    0.09    0.05
   2  -2  11    0.36    0.09
  -3  -1  11    0.81    0.08
   2   1 -11    1.92    0.15
  -2  -1  11    2.13    0.11
   1   1 -11    0.47    0.13
  -1  -1  11    0.49    0.07
   0   1 -11    0.02    0.08
   0  -1  11    0.13    0.04
   1  -1  11    0.20    0.07
   2  -1  11    3.37    0.18
   2  -1  11    3.22    0.15
   3  -1  11    1.08    0.08
   3  -1  11    1.13    0.12
   4  -1  11    0.44    0.09
   4  -1  11    0.33    0.07
   3   0 -11   -0.01    0.05
  -3   0  11    0.04    0.03
   2   0 -11    0.65    0.11
  -2   0  11    0.61    0.07
   1   0 -11    0.05    0.06
  -1   0  11    0.16    0.04
   0   0 -11    0.39    0.13
   0   0  11    0.25    0.07
   0   0  11    0.33    0.10
  -1   0 -11    0.12    0.09
   1   0  11    0.08    0.05
   1   0  11   -0.01    0.04
   2   0  11    0.73    0.10
   2   0  11    0.75    0.08
   3   0  11    0.05    0.05
   3   0  11   -0.01    0.04
   4   0  11    4.29    0.18
   4   0  11    4.14    0.20
   5   0  11    2.19    0.11
   5   0  11    2.17    0.13
  -4   1  11    0.11    0.03
   3  -1 -11    3.26    0.18
  -3   1  11    3.24    0.15
   2  -1 -11    0.11    0.05
  -2   1  11    0.25    0.06
   1  -1 -11    0.76    0.11
  -1   1  11    0.99    0.11
  -1   1  11    0.93    0.09
   0  -1 -11    0.07    0.06
   0   1  11    0.09    0.05
   0   1  11    0.12    0.04
  -1  -1 -11   10.75    0.43
   1   1  11   10.87    0.41
   1   1  11   10.51    0.41
   2   1  11    4.65    0.21
   2   1  11    4.44    0.20
   3   1  11    1.56    0.11
   3   1  11    1.46    0.11
   4   1  11    1.76    0.11
   4   1  11    1.56    0.12
   5   1  11    0.29    0.07
   5   1  11    0.28    0.08
   6   1  11    1.60    0.11
   6   1  11    1.68    0.09
  -4   2  11    0.34    0.06
   3  -2 -11    0.10    0.06
  -3   2  11    0.03    0.03
   2  -2 -11    3.39    0.18
  -2   2  11    3.30    0.16
  -2   2  11    3.27    0.16
   1  -2 -11    3.22    0.19
  -1   2  11    3.47    0.16
  -1   2  11    3.27    0.16
   0  -2 -11   18.45    0.71
   0   2  11   19.68    0.69
   0   2  11   18.87    0.69
  -1  -2 -11    2.56    0.17
   1   2  11    2.80    0.15
   1   2  11    2.70    0.15
  -2  -2 -11    0.24    0.08
   2   2  11    0.26    0.06
   2   2  11    0.22    0.06
   3   2  11   11.53    0.45
   3   2  11   11.94    0.45
   4   2  11    3.23    0.16
   4   2  11    3.10    0.16
   5   2  11    1.58    0.11
   5   2  11    1.51    0.11
   6   2  11    3.31    0.16
   6   2  11    3.46    0.16
   7   2  11    0.33    0.08
   7   2  11    0.41    0.07
  -4   3  11    0.23    0.06
   3  -3 -11    3.26    0.18
  -3   3  11    3.05    0.15
  -3   3  11    3.09    0.14
   2  -3 -11    0.06    0.05
  -2   3  11    0.19    0.05
  -2   3  11    0.12    0.04
   1  -3 -11   -0.03    0.05
  -1   3  11    0.08    0.04
  -1   3  11    0.04    0.04
   0  -3 -11   -0.02    0.05
   0   3  11    0.00    0.04
   0   3  11    0.01    0.04
  -1  -3 -11    4.61    0.23
   1   3  11    4.58    0.21
   1   3  11    4.83    0.22
  -2  -3 -11    0.11    0.07
   2   3  11    0.06    0.05
   2   3  11    0.02    0.05
   3   3  11    0.84    0.10
   3   3  11    1.13    0.10
   4   3  11    0.00    0.04
   4   3  11    0.02    0.05
   5   3  11   14.70    0.52
   5   3  11   13.47    0.53
   6   3  11    2.04    0.12
   6   3  11    1.97    0.13
   7   3  11    0.52    0.10
   7   3  11    0.57    0.08
  -3   4  11    8.80    0.34
  -3   4  11    9.85    0.35
   2  -4 -11    6.26    0.27
  -2   4  11    5.91    0.25
  -2   4  11    6.13    0.25
   1  -4 -11    0.73    0.10
  -1   4  11    0.70    0.08
  -1   4  11    0.70    0.09
   0  -4 -11    0.01    0.05
   0   4  11    0.11    0.05
   0   4  11    0.04    0.04
  -1  -4 -11    2.29    0.15
   1   4  11    2.17    0.13
   1   4  11    2.29    0.14
  -2  -4 -11    3.77    0.21
   2   4  11    3.44    0.18
   2   4  11    4.40    0.19
  -3  -4 -11    0.34    0.08
   3   4  11    0.63    0.09
   3   4  11    0.48    0.10
   4   4  11    0.04    0.06
   4   4  11    0.04    0.05
   5   4  11    0.35    0.08
   6   4  11    6.76    0.28
   6   4  11    7.05    0.28
   7   4  11    0.38    0.11
   7   4  11    0.19    0.06
  -3   5  11    0.32    0.06
   2  -5 -11    1.00    0.12
  -2   5  11    1.00    0.11
  -2   5  11    0.79    0.07
   1  -5 -11    1.85    0.14
  -1   5  11    1.88    0.11
  -1   5  11    2.01    0.13
   0  -5 -11    4.68    0.23
   0   5  11    4.71    0.21
   0   5  11    4.68    0.21
  -1  -5 -11    0.13    0.06
   1   5  11    0.15    0.04
   1   5  11    0.20    0.07
  -2  -5 -11    2.39    0.16
   2   5  11    2.73    0.14
   2   5  11    2.52    0.16
  -3  -5 -11    0.97    0.13
   3   5  11    1.03    0.10
   3   5  11    1.19    0.14
   4   5  11    0.23    0.08
   4   5  11    0.09    0.05
   5   5  11    0.19    0.09
   5   5  11    0.14    0.05
   6   5  11    1.28    0.12
  -2   6  11    1.23    0.08
   1  -6 -11    1.25    0.11
  -1   6  11    0.95    0.08
   0  -6 -11    0.46    0.09
   0   6  11    0.45    0.07
  -1  -6 -11    4.86    0.23
   1   6  11    4.76    0.21
  -2  -6 -11    2.13    0.14
   2   6  11    2.07    0.12
  -3  -6 -11    3.95    0.20
   3   6  11    3.76    0.18
  -4  -6 -11    1.00    0.15
   4   6  11    0.88    0.10
   5   6  11   15.97    0.58
  -1   7  11    7.46    0.28
   0  -7 -11    0.88    0.11
   0   7  11    0.87    0.08
  -1  -7 -11    0.96    0.11
   1   7  11    0.86    0.08
  -2  -7 -11    1.28    0.12
   2   7  11    1.12    0.10
  -3  -7 -11    1.19    0.12
   3   7  11    1.38    0.10
  -4  -7 -11   -0.01    0.07
   4   7  11    0.12    0.06
   0   8  11    3.95    0.16
  -1  -8 -11    3.34    0.17
   1   8  11    3.46    0.15
  -2  -8 -11    1.58    0.12
   2   8  11    1.61    0.11
  -3  -8 -11    6.46    0.27
   3   8  11    6.30    0.28
  -4  -8 -11   13.02    0.49
  -1   0  12    0.04    0.03
   0   0  12    0.05    0.03
   1   0  12    2.90    0.13
   2   0  12    2.02    0.11
   2   0  12    2.07    0.14
   3   0  12    1.68    0.09
   3   0  12    1.71    0.12
  -2   1  12    3.21    0.14
   1  -1 -12    4.02    0.21
  -1   1  12    4.43    0.18
   0  -1 -12   41.88    1.43
   0   1  12   38.84    1.41
   0   1  12   41.11    1.41
   1   1  12   14.21    0.51
   1   1  12   13.74    0.51
   2   1  12   12.39    0.47
   2   1  12   12.90    0.47
   3   1  12    0.13    0.04
   3   1  12    0.16    0.05
   4   1  12    0.81    0.09
   4   1  12    0.87    0.07
   5   1  12    0.49    0.08
  -2   2  12    0.01    0.03
   1  -2 -12    0.87    0.11
  -1   2  12    0.83    0.07
  -1   2  12    0.82    0.10
   0  -2 -12   11.87    0.44
   0   2  12   10.70    0.42
   0   2  12   10.93    0.41
  -1  -2 -12    0.51    0.13
   2   2  12    0.06    0.04
   2   2  12    0.09    0.05
   3   2  12   -0.03    0.04
   3   2  12    0.01    0.04
   4   2  12    0.43    0.07
   4   2  12    0.35    0.07
   5   2  12    2.32    0.11
   5   2  12    2.18    0.12
  -2   3  12   21.39    0.72
  -2   3  12   19.25    0.71
   1  -3 -12    4.70    0.22
  -1   3  12    4.75    0.19
  -1   3  12    4.50    0.19
   0  -3 -12    0.32    0.10
   0   3  12    0.44    0.07
   0   3  12    0.33    0.07
  -1  -3 -12    1.07    0.12
   1   3  12    1.08    0.09
   1   3  12    1.16    0.09
  -2  -3 -12    0.47    0.16
   2   3  12    0.31    0.08
   2   3  12    0.34    0.07
   3   3  12    1.22    0.10
   3   3  12    1.18    0.09
   4   3  12    1.12    0.09
   4   3  12    1.23    0.09
   5   3  12    0.82    0.08
   5   3  12    0.81    0.08
   6   3  12    1.19    0.09
   6   3  12    1.25    0.09
  -2   4  12    4.81    0.19
  -2   4  12    4.59    0.19
   1  -4 -12    0.90    0.11
  -1   4  12    0.70    0.07
  -1   4  12    0.83    0.08
   0  -4 -12    1.28    0.12
   0   4  12    1.33    0.10
   0   4  12    1.15    0.09
  -1  -4 -12    0.68    0.11
   1   4  12    0.65    0.08
   1   4  12    0.60    0.07
  -2  -4 -12    0.93    0.13
   2   4  12    0.52    0.09
   2   4  12    0.65    0.07
   3   4  12    0.06    0.04
   3   4  12    0.07    0.05
   4   4  12    0.63    0.08
   4   4  12    0.55    0.09
   5   4  12    0.12    0.04
   5   4  12    0.06    0.05
   6   4  12    1.12    0.12
   6   4  12    0.95    0.10
  -2   5  12    6.84    0.26
   1  -5 -12    0.16    0.06
  -1   5  12    0.17    0.05
   0  -5 -12    0.23    0.06
   0   5  12    0.19    0.06
   0   5  12    0.30    0.06
  -1  -5 -12    1.01    0.11
   1   5  12    1.06    0.08
   1   5  12    1.03    0.12
  -2  -5 -12    3.73    0.19
   2   5  12    4.02    0.19
   2   5  12    3.73    0.17
  -3  -5 -12    1.82    0.18
   3   5  12    1.99    0.15
   3   5  12    1.71    0.11
   4   5  12    0.14    0.04
   5   5  12    5.18    0.21
   6   5  12    5.91    0.25
   0  -6 -12    6.10    0.26
   0   6  12    6.18    0.24
  -1  -6 -12    3.89    0.19
   1   6  12    3.83    0.17
  -2  -6 -12   -0.02    0.06
   2   6  12    0.05    0.04
  -3  -6 -12    2.67    0.18
   3   6  12    2.57    0.13
   4   6  12    1.30    0.10
   5   6  12    0.04    0.05
   0   7  12    1.23    0.08
  -1  -7 -12    0.31    0.09
   1   7  12    0.51    0.06
  -2  -7 -12    0.26    0.06
   2   7  12    0.34    0.07
   3   7  12    0.13    0.05
   4   7  12    5.82    0.24
   1   2  13    5.83    0.24
   1   2  13    6.37    0.23
   2   2  13    3.39    0.15
   2   2  13    3.47    0.15
   3   2  13    0.43    0.06
   3   2  13    0.46    0.07
   0   3  13    0.02    0.04
   0   3  13   -0.05    0.03
   1   3  13    1.06    0.08
   2   3  13    0.12    0.04
   2   3  13    0.10    0.04
   3   3  13    0.23    0.06
   3   3  13    0.23    0.06
   4   3  13    0.10    0.04
   4   3  13    0.01    0.04
   0   4  13    0.06    0.05
   0   4  13    0.06    0.04
   1   4  13    1.80    0.10
   1   4  13    1.71    0.10
   2   4  13    0.11    0.05
   2   4  13    0.09    0.04
   3   4  13    2.59    0.13
   3   4  13    2.40    0.12
   4   4  13    6.45    0.25
   1   5  13    1.28    0.08
   2   5  13    1.18    0.08
   3   5  13    0.30    0.06
   4   5  13    1.49    0.09
   2   6  13    0.09    0.03
   3   6  13    5.30    0.21
   0   0   0    0.00    0.00
;
_shelx_hkl_checksum              52340
_shelx_res_file
;
    JTM617_0m.res created by SHELXL-2014/7
TITL JTM617_0m_a.res in P-1
REM Old TITL JTM617_0m in P-1
REM SHELXT solution in P-1
REM R1 0.110,  Rweak 0.005,  Alpha 0.037,  Orientation as input
REM Formula found by SHELXT:  C16 N4 O2
CELL  1.54178   8.6905   9.0249  10.8240   68.803   78.520   72.980
ZERR    2.000   0.0002   0.0003   0.0003    0.001    0.001    0.001
LATT  1
SFAC C H N O
UNIT 36 32 4 4
TEMP -123
SIZE 0.13 0.13 0.17
L.S. 5
BOND $H
LIST 4
FMAP 2
PLAN 5
CONF
HTAB N2 O2
ACTA 134
WGHT    0.062300    0.166000
EXTI    0.018481
FVAR       0.34695
O1    4    0.291313   -0.004618    0.355103    11.00000    0.02994    0.02174 =
         0.04039   -0.01348   -0.00366   -0.00546
O2    4    0.081482    0.349994    0.727327    11.00000    0.03406    0.02943 =
         0.02502   -0.01134   -0.00182   -0.01081
H2A   2    0.225274    0.395449    0.566473    11.00000    0.04076
N1    3    0.441885    0.175548    0.323568    11.00000    0.01975    0.02027 =
         0.02983   -0.01039   -0.00118   -0.00207
N2    3    0.242094    0.371333    0.486684    11.00000    0.02312    0.02235 =
         0.02340   -0.00947   -0.00215   -0.00628
C1    1    0.363091    0.426778    0.387101    11.00000    0.01939    0.02213 =
         0.02406   -0.00620   -0.00483   -0.00425
C2    1    0.394295    0.575542    0.373614    11.00000    0.02547    0.02270 =
         0.03292   -0.01000   -0.00759   -0.00402
AFIX  43
H2    2    0.332858    0.636514    0.430064    11.00000   -1.20000
AFIX   0
C3    1    0.513327    0.635188    0.279262    11.00000    0.02994    0.02622 =
         0.04068   -0.00800   -0.00804   -0.01175
AFIX  43
H3    2    0.533880    0.736070    0.271619    11.00000   -1.20000
AFIX   0
C4    1    0.602767    0.547490    0.195716    11.00000    0.02809    0.03611 =
         0.03882   -0.00787    0.00082   -0.01516
AFIX  43
H4    2    0.683371    0.589174    0.129799    11.00000   -1.20000
AFIX   0
C5    1    0.574354    0.398999    0.208564    11.00000    0.02407    0.03270 =
         0.03497   -0.01313    0.00225   -0.00811
AFIX  43
H5    2    0.635577    0.339576    0.150939    11.00000   -1.20000
AFIX   0
C6    1    0.456678    0.335790    0.305319    11.00000    0.02012    0.02153 =
         0.02801   -0.00790   -0.00444   -0.00418
C7    1    0.298217    0.134568    0.338926    11.00000    0.02362    0.02172 =
         0.02159   -0.00913   -0.00172   -0.00423
C8    1    0.148499    0.273764    0.341238    11.00000    0.01989    0.02069 =
         0.02312   -0.00847   -0.00266   -0.00389
AFIX  13
H8    2    0.170203    0.375681    0.270808    11.00000   -1.20000
AFIX   0
C9    1    0.134647    0.295863    0.475251    11.00000    0.01936    0.01664 =
         0.02498   -0.00802   -0.00533   -0.00011
C10   1    0.025250    0.238928    0.579477    11.00000    0.02182    0.02095 =
         0.02508   -0.00823   -0.00286   -0.00468
AFIX  43
H10   2   -0.042929    0.181191    0.567190    11.00000   -1.20000
AFIX   0
C11   1    0.008678    0.262328    0.706426    11.00000    0.02294    0.02073 =
         0.02459   -0.00621   -0.00476   -0.00190
C12   1   -0.100219    0.175273    0.817331    11.00000    0.03246    0.03640 =
         0.02431   -0.00675   -0.00151   -0.01282
AFIX 137
H12A  2   -0.165564    0.132036    0.780898    11.00000   -1.50000
H12B  2   -0.171681    0.252205    0.861091    11.00000   -1.50000
H12C  2   -0.034481    0.084764    0.882383    11.00000   -1.50000
AFIX   0
C13   1    0.590392    0.047940    0.313503    11.00000    0.02203    0.02454 =
         0.03733   -0.01141   -0.00336    0.00057
AFIX  23
H13A  2    0.682476    0.076743    0.332892    11.00000   -1.20000
H13B  2    0.578123   -0.057579    0.381351    11.00000   -1.20000
AFIX   0
C14   1    0.626500    0.028323    0.181114    11.00000    0.02358    0.02353 =
         0.04077   -0.01177    0.00497   -0.00422
C15   1    0.653026    0.009422    0.075730    11.00000    0.04303    0.04225 =
         0.04270   -0.02001    0.01481   -0.01784
AFIX 163
H15   2    0.674351   -0.005772   -0.008992    11.00000   -1.20000
AFIX   0
C16   1   -0.000528    0.241222    0.310592    11.00000    0.02243    0.02784 =
         0.02704   -0.01193   -0.00375   -0.00531
AFIX  23
H16A  2   -0.009273    0.128392    0.364264    11.00000   -1.20000
H16B  2   -0.099383    0.318522    0.334116    11.00000   -1.20000
AFIX   0
C17   1    0.013883    0.261986    0.168132    11.00000    0.02458    0.02829 =
         0.03191   -0.01335   -0.00582   -0.00497
C18   1    0.032063    0.287876    0.051053    11.00000    0.03703    0.03856 =
         0.03016   -0.01509   -0.00552   -0.01015
AFIX 163
H18   2    0.046590    0.308564   -0.042505    11.00000   -1.20000
AFIX   0
HKLF 4
REM  JTM617_0m_a.res in P-1
REM R1 =  0.0381 for    2554 Fo > 4sig(Fo)  and  0.0412 for all    2802 data
REM    205 parameters refined using      0 restraints
END
WGHT      0.0620      0.1678
REM Highest difference peak  0.204,  deepest hole -0.218,  1-sigma level  0.045
Q1    1   0.4231  0.3774  0.3565  11.00000  0.05    0.20
Q2    1   0.5042  0.3637  0.2634  11.00000  0.05    0.19
Q3    1   0.3042  0.3935  0.4337  11.00000  0.05    0.17
Q4    1   0.5811  0.0091  0.1378  11.00000  0.05    0.17
Q5    1   0.0364  0.2496  0.6492  11.00000  0.05    0.17
;
_shelx_res_checksum              30208
loop_
_space_group_symop_operation_xyz
'x, y, z'
'-x, -y, -z'
loop_
_atom_site_type_symbol
_atom_site_label
_atom_site_fract_x
_atom_site_fract_y
_atom_site_fract_z
_atom_site_U_iso_or_equiv
_atom_site_adp_type
_atom_site_calc_flag
_atom_site_occupancy
O O1 0.29131(10) -0.00462(10) 0.35510(9) 0.0299(2) Uani d 1
O O2 0.08148(11) 0.34999(11) 0.72733(8) 0.0283(2) Uani d 1
H H2A 0.225(2) 0.395(2) 0.5665(18) 0.041(4) Uiso d 1
N N1 0.44188(11) 0.17555(12) 0.32357(10) 0.0235(2) Uani d 1
N N2 0.24209(12) 0.37133(12) 0.48668(10) 0.0222(2) Uani d 1
C C1 0.36309(13) 0.42678(14) 0.38710(12) 0.0220(3) Uani d 1
C C2 0.39430(14) 0.57554(15) 0.37361(13) 0.0265(3) Uani d 1
H H2 0.3329 0.6365 0.4301 0.032 Uiso calc 1
C C3 0.51333(16) 0.63519(16) 0.27926(14) 0.0313(3) Uani d 1
H H3 0.5339 0.7361 0.2716 0.038 Uiso calc 1
C C4 0.60277(16) 0.54749(17) 0.19572(14) 0.0345(3) Uani d 1
H H4 0.6834 0.5892 0.1298 0.041 Uiso calc 1
C C5 0.57435(15) 0.39900(17) 0.20856(14) 0.0305(3) Uani d 1
H H5 0.6356 0.3396 0.1509 0.037 Uiso calc 1
C C6 0.45668(14) 0.33579(14) 0.30532(12) 0.0232(3) Uani d 1
C C7 0.29822(14) 0.13457(14) 0.33893(11) 0.0221(3) Uani d 1
C C8 0.14850(13) 0.27376(14) 0.34124(12) 0.0210(3) Uani d 1
H H8 0.1702 0.3757 0.2708 0.025 Uiso calc 1
C C9 0.13465(13) 0.29586(13) 0.47525(12) 0.0205(3) Uani d 1
C C10 0.02525(13) 0.23893(14) 0.57948(12) 0.0224(3) Uani d 1
H H10 -0.0429 0.1812 0.5672 0.027 Uiso calc 1
C C11 0.00868(14) 0.26233(14) 0.70643(12) 0.0235(3) Uani d 1
C C12 -0.10022(16) 0.17527(17) 0.81733(13) 0.0311(3) Uani d 1
H H12A -0.1656 0.1320 0.7809 0.047 Uiso calc 1
H H12B -0.1717 0.2522 0.8611 0.047 Uiso calc 1
H H12C -0.0345 0.0848 0.8824 0.047 Uiso calc 1
C C13 0.59039(15) 0.04794(15) 0.31350(14) 0.0289(3) Uani d 1
H H13A 0.6825 0.0767 0.3329 0.035 Uiso calc 1
H H13B 0.5781 -0.0576 0.3814 0.035 Uiso calc 1
C C14 0.62650(15) 0.02832(15) 0.18111(14) 0.0305(3) Uani d 1
C C15 0.65303(19) 0.00942(19) 0.07573(16) 0.0421(4) Uani d 1
H H15 0.6744 -0.0058 -0.0090 0.050 Uiso calc 1
C C16 -0.00053(14) 0.24122(15) 0.31059(12) 0.0249(3) Uani d 1
H H16A -0.0093 0.1284 0.3643 0.030 Uiso calc 1
H H16B -0.0994 0.3185 0.3341 0.030 Uiso calc 1
C C17 0.01388(14) 0.26199(15) 0.16813(13) 0.0271(3) Uani d 1
C C18 0.03206(17) 0.28788(17) 0.05105(14) 0.0336(3) Uani d 1
H H18 0.0466 0.3086 -0.0425 0.040 Uiso calc 1
loop_
_atom_site_aniso_label
_atom_site_aniso_U_11
_atom_site_aniso_U_22
_atom_site_aniso_U_33
_atom_site_aniso_U_12
_atom_site_aniso_U_13
_atom_site_aniso_U_23
O1 0.0299(5) 0.0217(4) 0.0404(5) -0.0055(3) -0.0037(4) -0.0135(4)
O2 0.0341(5) 0.0294(5) 0.0250(5) -0.0108(4) -0.0018(4) -0.0113(4)
N1 0.0198(5) 0.0203(5) 0.0298(5) -0.0021(4) -0.0012(4) -0.0104(4)
N2 0.0231(5) 0.0224(5) 0.0234(5) -0.0063(4) -0.0021(4) -0.0095(4)
C1 0.0194(5) 0.0221(6) 0.0241(6) -0.0043(4) -0.0048(4) -0.0062(5)
C2 0.0255(6) 0.0227(6) 0.0329(7) -0.0040(5) -0.0076(5) -0.0100(5)
C3 0.0299(6) 0.0262(6) 0.0407(7) -0.0117(5) -0.0080(5) -0.0080(6)
C4 0.0281(6) 0.0361(7) 0.0388(7) -0.0152(5) 0.0008(5) -0.0079(6)
C5 0.0241(6) 0.0327(7) 0.0350(7) -0.0081(5) 0.0022(5) -0.0131(6)
C6 0.0201(5) 0.0215(6) 0.0280(6) -0.0042(4) -0.0044(4) -0.0079(5)
C7 0.0236(6) 0.0217(6) 0.0216(6) -0.0042(4) -0.0017(4) -0.0091(5)
C8 0.0199(5) 0.0207(6) 0.0231(6) -0.0039(4) -0.0027(4) -0.0085(5)
C9 0.0194(5) 0.0166(5) 0.0250(6) -0.0001(4) -0.0053(4) -0.0080(5)
C10 0.0218(5) 0.0209(5) 0.0251(6) -0.0047(4) -0.0029(4) -0.0082(5)
C11 0.0229(5) 0.0207(6) 0.0246(6) -0.0019(4) -0.0048(4) -0.0062(5)
C12 0.0325(7) 0.0364(7) 0.0243(6) -0.0128(5) -0.0015(5) -0.0067(6)
C13 0.0220(6) 0.0245(6) 0.0373(7) 0.0006(5) -0.0034(5) -0.0114(5)
C14 0.0236(6) 0.0235(6) 0.0408(8) -0.0042(5) 0.0050(5) -0.0118(6)
C15 0.0430(8) 0.0423(8) 0.0427(9) -0.0178(7) 0.0148(6) -0.0200(7)
C16 0.0224(6) 0.0278(6) 0.0270(6) -0.0053(5) -0.0038(4) -0.0119(5)
C17 0.0246(6) 0.0283(6) 0.0319(7) -0.0050(5) -0.0058(5) -0.0134(5)
C18 0.0370(7) 0.0386(7) 0.0302(7) -0.0101(6) -0.0055(5) -0.0151(6)
loop_
_atom_type_symbol
_atom_type_description
_atom_type_scat_dispersion_real
_atom_type_scat_dispersion_imag
_atom_type_scat_source
C C 0.0181 0.0091 'International Tables Vol C Tables 4.2.6.8 and 6.1.1.4'
H H 0.0000 0.0000 'International Tables Vol C Tables 4.2.6.8 and 6.1.1.4'
N N 0.0311 0.0180 'International Tables Vol C Tables 4.2.6.8 and 6.1.1.4'
O O 0.0492 0.0322 'International Tables Vol C Tables 4.2.6.8 and 6.1.1.4'
loop_
_geom_angle_atom_site_label_1
_geom_angle_atom_site_label_2
_geom_angle_atom_site_label_3
_geom_angle
C7 N1 C6 124.46(9)
C7 N1 C13 116.81(10)
C6 N1 C13 118.50(9)
C9 N2 C1 125.92(10)
C9 N2 H2A 114.6(11)
C1 N2 H2A 119.3(11)
C2 C1 C6 119.19(11)
C2 C1 N2 118.15(10)
C6 C1 N2 122.61(10)
C3 C2 C1 120.91(11)
C3 C2 H2 119.5
C1 C2 H2 119.5
C2 C3 C4 119.91(12)
C2 C3 H3 120.0
C4 C3 H3 120.0
C5 C4 C3 119.92(12)
C5 C4 H4 120.0
C3 C4 H4 120.0
C4 C5 C6 120.72(12)
C4 C5 H5 119.6
C6 C5 H5 119.6
C5 C6 C1 119.31(11)
C5 C6 N1 118.84(11)
C1 C6 N1 121.74(10)
O1 C7 N1 122.21(11)
O1 C7 C8 123.08(10)
N1 C7 C8 114.65(10)
C9 C8 C7 105.29(9)
C9 C8 C16 115.45(9)
C7 C8 C16 111.90(9)
C9 C8 H8 108.0
C7 C8 H8 108.0
C16 C8 H8 108.0
N2 C9 C10 122.14(10)
N2 C9 C8 115.06(10)
C10 C9 C8 122.76(10)
C9 C10 C11 123.22(10)
C9 C10 H10 118.4
C11 C10 H10 118.4
O2 C11 C10 122.72(11)
O2 C11 C12 119.61(11)
C10 C11 C12 117.67(10)
C11 C12 H12A 109.5
C11 C12 H12B 109.5
H12A C12 H12B 109.5
C11 C12 H12C 109.5
H12A C12 H12C 109.5
H12B C12 H12C 109.5
C14 C13 N1 112.32(10)
C14 C13 H13A 109.1
N1 C13 H13A 109.1
C14 C13 H13B 109.1
N1 C13 H13B 109.1
H13A C13 H13B 107.9
C15 C14 C13 178.17(14)
C14 C15 H15 180.0
C17 C16 C8 109.32(10)
C17 C16 H16A 109.8
C8 C16 H16A 109.8
C17 C16 H16B 109.8
C8 C16 H16B 109.8
H16A C16 H16B 108.3
C18 C17 C16 174.84(13)
C17 C18 H18 180.0
loop_
_geom_bond_atom_site_label_1
_geom_bond_atom_site_label_2
_geom_bond_distance
O1 C7 1.2219(14)
O2 C11 1.2478(15)
N1 C7 1.3662(15)
N1 C6 1.4280(15)
N1 C13 1.4726(15)
N2 C9 1.3529(14)
N2 C1 1.4088(15)
N2 H2A 0.939(18)
C1 C2 1.3975(16)
C1 C6 1.4027(17)
C2 C3 1.3823(18)
C2 H2 0.9500
C3 C4 1.388(2)
C3 H3 0.9500
C4 C5 1.3862(19)
C4 H4 0.9500
C5 C6 1.3969(17)
C5 H5 0.9500
C7 C8 1.5247(15)
C8 C9 1.5113(15)
C8 C16 1.5290(15)
C8 H8 1.0000
C9 C10 1.3713(17)
C10 C11 1.4376(16)
C10 H10 0.9500
C11 C12 1.5017(17)
C12 H12A 0.9800
C12 H12B 0.9800
C12 H12C 0.9800
C13 C14 1.4681(18)
C13 H13A 0.9900
C13 H13B 0.9900
C14 C15 1.182(2)
C15 H15 0.9500
C16 C17 1.4685(17)
C16 H16A 0.9900
C16 H16B 0.9900
C17 C18 1.1888(19)
C18 H18 0.9500
loop_
_geom_hbond_atom_site_label_D
_geom_hbond_atom_site_label_H
_geom_hbond_atom_site_label_A
_geom_hbond_site_symmetry_A
_geom_hbond_distance_DH
_geom_hbond_distance_HA
_geom_hbond_distance_DA
_geom_hbond_angle_DHA
N2 H2A O2 . 0.939(18) 1.918(18) 2.6678(13) 135.2(14)
C18 H18 O2 1_554 0.95 2.35 3.3012(16) 178
C12 H12A O1 2_556 0.98 2.70 3.664(2) 168
loop_
_geom_torsion_atom_site_label_1
_geom_torsion_atom_site_label_2
_geom_torsion_atom_site_label_3
_geom_torsion_atom_site_label_4
_geom_torsion
C9 N2 C1 C2 141.12(11)
C9 N2 C1 C6 -41.41(16)
C6 C1 C2 C3 1.36(17)
N2 C1 C2 C3 178.93(11)
C1 C2 C3 C4 0.50(19)
C2 C3 C4 C5 -1.1(2)
C3 C4 C5 C6 -0.2(2)
C4 C5 C6 C1 2.10(19)
C4 C5 C6 N1 -174.11(11)
C2 C1 C6 C5 -2.63(17)
N2 C1 C6 C5 179.92(11)
C2 C1 C6 N1 173.46(10)
N2 C1 C6 N1 -3.99(17)
C7 N1 C6 C5 -136.02(12)
C13 N1 C6 C5 38.24(16)
C7 N1 C6 C1 47.87(16)
C13 N1 C6 C1 -137.87(12)
C6 N1 C7 O1 -179.55(11)
C13 N1 C7 O1 6.11(17)
C6 N1 C7 C8 -2.49(16)
C13 N1 C7 C8 -176.84(10)
O1 C7 C8 C9 103.58(12)
N1 C7 C8 C9 -73.45(12)
O1 C7 C8 C16 -22.58(16)
N1 C7 C8 C16 160.39(10)
C1 N2 C9 C10 176.94(10)
C1 N2 C9 C8 -0.93(15)
C7 C8 C9 N2 74.96(11)
C16 C8 C9 N2 -161.10(10)
C7 C8 C9 C10 -102.89(12)
C16 C8 C9 C10 21.05(15)
N2 C9 C10 C11 3.68(17)
C8 C9 C10 C11 -178.62(10)
C9 C10 C11 O2 7.22(18)
C9 C10 C11 C12 -172.22(11)
C7 N1 C13 C14 77.54(14)
C6 N1 C13 C14 -97.15(13)
C9 C8 C16 C17 166.39(10)
C7 C8 C16 C17 -73.20(12)

_cod_database_fobs_code 1543540
