#------------------------------------------------------------------------------
#$Date: 2016-04-30 05:08:42 +0300 (Sat, 30 Apr 2016) $
#$Revision: 182428 $
#$URL: svn://www.crystallography.net/cod/cif/1/54/32/1543229.cif $
#------------------------------------------------------------------------------
#
# This file is available in the Crystallography Open Database (COD),
# http://www.crystallography.net/. The original data for this entry
# were provided by IUCr Journals, http://journals.iucr.org/.
#
# The file may be used within the scientific community so long as
# proper attribution is given to the journal article from which the
# data were obtained.
#
data_1543229
loop_
_publ_author_name
'Golen, James A.'
'Manke, David R.'
_publ_section_title
;
 6-Iodo-1<i>H</i>-indole-2,3-dione
;
_journal_issue                   4
_journal_name_full               IUCrData
_journal_page_first              x160700
_journal_paper_doi               10.1107/S2414314616007008
_journal_volume                  1
_journal_year                    2016
_chemical_formula_iupac          'C8 H4 I N O2'
_chemical_formula_moiety         'C8 H4 I N O2'
_chemical_formula_sum            'C8 H4 I N O2'
_chemical_formula_weight         273.02
_chemical_name_systematic
;
6-Iodo-1<i>H</i>-indole-2,3-dione
;
_space_group_crystal_system      triclinic
_space_group_IT_number           2
_space_group_name_Hall           '-P 1'
_space_group_name_H-M_alt        'P -1'
_symmetry_space_group_name_Hall  '-P 1'
_symmetry_space_group_name_H-M   'P -1'
_atom_sites_solution_hydrogens   mixed
_cell_angle_alpha                110.162(7)
_cell_angle_beta                 96.120(8)
_cell_angle_gamma                91.997(8)
_cell_formula_units_Z            2
_cell_length_a                   6.4152(12)
_cell_length_b                   7.5089(12)
_cell_length_c                   8.9546(15)
_cell_measurement_reflns_used    5053
_cell_measurement_temperature    200(2)
_cell_measurement_theta_max      25.85
_cell_measurement_theta_min      2.90
_cell_volume                     401.43(12)
_computing_cell_refinement
;
SAINT (Bruker, 2014)
;
_computing_data_collection
;
APEX2 (Bruker, 2014)
;
_computing_data_reduction
;
SAINT (Bruker, 2014)
;
_computing_molecular_graphics
;
<i>OLEX2</i> (Dolomanov <i>et al.</i>,  2009)
;
_computing_publication_material
;
<i>OLEX2</i> (Dolomanov <i>et al.</i>,  2009) and publCIF (Westrip,
2010)
;
_computing_structure_refinement
;
SHELXL2014 (Sheldrick, 2015)
;
_computing_structure_solution
;
SHELXS97 (Sheldrick, 2008)
;
_diffrn_ambient_temperature      200.15
_diffrn_measured_fraction_theta_full 0.999
_diffrn_measured_fraction_theta_max 0.994
_diffrn_measurement_device_type  'Bruker Venture D8 CMOS'
_diffrn_measurement_method       '\f and \w scans'
_diffrn_radiation_type           MoK\a
_diffrn_radiation_wavelength     0.71073
_diffrn_reflns_av_R_equivalents  0.0303
_diffrn_reflns_limit_h_max       7
_diffrn_reflns_limit_h_min       -7
_diffrn_reflns_limit_k_max       9
_diffrn_reflns_limit_k_min       -9
_diffrn_reflns_limit_l_max       10
_diffrn_reflns_limit_l_min       -10
_diffrn_reflns_number            7043
_diffrn_reflns_theta_full        25.250
_diffrn_reflns_theta_max         25.846
_diffrn_reflns_theta_min         2.898
_diffrn_standards_number         0
_exptl_absorpt_coefficient_mu    3.940
_exptl_absorpt_correction_T_max  0.2594
_exptl_absorpt_correction_T_min  0.1972
_exptl_absorpt_correction_type   multi-scan
_exptl_absorpt_process_details
;
(SADABS; Bruker, 2014)
;
_exptl_crystal_colour            yellow
_exptl_crystal_density_diffrn    2.259
_exptl_crystal_description       BLOCK
_exptl_crystal_F_000             256
_exptl_crystal_size_max          0.22
_exptl_crystal_size_mid          0.2
_exptl_crystal_size_min          0.1
_refine_diff_density_max         1.123
_refine_diff_density_min         -0.744
_refine_ls_extinction_method     none
_refine_ls_goodness_of_fit_ref   1.129
_refine_ls_hydrogen_treatment    constr
_refine_ls_matrix_type           full
_refine_ls_number_parameters     112
_refine_ls_number_reflns         1533
_refine_ls_number_restraints     1
_refine_ls_restrained_S_all      1.129
_refine_ls_R_factor_all          0.0228
_refine_ls_R_factor_gt           0.0200
_refine_ls_shift/su_max          0.001
_refine_ls_shift/su_mean         0.000
_refine_ls_structure_factor_coef Fsqd
_refine_ls_weighting_details
'w=1/[\s^2^(Fo^2^)+(0.0052P)^2^+0.5065P] where P=(Fo^2^+2Fc^2^)/3'
_refine_ls_weighting_scheme      calc
_refine_ls_wR_factor_gt          0.0428
_refine_ls_wR_factor_ref         0.0437
_reflns_number_gt                1428
_reflns_number_total             1533
_reflns_threshold_expression     'I > 2\s(I)'
_cod_data_source_file            su4042sup1.cif
_cod_data_source_block           I
_cod_database_code               1543229
_shelx_space_group_comment
;
The symmetry employed for this shelxl refinement is uniquely defined
by the following loop, which should always be used as a source of
symmetry information in preference to the above space-group names.
They are only intended as comments.
;
_shelx_estimated_absorpt_t_min   0.478
_shelx_estimated_absorpt_t_max   0.694
_shelx_hkl_file
;
  -1   0   0  260.07    9.90
   1   0   0  255.07    9.90
   1   0   0  235.18   10.30
  -2   0   0   14.90    1.90
  -2   0   0   15.50    2.00
   2   0   0   12.60    1.90
   2   0   0   13.00    1.80
  -3   0   0  148.89    7.10
  -3   0   0  141.79    6.90
   3   0   0  143.49    6.90
   3   0   0  140.19    6.90
  -4   0   0  648.14   26.30
  -4   0   0  634.74   26.10
   4   0   0  653.93   26.10
   4   0   0  640.14   26.20
  -5   0   0  828.32   33.30
  -5   0   0  747.13   33.30
   5   0   0  854.71   33.40
   5   0   0  845.72   33.50
  -6   0   0   -2.30    3.90
  -6   0   0    5.60    4.90
   6   0   0    8.40    4.10
   6   0   0    0.30    3.80
  -7   0   0   14.30    7.50
   7   0   0    2.50    5.00
   7   0   0    8.00    5.80
   7  -1   0  164.08   13.10
   7  -1   0  186.18   13.30
  -7   1   0  199.18   13.20
  -7   1   0  185.28   14.50
   6  -1   0  371.16   18.40
   6  -1   0  388.86   18.50
  -6   1   0  381.66   18.30
  -6   1   0  405.46   19.00
   5  -1   0   50.19    5.60
   5  -1   0   49.40    5.70
  -5   1   0   56.69    5.70
  -5   1   0   57.19    6.20
   4  -1   0   16.10    3.00
   4  -1   0    9.20    2.40
  -4   1   0   12.60    2.90
  -4   1   0    6.50    2.30
   3  -1   0 1651.73   62.69
   3  -1   0 1567.84   62.49
  -3   1   0 1597.24   62.49
  -3   1   0 1691.23   62.69
   2  -1   0 2478.65   94.39
   2  -1   0 2419.26   94.19
  -2   1   0 2572.94   94.29
  -2   1   0 2449.35   94.19
   1  -1   0  630.64   24.00
  -1   1   0  616.44   24.00
   0  -1   0   36.70    2.70
   0   1   0   26.40    2.80
  -1  -1   0  314.67   12.10
   1   1   0  299.67   12.30
   1   1   0  312.47   12.10
  -2  -1   0 2070.59   79.59
  -2  -1   0 2062.29   79.89
   2   1   0 2101.29   79.89
   2   1   0 2161.18   79.69
  -3  -1   0 1187.88   46.00
  -3  -1   0 1161.88   46.10
   3   1   0 1179.28   46.10
   3   1   0 1218.58   45.90
  -4  -1   0    1.00    2.30
  -4  -1   0   -2.00    1.90
   4   1   0    1.60    2.10
   4   1   0    1.20    2.00
  -5  -1   0  282.87   14.00
   5   1   0  288.67   13.90
   5   1   0  297.27   13.50
  -6  -1   0  441.56   21.30
  -6  -1   0  443.76   20.40
   6   1   0  483.05   20.70
   6   1   0  462.05   20.90
  -7  -1   0  178.58   14.50
   7   1   0  184.68   12.70
   7   1   0  169.28   12.70
   7  -2   0   10.50    6.00
  -7   2   0   20.10    6.40
  -7   2   0   14.10    7.40
   6  -2   0   28.60    5.70
  -6   2   0   25.90    6.20
  -6   2   0   14.40    4.40
   5  -2   0  399.26   17.50
  -5   2   0  390.46   17.40
  -5   2   0  356.96   17.40
  -4   2   0  596.54   26.80
  -4   2   0  716.53   27.00
   3  -2   0    3.10    1.60
  -3   2   0    1.10    2.00
  -3   2   0    0.10    1.60
   2  -2   0   72.09    4.20
  -2   2   0   74.09    4.20
   1  -2   0 1403.46   52.79
   1  -2   0 1415.76   53.69
   1  -2   0 1350.86   52.79
  -1   2   0 1440.86   53.59
  -1   2   0 1331.87   52.69
  -1   2   0 1361.16   52.79
   0   2   0 7683.13  290.07
  -1  -2   0  184.98    7.80
  -1  -2   0  185.28    7.70
  -1  -2   0  165.88    7.60
   1   2   0  163.48    7.60
   1   2   0  172.38    7.40
  -2  -2   0   10.10    2.10
  -2  -2   0   10.60    1.90
   2   2   0   10.50    1.60
   2   2   0    8.80    1.50
   2   2   0    9.20    2.00
  -3  -2   0  691.63   27.20
  -3  -2   0  677.03   27.80
   3   2   0  678.53   27.70
   3   2   0  718.43   27.30
  -4  -2   0  762.22   31.00
  -4  -2   0  754.22   30.30
   4   2   0  749.82   30.90
   4   2   0  787.92   30.50
  -5  -2   0  533.65   27.10
  -5  -2   0  624.24   25.20
   5   2   0  638.74   26.10
   5   2   0  645.84   25.40
  -6  -2   0    7.60    3.70
   6   2   0   13.60    4.90
   6   2   0   12.50    4.00
  -7  -2   0    0.80    4.50
  -7  -2   0    2.50    7.90
   7   2   0   12.30    6.40
   7   2   0   -0.30    5.40
   7  -3   0  122.09   13.50
   7  -3   0  108.69    8.50
  -7   3   0  101.99   13.10
  -7   3   0  111.99   11.20
  -7   3   0  115.29   13.70
   6  -3   0  236.88   10.70
  -6   3   0  217.88   13.00
  -6   3   0  197.68   13.60
  -5   3   0    3.10    3.70
  -5   3   0    1.90    3.20
   4  -3   0  188.68   10.00
  -4   3   0  199.18   10.20
  -4   3   0  194.68    9.90
   3  -3   0 1061.49   41.60
  -3   3   0 1045.60   41.50
  -3   3   0 1064.99   41.80
   2  -3   0 1298.87   50.89
   2  -3   0 1330.57   52.49
   2  -3   0 1309.97   50.99
  -2   3   0 1288.27   50.89
  -2   3   0 1366.56   52.09
   1  -3   0  931.51   36.50
   1  -3   0  951.60   36.40
   1  -3   0  943.81   37.70
  -1   3   0  928.01   36.60
  -1   3   0  966.40   37.70
  -1   3   0  927.71   36.30
  -1   3   0  931.71   35.80
   0  -3   0  195.28    8.20
   0  -3   0  185.98    9.30
   0  -3   0  192.08    9.10
   0  -3   0  184.58    8.40
   0   3   0  183.28    7.80
   0   3   0  172.08    8.90
   0   3   0  187.18    8.30
  -1  -3   0  735.83   28.10
   1   3   0  709.13   28.10
   1   3   0  708.13   28.10
   1   3   0  691.03   28.10
  -2  -3   0 1082.79   41.40
  -2  -3   0 1005.10   40.80
  -2  -3   0 1042.00   41.00
   2   3   0 1056.69   40.60
   2   3   0 1048.80   41.00
  -3  -3   0  469.45   19.00
  -3  -3   0  459.25   19.60
   3   3   0  458.35   19.50
   3   3   0  465.75   18.70
  -4  -3   0   -3.00    3.00
  -4  -3   0    2.80    2.10
   4   3   0   -0.40    2.00
   4   3   0    1.40    2.80
  -5  -3   0  364.46   16.60
   5   3   0  386.46   16.70
   5   3   0  400.16   18.00
  -6  -3   0  354.06   25.50
   6   3   0  345.57   17.80
   6   3   0  368.66   16.80
   7   3   0   78.89   11.30
   7  -4   0   -8.00    7.00
   7  -4   0    2.90    3.40
   7  -4   0   -2.50    3.00
  -7   4   0   -3.60    8.40
  -7   4   0    8.40    7.80
  -7   4   0    3.40    7.20
   6  -4   0   83.89    9.40
   6  -4   0   72.69    5.00
  -6   4   0   80.79    8.80
  -6   4   0   98.99   12.70
  -6   4   0   85.29   10.40
   5  -4   0   67.19    8.20
  -5   4   0   94.89   10.50
  -5   4   0   82.89    7.60
  -5   4   0   91.19    8.20
   4  -4   0  497.65   24.10
   4  -4   0  503.05   21.90
   4  -4   0  512.45   21.80
  -4   4   0  500.55   21.70
  -4   4   0  500.15   21.80
  -4   4   0  521.35   23.50
   3  -4   0    1.40    2.40
   3  -4   0    6.30    2.50
   3  -4   0    9.40    4.00
  -3   4   0   11.30    3.80
  -3   4   0    4.90    2.20
   2  -4   0  116.49    6.60
   2  -4   0  118.39    8.30
   2  -4   0  116.69    6.50
  -2   4   0  112.79    6.30
  -2   4   0  124.59    8.20
   1  -4   0 1512.25   55.99
   1  -4   0 1462.95   55.49
   1  -4   0 1472.45   57.49
  -1   4   0 1464.45   54.99
  -1   4   0 1283.47   57.09
  -1   4   0 1469.25   55.89
  -1   4   0 1441.86   55.39
   0  -4   0  995.80   38.90
   0  -4   0  970.80   40.20
   0  -4   0 1022.40   38.70
   0   4   0  988.80   38.90
   0   4   0  976.40   38.10
   0   4   0  991.70   39.70
  -1  -4   0  219.58   10.40
  -1  -4   0  204.08    9.50
   1   4   0  191.98    9.60
   1   4   0  196.28    9.50
   1   4   0  199.78    8.40
   1   4   0  205.48    9.70
  -2  -4   0   92.49    6.00
  -2  -4   0   81.09    6.20
   2   4   0   84.19    5.80
   2   4   0   92.49    5.40
   2   4   0   86.29    5.80
  -3  -4   0  673.83   28.20
  -3  -4   0  652.83   28.50
  -3  -4   0  712.83   27.90
   3   4   0  668.43   28.20
   3   4   0  700.83   26.90
   3   4   0  687.03   27.40
  -4  -4   0  770.62   31.50
  -4  -4   0  653.93   31.60
  -4  -4   0  782.82   30.40
   4   4   0  770.72   31.40
   4   4   0  777.12   29.80
  -5  -4   0  205.88   11.80
   5   4   0  193.98   11.90
   5   4   0  191.58    9.90
  -6  -4   0    7.20    7.40
  -6  -4   0    4.50    4.80
  -6  -4   0   -4.40    3.50
   6   4   0    0.60    5.80
   6   4   0   10.00    4.30
   6  -5   0   72.19   10.60
   6  -5   0   52.99    8.60
   6  -5   0   73.89    8.60
  -6   5   0   57.99   10.20
  -6   5   0   76.89   10.90
  -6   5   0   71.89    8.50
   5  -5   0   19.20    5.60
   5  -5   0   16.60    6.40
  -5   5   0   14.70    5.30
  -5   5   0   11.00    4.00
  -5   5   0    4.00    6.30
   4  -5   0  307.27   14.80
   4  -5   0  296.97   17.00
   4  -5   0  291.17   14.70
  -4   5   0  298.47   17.30
  -4   5   0  303.07   14.50
  -4   5   0  302.57   15.10
   3  -5   0  463.55   22.80
   3  -5   0  494.55   20.50
   3  -5   0  501.85   20.60
  -3   5   0  419.56   22.40
  -3   5   0  492.15   20.40
   2  -5   0  329.17   14.40
   2  -5   0  326.07   14.20
   2  -5   0  333.27   16.60
  -2   5   0  284.17   16.40
  -2   5   0  318.47   14.00
   1  -5   0  315.27   13.30
   1  -5   0  289.77   15.50
   1  -5   0  308.27   13.90
  -1   5   0  304.57   13.10
  -1   5   0  297.57   13.80
  -1   5   0  328.57   15.70
  -1   5   0  305.57   12.80
   0  -5   0  144.49    9.60
   0  -5   0  156.28    7.90
   0   5   0  155.38    9.20
   0   5   0  155.48    8.30
   0   5   0  154.18    7.10
  -1  -5   0  711.33   30.10
  -1  -5   0  811.02   31.30
   1   5   0  724.23   30.10
   1   5   0  751.12   30.50
   1   5   0  743.23   30.40
   1   5   0  737.33   28.90
  -2  -5   0  516.45   22.50
  -2  -5   0  559.94   22.90
   2   5   0  516.75   22.20
   2   5   0  532.25   22.60
   2   5   0  527.05   22.60
  -3  -5   0  161.78   10.00
  -3  -5   0  162.98    9.70
   3   5   0  175.68   10.10
   3   5   0  171.58    7.80
   3   5   0  170.68    9.00
  -4  -5   0    9.40    4.60
  -4  -5   0    2.60    3.70
   4   5   0    2.70    3.80
   4   5   0    3.40    2.40
  -5  -5   0  289.17   17.30
  -5  -5   0  261.67   15.50
   5   5   0  305.27   16.30
   5   5   0  294.37   13.20
   6  -6   0   68.59    9.30
   6  -6   0   62.49    9.00
   6  -6   0   68.99   10.80
  -6   6   0   56.69   11.50
  -6   6   0   70.79    9.70
  -6   6   0   56.49    8.10
   5  -6   0   42.00    8.90
   5  -6   0   40.50    7.40
   5  -6   0   44.60    7.00
  -5   6   0   36.90    9.20
  -5   6   0   43.50    7.70
  -5   6   0   49.90    7.00
   4  -6   0  179.48   10.90
   4  -6   0  139.09   12.70
  -4   6   0  167.68   14.50
  -4   6   0  162.08   10.10
  -4   6   0  166.38   11.60
   3  -6   0   20.50    4.00
   3  -6   0   18.40    4.40
   3  -6   0   15.20    5.50
  -3   6   0   11.40    5.80
  -3   6   0   11.40    3.40
   2  -6   0  105.19    9.30
   2  -6   0   98.39    7.00
   2  -6   0   96.89    7.50
  -2   6   0  102.79   10.40
  -2   6   0   95.39    6.60
   1  -6   0  714.33   31.80
   1  -6   0  701.73   29.60
  -1   6   0  710.23   29.60
  -1   6   0  717.93   28.50
  -1   6   0  700.93   28.20
  -1   6   0  734.93   31.60
   0  -6   0  178.28   11.90
   0  -6   0  176.68    9.60
   0   6   0  200.08   11.30
   0   6   0  180.78    8.60
   0   6   0  178.08    9.80
   0   6   0  184.08   10.30
  -1  -6   0   45.20    5.20
   1   6   0   47.30    6.30
   1   6   0   48.70    5.90
   1   6   0   42.00    3.50
   1   6   0   38.80    5.70
  -2  -6   0  122.89    7.90
   2   6   0  116.59    9.20
   2   6   0  121.39    8.50
   2   6   0  116.59    8.10
  -3  -6   0  377.26   17.10
  -3  -6   0  356.46   17.30
   3   6   0  359.76   16.70
   3   6   0  356.26   17.50
  -4  -6   0  386.66   19.60
   4   6   0  414.76   20.60
   4   6   0  412.16   19.90
  -5  -6   0   34.60    7.90
   5   6   0   32.70    7.70
   5   6   0   41.80   11.50
   5  -7   0    7.60    6.80
   5  -7   0    2.30    7.20
   5  -7   0    8.40    6.80
  -5   7   0   17.80   10.50
  -5   7   0   -4.90    5.60
  -5   7   0   -0.80    7.40
   4  -7   0  117.99   10.70
   4  -7   0  107.79   11.10
   4  -7   0  107.79   12.10
  -4   7   0  120.29   12.50
  -4   7   0  106.39   15.40
  -4   7   0  105.19    9.70
   3  -7   0  188.58   12.30
   3  -7   0  198.78   15.00
   3  -7   0  236.68   13.00
  -3   7   0  207.78   11.90
  -3   7   0  228.38   16.40
   2  -7   0   53.89    7.10
   2  -7   0   51.89    9.40
   2  -7   0   65.79    7.20
  -2   7   0   48.50    7.80
  -2   7   0   56.69    6.40
   1  -7   0   13.70    5.70
  -1   7   0   11.90    5.30
  -1   7   0   16.60    3.40
  -1   7   0   16.20    2.80
  -1   7   0   14.70    5.00
   0  -7   0   91.49    7.30
   0   7   0   86.59    9.10
   0   7   0   91.19    7.90
   0   7   0   90.19    7.50
   0   7   0   92.59    9.60
   0   7   0   97.09    6.00
  -1  -7   0  343.77   16.10
   1   7   0  345.77   17.30
   1   7   0  341.97   17.10
   1   7   0  337.77   16.60
  -2  -7   0  254.07   13.30
   2   7   0  265.77   14.30
   2   7   0  237.28   13.60
   2   7   0  268.37   15.20
  -3  -7   0   52.99    6.60
   3   7   0   50.09    7.30
   3   7   0   49.10    7.80
   3   7   0   59.29    8.80
  -4  -7   0   13.30    6.60
   4   7   0   10.40    6.70
   4   7   0    6.50    4.50
   3  -8   0    1.50    6.30
   3  -8   0    4.30    6.60
  -3   8   0    0.20    8.10
  -3   8   0    5.00    5.10
   2  -8   0   70.79   10.60
   2  -8   0   62.99    8.10
  -2   8   0   48.10    9.00
  -2   8   0   57.99    7.80
   1  -8   0  216.38   15.60
  -1   8   0  187.68   15.40
  -1   8   0  196.58   14.60
  -1   8   0  216.68   11.00
  -1   8   0  206.78    9.80
  -1   8   0  209.08   13.00
   0  -8   0   69.49    7.30
   0   8   0   78.19    9.00
   0   8   0   59.79    8.20
   0   8   0   66.49    8.20
   0   8   0   61.79    5.90
   0   8   0   75.79   11.20
  -1  -8   0   -3.70    4.00
   1   8   0    7.00    5.40
   1   8   0    8.80    5.60
   1   8   0   -0.70    4.90
   1   8   0    2.80    7.10
  -2  -8   0   79.59    7.80
   2   8   0   66.59    9.70
   2   8   0   86.99   10.60
   2   8   0   69.79    8.70
   2   8   0   81.99   11.50
   2   8  -1   51.19    7.40
   2   8  -1   37.80    6.50
   2   8  -1   36.10    7.60
   2   8  -1   33.30    5.80
   2   8  -1   33.20    3.90
  -2  -8   1   26.70    5.30
   1   8  -1  154.28   11.00
   1   8  -1  134.39   12.40
   1   8  -1  140.19   10.80
   1   8  -1  112.29   11.60
   1   8  -1  153.88    8.20
  -1  -8   1  158.98    9.80
   0   8  -1  307.97   17.00
   0   8  -1  305.87   15.20
   0   8  -1  306.67   14.40
   0   8  -1  309.37   15.80
   0   8  -1  331.37   17.90
   0  -8   1  317.37   15.70
  -1   8  -1   26.40    4.50
  -1   8  -1   26.30    5.50
  -1   8  -1   30.40    6.40
  -1   8  -1   11.30    6.40
  -1   8  -1   28.00    3.30
   1  -8   1   19.40    6.60
  -2   8  -1    0.80    7.00
  -2   8  -1    3.30    4.40
   2  -8   1    3.50    5.10
   2  -8   1    2.20    6.10
  -3   8  -1  157.08   10.80
  -3   8  -1  154.98   16.90
   3  -8   1  111.99   11.20
   3  -8   1  136.99   13.30
   4   7  -1   79.09   11.40
   4   7  -1   95.09    6.80
   4   7  -1   90.39   11.20
   4   7  -1   84.89    7.20
  -4  -7   1   86.89    9.30
   3   7  -1  227.58   11.10
   3   7  -1  220.18   10.50
   3   7  -1  224.38   11.90
   3   7  -1  224.18   13.40
   3   7  -1  252.47   14.90
   3   7  -1  217.48   13.80
  -3  -7   1  230.28   12.90
   2   7  -1  225.58   13.00
   2   7  -1  234.98   13.60
   2   7  -1  217.08   11.80
   2   7  -1  218.88   10.20
   2   7  -1  236.88   12.60
  -2  -7   1  217.28   12.10
   1   7  -1   38.90    5.20
   1   7  -1   36.70    3.80
   1   7  -1   35.20    5.20
   1   7  -1   36.10    5.60
   1   7  -1   36.80    5.50
  -1  -7   1   31.70    4.80
   0   7  -1  172.38   11.60
   0   7  -1  156.98    9.90
   0   7  -1  185.78   10.70
   0   7  -1  179.18    8.80
   0   7  -1  189.08    9.90
   0  -7   1  133.49   11.80
   0  -7   1  169.98    9.90
  -1   7  -1  228.18   10.10
  -1   7  -1  235.18   11.20
  -1   7  -1  236.48   15.00
  -1   7  -1  224.68   12.40
   1  -7   1  193.18   14.00
  -2   7  -1  292.67   13.90
  -2   7  -1  272.27   17.80
   2  -7   1  285.97   14.30
   2  -7   1  285.77   17.40
   2  -7   1  315.57   14.90
  -3   7  -1  117.79    8.70
  -3   7  -1   85.99   12.70
   3  -7   1  113.49    8.90
   3  -7   1  103.79   11.30
   3  -7   1  120.89    9.80
  -4   7  -1    5.30    4.90
  -4   7  -1   -2.90    7.10
  -4   7  -1   -3.80    5.90
   4  -7   1   14.60    4.90
   4  -7   1    5.70    6.60
   4  -7   1   11.10    6.10
  -5   7  -1  101.19   11.90
  -5   7  -1   81.09   10.40
  -5   7  -1   79.69   12.00
   5  -7   1   92.79   10.70
   5  -7   1   86.19   12.50
   5  -7   1  105.29   12.40
   5   6  -1  244.78   12.40
   5   6  -1  239.18   15.20
  -5  -6   1  240.98   16.90
   4   6  -1  198.58   12.00
   4   6  -1  155.68    9.40
  -4  -6   1  178.38   11.50
   3   6  -1    0.40    4.80
   3   6  -1    3.00    2.70
   3   6  -1    4.10    3.90
  -3  -6   1    3.40    3.90
   2   6  -1  111.79    7.60
   2   6  -1   98.19    8.10
   2   6  -1  108.59    7.00
   2   6  -1  103.99    5.90
  -2  -6   1   94.69    7.20
   1   6  -1  920.41   38.00
   1   6  -1  925.61   36.90
   1   6  -1 1017.30   38.40
   1   6  -1  944.11   37.80
   1   6  -1  959.00   38.30
  -1  -6   1  899.51   38.00
   0   6  -1  528.25   21.10
   0   6  -1  526.35   21.60
   0   6  -1  513.15   22.00
   0   6  -1  538.95   23.30
   0   6  -1  462.35   21.70
   0  -6   1  537.65   22.00
   0  -6   1  508.05   23.90
  -1   6  -1   32.40    3.30
  -1   6  -1   42.60    4.90
  -1   6  -1   37.80    4.30
  -1   6  -1   28.00    5.50
   1  -6   1   35.30    6.20
   1  -6   1   38.30    5.30
  -2   6  -1   12.00    3.20
  -2   6  -1   10.00    4.60
   2  -6   1   10.90    3.60
   2  -6   1   18.10    5.50
   2  -6   1    9.90    3.40
  -3   6  -1  378.36   19.40
  -3   6  -1  337.57   16.50
   3  -6   1  365.96   16.60
   3  -6   1  371.66   19.70
   3  -6   1  366.26   17.00
  -4   6  -1  108.29    8.40
  -4   6  -1   95.39   11.80
  -4   6  -1  110.39    9.10
   4  -6   1  118.79    8.70
   4  -6   1   86.89   10.90
  -5   6  -1   26.50    7.90
  -5   6  -1   22.00    5.40
  -5   6  -1   24.90    5.90
   5  -6   1   29.90    7.70
   5  -6   1   22.20    5.60
   5  -6   1   27.10    6.80
  -6   6  -1    5.30    7.30
  -6   6  -1   19.10    6.60
  -6   6  -1   12.60    9.90
   6  -6   1   14.70    7.20
   6  -6   1    7.30    7.20
   6  -6   1   27.90    7.10
   6   5  -1   69.19    8.70
   6   5  -1   83.29    9.20
  -6  -5   1   87.99   10.00
  -6  -5   1   82.69   11.80
   5   5  -1   13.00    4.80
   5   5  -1    6.30    3.80
  -5  -5   1    4.40    5.80
  -5  -5   1    9.20    4.90
   4   5  -1  226.68   11.80
   4   5  -1  283.17   13.50
  -4  -5   1  261.67   13.70
  -4  -5   1  235.88   13.70
   3   5  -1  582.14   24.30
   3   5  -1  564.24   23.10
  -3  -5   1  567.44   24.80
  -3  -5   1  579.84   24.40
   2   5  -1  266.77   11.90
   2   5  -1  257.97   12.60
   2   5  -1  265.47   12.40
  -2  -5   1  271.27   12.80
   1   5  -1   22.70    3.60
   1   5  -1   13.10    2.10
   1   5  -1   17.30    3.30
   1   5  -1   14.40    2.80
  -1  -5   1   16.90    3.40
   0   5  -1  333.57   16.00
   0   5  -1  398.86   15.90
   0   5  -1  395.46   16.20
   0   5  -1  392.96   15.60
   0   5  -1  338.47   17.10
   0  -5   1  384.46   16.20
   0  -5   1  383.26   17.80
  -1   5  -1  898.21   35.20
  -1   5  -1  893.91   36.10
  -1   5  -1  950.40   38.00
  -1   5  -1  883.71   35.80
   1  -5   1  926.51   36.00
   1  -5   1  938.21   36.20
   1  -5   1  894.91   38.10
  -2   5  -1  781.72   31.70
  -2   5  -1  710.53   29.70
   2  -5   1  734.13   29.70
   2  -5   1  735.63   32.20
   2  -5   1  737.63   29.90
  -3   5  -1   29.60    4.00
  -3   5  -1   38.80    5.70
   3  -5   1   32.20    4.30
   3  -5   1   36.50    4.90
   3  -5   1   42.20    6.30
  -4   5  -1   12.90    3.80
  -4   5  -1   14.70    5.10
  -4   5  -1    3.90    3.40
   4  -5   1   13.20    3.70
   4  -5   1   12.30    4.10
   4  -5   1    7.10    5.40
  -5   5  -1  318.57   18.30
  -5   5  -1  289.47   15.20
  -5   5  -1  298.17   15.20
   5  -5   1  296.37   14.90
   5  -5   1  269.57   18.10
  -6   5  -1  127.59   11.40
  -6   5  -1  136.69   12.30
  -6   5  -1  164.88   16.20
   6  -5   1  139.69   13.30
   6  -5   1  156.58   11.50
   6   4  -1  299.77   16.20
   6   4  -1  312.27   15.30
  -6  -4   1  298.77   18.30
  -6  -4   1  296.37   16.20
   5   4  -1  319.47   15.10
   5   4  -1  273.57   13.90
  -5  -4   1  297.97   15.30
   4   4  -1  131.09    8.50
   4   4  -1  129.09    7.70
  -4  -4   1  126.29    6.50
  -4  -4   1  155.08    9.20
  -4  -4   1  131.49    8.90
   3   4  -1   12.60    2.90
   3   4  -1    8.40    1.70
  -3  -4   1    9.10    1.90
  -3  -4   1   10.30    3.40
  -3  -4   1   11.10    3.10
   2   4  -1  211.68    9.50
   2   4  -1  219.68   10.20
  -2  -4   1  211.08   10.20
  -2  -4   1  227.98   10.60
   1   4  -1 4664.13  178.78
   1   4  -1 4823.12  178.78
   1   4  -1 4685.33  178.28
   1   4  -1 4823.12  178.88
  -1  -4   1 4600.34  178.98
   0   4  -1  408.36   16.70
   0   4  -1  419.16   16.60
   0   4  -1  347.77   17.70
   0   4  -1  419.36   16.90
   0   4  -1  417.56   17.00
   0  -4   1  432.26   18.40
   0  -4   1  425.36   17.00
  -1   4  -1    8.50    1.90
  -1   4  -1    9.80    2.60
  -1   4  -1    9.90    2.10
  -1   4  -1   12.30    1.50
   1  -4   1   14.40    3.60
   1  -4   1   11.50    2.20
   1  -4   1    9.90    2.00
  -2   4  -1   47.80    4.00
   2  -4   1   45.70    5.40
   2  -4   1   47.60    4.40
   2  -4   1   52.39    4.00
  -3   4  -1  587.74   24.00
  -3   4  -1  573.94   23.90
   3  -4   1  583.74   23.60
   3  -4   1  583.14   24.10
   3  -4   1  564.64   26.20
  -4   4  -1  600.74   24.90
  -4   4  -1  574.14   25.00
   4  -4   1  603.54   23.00
   4  -4   1  585.74   25.20
   4  -4   1  612.94   24.90
  -5   4  -1   -6.20    3.70
  -5   4  -1    1.00    3.40
   5  -4   1    0.50    1.80
  -6   4  -1   24.00    6.50
  -6   4  -1   25.70    5.50
  -7   4  -1   16.00    7.30
  -7   4  -1   28.70    8.50
   7  -4   1   21.20    4.20
   7  -4   1   17.50    7.40
   7   3  -1  168.88   13.40
   7   3  -1  183.78   13.70
  -7  -3   1  183.38   12.50
  -7  -3   1  200.28   15.70
   6   3  -1   43.00    5.90
   5   3  -1   13.70    4.00
   5   3  -1   15.70    3.80
  -5  -3   1   10.90    2.20
  -5  -3   1   16.60    4.60
   4   3  -1  718.33   29.60
  -4  -3   1  761.62   30.40
  -4  -3   1  683.53   28.20
  -4  -3   1  738.63   29.80
   3   3  -1 1178.38   47.80
   3   3  -1 1243.88   47.60
  -3  -3   1 1263.47   46.90
  -3  -3   1 1210.68   47.90
   2   3  -1  272.77   11.10
   2   3  -1  262.87   11.80
  -2  -3   1  277.47   12.30
  -2  -3   1  285.77   11.30
  -2  -3   1  267.27   11.90
   1   3  -1   22.50    2.40
   1   3  -1   18.40    2.40
  -1  -3   1   19.60    2.80
  -1  -3   1   16.30    2.40
   0   3  -1  329.87   13.10
   0   3  -1  289.97   12.30
   0   3  -1  299.07   12.30
   0   3  -1  286.17   12.40
   0  -3   1  293.07   13.40
   0  -3   1  307.47   12.50
  -1   3  -1 1984.30   75.69
  -1   3  -1 2001.40   76.29
  -1   3  -1 2007.50   76.19
   1  -3   1 1977.80   76.09
   1  -3   1 2028.70   77.59
   1  -3   1 2004.30   76.29
  -2   3  -1 1269.37   50.39
   2  -3   1 1388.66   49.40
   2  -3   1 1270.17   50.09
   2  -3   1 1279.77   50.39
  -3   3  -1   11.10    2.60
  -3   3  -1   10.60    2.30
   3  -3   1   10.60    1.40
   3  -3   1    7.80    2.30
  -4   3  -1  233.78   11.80
  -4   3  -1  254.47   11.90
   4  -3   1  263.17   12.20
   4  -3   1  242.38   10.50
  -5   3  -1  520.35   22.30
  -5   3  -1  505.75   22.30
   5  -3   1  510.25   20.90
  -6   3  -1  276.17   15.10
  -6   3  -1  281.27   14.60
   6  -3   1  291.77   13.20
   6  -3   1  240.58   15.20
  -7   3  -1   53.49    8.10
  -7   3  -1   31.10    6.70
   7   2  -1   11.40    5.90
   7   2  -1    0.50    5.60
  -7  -2   1    0.20    4.00
  -7  -2   1    2.00    7.40
   6   2  -1  351.56   17.10
   6   2  -1  358.76   16.90
  -6  -2   1  339.67   15.50
   5   2  -1  406.46   18.00
   5   2  -1  385.56   17.70
  -5  -2   1  396.56   18.20
  -5  -2   1  402.36   16.60
   4   2  -1   21.00    3.10
   4   2  -1   16.90    3.00
  -4  -2   1   26.00    3.70
  -4  -2   1   22.40    2.60
   3   2  -1   55.39    4.20
   3   2  -1   52.69    4.10
  -3  -2   1   55.29    3.00
  -3  -2   1   59.99    4.40
   2   2  -1  663.23   25.40
  -2  -2   1  595.04   24.60
  -2  -2   1  657.93   25.80
  -2  -2   1  665.43   25.50
   1   2  -1 9999.00  377.16
   0   2  -1   72.09    3.90
   0   2  -1   75.09    3.80
   0   2  -1   80.89    4.60
   0   2  -1   78.89    3.70
   0  -2   1   80.19    4.00
   0  -2   1   82.69    4.50
  -1   2  -1   16.20    1.40
  -1   2  -1   17.80    2.10
   1  -2   1   14.60    1.70
   1  -2   1   18.40    1.40
   1  -2   1   14.90    2.00
  -2   2  -1  588.64   23.90
  -2   2  -1  599.14   23.70
   2  -2   1  595.24   23.20
   2  -2   1  625.24   24.00
  -3   2  -1  805.42   32.80
  -3   2  -1  848.12   32.70
   3  -2   1  839.02   32.90
   3  -2   1  821.32   32.80
  -4   2  -1 1225.98   47.60
  -4   2  -1 1266.67   47.60
   4  -2   1 1152.28   47.60
   4  -2   1 1196.68   47.60
  -5   2  -1   22.90    3.90
  -5   2  -1   23.80    4.20
   5  -2   1   25.80    4.00
   5  -2   1   18.50    4.00
  -6   2  -1    1.40    4.90
  -6   2  -1    4.60    4.20
   6  -2   1    0.80    4.20
   6  -2   1    4.50    4.70
  -7   2  -1  109.49   12.50
  -7   2  -1  134.09   11.30
   7  -2   1  101.49   12.20
   7  -2   1  106.39   11.30
   7   1  -1  191.48   13.10
   7   1  -1  170.68   13.20
  -7  -1   1  206.98   15.70
   6   1  -1    4.30    4.00
   6   1  -1   -2.10    3.50
   5   1  -1   92.39    7.00
   5   1  -1   83.09    6.90
  -5  -1   1  101.19    7.50
   4   1  -1 1093.99   44.30
   4   1  -1 1145.19   44.40
  -4  -1   1 1136.29   44.40
   3   1  -1 1641.54   60.99
   3   1  -1 1507.85   60.99
  -3  -1   1 1595.74   60.89
   2   1  -1  742.63   28.90
   2   1  -1  789.42   29.10
  -2  -1   1  693.73   28.80
   1   1  -1  342.67   13.90
   1   1  -1  366.16   14.20
  -1  -1   1  371.16   14.10
  -1  -1   1  333.37   13.90
   0   1  -1  470.65   18.30
   0  -1   1  463.15   18.60
   0  -1   1  483.25   18.30
  -1   1  -1 2162.68   83.79
  -1   1  -1 2193.78   84.09
   1  -1   1 2217.08   83.89
   1  -1   1 2302.27   83.89
   1  -1   1 2213.58   84.09
  -2   1  -1 1134.49   44.00
  -2   1  -1 1141.69   44.20
   2  -1   1 1142.09   44.00
   2  -1   1 1178.38   44.30
  -3   1  -1    9.20    2.00
  -3   1  -1   12.40    2.10
   3  -1   1   12.10    2.00
   3  -1   1   12.20    2.20
  -4   1  -1  903.21   35.70
  -4   1  -1  907.51   35.70
   4  -1   1  896.01   35.60
   4  -1   1  886.31   35.70
  -5   1  -1  747.53   30.50
  -5   1  -1  728.03   30.40
   5  -1   1  747.73   30.50
   5  -1   1  742.73   30.40
  -6   1  -1  321.97   15.30
  -6   1  -1  277.47   14.50
   6  -1   1  274.87   14.50
   6  -1   1  273.87   14.60
  -7   1  -1    3.20    5.60
  -7   1  -1   19.30    7.30
   7  -1   1   14.20    6.10
   7  -1   1   19.80    6.50
   7   0  -1   48.70    7.70
   7   0  -1   51.69    8.20
  -7   0   1   63.39    9.40
   6   0  -1  194.98   11.90
   6   0  -1  195.08   11.70
  -6   0   1  187.38   12.50
   5   0  -1  551.94   22.90
   5   0  -1  554.94   22.90
  -5   0   1  508.15   22.70
  -5   0   1  504.05   22.80
   4   0  -1    2.50    2.20
   4   0  -1    1.50    2.10
  -4   0   1    3.20    2.50
  -4   0   1    2.20    2.20
   3   0  -1  136.89    6.90
   3   0  -1  132.79    6.80
  -3   0   1  127.99    6.80
  -3   0   1  139.59    7.00
   2   0  -1 2270.67   86.19
   2   0  -1 2246.18   86.09
  -2   0   1 2241.08   86.19
  -2   0   1 2302.97   86.19
   1   0  -1 4633.64  177.28
  -1   0   1 4758.02  177.18
  -1   0   1 4715.83  177.28
  -1   0  -1  235.28    9.20
  -1   0  -1  217.18    9.20
   1   0   1  220.98    9.20
   1   0   1  226.28    9.20
  -2   0  -1 1930.01   74.19
  -2   0  -1 1932.71   74.29
   2   0   1 1954.70   74.39
   2   0   1 1999.00   74.29
  -3   0  -1 1668.83   64.09
  -3   0  -1 1657.23   64.19
   3   0   1 1666.03   64.09
   3   0   1 1692.63   64.29
  -4   0  -1  838.12   33.50
  -4   0  -1  834.12   33.30
   4   0   1  849.81   33.50
   4   0   1  832.72   33.30
  -5   0  -1   28.50    3.90
  -5   0  -1   30.90    4.10
   5   0   1   22.60    3.70
   5   0   1   21.90    3.40
  -6   0  -1    2.30    4.80
  -6   0  -1   -1.10    3.80
   6   0   1    4.40    4.10
   6   0   1    0.80    3.80
  -7   0  -1  252.57   15.00
  -7   0  -1  249.48   16.40
  -7   0  -1  280.87   16.60
   7   0   1  266.57   15.40
   7   0   1  249.97   15.20
   7  -1  -1  108.09   12.00
   7  -1  -1  116.69    9.60
  -7   1   1  103.69   12.90
  -7   1   1  113.99   11.40
   6  -1  -1   13.30    5.10
   6  -1  -1   18.70    5.40
  -6   1   1   16.70    4.70
  -6   1   1   13.50    5.40
   5  -1  -1  346.87   17.00
   5  -1  -1  385.66   17.00
  -5   1   1  365.46   16.70
   4  -1  -1  931.51   35.80
  -4   1   1  921.21   35.40
  -4   1   1  802.12   35.40
   3  -1  -1 1035.70   39.30
   3  -1  -1 1048.10   40.00
  -3   1   1 1010.80   40.00
  -3   1   1  981.70   39.80
   2  -1  -1 1047.30   40.90
   2  -1  -1 1108.29   41.40
  -2   1   1 1096.69   41.70
  -2   1   1 1066.09   41.60
  -2   1   1 1028.20   41.20
   1  -1  -1  530.45   20.20
   1  -1  -1  534.45   21.30
   1  -1  -1  493.85   20.80
   1  -1  -1  559.94   20.60
  -1   1   1  526.65   21.30
  -1   1   1  528.95   20.60
  -1   1   1  527.75   20.20
   0  -1  -1 1858.71   73.39
   0  -1  -1 2002.00   73.79
   0  -1  -1 1998.10   73.09
   0   1   1 1862.51   73.39
   0   1   1 1948.01   73.69
   0   1   1 1947.31   73.69
  -1  -1  -1 1333.77   51.99
  -1  -1  -1 1362.96   51.39
  -1  -1  -1 1381.96   52.09
   1   1   1 1381.16   52.19
   1   1   1 1337.47   51.99
   1   1   1 1362.16   51.39
  -2  -1  -1  525.55   20.90
  -2  -1  -1  505.35   20.80
  -2  -1  -1  533.15   20.30
   2   1   1  534.15   20.30
   2   1   1  509.65   20.80
  -3  -1  -1   -0.60    1.60
  -3  -1  -1   -0.60    1.30
  -3  -1  -1   -2.30    1.70
   3   1   1    0.00    1.30
   3   1   1    0.20    1.70
  -4  -1  -1 1080.29   42.80
  -4  -1  -1 1073.09   42.40
  -4  -1  -1 1094.09   42.90
   4   1   1 1070.59   42.30
   4   1   1 1098.49   42.90
  -5  -1  -1  709.83   29.10
  -5  -1  -1  715.33   28.70
  -5  -1  -1  729.73   29.10
   5   1   1  706.73   28.50
   5   1   1  626.84   28.80
  -6  -1  -1  141.59   10.10
  -6  -1  -1  143.79   11.30
   6   1   1  149.19    9.40
   6   1   1  151.58   10.10
  -7  -1  -1   -2.70    5.20
  -7  -1  -1    0.30    7.30
   7   1   1    1.80    5.50
   7   1   1  -10.90    5.00
   7  -2  -1  106.49   12.30
   7  -2  -1  115.69    9.10
  -7   2   1  126.19   12.80
  -7   2   1  109.09   11.50
  -7   2   1   91.89   12.90
   6  -2  -1   65.29    6.30
  -6   2   1   71.99    8.30
  -6   2   1   71.09    9.20
  -6   2   1   64.79    7.80
   5  -2  -1  460.95   19.80
   5  -2  -1  425.36   18.10
  -5   2   1  362.26   19.00
  -5   2   1  448.76   19.70
  -5   2   1  473.95   20.50
   4  -2  -1   11.20    2.80
   4  -2  -1    9.30    1.90
  -4   2   1    7.20    2.50
  -4   2   1   11.30    3.30
  -4   2   1   10.00    3.20
   3  -2  -1  206.08    9.70
   3  -2  -1  207.48    8.70
  -3   2   1  200.18    9.60
  -3   2   1  207.68   10.00
  -3   2   1  209.18   10.50
   2  -2  -1 2446.56   94.19
   2  -2  -1 2446.26   93.29
   2  -2  -1 2589.04   95.29
  -2   2   1 2476.55   95.19
  -2   2   1 2419.06   94.09
   1  -2  -1  455.65   19.30
   1  -2  -1  455.65   19.00
   1  -2  -1  455.15   18.10
   1  -2  -1  457.05   18.40
  -1   2   1  513.55   19.50
  -1   2   1  444.46   17.70
  -1   2   1  452.85   18.10
  -1   2   1  459.25   18.50
   0  -2  -1  240.18   10.60
   0  -2  -1  254.17   10.20
   0  -2  -1  274.67   11.40
   0  -2  -1  246.98    9.90
   0   2   1  245.48    9.80
   0   2   1  256.87   11.10
  -1  -2  -1  599.34   22.60
   1   2   1  542.75   22.30
   1   2   1  546.25   22.20
   1   2   1  553.54   22.40
  -2  -2  -1 1792.32   69.59
  -2  -2  -1 1850.91   69.59
   2   2   1 1788.12   69.59
   2   2   1 1835.62   69.59
   2   2   1 1799.12   68.59
  -3  -2  -1 2058.19   78.89
  -3  -2  -1 2084.59   78.69
   3   2   1 2052.69   78.89
   3   2   1 2004.90   77.89
  -4  -2  -1  189.78    9.30
  -4  -2  -1  188.98    9.90
   4   2   1  175.78    9.70
   4   2   1  178.88    8.60
  -5  -2  -1   11.50    3.30
  -5  -2  -1    8.40    4.10
   5   2   1   11.60    3.80
   5   2   1    8.70    2.80
  -6  -2  -1   50.19    7.20
  -6  -2  -1   54.69    7.20
   6   2   1   44.10    6.00
   6   2   1   44.80    5.20
  -7  -2  -1  285.77   17.50
   7   2   1  265.77   16.10
   7   2   1  272.07   15.30
   7  -3  -1   22.70    4.30
   7  -3  -1   12.90    6.70
  -7   3   1   20.40    7.90
  -7   3   1   32.40    8.60
  -7   3   1   16.70    7.10
   6  -3  -1   23.10    3.30
  -6   3   1   33.30    6.90
  -6   3   1   33.50    5.90
  -6   3   1   23.30    6.60
   5  -3  -1  397.36   17.00
   5  -3  -1  425.36   19.30
  -5   3   1  432.66   19.30
  -5   3   1  417.86   20.70
  -5   3   1  424.56   19.10
   4  -3  -1  566.94   24.00
   4  -3  -1  553.44   22.10
  -4   3   1  557.64   23.90
  -4   3   1  594.64   25.50
  -4   3   1  583.44   24.20
   3  -3  -1  210.68   12.50
   3  -3  -1  253.87   11.20
   3  -3  -1  247.08   11.50
  -3   3   1  242.48   12.70
  -3   3   1  260.77   11.30
   2  -3  -1  223.18    9.90
   2  -3  -1  230.58   10.20
   2  -3  -1  227.68   11.40
  -2   3   1  197.28   11.40
  -2   3   1  235.18   10.00
   1  -3  -1  358.96   14.40
   1  -3  -1  359.96   15.00
   1  -3  -1  341.17   16.10
   1  -3  -1  362.96   16.00
  -1   3   1  351.16   14.00
  -1   3   1  358.66   15.00
  -1   3   1  361.96   16.10
  -1   3   1  361.36   14.40
   0  -3  -1 2040.60   74.09
   0  -3  -1 1930.31   73.49
   0  -3  -1 1726.93   75.29
   0  -3  -1 1984.30   75.49
   0  -3  -1 1945.91   74.49
   0   3   1 1944.31   73.49
   0   3   1 1938.01   74.49
   0   3   1 2038.20   75.19
  -1  -3  -1 1124.19   42.00
  -1  -3  -1 1044.90   41.00
   1   3   1 1041.50   41.40
   1   3   1 1046.00   41.30
   1   3   1 1028.10   41.20
  -2  -3  -1  288.97   12.50
  -2  -3  -1  261.07   12.40
   2   3   1  266.47   12.20
   2   3   1  273.67   12.20
  -3  -3  -1   24.30    4.00
  -3  -3  -1   35.70    4.60
   3   3   1   29.80    2.60
   3   3   1   24.40    3.80
   3   3   1   29.70    3.80
  -4  -3  -1  786.22   32.00
  -4  -3  -1  800.02   31.50
   4   3   1  756.82   30.40
   4   3   1  752.62   31.90
  -5  -3  -1  421.36   18.60
   5   3   1  414.86   19.40
   5   3   1  412.66   17.70
  -6  -3  -1   65.39    8.70
   6   3   1   46.60    6.90
   6   3   1   45.00    6.60
   7  -4  -1   76.09   14.70
  -7   4   1   84.79   11.50
  -7   4   1   80.39   10.50
   6  -4  -1   92.79   11.30
   6  -4  -1   78.39   10.20
  -6   4   1   88.49    9.30
  -6   4   1   75.69   10.30
  -6   4   1   57.69    9.60
   5  -4  -1  146.69   11.00
   5  -4  -1  126.69    9.90
  -5   4   1  126.39    9.20
  -5   4   1  119.59   12.10
  -5   4   1  133.19   10.00
   4  -4  -1   14.40    4.20
   4  -4  -1   21.50    4.00
   4  -4  -1   15.20    5.00
  -4   4   1   15.40    3.40
  -4   4   1   18.40    4.60
  -4   4   1   20.10    5.20
   3  -4  -1  181.88    9.30
   3  -4  -1  178.28    9.50
   3  -4  -1  182.18   11.20
  -3   4   1  162.88   11.40
  -3   4   1  194.48    9.30
   2  -4  -1 1214.38   47.70
   2  -4  -1 1255.47   49.90
   2  -4  -1 1198.68   48.10
  -2   4   1 1222.98   47.70
  -2   4   1 1249.18   49.90
   1  -4  -1  199.88    8.70
   1  -4  -1  193.68    9.50
   1  -4  -1  163.58   10.70
   1  -4  -1  205.88   10.90
  -1   4   1  197.08    8.60
  -1   4   1  197.78    9.50
  -1   4   1  196.88   10.80
   0  -4  -1    6.60    3.20
   0  -4  -1    7.40    2.30
   0  -4  -1   10.10    2.40
   0   4   1   11.10    2.90
   0   4   1    8.50    1.40
   0   4   1    8.10    2.50
  -1  -4  -1  384.26   20.00
  -1  -4  -1  466.35   18.80
   1   4   1  462.35   19.10
   1   4   1  483.45   19.30
   1   4   1  475.15   19.50
  -2  -4  -1  891.21   36.90
  -2  -4  -1  918.21   36.30
   2   4   1  895.71   36.30
   2   4   1  921.21   36.30
   2   4   1  909.81   36.40
  -3  -4  -1  876.41   37.30
  -3  -4  -1  936.21   37.80
   3   4   1  939.31   37.50
   3   4   1  946.31   37.20
  -4  -4  -1   23.10    4.20
  -4  -4  -1   19.50    4.30
   4   4   1   26.40    4.80
   4   4   1   23.20    3.40
  -5  -4  -1   11.10    4.30
  -5  -4  -1   12.60    5.10
   5   4   1    9.10    3.10
   5   4   1   17.00    5.30
  -6  -4  -1  164.58   13.90
  -6  -4  -1  145.19   11.70
   6   4   1  161.68   12.90
   6   4   1  141.19    9.50
   6  -5  -1    5.40    6.40
   6  -5  -1    8.30    7.60
   6  -5  -1   14.80    7.20
  -6   5   1    0.80    9.30
  -6   5   1    9.70    6.80
  -6   5   1   15.70    6.20
   5  -5  -1  132.59   11.00
   5  -5  -1  153.18   11.80
  -5   5   1  140.79   10.20
  -5   5   1  140.99   11.60
  -5   5   1  126.89   14.30
   4  -5  -1  304.17   17.00
   4  -5  -1  325.07   15.30
   4  -5  -1  312.97   15.00
  -4   5   1  301.07   15.70
  -4   5   1  243.48   17.30
  -4   5   1  309.07   14.70
   3  -5  -1   30.70    4.90
   3  -5  -1   41.00    4.70
   3  -5  -1   36.00    6.60
  -3   5   1   35.20    6.40
  -3   5   1   44.30    5.00
   2  -5  -1   -0.70    3.50
   2  -5  -1    2.90    2.80
   2  -5  -1    5.00    2.40
  -2   5   1    3.20    2.30
  -2   5   1    3.60    3.70
   1  -5  -1  254.67   12.10
   1  -5  -1  237.88   10.70
   1  -5  -1  247.48   13.50
  -1   5   1  230.48   13.20
  -1   5   1  247.58   11.90
  -1   5   1  240.58   10.70
   0  -5  -1  764.82   35.40
   0  -5  -1  863.01   33.60
   0   5   1  875.11   35.20
   0   5   1  865.81   34.30
   0   5   1  855.61   32.60
  -1  -5  -1  596.64   28.10
  -1  -5  -1  647.54   26.40
   1   5   1  673.93   27.30
   1   5   1  648.24   26.90
   1   5   1  665.73   26.90
  -2  -5  -1   61.09    5.60
  -2  -5  -1   50.79    7.30
   2   5   1   60.69    6.30
   2   5   1   54.79    7.90
   2   5   1   58.99    5.70
  -3  -5  -1   96.89    7.50
  -3  -5  -1   89.49    8.40
   3   5   1   97.69    7.90
   3   5   1   91.99    7.20
  -4  -5  -1  480.05   22.50
  -4  -5  -1  487.55   22.30
   4   5   1  473.15   22.40
   4   5   1  535.25   27.90
  -5  -5  -1  151.08   11.20
   5   5   1  169.98   12.90
   5  -6  -1   16.40    6.90
   5  -6  -1   10.40    6.80
   5  -6  -1   -0.90    6.30
  -5   6   1   15.40    7.70
  -5   6   1   12.50    5.40
  -5   6   1    7.80    8.50
   4  -6  -1    0.00    4.70
   4  -6  -1    2.30    5.60
   4  -6  -1    6.60    5.00
  -4   6   1    0.00    6.90
  -4   6   1    0.30    3.80
   3  -6  -1  122.39   10.60
   3  -6  -1  124.49    8.50
   3  -6  -1  118.39    9.10
  -3   6   1  117.59    8.20
  -3   6   1  129.09   12.20
   2  -6  -1  387.26   17.90
   2  -6  -1  369.96   16.80
   2  -6  -1  389.36   20.00
  -2   6   1  396.46   20.20
  -2   6   1  378.46   16.70
   1  -6  -1  159.88    9.70
   1  -6  -1  147.09   11.00
  -1   6   1  147.29    9.80
  -1   6   1  139.89   11.20
  -1   6   1  154.18    7.60
  -1   6   1  159.08    7.80
   0  -6  -1   15.20    3.80
   0   6   1   11.30    4.20
   0   6   1   20.50    4.90
   0   6   1   15.80    3.80
   0   6   1   13.80    2.10
  -1  -6  -1  234.18   11.50
  -1  -6  -1  223.08   13.60
   1   6   1  236.68   12.20
   1   6   1  226.18   12.60
  -2  -6  -1  338.17   16.00
  -2  -6  -1  367.06   18.10
   2   6   1  348.47   16.70
   2   6   1  333.77   16.70
  -3  -6  -1  231.38   12.70
  -3  -6  -1  236.78   14.30
   3   6   1  236.98   13.40
   3   6   1  231.18   13.00
  -4  -6  -1   -1.80    5.40
  -4  -6  -1   -1.70    4.30
   4   6   1   14.40    7.00
   4   6   1    6.20    5.70
   4  -7  -1  133.59   13.00
   4  -7  -1  150.38   12.30
   4  -7  -1  135.69   13.20
  -4   7   1  141.59   11.20
  -4   7   1  164.58   16.70
   3  -7  -1   -6.10    5.10
   3  -7  -1   -3.30    4.50
   3  -7  -1    0.10    5.90
  -3   7   1   -1.30    4.00
  -3   7   1   -2.10    6.20
   2  -7  -1   37.40    5.10
   2  -7  -1   43.80    6.60
   2  -7  -1   34.50    7.80
  -2   7   1   28.50    7.10
  -2   7   1   37.60    4.70
   1  -7  -1  110.09    9.70
   1  -7  -1  110.59   11.50
  -1   7   1  106.39   10.50
  -1   7   1  104.19    6.70
  -1   7   1  108.59    6.70
  -1   7   1  108.09    6.90
  -1   7   1  106.29   11.70
   0  -7  -1  294.47   13.90
   0   7   1  293.07   16.50
   0   7   1  267.27   15.70
   0   7   1  278.87   15.00
  -1  -7  -1  261.87   12.90
   1   7   1  239.28   15.10
   1   7   1  240.28   14.00
   1   7   1  252.47   14.60
  -2  -7  -1   -0.20    3.70
   2   7   1    2.70    6.10
   2   7   1    2.90    5.20
   2   7   1    0.20    4.30
  -3  -7  -1   62.39    7.30
   3   7   1   61.99    9.30
   3   7   1   88.59   11.50
   3   7   1   57.19    7.90
   2  -8  -1   98.79   11.80
   2  -8  -1  109.19   12.70
  -2   8   1   95.09    8.80
  -2   8   1  146.19   16.00
  -1   8   1   38.50    8.80
  -1   8   1   58.49    9.80
  -1   8   1   44.00    6.10
  -1   8   1   41.30    5.90
  -1   8   1   42.80    7.20
  -1   8   1   45.90    5.90
   0  -8  -1   26.00    5.60
   0   8   1   30.00    6.60
   0   8   1   12.70    5.10
   0   8   1   23.10    6.80
   0   8   1   10.40    6.90
  -1  -8  -1   77.59    7.90
   1   8   1   84.99   11.40
   1   8   1   80.49   13.10
   1   8   1   91.59   11.80
   0   9  -2  131.09   12.70
   0   9  -2  100.99    9.10
   0   9  -2  132.79   12.60
   0   9  -2   94.29    9.40
   0   9  -2   97.59   10.40
  -1   9  -2  127.69    7.90
  -1   9  -2  124.79   13.30
  -1   9  -2  118.69   10.40
  -1   9  -2  145.49   10.80
   1  -9   2  129.29   12.80
   3   8  -2   48.10    8.60
   3   8  -2   50.29    8.50
   3   8  -2   43.70    7.00
   3   8  -2   45.00    7.40
   3   8  -2   65.19    7.00
  -3  -8   2   30.60    6.40
   2   8  -2  488.35   20.60
   2   8  -2  488.85   22.20
   2   8  -2  502.35   21.70
   2   8  -2  494.05   23.40
   2   8  -2  454.05   23.90
  -2  -8   2  475.05   22.30
   1   8  -2  114.89    9.80
   1   8  -2  101.59   10.40
   1   8  -2  132.19    9.60
   1   8  -2  137.99    8.50
   1   8  -2  127.89   10.90
  -1  -8   2  139.29    9.30
   0   8  -2    4.90    4.40
   0   8  -2   -0.90    5.10
   0   8  -2    0.20    5.10
   0   8  -2   -0.10    3.50
   0   8  -2    2.90    3.60
   0  -8   2   -0.10    5.30
  -1   8  -2   33.60    7.20
  -1   8  -2   23.80    3.30
  -1   8  -2   15.90    4.60
  -1   8  -2   19.20    4.40
  -1   8  -2   24.90    5.70
   1  -8   2   19.50    6.80
  -2   8  -2  171.38   11.10
  -2   8  -2  158.68   15.70
   2  -8   2  178.98   14.30
  -3   8  -2   88.59   14.50
  -3   8  -2   95.79    9.80
   3  -8   2  105.79    9.80
   3  -8   2   96.49   11.80
  -4   8  -2   -1.90    5.80
  -4   8  -2   28.50    9.90
  -4   8  -2  -10.70    7.00
   4  -8   2   -8.40    5.90
   4  -8   2   10.90    7.40
   4  -8   2    1.90    6.80
   4   7  -2  195.48   14.70
   4   7  -2  213.88   13.60
   4   7  -2  225.48   12.00
   4   7  -2  230.58   15.20
  -4  -7   2  221.68   13.70
   3   7  -2   93.59    6.90
   3   7  -2   84.79    6.50
   3   7  -2  108.19   10.10
   3   7  -2   90.29    9.90
   3   7  -2   92.29    8.60
  -3  -7   2   85.49    7.80
   2   7  -2    3.80    3.70
   2   7  -2    4.40    4.80
   2   7  -2    2.30    3.00
   2   7  -2    5.00    3.00
   2   7  -2   10.00    4.70
  -2  -7   2    7.90    4.00
   1   7  -2  145.59    9.50
   1   7  -2  125.79   10.00
   1   7  -2  138.69    8.20
   1   7  -2  155.08    9.40
   1   7  -2  153.48    8.90
  -1  -7   2  135.29    8.90
   0   7  -2  476.55   19.30
   0   7  -2  428.56   18.90
   0   7  -2  441.46   21.10
   0   7  -2  423.96   18.80
   0   7  -2  441.16   19.60
   0  -7   2  440.46   19.70
   0  -7   2  418.46   21.60
  -1   7  -2  340.27   14.90
  -1   7  -2  327.17   14.50
  -1   7  -2  274.57   17.70
  -1   7  -2  308.97   13.60
  -1   7  -2  332.57   15.20
   1  -7   2  333.37   17.80
  -2   7  -2   -1.10    5.10
  -2   7  -2    1.70    3.30
   2  -7   2    0.50    3.50
   2  -7   2   -0.70    4.70
  -3   7  -2   49.60    7.20
  -3   7  -2   45.00    7.90
   3  -7   2   38.30    7.50
   3  -7   2   46.20    5.60
  -4   7  -2  209.78   16.60
  -4   7  -2  219.28   13.10
  -4   7  -2  240.68   12.80
   4  -7   2  196.48   15.70
   4  -7   2  236.68   12.40
   4  -7   2  183.88   13.90
  -5   7  -2  139.59   11.80
  -5   7  -2  115.19   16.60
  -5   7  -2  140.69   12.10
   5  -7   2  124.99   10.80
   5  -7   2  116.49   13.50
   5  -7   2  114.09   13.00
   5   6  -2   15.40    6.30
   5   6  -2   28.50    5.20
   5   6  -2   26.00    6.00
  -5  -6   2   22.00    6.10
  -5  -6   2   29.90    8.30
   4   6  -2   22.30    5.10
   4   6  -2   16.30    5.00
   4   6  -2   11.50    4.00
  -4  -6   2   10.40    4.70
   3   6  -2  165.28   10.20
   3   6  -2  150.18    9.50
   3   6  -2  150.78    7.50
   3   6  -2  134.69   10.10
  -3  -6   2  159.48    9.90
   2   6  -2 1847.32   70.19
   2   6  -2 1774.42   68.49
   2   6  -2 1756.32   68.59
   2   6  -2 1784.22   69.09
   2   6  -2 1779.82   69.39
  -2  -6   2 1721.43   69.69
   1   6  -2  106.99    7.10
   1   6  -2  105.59    6.20
   1   6  -2   92.09    7.00
   1   6  -2   98.19    7.90
   1   6  -2  102.79    6.50
  -1  -6   2   98.39    7.00
   0   6  -2   -0.60    3.40
   0   6  -2    5.30    2.20
   0   6  -2    2.00    2.70
   0   6  -2    0.60    2.40
   0   6  -2    1.70    2.40
   0  -6   2    0.20    3.10
   0  -6   2    4.60    3.40
  -1   6  -2  135.19    6.80
  -1   6  -2  142.39   10.00
  -1   6  -2  138.79    8.00
  -1   6  -2  146.39    8.00
   1  -6   2  132.99    9.50
  -2   6  -2  364.16   15.20
  -2   6  -2  395.76   19.20
  -2   6  -2  380.16   17.10
   2  -6   2  401.56   17.40
   2  -6   2  389.46   16.90
   2  -6   2  378.36   19.50
  -3   6  -2  468.35   21.50
  -3   6  -2  519.15   22.10
  -3   6  -2  532.75   24.20
   3  -6   2  508.95   25.00
   3  -6   2  502.45   21.40
   3  -6   2  500.55   22.30
  -4   6  -2   18.00    4.70
  -4   6  -2   12.50    4.00
   4  -6   2    8.90    6.30
   4  -6   2   12.80    4.10
  -5   6  -2    4.40    5.20
  -5   6  -2    1.30    4.70
   5  -6   2    7.80    5.70
   5  -6   2    5.10    4.60
   5  -6   2    3.80    6.70
  -6   6  -2   27.90    7.70
  -6   6  -2   38.50   10.50
  -6   6  -2   37.00    7.90
   6  -6   2   46.30    7.30
   6  -6   2   55.19   10.50
   6  -6   2   28.70    7.90
   6   5  -2   20.50    6.30
   6   5  -2   19.10    7.50
   6   5  -2   33.60    6.10
  -6  -5   2   16.60    8.00
  -6  -5   2   20.50    6.10
   5   5  -2  341.67   15.80
   5   5  -2  340.97   17.80
   5   5  -2  323.97   16.60
  -5  -5   2  330.77   17.20
  -5  -5   2  323.67   17.70
   4   5  -2  452.95   19.90
   4   5  -2  459.95   20.80
   4   5  -2  478.75   19.50
  -4  -5   2  379.66   20.30
  -4  -5   2  455.65   20.30
   3   5  -2  130.79    8.10
   3   5  -2  128.29    6.20
   3   5  -2  137.89    9.00
  -3  -5   2  159.58    8.70
  -3  -5   2  131.09    8.80
   2   5  -2   79.49    5.40
   2   5  -2   74.29    4.70
   2   5  -2   79.29    6.40
  -2  -5   2   79.89    6.00
   1   5  -2  233.38   11.60
   1   5  -2  232.28   10.50
   1   5  -2  243.28   11.20
   1   5  -2  227.58   10.40
   1   5  -2  232.78   10.90
  -1  -5   2  233.98   11.20
  -1  -5   2  224.38   12.40
   0   5  -2  985.20   38.90
   0   5  -2 1055.59   39.50
   0   5  -2  993.60   39.20
   0   5  -2  994.90   39.20
   0   5  -2 1024.10   40.50
   0  -5   2  972.90   41.00
   0  -5   2  974.00   39.60
  -1   5  -2  614.24   25.00
  -1   5  -2  563.24   22.80
  -1   5  -2  564.84   23.70
  -1   5  -2  585.14   23.50
   1  -5   2  574.84   23.40
   1  -5   2  572.14   25.50
  -2   5  -2   20.50    3.20
  -2   5  -2   18.80    2.20
   2  -5   2   22.60    3.60
   2  -5   2   18.80    3.00
   2  -5   2   19.40    4.50
  -3   5  -2  444.76   18.50
  -3   5  -2  434.76   18.90
   3  -5   2  415.66   21.20
   3  -5   2  421.56   19.00
   3  -5   2  432.66   18.20
  -4   5  -2  434.96   19.40
  -4   5  -2  452.85   19.90
   4  -5   2  464.65   19.20
   4  -5   2  402.36   22.70
   4  -5   2  461.25   20.20
  -5   5  -2  227.68   12.90
  -5   5  -2  268.87   13.70
   5  -5   2  247.48   16.20
   5  -5   2  231.48   12.70
  -6   5  -2   35.80    6.60
  -6   5  -2   21.40    6.90
   6  -5   2   31.00    6.00
   6  -5   2   25.80    7.20
   6   4  -2  190.28   13.80
   6   4  -2  169.38   11.70
   6   4  -2  196.78   12.30
  -6  -4   2  188.08   11.70
  -6  -4   2  171.38   14.30
   5   4  -2   -1.90    3.40
   5   4  -2   10.10    4.00
  -5  -4   2   -7.30    7.50
  -5  -4   2    0.10    3.50
   4   4  -2   60.09    5.80
   4   4  -2   59.29    5.80
  -4  -4   2   70.69    6.50
  -4  -4   2   48.30    6.30
   3   4  -2  620.84   25.50
   3   4  -2  630.94   26.20
  -3  -4   2  625.84   25.70
  -3  -4   2  619.74   26.30
   2   4  -2 2795.12  107.69
   2   4  -2 2756.22  106.99
   2   4  -2 2939.81  108.49
  -2  -4   2 2868.31  108.39
  -2  -4   2 2777.42  107.69
   1   4  -2   58.89    4.00
   1   4  -2   57.19    3.70
   1   4  -2   55.09    4.40
   1   4  -2   52.19    4.90
  -1  -4   2   62.09    4.50
  -1  -4   2   57.99    5.20
   0   4  -2   95.19    4.80
   0   4  -2  101.89    5.20
   0   4  -2   95.09    5.30
   0   4  -2  105.39    5.50
   0  -4   2   95.09    6.50
   0  -4   2   96.19    5.70
  -1   4  -2  869.31   34.50
  -1   4  -2  885.41   35.20
  -1   4  -2  893.01   34.80
   1  -4   2  948.31   34.70
   1  -4   2  882.11   35.20
   1  -4   2  891.51   36.70
   1  -4   2  886.41   34.80
  -2   4  -2  862.61   33.50
  -2   4  -2  878.31   34.70
   2  -4   2  875.01   34.70
   2  -4   2  886.21   34.10
   2  -4   2  809.62   33.60
   2  -4   2  914.61   36.70
  -3   4  -2  781.82   35.80
  -3   4  -2  939.51   36.60
   3  -4   2  939.81   36.70
   3  -4   2  914.51   35.90
   3  -4   2  986.50   35.30
  -4   4  -2   41.20    5.30
  -4   4  -2   41.40    5.10
   4  -4   2   48.90    6.00
   4  -4   2   37.00    3.50
   4  -4   2   43.50    4.90
  -5   4  -2    3.50    3.70
  -5   4  -2    2.50    3.70
   5  -4   2    2.00    2.30
  -6   4  -2  206.18   12.90
  -6   4  -2  207.48   12.70
   6  -4   2  200.18   13.80
  -7   4  -2   87.09   12.30
  -7   4  -2   95.39   11.60
   7  -4   2   57.29   13.20
   7   3  -2   -1.20    6.00
   7   3  -2   -0.70    5.90
   7   3  -2    2.50    6.30
  -7  -3   2    0.70    8.30
  -7  -3   2    5.60    5.40
   6   3  -2  122.19    9.60
   6   3  -2  130.79   10.90
   6   3  -2  113.89    9.40
  -6  -3   2  131.49    8.90
  -6  -3   2   97.49   11.30
   5   3  -2  537.15   22.90
   5   3  -2  530.85   23.00
  -5  -3   2  525.45   23.40
  -5  -3   2  521.75   23.20
   4   3  -2  654.33   26.30
   4   3  -2  630.94   26.30
  -4  -3   2  627.14   26.40
  -4  -3   2  639.64   27.00
   3   3  -2  298.77   13.20
   3   3  -2  297.57   12.60
  -3  -3   2  298.27   12.60
  -3  -3   2  235.48   12.90
   2   3  -2  337.77   14.50
   2   3  -2  314.87   13.70
  -2  -3   2  344.57   14.40
  -2  -3   2  325.87   13.80
   1   3  -2  691.23   28.20
   1   3  -2  711.53   27.30
  -1  -3   2  703.43   28.40
  -1  -3   2  702.43   27.30
   0   3  -2 1416.06   50.69
   0   3  -2 1300.17   49.99
   0   3  -2 1288.37   50.59
   0   3  -2 1301.77   50.29
   0  -3   2 1286.77   50.69
   0  -3   2 1315.57   51.49
   0  -3   2 1299.77   50.69
  -1   3  -2  585.44   23.40
  -1   3  -2  610.54   24.00
  -1   3  -2  594.64   23.40
   1  -3   2  655.53   23.60
   1  -3   2  581.24   24.00
   1  -3   2  612.04   25.10
   1  -3   2  570.64   23.30
  -2   3  -2   15.50    2.10
  -2   3  -2   14.80    2.60
   2  -3   2   10.30    2.30
   2  -3   2   12.20    1.80
   2  -3   2   13.00    2.00
  -3   3  -2 1371.06   51.79
  -3   3  -2 1323.87   52.29
   3  -3   2 1351.56   52.49
   3  -3   2 1316.47   51.39
  -4   3  -2  819.32   33.70
  -4   3  -2  847.52   33.20
   4  -3   2  822.22   32.70
   4  -3   2  839.72   33.80
  -5   3  -2  272.57   12.90
   5  -3   2  263.57   12.10
   5  -3   2  247.88   13.40
  -6   3  -2    3.60    4.80
  -6   3  -2    6.20    4.60
   6  -3   2    2.60    3.20
   6  -3   2    6.10    5.20
  -7   3  -2   47.10    8.50
  -7   3  -2   49.50    8.10
   7  -3   2   49.10    8.40
   7   2  -2   46.40    7.10
   7   2  -2   67.89    8.40
  -7  -2   2   53.89    6.70
  -7  -2   2   82.19   10.50
   6   2  -2  266.57   13.70
   6   2  -2  270.57   14.30
   6   2  -2  259.07   13.80
  -6  -2   2  227.28   11.30
  -6  -2   2  234.98   11.40
   5   2  -2    2.40    2.90
   5   2  -2    0.20    3.20
  -5  -2   2   -0.50    1.90
  -5  -2   2    0.70    3.80
  -5  -2   2    0.40    1.70
   4   2  -2  148.69    8.10
   4   2  -2  141.29    7.80
  -4  -2   2  146.69    8.20
  -4  -2   2  140.49    6.20
   3   2  -2 1662.13   65.19
   3   2  -2 1691.93   64.99
   3   2  -2 1690.23   65.29
  -3  -2   2 1695.43   64.89
  -3  -2   2 1690.83   65.39
   2   2  -2 1190.58   45.30
   2   2  -2 1145.09   44.70
  -2  -2   2 1130.99   44.70
  -2  -2   2 1177.48   45.10
   1   2  -2  147.69    6.10
   1   2  -2  140.09    6.90
   1   2  -2  137.79    6.70
  -1  -2   2  140.99    6.00
  -1  -2   2  141.29    6.60
  -1  -2   2  128.79    6.70
  -1  -2   2  142.99    6.50
   0   2  -2  560.24   22.90
   0   2  -2  617.74   23.50
   0  -2   2  606.44   23.50
   0  -2   2  631.44   23.50
   0  -2   2  575.04   23.80
  -1   2  -2 2610.74   96.89
  -1   2  -2 2550.24   96.49
  -1   2  -2 2521.75   95.99
   1  -2   2 2527.25   96.49
   1  -2   2 2531.75   96.09
  -2   2  -2 2625.74  101.99
  -2   2  -2 2735.83  102.69
   2  -2   2 2688.13  102.69
   2  -2   2 2736.43  102.29
   2  -2   2 2694.83  102.29
  -3   2  -2  510.55   20.80
  -3   2  -2  523.55   21.30
   3  -2   2  509.35   20.90
   3  -2   2  530.65   21.00
   3  -2   2  526.85   21.40
  -4   2  -2   32.70    4.10
  -4   2  -2   35.30    3.90
   4  -2   2   32.70    4.00
   4  -2   2   26.80    3.80
  -5   2  -2   20.70    3.90
  -5   2  -2   19.10    3.80
   5  -2   2   17.50    3.90
   5  -2   2   23.80    4.10
  -6   2  -2  476.55   21.10
  -6   2  -2  462.85   21.00
   6  -2   2  460.15   21.60
   6  -2   2  450.85   21.10
  -7   2  -2  132.39   12.20
  -7   2  -2  128.19   11.20
   7  -2   2   98.89   11.20
   7  -2   2  107.59   12.30
   7   1  -2   11.90    6.00
   7   1  -2    8.70    5.60
   7   1  -2   14.30    5.90
  -7  -1   2    0.20    4.60
  -7  -1   2   14.70    8.10
   6   1  -2  313.57   15.60
   6   1  -2  323.17   15.80
   6   1  -2  280.57   15.50
  -6  -1   2  298.87   14.30
   5   1  -2  559.64   23.80
   5   1  -2  542.95   23.80
   5   1  -2  545.95   23.80
  -5  -1   2  572.54   24.10
  -5  -1   2  557.74   22.80
   4   1  -2  448.56   18.80
   4   1  -2  445.16   18.90
   4   1  -2  429.86   18.60
  -4  -1   2  415.06   17.80
  -4  -1   2  447.86   18.90
   3   1  -2  349.77   14.60
   3   1  -2  361.96   14.80
   3   1  -2  342.77   14.40
  -3  -1   2  344.17   14.50
  -3  -1   2  299.57   13.70
   2   1  -2  519.45   21.40
   2   1  -2  564.34   21.10
  -2  -1   2  521.85   20.50
  -2  -1   2  580.54   21.10
  -2  -1   2  458.85   21.00
   1   1  -2 2744.03  104.39
   1   1  -2 2890.61  104.59
   1   1  -2 2707.73  104.39
   1   1  -2 2624.44  104.89
  -1  -1   2 2928.61  104.59
  -1  -1   2 2777.52  104.59
  -1  -1   2 2773.72  104.99
  -1  -1   2 2670.53  104.39
   0   1  -2 1306.07   50.79
   0   1  -2 1344.47   50.89
   0  -1   2 1344.97   50.79
  -1   1  -2  492.05   19.30
  -1   1  -2  473.05   18.80
  -1   1  -2  477.65   19.30
   1  -1   2  501.95   19.30
   1  -1   2  491.35   18.80
   1  -1   2  493.15   19.30
  -2   1  -2    2.50    1.20
  -2   1  -2    1.20    1.30
   2  -1   2    3.00    1.30
   2  -1   2    1.90    1.20
   2  -1   2    4.30    1.50
  -3   1  -2 1717.33   66.19
  -3   1  -2 1733.13   66.39
   3  -1   2 1703.03   66.19
   3  -1   2 1756.62   66.49
  -4   1  -2 1020.20   40.20
  -4   1  -2 1004.80   40.00
   4  -1   2 1012.40   40.10
   4  -1   2 1030.80   40.30
  -5   1  -2  130.79    7.80
  -5   1  -2  137.39    8.00
   5  -1   2  123.29    7.70
   5  -1   2  106.29    7.70
  -6   1  -2   33.20    5.60
  -6   1  -2   24.00    4.90
   6  -1   2   24.80    5.40
   6  -1   2   30.40    5.20
  -7   1  -2  102.09   11.90
  -7   1  -2  109.79   10.40
   7  -1   2  108.49   11.50
   7  -1   2  101.19   10.60
   7   0  -2   57.29    8.90
   7   0  -2   56.19    6.90
   7   0  -2   46.00    7.50
  -7   0   2   54.19    9.10
  -7   0   2   34.20    8.70
   6   0  -2  175.78   11.90
   6   0  -2  175.38   12.20
   6   0  -2  213.18   11.50
  -6   0   2  198.88   11.40
   5   0  -2   -0.60    2.70
   5   0  -2   -0.30    3.30
   5   0  -2    8.80    3.00
  -5   0   2    0.20    2.90
  -5   0   2    7.20    4.00
   4   0  -2  236.98   10.80
   4   0  -2  208.28   11.10
   4   0  -2  228.78   11.20
  -4   0   2  232.98   10.80
   3   0  -2 2121.29   77.49
   3   0  -2 2107.19   77.49
   3   0  -2 2004.80   77.09
  -3   0   2 1813.82   76.99
   2   0  -2  166.58    7.50
   2   0  -2  167.58    7.80
   2   0  -2  166.98    7.60
  -2   0   2  159.38    7.40
  -2   0   2  162.38    7.70
  -2   0   2  162.98    7.60
   1   0  -2   75.39    4.10
   1   0  -2   75.69    4.00
  -1   0   2   79.99    4.30
  -1   0   2   73.29    3.40
  -1   0   2   73.19    3.90
   0   0  -2 1279.07   49.70
   0   0  -2 1300.17   49.50
   0   0  -2 1279.17   49.10
   0   0   2 1275.37   49.70
   0   0   2 1326.67   49.10
   0   0   2 1313.57   49.50
  -1   0  -2 2962.60  110.79
  -1   0  -2 2904.11  110.19
  -1   0  -2 2889.51  110.09
   1   0   2 2885.31  110.49
   1   0   2 2825.22  110.69
   1   0   2 2897.81  110.19
   1   0   2 3023.30  110.09
  -2   0  -2 3711.73  141.79
  -2   0  -2 3775.82  141.69
  -2   0  -2 3768.82  142.49
   2   0   2 3687.23  141.79
   2   0   2 3793.32  141.69
  -3   0  -2   39.70    3.60
  -3   0  -2   41.10    4.30
  -3   0  -2   43.30    3.30
   3   0   2   44.50    3.50
   3   0   2   39.90    3.60
  -4   0  -2   32.70    3.70
  -4   0  -2   33.40    4.30
   4   0   2   30.20    4.00
   4   0   2   35.10    4.00
  -5   0  -2  226.28   11.90
  -5   0  -2  237.48   11.60
  -5   0  -2  238.18   12.70
   5   0   2  247.18   11.80
   5   0   2  238.18   11.90
  -6   0  -2  546.55   24.40
  -6   0  -2  515.15   23.00
  -6   0  -2  514.25   23.80
   6   0   2  539.15   23.20
   6   0   2  522.75   23.30
  -7   0  -2  126.99   12.70
  -7   0  -2  104.49   10.60
   7   0   2  113.69   11.10
   7   0   2  108.19   10.70
   7  -1  -2   15.80    5.00
   7  -1  -2   12.90    7.20
  -7   1   2   13.10    8.20
  -7   1   2   22.10    6.30
   6  -1  -2  250.27   13.10
  -6   1   2  245.18   14.90
  -6   1   2  280.97   14.70
   5  -1  -2  401.66   18.80
  -5   1   2  475.55   20.10
  -5   1   2  446.56   20.00
   4  -1  -2  106.59    6.90
   4  -1  -2   95.49    5.90
  -4   1   2  113.69    7.20
  -4   1   2   93.49    7.00
  -4   1   2  102.79    6.80
   3  -1  -2   19.00    3.00
   3  -1  -2   19.00    2.70
  -3   1   2   23.20    3.20
  -3   1   2   12.80    2.80
  -3   1   2   16.50    2.70
   2  -1  -2  510.35   21.40
   2  -1  -2  557.44   22.00
   2  -1  -2  535.95   20.90
   2  -1  -2  543.95   21.50
  -2   1   2  540.95   22.00
  -2   1   2  502.85   20.90
   1  -1  -2 3044.20  115.59
   1  -1  -2 3030.90  115.29
   1  -1  -2 3159.58  116.29
   1  -1  -2 2645.24  115.39
   1  -1  -2 3150.78  115.69
  -1   1   2 3113.99  116.29
  -1   1   2 3011.20  115.29
  -1   1   2 3256.07  115.69
   0  -1  -2 1895.21   71.69
   0  -1  -2 1832.72   71.19
   0   1   2 1879.61   71.79
   0   1   2 1879.81   71.19
   0   1   2 1879.81   71.29
  -1  -1  -2  359.36   14.90
  -1  -1  -2  356.06   13.70
   1   1   2  345.87   14.40
   1   1   2  353.36   14.90
   1   1   2  353.76   14.30
  -2  -1  -2  172.18    7.30
  -2  -1  -2  172.18    8.10
  -2  -1  -2  178.58    8.50
   2   1   2  178.78    8.60
   2   1   2  170.28    8.10
   2   1   2  175.28    7.40
  -3  -1  -2 1425.86   55.69
  -3  -1  -2 1391.46   54.89
  -3  -1  -2 1419.86   55.89
   3   1   2 1484.65   55.09
   3   1   2 1445.46   55.59
  -4  -1  -2  687.33   27.90
  -4  -1  -2  709.33   28.70
  -4  -1  -2  702.23   28.90
   4   1   2  702.53   28.60
   4   1   2  698.13   28.00
  -5  -1  -2   45.70    5.00
  -5  -1  -2   46.90    6.40
  -5  -1  -2   42.10    5.40
   5   1   2   46.90    5.20
   5   1   2   44.90    5.30
  -6  -1  -2   26.00    5.30
  -6  -1  -2   23.80    5.90
  -6  -1  -2   24.00    4.60
   6   1   2   36.80    5.90
   6   1   2   34.40    4.90
  -7  -1  -2  144.29   14.50
  -7  -1  -2  215.58   15.30
   7   1   2  199.88   13.30
   7   1   2  189.78   13.10
   7  -2  -2   66.79    9.90
   7  -2  -2   95.39    8.30
  -7   2   2   82.29   12.60
  -7   2   2  100.09   12.80
   6  -2  -2   49.20    5.60
  -6   2   2   63.99    7.90
  -6   2   2   52.69    7.50
  -6   2   2   38.90    6.30
   5  -2  -2    3.80    4.10
   5  -2  -2    0.10    2.10
  -5   2   2    6.50    4.30
  -5   2   2    1.90    4.10
  -5   2   2    4.40    3.60
   4  -2  -2  293.37   13.10
   4  -2  -2  274.17   11.60
  -4   2   2  277.97   13.10
  -4   2   2  271.77   12.80
  -4   2   2  226.48   13.40
   3  -2  -2 1200.88   46.90
   3  -2  -2 1316.97   48.10
   3  -2  -2 1167.98   48.60
  -3   2   2 1217.08   47.80
  -3   2   2 1194.18   48.90
  -3   2   2 1254.97   48.30
   2  -2  -2  302.77   13.50
   2  -2  -2  282.67   12.90
   2  -2  -2  282.87   11.40
   2  -2  -2  297.77   12.20
   2  -2  -2  267.37   12.30
  -2   2   2  280.67   11.40
  -2   2   2  269.07   12.10
  -2   2   2  293.37   13.40
   1  -2  -2   53.19    3.10
   1  -2  -2   57.89    4.00
   1  -2  -2   51.99    3.70
   1  -2  -2   45.70    4.70
  -1   2   2   48.20    4.50
  -1   2   2   54.49    3.80
  -1   2   2   53.19    3.10
   0  -2  -2 1116.99   41.50
   0  -2  -2 1125.69   42.90
   0  -2  -2 1062.89   42.10
   0   2   2 1034.50   41.90
   0   2   2 1065.89   42.10
   0   2   2 1119.09   42.80
  -1  -2  -2 1636.54   61.89
   1   2   2 1577.54   61.39
   1   2   2 1595.94   61.29
   1   2   2 1573.34   61.79
  -2  -2  -2 1417.66   55.29
   2   2   2 1439.06   55.39
   2   2   2 1398.26   54.99
  -3  -2  -2    5.10    2.80
  -3  -2  -2    5.50    2.40
   3   2   2    6.10    2.50
   3   2   2    3.50    1.50
  -4  -2  -2   85.39    6.60
  -4  -2  -2   94.29    7.00
   4   2   2   86.59    5.30
   4   2   2   83.59    6.60
  -5  -2  -2  534.85   24.10
  -5  -2  -2  528.55   23.50
   5   2   2  555.24   23.80
   5   2   2  545.75   22.50
  -6  -2  -2  386.96   19.50
  -6  -2  -2  372.26   18.40
   6   2   2  348.07   16.90
   6   2   2  390.66   18.80
   7  -3  -2    4.20    7.60
   7  -3  -2    7.60    3.60
  -7   3   2    2.80    8.10
  -7   3   2    6.40    8.20
  -7   3   2   -0.60    6.10
   6  -3  -2   86.79   10.70
   6  -3  -2   73.39    5.50
  -6   3   2   95.39   10.30
  -6   3   2   83.99    9.10
  -6   3   2   61.79    9.00
   5  -3  -2  366.06   17.60
   5  -3  -2  331.77   13.90
   5  -3  -2  355.16   16.90
  -5   3   2  325.67   16.50
  -5   3   2  343.57   16.30
  -5   3   2  270.67   17.70
   4  -3  -2    7.20    1.60
   4  -3  -2   14.40    3.60
   4  -3  -2    9.50    4.20
  -4   3   2    2.80    4.00
  -4   3   2    2.30    3.80
  -4   3   2    7.50    3.10
   3  -3  -2   83.79    7.00
   3  -3  -2   95.49    6.50
   3  -3  -2  100.29    6.10
  -3   3   2   94.49    7.80
  -3   3   2   92.99    5.90
   2  -3  -2  443.36   18.90
   2  -3  -2  486.95   20.50
   2  -3  -2  446.86   19.80
   2  -3  -2  445.16   18.40
  -2   3   2  480.75   20.40
  -2   3   2  426.56   17.50
  -2   3   2  435.56   18.40
   1  -3  -2 1437.56   55.29
   1  -3  -2 1399.16   53.49
   1  -3  -2 1404.16   54.19
  -1   3   2 1371.56   54.29
  -1   3   2 1392.66   53.59
  -1   3   2 1389.16   53.49
   0  -3  -2 1475.95   58.59
   0  -3  -2 1494.65   57.89
   0  -3  -2 1593.14   59.89
   0   3   2 1527.95   59.49
   0   3   2 1496.65   58.69
  -1  -3  -2   24.40    3.10
  -1  -3  -2   26.80    4.10
   1   3   2   30.10    4.00
   1   3   2   24.40    3.20
   1   3   2   26.10    3.40
  -2  -3  -2  410.36   17.40
   2   3   2  380.26   16.70
   2   3   2  386.86   17.10
   2   3   2  378.26   16.80
  -3  -3  -2 1122.99   43.80
   3   3   2 1086.29   43.70
   3   3   2 1071.39   43.60
  -4  -3  -2  341.67   16.00
   4   3   2  335.37   16.00
   4   3   2  333.27   14.00
  -5  -3  -2   18.20    4.40
  -5  -3  -2   10.20    5.50
   5   3   2    9.40    3.00
   5   3   2    7.90    4.40
  -6  -3  -2   42.40    8.10
   6   3   2   30.10    4.90
   6   3   2   45.60    7.30
   6  -4  -2   -1.50    5.50
   6  -4  -2    6.10    6.40
   6  -4  -2    0.20    5.30
  -6   4   2    5.50    7.80
  -6   4   2    2.70    5.30
  -6   4   2    5.70    6.90
   5  -4  -2   20.70    5.40
   5  -4  -2   20.80    5.60
  -5   4   2   12.60    6.30
  -5   4   2   13.90    4.50
  -5   4   2   11.40    5.60
   4  -4  -2  211.38   12.70
   4  -4  -2  202.58   11.10
   4  -4  -2  223.88   11.80
  -4   4   2  199.78   12.30
  -4   4   2  208.38   11.10
  -4   4   2  192.88   13.50
   3  -4  -2  396.66   21.00
   3  -4  -2  481.75   20.10
   3  -4  -2  461.35   19.40
  -3   4   2  474.65   21.80
  -3   4   2  474.05   19.50
   2  -4  -2  292.87   13.50
   2  -4  -2  287.57   12.70
   2  -4  -2  296.87   14.80
  -2   4   2  279.77   11.50
  -2   4   2  278.37   12.60
  -2   4   2  316.57   15.30
   1  -4  -2  101.49    5.30
   1  -4  -2  102.89    6.70
   1  -4  -2  121.49    8.60
   1  -4  -2  105.59    7.70
  -1   4   2   99.39    5.30
  -1   4   2  103.49    5.40
  -1   4   2   83.69    7.50
  -1   4   2  121.49    6.80
   0  -4  -2  538.55   22.20
   0  -4  -2  548.75   21.30
   0  -4  -2  480.25   23.60
   0   4   2  529.95   22.20
   0   4   2  550.24   23.20
  -1  -4  -2  733.43   29.10
  -1  -4  -2  658.13   27.00
   1   4   2  662.83   27.70
   1   4   2  651.73   27.70
   1   4   2  675.53   28.20
  -2  -4  -2  314.97   14.70
  -2  -4  -2  284.57   13.40
   2   4   2  278.27   13.70
   2   4   2  284.77   13.90
   2   4   2  291.97   13.80
  -3  -4  -2   -2.80    3.00
  -3  -4  -2   -3.30    3.20
   3   4   2    2.00    3.20
   3   4   2    1.60    3.50
   3   4   2    1.20    2.90
  -4  -4  -2  141.89    9.90
  -4  -4  -2  131.79    9.40
   4   4   2  140.19    9.80
  -5  -4  -2  335.47   18.80
   5   4   2  399.36   16.20
   5   4   2  440.56   20.00
   6  -5  -2   36.70    9.10
   6  -5  -2   26.10    7.70
   6  -5  -2    2.70    7.60
  -6   5   2   30.20    8.30
  -6   5   2   18.00    9.40
  -6   5   2   12.10    7.20
   5  -5  -2  142.59   12.10
   5  -5  -2  163.28   12.50
   5  -5  -2  179.88   14.00
  -5   5   2  169.88   11.30
  -5   5   2  170.18   13.90
  -5   5   2  164.68   15.40
   4  -5  -2   -1.40    4.70
   4  -5  -2    1.50    4.40
   4  -5  -2    7.60    4.00
  -4   5   2    8.90    6.00
  -4   5   2    3.70    3.70
   3  -5  -2   97.99    9.10
   3  -5  -2  117.79    7.30
   3  -5  -2  105.59    8.30
  -3   5   2   99.69    7.20
  -3   5   2  105.69   10.40
   2  -5  -2  249.58   13.70
   2  -5  -2  226.08   10.80
   2  -5  -2  226.88   12.00
  -2   5   2  213.78   10.70
  -2   5   2  239.58   13.90
   1  -5  -2  465.05   21.90
   1  -5  -2  556.24   24.30
   1  -5  -2  526.65   20.50
   1  -5  -2  526.65   23.90
  -1   5   2  526.75   22.10
  -1   5   2  534.75   20.60
  -1   5   2  422.66   23.10
  -1   5   2  516.45   20.50
   0  -5  -2  439.06   18.50
   0  -5  -2  476.65   21.80
   0   5   2  419.96   19.60
   0   5   2  444.06   20.70
  -1  -5  -2   38.30    4.40
  -1  -5  -2   30.00    5.60
   1   5   2   34.90    6.00
   1   5   2   42.60    5.60
   1   5   2   34.70    5.80
  -2  -5  -2  216.18   13.40
  -2  -5  -2  221.78   11.10
   2   5   2  218.08   11.90
   2   5   2  222.38   12.00
  -3  -5  -2  553.54   27.50
  -3  -5  -2  643.14   26.80
   3   5   2  657.93   27.20
   3   5   2  634.14   27.00
  -4  -5  -2  143.19   11.50
  -4  -5  -2  156.68   10.10
   4   5   2  150.08   12.10
   4   5   2  154.78   11.30
  -5  -5  -2   -3.30    5.50
  -5  -5  -2   -1.20    5.80
   5   5   2   -0.60    6.60
   5   5   2    2.80    6.30
   5  -6  -2   52.89    8.30
   5  -6  -2   67.39   10.50
   5  -6  -2   67.09    9.40
  -5   6   2   56.29    7.70
  -5   6   2   42.30    9.80
  -5   6   2   41.20    9.40
   4  -6  -2   93.29   10.50
   4  -6  -2  113.19   11.90
  -4   6   2  143.79   13.80
  -4   6   2  112.59    9.60
   3  -6  -2  151.18    9.80
   3  -6  -2  144.29   12.00
   3  -6  -2  170.58   11.00
  -3   6   2  185.38   13.90
  -3   6   2  168.08    9.90
   2  -6  -2   56.59    8.10
   2  -6  -2   74.39    7.50
   2  -6  -2   71.19    6.20
  -2   6   2   70.69    5.80
  -2   6   2   71.99    9.90
   1  -6  -2   60.19    7.20
  -1   6   2   52.69    5.00
  -1   6   2   47.20    4.60
  -1   6   2   54.49    7.60
   0  -6  -2  224.98   10.90
   0  -6  -2  206.08   14.80
   0   6   2  217.48   12.20
   0   6   2  227.68   13.50
  -1  -6  -2  255.47   12.50
  -1  -6  -2  245.48   16.10
   1   6   2  270.07   13.80
   1   6   2  261.07   14.40
  -2  -6  -2   65.59   10.90
  -2  -6  -2   78.79    6.60
   2   6   2   70.29    8.30
   2   6   2   83.69    8.70
  -3  -6  -2    5.60    4.10
  -3  -6  -2   10.80    7.10
   3   6   2    6.90    4.70
   3   6   2   -3.00    5.00
   3   6   2   12.40    6.80
  -4  -6  -2  130.49    9.90
   4   6   2  113.19   12.20
   4   6   2  130.49   13.40
   4   6   2  113.49   11.10
   4  -7  -2    6.40    7.40
   4  -7  -2   -2.00    6.90
   4  -7  -2   -1.50    6.70
  -4   7   2    4.30    8.70
  -4   7   2    2.80    5.40
   3  -7  -2   41.30    7.40
   3  -7  -2   34.10    8.30
   3  -7  -2   19.00    5.60
  -3   7   2   31.50    5.40
  -3   7   2   35.60    8.50
   2  -7  -2   56.59    7.20
   2  -7  -2   53.59   10.30
  -2   7   2   62.89   10.00
  -2   7   2   46.50    6.40
   1  -7  -2  231.68   13.90
  -1   7   2  185.18   15.90
  -1   7   2  227.58   11.10
  -1   7   2  246.68   15.10
   0  -7  -2   43.30    5.70
   0   7   2   33.80    6.40
   0   7   2   46.50    7.70
   0   7   2   40.30    5.20
   0   7   2   39.90    6.80
  -1  -7  -2   88.49    7.40
  -1  -7  -2   60.59   13.30
   1   7   2   72.49    9.00
   1   7   2   58.69   10.20
   1   7   2   73.19    8.40
  -2  -7  -2   92.69    7.80
   2   7   2   66.49   10.10
   2   7   2   95.59   11.70
   2   7   2   85.79   11.00
   1   9  -3  138.89   12.00
   1   9  -3  143.99   13.70
   1   9  -3  161.88   11.30
   1   9  -3  149.39   11.20
   1   9  -3  159.18   12.30
  -1  -9   3  153.98   11.50
   0   9  -3  104.59    9.30
   0   9  -3  112.29   12.30
   0   9  -3   93.29    9.70
   0   9  -3  107.39    9.10
   0   9  -3  108.89   11.80
  -1   9  -3   -4.90    5.00
  -1   9  -3    3.20    3.60
  -1   9  -3   -6.50    7.60
  -1   9  -3   -1.80    6.50
  -1   9  -3    9.10    5.30
   1  -9   3   -2.40    6.00
   3   8  -3  463.85   23.60
   3   8  -3  498.05   22.20
   3   8  -3  490.65   20.10
   3   8  -3  453.15   24.70
   3   8  -3  486.95   21.20
  -3  -8   3  477.05   23.20
   2   8  -3   25.20    4.70
   2   8  -3   15.50    4.80
   2   8  -3   10.30    3.90
   2   8  -3   17.70    6.50
   2   8  -3   18.50    6.50
  -2  -8   3   15.40    4.70
   1   8  -3   15.30    4.20
   1   8  -3   18.60    5.50
   1   8  -3    9.50    4.20
   1   8  -3    3.30    4.60
   1   8  -3   15.30    4.70
  -1  -8   3   12.90    4.50
   0   8  -3  112.39    8.90
   0   8  -3  140.89    8.60
   0   8  -3  125.89    9.90
   0   8  -3  123.59    8.40
   0   8  -3  127.69   11.80
   0  -8   3  121.49   11.10
  -1   8  -3  174.88   14.80
  -1   8  -3  205.58   11.70
  -1   8  -3  201.88   12.00
  -1   8  -3  204.08   10.40
  -1   8  -3  190.28    9.80
   1  -8   3  181.08   13.90
  -2   8  -3  253.87   13.70
  -2   8  -3  260.17   17.30
  -2   8  -3  248.18   10.90
   2  -8   3  247.98   16.60
  -3   8  -3   27.30    8.40
  -3   8  -3   25.60    5.80
  -3   8  -3   24.50    6.30
   3  -8   3   29.70    5.70
   3  -8   3   26.70    7.80
  -4   8  -3    2.60    6.10
  -4   8  -3   -0.40    8.30
  -4   8  -3    3.10    5.90
   4  -8   3    2.60    7.20
   4  -8   3   -0.90    7.20
   4  -8   3   -0.70    5.70
   4   7  -3   34.70    7.90
   4   7  -3   40.00    6.50
   3   7  -3   51.79    7.20
   3   7  -3   58.99    7.90
   3   7  -3   66.89    4.80
   3   7  -3   75.59    9.00
  -3  -7   3   60.69    7.20
   2   7  -3  162.28   10.50
   2   7  -3  164.88    9.40
   2   7  -3  158.18   11.60
   2   7  -3  148.99    9.20
   2   7  -3  160.88    8.80
  -2  -7   3  156.08    9.90
   1   7  -3  391.16   16.90
   1   7  -3  399.06   18.10
   1   7  -3  356.76   18.20
   1   7  -3  397.86   17.30
   1   7  -3  394.66   17.60
  -1  -7   3  388.36   18.00
   0   7  -3  170.98    9.90
   0   7  -3  191.48    9.80
   0   7  -3  169.48    9.10
   0   7  -3  189.88   10.00
   0  -7   3  168.18   11.80
  -1   7  -3   11.40    2.90
  -1   7  -3   13.90    3.80
  -1   7  -3   13.10    3.60
  -1   7  -3   11.90    5.10
  -1   7  -3   13.90    2.90
   1  -7   3   11.40    4.90
  -2   7  -3  330.47   14.50
  -2   7  -3  352.16   16.60
  -2   7  -3  370.06   18.80
   2  -7   3  366.56   16.00
   2  -7   3  334.97   19.20
  -3   7  -3  291.77   17.40
  -3   7  -3  282.97   14.90
  -3   7  -3  280.97   14.00
   3  -7   3  298.47   14.10
   3  -7   3  284.07   18.00
  -4   7  -3  129.29   10.00
  -4   7  -3  162.28   11.40
   4  -7   3  161.68   12.90
   4  -7   3  137.69   13.40
   4  -7   3  169.58   10.10
  -5   7  -3   -0.40    6.40
  -5   7  -3    1.70    5.80
   5  -7   3   -1.40    6.70
   5  -7   3   -1.10    4.90
   5  -7   3   19.80    7.20
   5   6  -3   39.30    5.80
   5   6  -3   34.50    6.20
   5   6  -3   35.10    7.70
  -5  -6   3   36.20    6.80
  -5  -6   3   37.50    7.80
   4   6  -3  313.47   15.90
   4   6  -3  353.16   17.90
  -4  -6   3  321.47   16.90
   3   6  -3  601.94   25.60
   3   6  -3  616.24   27.50
  -3  -6   3  593.44   26.70
  -3  -6   3  641.74   26.00
   2   6  -3   24.90    4.20
   2   6  -3   21.10    3.50
   2   6  -3   18.40    2.80
   2   6  -3   21.10    4.90
  -2  -6   3   14.60    3.90
   1   6  -3   82.39    7.30
   1   6  -3  101.19    6.60
   1   6  -3   91.99    7.40
   1   6  -3  108.29    6.10
   1   6  -3  113.69    6.80
  -1  -6   3  101.79    7.20
  -1  -6   3  110.79    8.40
   0   6  -3  619.44   25.00
   0   6  -3  620.54   26.30
   0   6  -3  582.74   24.10
   0   6  -3  623.14   24.90
   0   6  -3  602.54   24.70
   0  -6   3  595.94   25.50
   0  -6   3  586.64   26.90
  -1   6  -3  690.43   27.70
  -1   6  -3  663.93   27.00
  -1   6  -3  705.33   28.30
  -1   6  -3  683.03   27.30
   1  -6   3  679.83   30.20
  -2   6  -3  343.97   15.90
  -2   6  -3  338.87   14.30
   2  -6   3  360.16   15.10
   2  -6   3  330.47   18.00
  -3   6  -3   44.50    6.30
  -3   6  -3   48.80    5.50
   3  -6   3   55.09    7.20
   3  -6   3   46.60    5.30
   3  -6   3   47.10    7.60
  -4   6  -3    2.70    3.80
  -4   6  -3    6.30    4.40
   4  -6   3    2.10    1.80
   4  -6   3    2.00    3.50
   4  -6   3    1.10    6.30
  -5   6  -3  249.48   14.60
  -5   6  -3  253.27   13.20
   5  -6   3  224.48   15.50
   5  -6   3  245.08   12.80
   5  -6   3  233.58   17.40
  -6   6  -3   74.49    9.90
   6  -6   3   86.99   12.80
   6  -6   3   89.99   10.00
   6   5  -3  192.28   12.90
   6   5  -3  179.08   12.80
   6   5  -3  190.38   15.50
  -6  -5   3  182.88   12.80
  -6  -5   3  184.08   16.10
   5   5  -3  169.78   12.70
   5   5  -3  167.18   10.70
   5   5  -3  166.18   10.50
  -5  -5   3  167.28   11.20
   4   5  -3   37.20    5.80
   4   5  -3   58.49    6.20
  -4  -5   3   46.70    6.80
  -4  -5   3   63.79    7.50
   3   5  -3  195.58   10.00
   3   5  -3  188.38   11.60
  -3  -5   3  201.78   10.20
  -3  -5   3  197.38   10.90
   2   5  -3  610.44   25.20
   2   5  -3  621.34   24.60
   2   5  -3  621.54   26.80
  -2  -5   3  638.84   26.40
  -2  -5   3  639.34   25.40
   1   5  -3  597.34   23.70
   1   5  -3  622.64   24.60
   1   5  -3  539.45   24.80
   1   5  -3  606.34   24.10
  -1  -5   3  590.54   24.70
  -1  -5   3  610.14   25.90
   0   5  -3  202.98    9.10
   0   5  -3  190.08    9.40
   0   5  -3  191.08    8.60
   0   5  -3  210.98    9.50
   0  -5   3  188.58    9.80
   0  -5   3  197.88   10.90
  -1   5  -3   23.90    3.30
  -1   5  -3   26.40    3.50
  -1   5  -3   24.20    3.20
   1  -5   3   28.20    4.90
   1  -5   3   25.60    3.50
  -2   5  -3 1047.60   39.90
  -2   5  -3  977.50   38.60
  -2   5  -3  953.00   38.70
   2  -5   3  990.30   38.90
   2  -5   3  991.90   41.90
   2  -5   3 1015.20   39.80
   2  -5   3  988.70   38.80
  -3   5  -3  641.34   25.70
  -3   5  -3  670.93   27.00
   3  -5   3  655.53   29.60
   3  -5   3  636.64   25.70
   3  -5   3  577.44   25.30
   3  -5   3  657.83   27.00
  -4   5  -3  139.39    9.30
  -4   5  -3  146.99    8.20
   4  -5   3  136.49    7.30
   4  -5   3  145.59    8.00
  -5   5  -3   27.30    4.90
  -5   5  -3   18.80    4.60
   5  -5   3   21.50    4.50
  -6   5  -3   84.09    9.60
  -6   5  -3   70.89   10.60
   6  -5   3   82.19   11.50
   6  -5   3   92.59    9.00
   6   4  -3    3.10    5.90
   6   4  -3   10.70    5.10
   6   4  -3   -4.40    4.40
  -6  -4   3    1.30    4.40
  -6  -4   3    4.20    6.80
   5   4  -3  100.79    8.00
   5   4  -3   99.89    8.00
   5   4  -3   83.69    9.50
  -5  -4   3  113.39    8.50
  -5  -4   3  102.79    9.40
   4   4  -3  848.22   34.10
   4   4  -3  811.82   32.80
  -4  -4   3  751.02   33.60
  -4  -4   3  819.62   33.00
   3   4  -3  290.17   12.80
   3   4  -3  287.27   14.10
  -3  -4   3  281.57   12.90
  -3  -4   3  277.67   13.70
   2   4  -3   26.60    3.90
   2   4  -3   35.40    3.20
   2   4  -3   32.70    2.40
  -2  -4   3   32.60    4.10
  -2  -4   3   35.80    3.70
   1   4  -3  417.26   19.70
   1   4  -3  490.85   18.70
  -1  -4   3  479.25   19.70
  -1  -4   3  480.25   18.80
  -1  -4   3  486.35   20.40
   0   4  -3 1609.54   62.19
   0   4  -3 1646.74   63.19
   0   4  -3 1671.03   62.59
   0   4  -3 1728.53   63.19
   0  -4   3 1677.13   63.49
   0  -4   3 1656.23   64.29
   0  -4   3 1486.55   63.29
  -1   4  -3 2132.49   80.69
  -1   4  -3 2070.29   80.99
  -1   4  -3 2094.19   81.59
   1  -4   3 2227.68   81.29
   1  -4   3 2086.79   80.69
   1  -4   3 2127.29   82.89
  -2   4  -3  111.39    5.20
  -2   4  -3  102.89    5.50
   2  -4   3  113.49    5.70
   2  -4   3  104.99    6.60
   2  -4   3   99.59    5.30
  -3   4  -3   47.70    5.10
  -3   4  -3   45.10    3.70
   3  -4   3   45.70    3.70
   3  -4   3   48.00    5.10
   3  -4   3   46.10    3.80
  -4   4  -3  103.59    7.30
  -4   4  -3   85.99    6.00
   4  -4   3   87.69    5.70
   4  -4   3   89.99    7.30
  -5   4  -3  567.34   24.40
  -5   4  -3  553.44   23.40
   5  -4   3  543.55   23.00
  -6   4  -3  132.49   10.80
  -6   4  -3  126.99   10.00
   6  -4   3  136.49   12.00
   7   3  -3  149.19   14.90
   7   3  -3  126.59   12.40
   7   3  -3  151.98   12.70
  -7  -3   3  134.99   15.70
  -7  -3   3  130.79   10.10
   6   3  -3  241.68   13.80
   6   3  -3  230.88   14.90
   6   3  -3  246.88   13.60
  -6  -3   3  237.98   12.90
  -6  -3   3  250.47   15.60
   5   3  -3  126.49    8.30
   5   3  -3  116.69    8.10
   5   3  -3  112.59    9.40
  -5  -3   3  112.29    9.10
  -5  -3   3  108.79    8.00
   4   3  -3   30.10    4.70
   4   3  -3   28.40    4.20
   4   3  -3   19.10    3.30
  -4  -3   3   27.60    4.50
  -4  -3   3   29.30    4.10
   3   3  -3  385.56   15.70
   3   3  -3  366.36   16.70
  -3  -3   3  378.86   15.70
  -3  -3   3  334.57   16.10
   2   3  -3 1907.61   72.99
   2   3  -3 1874.41   71.79
  -2  -3   3 1845.02   71.79
  -2  -3   3 1891.01   72.39
   1   3  -3  948.81   35.20
   1   3  -3  805.32   36.10
  -1  -3   3  940.81   35.20
  -1  -3   3  915.71   36.20
  -1  -3   3  980.80   36.50
  -1  -3   3  903.61   35.90
   0   3  -3  230.48    9.60
   0   3  -3  240.48   10.40
   0  -3   3  246.18   10.60
   0  -3   3  227.38   10.90
  -1   3  -3   83.89    4.70
  -1   3  -3   80.29    5.00
   1  -3   3   93.69    4.80
   1  -3   3   79.89    3.90
  -2   3  -3 1587.14   59.99
  -2   3  -3 1529.95   58.69
  -2   3  -3 1531.15   59.29
   2  -3   3 1512.15   58.79
   2  -3   3 1568.04   59.39
   2  -3   3 1549.45   59.89
  -3   3  -3  958.10   37.80
  -3   3  -3  924.21   36.80
   3  -3   3  962.50   37.90
   3  -3   3  951.60   37.20
  -4   3  -3   67.19    5.80
  -4   3  -3   54.49    4.80
   4  -3   3   60.39    4.80
   4  -3   3   61.69    5.30
   4  -3   3   53.09    5.50
  -5   3  -3   72.49    7.00
  -5   3  -3   79.09    6.30
   5  -3   3   70.09    6.10
   5  -3   3   72.29    6.70
   5  -3   3   70.59    7.70
  -6   3  -3  234.88   13.00
  -6   3  -3  233.18   13.30
   6  -3   3  228.58   12.50
   6  -3   3  237.18   13.30
   6  -3   3  238.58   14.20
  -7   3  -3  149.69   13.00
  -7   3  -3  157.48   13.40
   7  -3   3  188.18   14.20
   7   2  -3   44.40    7.10
   7   2  -3   61.79    8.80
   7   2  -3   77.39   10.40
  -7  -2   3   59.19    7.20
  -7  -2   3   48.50   10.20
   6   2  -3    1.00    4.70
   6   2  -3   -4.50    4.20
   6   2  -3   -9.40    4.00
  -6  -2   3   -3.00    2.10
  -6  -2   3    9.80    3.90
   5   2  -3  195.68   11.30
   5   2  -3  213.88   11.40
   5   2  -3  212.78   12.10
  -5  -2   3  219.78   11.30
  -5  -2   3  223.28   12.20
   4   2  -3 1132.09   44.20
   4   2  -3 1099.09   44.00
   4   2  -3 1049.49   44.50
  -4  -2   3 1129.99   44.20
  -4  -2   3 1148.59   44.20
   3   2  -3  152.88    7.40
   3   2  -3  134.39    8.20
  -3  -2   3  151.48    7.60
  -3  -2   3  137.19    7.70
   2   2  -3    3.70    1.50
   2   2  -3    3.50    2.20
   2   2  -3    3.10    0.80
   2   2  -3    2.60    2.00
  -2  -2   3    3.80    1.60
  -2  -2   3    3.20    2.00
  -2  -2   3    2.50    1.90
   1   2  -3 1244.88   46.10
   1   2  -3 1162.08   46.20
   1   2  -3 1217.18   46.60
   1   2  -3 1218.48   46.90
  -1  -2   3 1207.18   46.40
  -1  -2   3 1183.68   45.90
  -1  -2   3 1185.78   46.40
  -1  -2   3 1233.68   47.00
   0   2  -3 2358.66   90.29
   0  -2   3 2384.56   90.29
  -1   2  -3 2972.30  113.39
  -1   2  -3 3018.60  113.49
   1  -2   3 2969.60  113.39
  -2   2  -3    7.20    2.10
  -2   2  -3    8.60    1.40
   2  -2   3    6.60    2.00
   2  -2   3    8.30    1.50
   2  -2   3    5.90    1.80
  -3   2  -3  114.29    5.80
  -3   2  -3  114.89    6.40
   3  -2   3  108.09    5.70
   3  -2   3  109.49    6.20
   3  -2   3  114.39    6.50
  -4   2  -3  629.64   26.50
  -4   2  -3  652.03   26.10
   4  -2   3  650.63   26.40
   4  -2   3  627.54   26.10
   4  -2   3  669.93   26.80
  -5   2  -3  692.03   28.70
  -5   2  -3  693.13   29.10
   5  -2   3  712.83   28.80
   5  -2   3  714.33   29.00
   5  -2   3  686.53   29.30
  -6   2  -3  127.09    9.60
  -6   2  -3  128.49    9.30
   6  -2   3  137.79    9.40
   6  -2   3  141.99   10.10
   6  -2   3  132.69   10.70
  -7   2  -3   11.70    6.70
  -7   2  -3   18.90    6.40
   7  -2   3   13.10    7.10
   7  -2   3    2.90    5.90
   7  -2   3   16.80    7.10
   7   1  -3  122.39   11.80
   7   1  -3   98.59   11.60
   7   1  -3  109.99   11.90
  -7  -1   3  102.29   14.10
  -7  -1   3  108.59    8.50
   6   1  -3  238.08   14.30
   6   1  -3  271.97   14.40
  -6  -1   3  255.27   12.30
   5   1  -3   28.10    4.80
   5   1  -3   19.60    4.40
   5   1  -3   23.00    4.50
  -5  -1   3   22.20    3.10
  -5  -1   3   23.50    5.10
   4   1  -3   29.70    4.10
   4   1  -3   33.70    4.70
   4   1  -3   39.00    4.50
  -4  -1   3   33.30    3.60
  -4  -1   3   27.50    4.10
   3   1  -3  511.15   21.80
   3   1  -3  547.95   22.00
   3   1  -3  516.25   21.90
  -3  -1   3  543.65   21.20
  -3  -1   3  486.35   21.70
  -3  -1   3  561.04   21.60
   2   1  -3 2352.86   90.49
   2   1  -3 2327.37   89.79
  -2  -1   3 2174.58   89.99
  -2  -1   3 2448.85   89.89
  -2  -1   3 2446.66   90.59
  -2  -1   3 2436.56   89.89
   1   1  -3 2165.38   79.19
   1   1  -3 2035.60   78.79
  -1  -1   3 2087.39   78.59
  -1  -1   3 2039.20   78.69
  -1  -1   3 2022.80   78.89
  -1  -1   3 2082.69   79.09
   0   1  -3  159.88    6.40
   0   1  -3  156.78    7.30
   0   1  -3  163.88    7.50
   0  -1   3  156.68    7.50
   0  -1   3  158.88    7.30
  -1   1  -3  631.14   25.10
  -1   1  -3  624.34   24.80
  -1   1  -3  634.34   25.50
   1  -1   3  650.03   25.10
   1  -1   3  629.54   24.10
   1  -1   3  622.64   24.30
  -2   1  -3 1848.42   71.69
  -2   1  -3 1906.51   72.09
   2  -1   3 1892.91   72.39
   2  -1   3 1866.71   72.09
   2  -1   3 1903.81   71.79
  -3   1  -3  790.52   31.40
  -3   1  -3  785.82   31.20
   3  -1   3  793.72   31.20
   3  -1   3  806.52   31.50
   3  -1   3  782.92   31.70
  -4   1  -3   18.30    2.80
  -4   1  -3   21.70    3.30
   4  -1   3   21.40    3.20
   4  -1   3   18.00    3.00
  -5   1  -3   83.99    6.70
  -5   1  -3   89.69    7.00
   5  -1   3   89.29    6.60
   5  -1   3   90.49    7.10
  -6   1  -3  433.66   20.10
  -6   1  -3  455.25   20.60
   6  -1   3  437.36   20.10
   6  -1   3  446.06   20.60
  -7   1  -3  201.78   12.80
  -7   1  -3  184.98   14.10
  -7   1  -3  188.98   16.90
   7  -1   3  165.18   13.50
   7  -1   3  183.08   12.90
   7   0  -3    3.80    5.10
   7   0  -3    6.20    6.60
  -7   0   3    8.50    5.10
  -7   0   3    5.20    8.10
   6   0  -3    7.50    4.00
   6   0  -3    4.60    4.30
  -6   0   3    9.00    4.20
   5   0  -3  267.67   13.50
   5   0  -3  256.97   13.10
  -5   0   3  265.27   12.90
  -5   0   3  282.27   14.00
   4   0  -3  825.62   33.80
   4   0  -3  865.11   34.30
  -4   0   3  823.72   33.80
  -4   0   3  863.81   34.30
   3   0  -3  371.26   16.10
   3   0  -3  369.66   15.80
  -3   0   3  370.56   15.90
  -3   0   3  370.16   16.00
   2   0  -3  217.78    9.70
   2   0  -3  208.88    9.80
  -2   0   3  193.78    9.80
  -2   0   3  215.18    9.80
  -2   0   3  221.68    9.00
  -2   0   3  225.78    9.70
   1   0  -3 1281.87   50.19
   1   0  -3 1297.17   50.49
  -1   0   3 1315.67   50.19
  -1   0   3 1335.97   50.69
   0   0  -3 1612.24   62.59
   0   0  -3 1639.34   62.99
   0   0  -3 1616.64   62.09
   0   0   3 1633.54   62.99
   0   0   3 1664.23   62.09
   0   0   3 1641.24   62.59
  -1   0  -3 1007.80   38.80
  -1   0  -3 1024.80   39.80
   1   0   3 1029.00   39.50
   1   0   3 1008.20   39.80
   1   0   3  979.10   38.90
   1   0   3 1024.00   38.80
  -2   0  -3    4.00    1.60
  -2   0  -3    5.60    1.50
  -2   0  -3    3.50    2.10
   2   0   3    2.90    1.90
   2   0   3    2.50    1.60
   2   0   3    3.70    1.50
  -3   0  -3  354.96   15.00
  -3   0  -3  361.56   16.20
  -3   0  -3  365.36   15.40
   3   0   3  352.06   15.00
   3   0   3  368.06   15.40
  -4   0  -3 1273.87   49.70
  -4   0  -3 1298.47   50.99
  -4   0  -3 1279.57   50.09
   4   0   3 1278.47   49.80
   4   0   3 1241.58   49.99
  -5   0  -3  635.74   26.10
  -5   0  -3  633.64   26.70
  -5   0  -3  588.94   27.40
   5   0   3  663.73   26.40
   5   0   3  635.64   26.60
  -6   0  -3   63.19    8.60
  -6   0  -3   48.90    7.30
  -6   0  -3   49.50    6.80
   6   0   3   50.59    7.40
   6   0   3   56.49    7.00
  -7   0  -3   25.40    8.30
  -7   0  -3   24.40    6.10
  -7   0  -3   40.80    8.20
   7   0   3   29.90    6.60
   7   0   3   13.30    6.30
   7  -1  -3   44.10    5.90
   7  -1  -3   36.30    7.90
  -7   1   3   46.30    7.30
  -7   1   3   30.20    9.10
   6  -1  -3  250.27   12.60
  -6   1   3  243.48   14.20
   5  -1  -3   -3.40    3.70
   5  -1  -3   -2.80    2.30
  -5   1   3    3.50    3.60
  -5   1   3    1.60    3.80
   4  -1  -3  202.28   10.80
   4  -1  -3  207.48    9.90
  -4   1   3  205.48   10.90
  -4   1   3  223.78   10.90
   3  -1  -3  512.05   22.80
   3  -1  -3  577.64   23.60
   3  -1  -3  610.24   24.10
   3  -1  -3  563.74   23.30
  -3   1   3  538.65   23.60
  -3   1   3  603.14   22.90
  -3   1   3  584.94   23.90
   2  -1  -3 1413.16   53.89
   2  -1  -3 1403.86   53.39
   2  -1  -3 1409.26   53.49
  -2   1   3 1359.76   53.39
  -2   1   3 1366.26   54.49
   1  -1  -3 1841.42   72.79
   1  -1  -3 1921.31   73.69
   1  -1  -3 1843.32   72.89
  -1   1   3 1909.61   72.89
  -1   1   3 1950.20   72.89
  -1   1   3 1997.60   73.89
   0  -1  -3   28.70    2.60
   0  -1  -3   28.40    3.30
   0   1   3   24.80    2.90
   0   1   3   32.10    2.70
   0   1   3   25.90    3.40
  -1  -1  -3  920.41   35.20
  -1  -1  -3  946.01   36.70
   1   1   3  885.71   36.00
   1   1   3  933.81   36.70
   1   1   3  922.31   36.30
   1   1   3  928.51   35.80
  -2  -1  -3 2107.69   81.89
  -2  -1  -3 2101.19   80.39
   2   1   3 2163.58   82.09
   2   1   3 2111.19   81.29
  -3  -1  -3  444.86   18.60
  -3  -1  -3  429.36   17.60
  -3  -1  -3  439.36   19.20
   3   1   3  442.46   18.50
   3   1   3  434.46   17.70
  -4  -1  -3    1.40    3.00
  -4  -1  -3    0.00    2.00
  -4  -1  -3    3.50    3.10
   4   1   3    1.60    2.70
   4   1   3    4.40    2.30
  -5  -1  -3  123.89    7.40
  -5  -1  -3  127.09    9.40
  -5  -1  -3  121.09    9.20
   5   1   3  111.49    7.60
   5   1   3  118.69    8.50
  -6  -1  -3  354.86   18.70
  -6  -1  -3  324.97   16.20
  -6  -1  -3  343.57   18.10
   6   1   3  335.37   17.20
   6   1   3  355.96   16.40
   7  -2  -3    4.90    7.10
   7  -2  -3   -3.60    3.80
  -7   2   3    3.20    6.70
  -7   2   3    0.20    7.30
   6  -2  -3   58.39    5.90
   6  -2  -3   49.40    8.00
  -6   2   3   75.19   10.40
  -6   2   3   69.79    9.80
   5  -2  -3  181.28   11.90
   5  -2  -3  211.98   10.10
  -5   2   3  232.28   13.00
   4  -2  -3  442.46   18.50
   4  -2  -3  375.66   18.00
   4  -2  -3  404.56   16.70
  -4   2   3  366.86   18.00
  -4   2   3  409.46   18.70
   3  -2  -3  258.17   13.90
   3  -2  -3  333.47   15.10
   3  -2  -3  303.47   13.90
   3  -2  -3  313.37   12.90
  -3   2   3  317.47   12.90
  -3   2   3  324.67   14.90
   2  -2  -3  217.08    9.80
   2  -2  -3  217.18    9.30
   2  -2  -3  220.68   10.30
   2  -2  -3  218.08   10.00
   2  -2  -3  192.48   11.10
  -2   2   3  218.28    9.20
  -2   2   3  210.68   11.20
   1  -2  -3  877.51   32.70
   1  -2  -3  834.72   33.10
   1  -2  -3  842.02   34.20
  -1   2   3  825.22   32.70
  -1   2   3  830.22   34.20
  -1   2   3  829.22   33.10
   0  -2  -3  882.21   35.20
   0  -2  -3  927.21   34.30
   0  -2  -3  906.41   34.40
   0  -2  -3  905.21   36.10
   0   2   3  867.61   35.10
   0   2   3  923.31   36.20
   0   2   3  856.41   35.10
  -1  -2  -3  203.48   10.10
   1   2   3  204.48   10.10
   1   2   3  196.58    9.60
   1   2   3  192.98    9.50
   1   2   3  209.98    9.40
  -2  -2  -3   10.40    2.80
   2   2   3    9.80    2.70
   2   2   3   11.50    2.60
   2   2   3   11.90    2.40
  -3  -2  -3  537.95   20.20
  -3  -2  -3  505.35   22.10
   3   2   3  494.25   20.00
   3   2   3  500.25   21.60
  -4  -2  -3  921.21   38.10
  -4  -2  -3  927.81   37.90
  -4  -2  -3  942.71   36.40
   4   2   3  925.11   37.70
   4   2   3  925.51   36.30
  -5  -2  -3  471.85   21.90
  -5  -2  -3  475.75   21.70
   5   2   3  461.75   19.70
   5   2   3  470.15   21.40
  -6  -2  -3    3.50    5.50
  -6  -2  -3   14.30    7.10
   6   2   3   11.00    4.20
   6   2   3    7.10    5.50
   7  -3  -3   29.30    7.40
   7  -3  -3   26.80    4.30
   7  -3  -3   18.30    8.70
  -7   3   3   18.20    8.60
  -7   3   3   31.40    8.70
   6  -3  -3   73.39    9.80
   6  -3  -3   96.99    6.50
   6  -3  -3  102.19    9.30
  -6   3   3  111.89   12.40
  -6   3   3  124.99   12.00
   5  -3  -3    9.10    2.40
   5  -3  -3   11.10    5.30
   5  -3  -3   14.30    5.00
  -5   3   3   14.20    5.30
  -5   3   3    9.00    5.30
   4  -3  -3  133.49    8.90
   4  -3  -3  145.79    7.00
   4  -3  -3  153.88    9.90
   4  -3  -3  152.98    9.80
  -4   3   3  143.59   10.40
  -4   3   3  156.28   10.70
   3  -3  -3  324.37   13.40
   3  -3  -3  348.37   15.30
   3  -3  -3  342.77   14.90
   3  -3  -3  285.47   15.40
  -3   3   3  349.27   16.60
  -3   3   3  333.67   13.50
   2  -3  -3  697.23   27.10
   2  -3  -3  667.83   28.30
   2  -3  -3  682.83   29.20
   2  -3  -3  657.33   27.50
  -2   3   3  699.53   29.10
  -2   3   3  657.53   26.50
   1  -3  -3  388.26   18.40
   1  -3  -3  394.86   15.70
   1  -3  -3  396.06   16.80
  -1   3   3  388.16   16.10
  -1   3   3  388.26   18.10
  -1   3   3  391.26   16.80
   0  -3  -3  299.77   12.10
   0  -3  -3  277.97   14.20
   0  -3  -3  302.57   13.20
   0   3   3  300.47   14.20
   0   3   3  285.27   12.80
   0   3   3  296.37   13.20
  -1  -3  -3  506.85   20.00
  -1  -3  -3  494.85   21.50
   1   3   3  490.95   21.30
   1   3   3  492.55   20.60
   1   3   3  466.45   20.60
  -2  -3  -3 1531.75   59.49
   2   3   3 1487.95   58.59
   2   3   3 1512.45   59.39
   2   3   3 1474.15   58.79
  -3  -3  -3  280.07   14.10
   3   3   3  296.87   14.30
   3   3   3  279.47   13.50
   3   3   3  275.67   13.70
  -4  -3  -3    2.90    3.90
   4   3   3   -3.10    3.60
  -5  -3  -3  209.38   14.10
  -5  -3  -3  203.38   13.10
   5   3   3  210.68   13.20
   5   3   3  215.58   10.00
  -6  -3  -3  160.18   14.90
   6   3   3  143.59   13.00
   6   3   3  144.49    9.40
   6  -4  -3  119.09   10.60
   6  -4  -3  123.49   12.70
  -6   4   3  123.09   14.60
  -6   4   3   96.59   13.70
   5  -4  -3  168.48   11.10
   5  -4  -3  147.99   11.80
  -5   4   3  127.19   12.80
  -5   4   3  144.09   13.10
   4  -4  -3  224.78   12.00
   4  -4  -3  219.68   12.40
   4  -4  -3  208.08   12.70
  -4   4   3  206.38   14.00
   3  -4  -3   35.50    4.10
   3  -4  -3   32.80    4.90
   3  -4  -3   33.70    5.90
  -3   4   3   29.20    5.40
   2  -4  -3   97.69    7.00
   2  -4  -3   83.49    5.70
   2  -4  -3  105.29    8.00
   2  -4  -3   91.39    8.90
  -2   4   3   93.09    5.00
  -2   4   3  100.89    9.20
   1  -4  -3  431.86   17.20
   1  -4  -3  444.36   20.90
   1  -4  -3  446.56   18.80
  -1   4   3  445.56   17.80
  -1   4   3  406.96   18.70
  -1   4   3  393.96   20.10
   0  -4  -3  441.96   19.00
   0  -4  -3  429.36   20.70
   0  -4  -3  440.36   17.80
   0   4   3  432.56   19.10
   0   4   3  434.66   18.50
   0   4   3  437.36   20.20
  -1  -4  -3  101.89    6.20
  -1  -4  -3  120.59    8.90
   1   4   3  107.29    8.00
   1   4   3  113.59    7.50
   1   4   3  106.19    7.60
  -2  -4  -3   64.39    7.30
  -2  -4  -3   57.69    5.40
   2   4   3   61.39    6.60
   2   4   3   52.69    6.50
   2   4   3   58.49    6.80
  -3  -4  -3  324.77   17.10
  -3  -4  -3  340.57   16.40
   3   4   3  361.16   17.20
   3   4   3  358.96   16.80
  -4  -4  -3  397.56   19.80
   4   4   3  409.26   19.40
   4   4   3  386.26   19.30
  -5  -4  -3  175.88   14.00
   5   4   3  196.78   14.30
   5   4   3  199.58   13.90
   5  -5  -3   14.90    6.50
   5  -5  -3    6.40    5.60
   5  -5  -3   -6.30    6.00
  -5   5   3   15.10    8.50
  -5   5   3    0.20    6.90
   4  -5  -3   50.09    7.10
   4  -5  -3   51.39    8.20
   4  -5  -3   36.40    5.50
  -4   5   3   29.70    5.60
  -4   5   3   34.00    7.30
   3  -5  -3   90.09    7.00
   3  -5  -3   75.59    8.30
   3  -5  -3   99.99    8.50
  -3   5   3   97.19   10.80
   2  -5  -3  402.26   18.00
   2  -5  -3  384.66   16.40
   2  -5  -3  361.46   19.10
  -2   5   3  407.86   20.20
  -2   5   3  366.36   15.60
   1  -5  -3   11.40    4.90
   1  -5  -3    5.60    3.90
   1  -5  -3    9.60    2.30
  -1   5   3    5.10    4.20
  -1   5   3    7.00    2.70
   0  -5  -3  234.38   15.00
   0  -5  -3  222.58   10.60
   0   5   3  218.48   11.20
   0   5   3  240.68   13.70
  -1  -5  -3  263.87   12.00
  -1  -5  -3  260.27   15.80
   1   5   3  254.77   14.10
   1   5   3  245.28   13.30
  -2  -5  -3  554.54   24.40
  -2  -5  -3  622.14   27.40
   2   5   3  565.94   25.50
   2   5   3  576.74   25.90
  -3  -5  -3  142.59    9.10
  -3  -5  -3  162.28   12.40
   3   5   3  122.69   10.50
   3   5   3  144.59   11.60
   3   5   3  107.39   10.30
  -4  -5  -3   30.90    6.00
  -4  -5  -3   25.00    7.40
   4   5   3   24.10    6.70
   4   5   3   26.40    7.90
   4  -6  -3   72.19   10.60
   4  -6  -3   63.89    8.40
  -4   6   3   62.29   10.20
   3  -6  -3    7.00    5.50
   3  -6  -3    8.00    4.10
   3  -6  -3   -0.90    5.90
  -3   6   3    3.10    6.80
   2  -6  -3   42.00    4.80
   2  -6  -3   61.29    7.40
  -2   6   3   49.10    4.10
  -2   6   3   39.70    7.70
   1  -6  -3  237.48   13.20
   1  -6  -3  220.88   17.00
  -1   6   3  196.88   14.90
  -1   6   3  237.68   11.30
   0  -6  -3  126.49    7.70
   0   6   3  133.69    9.90
   0   6   3  113.39   11.30
   0   6   3  120.79    8.70
  -1  -6  -3   46.00    5.80
   1   6   3   45.50    6.30
   1   6   3   49.10    7.00
   1   6   3   45.20    7.20
   1   6   3   55.99    7.90
  -2  -6  -3   55.99    6.40
   2   6   3   66.39    9.40
   2   6   3   46.30    7.90
   2   6   3   61.19    9.20
  -3  -6  -3  169.38   10.20
   3   6   3  157.78   13.00
   3   6   3  164.78   13.00
   3   6   3  165.08   13.50
   3  -7  -3   20.30    7.80
   3  -7  -3    2.00    5.20
   3  -7  -3   14.20    7.20
  -3   7   3   29.40    9.40
   2  -7  -3  129.69   12.00
  -2   7   3  132.09   16.30
  -1   7   3   19.30    4.40
  -1   7   3    6.20    7.00
  -1   7   3   13.90    7.40
   0  -7  -3   58.79   11.20
   0  -7  -3   72.89    7.40
   0   7   3   58.89    9.10
   0   7   3   83.99   11.80
   0   7   3   54.19    8.00
   0   7   3   60.59    8.40
  -1  -7  -3  175.18   10.30
  -1  -7  -3  131.09   17.30
   1   7   3  186.98   16.20
   1   7   3  156.28   13.30
   1   7   3  156.58   12.50
   1   7   3  127.19   13.60
   1   9  -4   57.49    9.40
   1   9  -4   43.00    6.20
   1   9  -4   45.80    8.20
   1   9  -4   39.30    6.50
   1   9  -4   72.49   10.20
  -1  -9   4   46.70    7.80
   0   9  -4   -0.40    6.40
   0   9  -4   15.90    6.60
   0   9  -4    9.90    4.60
   0   9  -4    1.60    5.50
   0   9  -4   13.40    4.70
   0  -9   4    5.90    6.00
  -1   9  -4  176.68   10.50
  -1   9  -4  191.48   12.90
  -1   9  -4  134.39   16.60
  -1   9  -4  188.18   12.70
  -1   9  -4  181.58   10.40
   1  -9   4  179.78   14.20
   3   8  -4    8.00    5.00
   3   8  -4   -2.10    6.70
   3   8  -4    8.40    5.00
   3   8  -4   -5.10    6.50
  -3  -8   4    2.10    5.60
   2   8  -4   80.79    6.90
   2   8  -4   68.69   10.50
   2   8  -4   72.29    8.20
   2   8  -4   63.49    7.30
   2   8  -4   73.39    7.90
  -2  -8   4   61.49    7.70
   1   8  -4  275.87   15.20
   1   8  -4  273.77   14.40
   1   8  -4  270.37   14.20
   1   8  -4  277.77   14.70
   1   8  -4  257.67   13.00
  -1  -8   4  270.57   14.40
   0   8  -4  332.27   16.10
   0   8  -4  335.87   15.70
   0   8  -4  332.47   14.70
   0   8  -4  342.37   16.40
   0  -8   4  314.07   18.60
  -1   8  -4   59.09    8.10
  -1   8  -4   70.59    7.70
  -1   8  -4   62.69   10.50
  -1   8  -4   75.79    6.40
  -1   8  -4   69.49    5.90
   1  -8   4   64.69    9.40
  -2   8  -4   37.20    6.10
  -2   8  -4   37.00    5.20
  -2   8  -4   25.40    7.00
  -2   8  -4   41.90    5.20
   2  -8   4   36.80    8.00
  -3   8  -4    1.90    4.80
  -3   8  -4    9.30    7.20
  -3   8  -4   13.80    5.70
   3  -8   4   16.90    7.50
   4  -8   4  180.08   15.70
   4   7  -4   88.89    9.00
   4   7  -4   96.39   12.50
   3   7  -4  341.67   17.80
   3   7  -4  299.87   16.00
   3   7  -4  293.17   14.90
  -3  -7   4  318.87   16.40
   2   7  -4  225.08   13.60
   2   7  -4  234.08   12.40
   2   7  -4  217.48   11.10
   2   7  -4  223.08   12.00
   2   7  -4  232.58   10.90
  -2  -7   4  227.88   12.30
   1   7  -4   47.40    5.90
   1   7  -4   46.70    5.70
   1   7  -4   42.80    5.00
   1   7  -4   41.10    7.00
   1   7  -4   45.30    4.90
  -1  -7   4   52.79    6.00
  -1  -7   4   44.00    7.10
   0   7  -4   40.00    5.60
   0   7  -4   40.20    5.90
   0   7  -4   48.80    4.50
   0   7  -4   41.30    5.00
   0   7  -4   43.60    5.40
   0  -7   4   38.20    6.60
  -1   7  -4  511.45   21.30
  -1   7  -4  525.25   22.20
  -1   7  -4  486.35   20.20
  -1   7  -4  492.75   21.00
   1  -7   4  496.15   24.10
  -2   7  -4  307.37   14.50
  -2   7  -4  324.67   16.00
  -2   7  -4  336.57   14.30
   2  -7   4  339.37   18.70
  -3   7  -4   42.60    4.90
  -3   7  -4   46.70    6.30
   3  -7   4   57.59    6.00
   3  -7   4   45.10    8.50
  -4   7  -4   43.50    6.60
  -4   7  -4   43.80    5.20
   4  -7   4   42.50    9.60
   4  -7   4   39.50    7.20
   4  -7   4   42.10    5.30
  -5   7  -4   85.49   11.70
  -5   7  -4  106.49    9.30
   5  -7   4   67.99   12.40
   5  -7   4   85.19    8.70
   5  -7   4   85.49   15.40
   5   6  -4  292.77   15.40
   5   6  -4  300.07   16.00
   5   6  -4  275.37   18.20
  -5  -6   4  290.77   16.20
  -5  -6   4  285.87   17.10
   4   6  -4   87.09    7.30
   4   6  -4   80.89   10.20
  -4  -6   4   71.99    8.70
  -4  -6   4   72.99    7.90
   3   6  -4   -3.30    2.90
   3   6  -4   -4.40    4.40
  -3  -6   4    2.20    3.70
  -3  -6   4   -3.90    3.60
   2   6  -4  273.27   12.40
   2   6  -4  284.67   14.70
   2   6  -4  268.47   13.00
   2   6  -4  267.07   12.10
  -2  -6   4  283.57   13.90
   1   6  -4  731.13   29.80
   1   6  -4  725.93   30.10
   1   6  -4  736.03   29.50
   1   6  -4  737.03   29.10
   1   6  -4  695.53   28.40
  -1  -6   4  713.33   31.10
  -1  -6   4  692.63   29.90
   0   6  -4  855.71   33.90
   0   6  -4  869.01   33.40
   0   6  -4  820.92   32.60
   0   6  -4  831.02   34.00
   0  -6   4  820.32   35.70
  -1   6  -4    2.00    1.70
  -1   6  -4    4.10    3.00
  -1   6  -4    1.40    2.40
  -1   6  -4    2.20    2.20
   1  -6   4    5.40    3.50
   1  -6   4    3.90    2.60
  -2   6  -4   58.79    5.00
  -2   6  -4   54.59    6.50
  -2   6  -4   60.69    4.50
   2  -6   4   58.79    4.90
   2  -6   4   64.69    7.40
   2  -6   4   67.99    5.70
  -3   6  -4  178.58    8.60
  -3   6  -4  183.38   10.80
   3  -6   4  179.98   13.00
   3  -6   4  175.08    9.20
   3  -6   4  169.08    8.90
  -4   6  -4  463.85   21.40
  -4   6  -4  450.15   19.10
   4  -6   4  446.66   21.90
   4  -6   4  453.35   24.90
   4  -6   4  451.25   19.20
  -5   6  -4   99.59   10.70
  -5   6  -4   94.89    8.10
   5  -6   4  103.09    7.90
   5  -6   4  104.69   12.40
   6   5  -4   18.10    6.10
   6   5  -4    4.60    5.40
   6   5  -4   12.70    7.60
  -6  -5   4   24.20    6.10
  -6  -5   4   18.30    8.40
   5   5  -4    0.90    3.90
   5   5  -4   10.40    5.20
   5   5  -4   -3.10    4.90
  -5  -5   4    1.40    4.40
   4   5  -4  206.78   13.30
   4   5  -4  207.38   11.20
  -4  -5   4  214.98   11.50
   3   5  -4  766.22   30.40
   3   5  -4  692.23   31.90
  -3  -5   4  781.02   30.60
  -3  -5   4  766.82   31.80
   2   5  -4  401.46   17.70
   2   5  -4  471.15   20.00
   2   5  -4  436.86   18.00
  -2  -5   4  441.36   19.40
  -2  -5   4  437.86   18.10
   1   5  -4   39.20    3.80
   1   5  -4   36.30    3.10
   1   5  -4   34.00    4.80
  -1  -5   4   33.90    5.00
  -1  -5   4   47.00    4.70
   0   5  -4  208.28    9.10
   0   5  -4  214.58   10.00
   0   5  -4  212.58   10.10
   0   5  -4  203.18    8.50
   0  -5   4  190.08   10.40
   0  -5   4  197.78   11.10
  -1   5  -4 1004.00   38.90
  -1   5  -4  959.20   37.60
  -1   5  -4  992.40   38.30
   1  -5   4  946.81   38.70
   1  -5   4  957.60   40.30
  -2   5  -4  596.54   24.80
  -2   5  -4  578.44   23.70
   2  -5   4  605.64   24.00
   2  -5   4  562.44   23.10
   2  -5   4  582.54   26.60
  -3   5  -4   13.10    2.30
  -3   5  -4    9.50    3.20
   3  -5   4   10.00    2.30
   3  -5   4   14.50    2.80
   3  -5   4    9.90    3.70
  -4   5  -4   94.09    6.00
  -4   5  -4   85.49    8.00
   4  -5   4  101.99    6.70
   4  -5   4   95.99    6.10
  -5   5  -4  323.87   15.10
  -5   5  -4  342.37   17.20
   5  -5   4  352.76   19.80
   5  -5   4  321.57   15.10
  -6   5  -4  155.68   12.60
  -6   5  -4  139.79   10.60
   6  -5   4  134.19   13.50
   6  -5   4  156.08   10.40
   6   4  -4  114.59   10.50
   6   4  -4  103.59   10.50
   6   4  -4  116.59   12.90
  -6  -4   4  127.69    9.40
  -6  -4   4  131.69   12.70
   5   4  -4  402.76   18.70
   5   4  -4  361.66   20.00
   5   4  -4  398.46   18.30
  -5  -4   4  399.76   19.00
  -5  -4   4  414.46   19.00
   4   4  -4   88.09    6.70
   4   4  -4   81.79    8.50
  -4  -4   4   90.49    7.60
  -4  -4   4   92.69    7.10
   3   4  -4   30.30    4.60
   3   4  -4   30.20    3.90
  -3  -4   4   30.10    4.30
  -3  -4   4   33.10    4.90
   2   4  -4  651.63   25.60
   2   4  -4  656.33   26.20
   2   4  -4  692.03   27.80
  -2  -4   4  639.34   26.20
  -2  -4   4  671.53   27.30
   1   4  -4 1165.58   45.00
   1   4  -4 1140.59   43.40
  -1  -4   4 1121.99   45.00
  -1  -4   4 1118.89   43.40
  -1  -4   4 1198.98   45.20
  -1  -4   4 1058.09   44.50
   0   4  -4 1009.50   39.30
   0   4  -4 1008.80   40.30
   0   4  -4 1006.00   40.40
   0  -4   4 1061.99   40.70
   0  -4   4 1033.30   41.20
  -1   4  -4   26.70    3.40
  -1   4  -4   32.10    3.90
   1  -4   4   24.80    4.70
   1  -4   4   26.40    3.50
  -2   4  -4  229.28   10.60
  -2   4  -4  238.08   11.30
   2  -4   4  229.08    9.60
   2  -4   4  231.28   10.60
  -3   4  -4  910.91   34.60
   3  -4   4  817.72   36.10
   3  -4   4  917.81   34.70
   3  -4   4  924.61   35.50
  -4   4  -4  635.44   26.30
  -4   4  -4  669.83   27.90
   4  -4   4  681.73   28.20
   4  -4   4  645.94   26.80
  -5   4  -4   71.59    6.70
  -5   4  -4   93.39    8.40
   5  -4   4   84.49    9.30
   5  -4   4   89.89    7.10
  -6   4  -4   29.50    5.70
  -6   4  -4   16.50    5.20
   6  -4   4   30.60    7.10
   6  -4   4   20.70    5.10
   7   3  -4  113.39   12.30
   7   3  -4  113.79   12.50
   7   3  -4  109.59   14.90
  -7  -3   4  139.89   10.00
  -7  -3   4  138.89   15.60
   6   3  -4    0.00    5.30
   6   3  -4    0.40    4.50
   6   3  -4   -3.80    5.00
  -6  -3   4    1.30    4.20
  -6  -3   4    0.00    6.50
   5   3  -4   62.69    7.40
   5   3  -4   58.89    6.90
   5   3  -4   56.79    7.00
  -5  -3   4   67.89    8.20
  -5  -3   4   73.39    6.90
   4   3  -4  355.66   17.50
   4   3  -4  375.06   16.50
  -4  -3   4  365.36   16.90
  -4  -3   4  381.26   16.70
   3   3  -4  981.70   38.70
   3   3  -4 1038.80   39.90
  -3  -3   4  993.20   38.70
  -3  -3   4  915.91   39.20
   2   3  -4  996.40   39.00
   2   3  -4 1053.59   40.80
   2   3  -4 1003.20   39.50
  -2  -3   4 1002.40   39.40
  -2  -3   4 1051.29   40.80
  -2  -3   4 1007.80   40.20
   1   3  -4   -1.20    1.30
   1   3  -4    0.30    1.20
   1   3  -4   -2.70    1.60
  -1  -3   4   -1.80    1.80
  -1  -3   4   -0.20    1.00
  -1  -3   4    1.20    1.80
  -1  -3   4    0.50    2.10
   0   3  -4  811.92   32.50
   0   3  -4  830.22   31.30
   0  -3   4  822.82   32.50
   0  -3   4  814.52   32.90
  -1   3  -4 1772.42   69.59
  -1   3  -4 1823.92   69.49
   1  -3   4 1824.22   69.49
  -2   3  -4  549.25   22.40
  -2   3  -4  533.85   21.20
  -2   3  -4  559.14   22.80
   2  -3   4  554.04   22.40
   2  -3   4  555.94   21.20
  -3   3  -4    1.60    2.00
  -3   3  -4    1.30    1.70
   3  -3   4    2.70    2.10
   3  -3   4    1.10    1.90
   3  -3   4    3.10    2.60
  -4   3  -4  137.39    7.30
  -4   3  -4  143.89    8.70
   4  -3   4  138.59    7.60
   4  -3   4  131.59    8.60
   4  -3   4  133.09    8.10
  -5   3  -4  582.54   24.50
  -5   3  -4  571.14   25.40
   5  -3   4  590.54   25.90
   5  -3   4  613.14   25.10
   5  -3   4  581.24   24.80
  -6   3  -4  186.08   12.20
  -6   3  -4  200.48   11.60
   6  -3   4  183.78   11.90
   6  -3   4  200.08   13.30
   6  -3   4  207.08   12.30
   7   2  -4   20.20    7.20
   7   2  -4   23.00    7.80
   7   2  -4   24.70    6.20
  -7  -2   4   20.00    5.10
  -7  -2   4   14.60    9.50
   6   2  -4  164.08   11.50
   6   2  -4  154.58   11.50
   6   2  -4  162.08   12.20
  -6  -2   4  155.98   14.70
  -6  -2   4  172.68    9.90
   5   2  -4  339.07   17.50
   5   2  -4  383.46   17.20
   5   2  -4  360.56   17.20
  -5  -2   4  372.56   16.70
  -5  -2   4  357.96   17.60
  -5  -2   4  364.16   14.90
   4   2  -4  189.68   10.40
   4   2  -4  203.88   10.80
   4   2  -4  190.38   10.10
  -4  -2   4  181.38    8.40
  -4  -2   4  201.38   10.10
  -4  -2   4  198.38   10.50
   3   2  -4  199.98    8.50
   3   2  -4  185.68    9.40
   3   2  -4  215.08   10.20
   3   2  -4  191.68    9.50
  -3  -2   4  203.68    8.50
  -3  -2   4  161.68    9.40
  -3  -2   4  208.68    9.60
   2   2  -4  935.41   36.70
   2   2  -4  966.20   36.60
   2   2  -4  912.91   37.70
  -2  -2   4  950.30   36.70
  -2  -2   4  904.21   37.70
  -2  -2   4  967.10   36.90
  -2  -2   4  984.10   37.10
   1   2  -4 1073.79   40.90
   1   2  -4 1016.50   40.30
  -1  -2   4 1075.09   40.00
  -1  -2   4 1030.70   40.20
  -1  -2   4 1017.30   40.70
  -1  -2   4 1006.70   39.80
   0   2  -4  332.57   14.10
   0   2  -4  327.37   13.90
   0  -2   4  317.57   13.90
  -1   2  -4   18.60    3.00
  -1   2  -4   20.60    3.00
   1  -2   4   21.10    3.20
   1  -2   4   21.30    1.70
  -2   2  -4  712.93   28.40
  -2   2  -4  690.73   27.30
   2  -2   4  689.23   27.40
   2  -2   4  720.63   28.40
   2  -2   4  721.13   28.40
  -3   2  -4 1733.23   66.49
  -3   2  -4 1693.13   65.69
   3  -2   4 1719.43   66.49
   3  -2   4 1736.93   66.59
   3  -2   4 1695.63   65.69
  -4   2  -4  812.12   32.70
  -4   2  -4  806.42   32.10
   4  -2   4  825.12   32.90
   4  -2   4  808.32   32.80
   4  -2   4  771.42   32.00
  -5   2  -4   20.50    3.80
  -5   2  -4   14.80    3.70
   5  -2   4   18.00    4.10
   5  -2   4   10.90    3.60
   5  -2   4   10.10    3.40
  -6   2  -4   80.69    8.60
  -6   2  -4   68.59    8.00
   6  -2   4   84.39    7.90
   6  -2   4   62.79    8.90
   7   1  -4  119.99   12.10
   7   1  -4  120.69   11.60
  -7  -1   4  106.79   14.90
  -7  -1   4  121.89    8.80
  -7  -1   4  104.19    8.40
   6   1  -4    3.60    4.20
   6   1  -4    3.40    5.00
  -6  -1   4    5.80   11.40
  -6  -1   4   11.80    4.30
  -6  -1   4    4.40    3.20
   5   1  -4  168.48   10.20
   5   1  -4  164.68   10.00
  -5  -1   4  170.78   10.90
  -5  -1   4  167.78    8.80
  -5  -1   4  164.08    9.10
   4   1  -4  428.06   19.00
   4   1  -4  426.16   19.10
  -4  -1   4  440.76   19.20
  -4  -1   4  438.96   18.50
  -4  -1   4  445.26   18.40
   3   1  -4  779.62   30.70
   3   1  -4  832.42   31.50
  -3  -1   4  835.72   31.20
  -3  -1   4  728.43   30.50
  -3  -1   4  808.22   31.30
  -3  -1   4  655.03   30.50
   2   1  -4  905.21   38.50
   2   1  -4  967.10   38.10
  -2  -1   4  981.70   38.50
  -2  -1   4 1010.20   38.20
  -2  -1   4  981.60   38.20
  -2  -1   4  997.60   37.70
   1   1  -4  318.57   13.60
   1   1  -4  323.37   13.70
  -1  -1   4  315.97   13.60
  -1  -1   4  304.27   13.50
   0   1  -4 1086.09   42.00
   0   1  -4 1045.60   41.70
   0   1  -4 1058.79   40.60
   0  -1   4 1064.79   42.00
   0  -1   4 1084.99   41.70
  -1   1  -4 2944.21  111.89
  -1   1  -4 2952.30  112.29
  -1   1  -4 2993.00  112.79
   1  -1   4 3006.50  112.29
   1  -1   4 2920.41  111.39
   1  -1   4 2849.01  110.99
  -2   1  -4  433.46   18.90
  -2   1  -4  430.96   17.80
   2  -1   4  427.46   17.40
   2  -1   4  433.16   18.30
  -3   1  -4   -0.60    1.80
  -3   1  -4    0.10    2.60
  -3   1  -4    3.90    2.00
   3  -1   4    1.80    1.90
   3  -1   4    1.90    2.10
   3  -1   4    0.20    2.00
  -4   1  -4  242.88   14.20
  -4   1  -4  290.07   13.10
  -4   1  -4  288.57   13.10
   4  -1   4  281.37   12.90
   4  -1   4  303.37   13.90
   4  -1   4  297.27   13.30
  -5   1  -4  456.85   20.10
  -5   1  -4  470.55   22.10
  -5   1  -4  436.76   19.80
   5  -1   4  450.55   20.20
   5  -1   4  464.35   20.00
   5  -1   4  459.95   20.90
  -6   1  -4  226.88   13.40
  -6   1  -4  228.88   12.50
   6  -1   4  220.78   14.40
   6  -1   4  228.78   12.60
   6  -1   4  228.28   13.20
   7   0  -4   94.69    9.60
   7   0  -4  102.19   12.00
  -7   0   4   98.99   11.50
  -7   0   4   82.79    9.40
   6   0  -4  148.49   10.00
  -6   0   4  161.18   10.00
   5   0  -4  276.27   13.40
  -5   0   4  263.57   12.60
  -5   0   4  269.37   13.20
  -5   0   4  281.87   14.30
   4   0  -4  132.39    7.90
   4   0  -4  138.69    8.20
  -4   0   4  125.59    7.10
  -4   0   4  138.29    8.10
  -4   0   4  140.09    8.40
   3   0  -4  208.78   10.60
   3   0  -4  211.08   10.40
   3   0  -4  213.68   10.50
  -3   0   4  219.48    9.50
  -3   0   4  218.58   10.70
  -3   0   4  216.68   10.60
  -3   0   4  218.88   10.40
   2   0  -4  906.41   37.00
   2   0  -4  923.21   36.80
  -2   0   4  933.41   37.30
  -2   0   4  924.51   36.70
  -2   0   4  975.90   35.80
   1   0  -4  757.82   30.20
   1   0  -4  759.72   30.50
   1   0  -4  753.42   29.70
  -1   0   4  775.22   29.30
  -1   0   4  774.02   30.70
  -1   0   4  747.73   30.10
   0   0  -4  123.89    7.00
   0   0  -4  122.09    5.70
   0   0  -4  118.39    6.40
   0   0   4  127.69    7.00
   0   0   4  125.69    6.50
  -1   0  -4   99.59    6.40
  -1   0  -4  105.19    5.20
   1   0   4  102.39    4.90
   1   0   4   93.89    6.00
   1   0   4  101.09    6.40
   1   0   4  102.69    5.30
  -2   0  -4  964.60   36.80
  -2   0  -4  948.81   38.20
   2   0   4  925.11   36.60
   2   0   4  945.41   37.00
   2   0   4  946.91   37.70
  -3   0  -4 1305.47   50.79
  -3   0  -4 1289.17   51.09
  -3   0  -4 1322.27   52.29
   3   0   4 1332.27   51.89
   3   0   4 1351.76   51.19
   3   0   4 1267.97   50.79
  -4   0  -4  628.44   28.50
  -4   0  -4  658.93   26.90
  -4   0  -4  675.23   27.50
   4   0   4  678.73   28.20
   4   0   4  676.73   27.50
   4   0   4  678.83   27.10
  -5   0  -4    1.50    3.90
  -5   0  -4    0.40    4.40
  -5   0  -4    5.40    3.10
   5   0   4   11.90    3.50
   5   0   4    6.30    3.90
  -6   0  -4  188.88   11.00
  -6   0  -4  169.28   12.60
   6   0   4  165.28   13.60
   6   0   4  198.78   11.80
   6   0   4  191.58   11.50
   7  -1  -4   27.50    5.30
   7  -1  -4   31.70    8.30
  -7   1   4   29.00    6.60
  -7   1   4   33.20    8.50
   6  -1  -4   14.50    4.00
  -6   1   4   19.60    5.00
   5  -1  -4  114.09    9.00
   5  -1  -4  111.39    7.60
  -5   1   4  122.89    8.80
   4  -1  -4  264.87   12.20
   4  -1  -4  270.37   12.20
   4  -1  -4  261.07   12.90
  -4   1   4  268.07   13.20
  -4   1   4  230.88   12.90
   3  -1  -4  662.13   25.60
   3  -1  -4  595.34   25.00
   3  -1  -4  618.04   26.10
   3  -1  -4  535.45   24.50
  -3   1   4  566.14   24.90
  -3   1   4  647.14   25.90
  -3   1   4  686.83   26.40
  -3   1   4  620.54   23.90
   2  -1  -4  113.09    6.30
   2  -1  -4  107.79    6.20
   2  -1  -4  112.79    6.00
   2  -1  -4  110.79    7.20
  -2   1   4   87.89    7.10
  -2   1   4  112.29    6.00
   1  -1  -4  751.52   30.20
   1  -1  -4  755.22   31.00
   1  -1  -4  753.12   30.00
  -1   1   4  799.72   31.40
  -1   1   4  766.42   30.10
  -1   1   4  749.62   30.20
   0  -1  -4  670.13   26.50
   0  -1  -4  670.23   27.60
   0  -1  -4  658.23   26.90
   0   1   4  670.43   26.50
   0   1   4  684.23   27.80
   0   1   4  674.83   27.00
  -1  -1  -4 2478.35   94.49
  -1  -1  -4 2454.85   96.19
   1   1   4 2500.15   95.69
   1   1   4 2476.35   96.29
   1   1   4 2516.95   95.09
   1   1   4 2543.65   95.39
  -2  -1  -4  414.96   16.50
  -2  -1  -4  410.16   18.40
   2   1   4  416.36   18.00
   2   1   4  405.86   17.50
   2   1   4  418.86   17.20
   2   1   4  410.16   18.50
  -3  -1  -4   39.90    3.20
  -3  -1  -4   41.30    5.50
   3   1   4   31.00    4.50
   3   1   4   23.90    3.50
  -4  -1  -4  536.05   21.60
  -4  -1  -4  545.65   23.80
  -4  -1  -4  568.34   23.00
   4   1   4  539.55   21.80
   4   1   4  467.95   22.60
  -5  -1  -4  208.88   13.30
  -5  -1  -4  202.58   12.50
  -5  -1  -4  205.28   10.40
   5   1   4  203.68   11.80
   5   1   4  201.68   10.60
  -6  -1  -4  201.78   14.00
  -6  -1  -4  182.78   11.20
   6   1   4  197.68   13.00
   6   1   4  214.68   11.80
   7  -2  -4  100.39   10.40
   7  -2  -4   87.99    8.70
   7  -2  -4  117.39   12.80
  -7   2   4  119.99   12.90
  -7   2   4   97.59   13.40
   6  -2  -4  140.29   10.20
   6  -2  -4  138.89    8.50
   6  -2  -4  126.39   11.80
  -6   2   4  133.89   11.40
  -6   2   4  119.89   12.20
   5  -2  -4  161.08    9.90
   5  -2  -4  166.18   11.00
   5  -2  -4  149.59    8.60
  -5   2   4  145.29   11.00
   4  -2  -4   -2.80    3.10
   4  -2  -4   -1.10    2.30
   4  -2  -4   -1.20    3.20
  -4   2   4    5.80    3.60
  -4   2   4    1.50    4.40
   3  -2  -4  130.59    7.10
   3  -2  -4  125.99    7.80
   3  -2  -4  123.59    7.60
   3  -2  -4  142.09    8.20
   3  -2  -4  137.29    9.10
  -3   2   4  124.99    7.10
  -3   2   4  141.89    9.30
   2  -2  -4  656.43   25.60
   2  -2  -4  595.34   25.20
   2  -2  -4  640.34   25.00
   2  -2  -4  573.04   26.80
  -2   2   4  656.33   25.00
  -2   2   4  614.44   26.90
   1  -2  -4  478.65   21.40
   1  -2  -4  485.45   20.30
   1  -2  -4  474.55   19.80
  -1   2   4  531.15   22.00
  -1   2   4  488.95   20.10
   0  -2  -4  146.19    7.60
   0  -2  -4  143.09    8.60
   0  -2  -4  152.78    6.70
   0   2   4  146.89    7.90
   0   2   4  148.49    8.80
   0   2   4  147.59    7.70
  -1  -2  -4  275.97   13.40
   1   2   4  278.07   12.30
   1   2   4  273.47   13.40
   1   2   4  269.07   12.70
   1   2   4  270.07   12.50
  -2  -2  -4  650.03   27.90
   2   2   4  653.93   27.50
   2   2   4  667.13   27.20
   2   2   4  659.53   26.80
   2   2   4  668.93   28.10
  -3  -2  -4  629.74   27.30
  -3  -2  -4  637.74   24.70
   3   2   4  621.34   26.50
   3   2   4  646.44   26.20
  -4  -2  -4  269.37   11.40
  -4  -2  -4  255.17   14.20
   4   2   4  261.67   13.10
   4   2   4  253.77   13.50
  -5  -2  -4    7.70    5.60
   5   2   4   16.10    3.60
   5   2   4   23.60    5.70
  -6  -2  -4  222.48   16.40
  -6  -2  -4  273.47   18.30
   6   2   4  275.37   13.50
   6   2   4  267.97   16.10
   6  -3  -4    6.70    3.30
   6  -3  -4    9.50    5.30
   6  -3  -4    0.10    7.40
  -6   3   4   -3.70    7.10
  -6   3   4   14.50    6.50
   5  -3  -4   27.00    3.60
   5  -3  -4   30.60    6.50
   5  -3  -4   47.20    6.80
  -5   3   4   35.70    6.70
   4  -3  -4   68.59    8.00
   4  -3  -4   91.29    7.30
   4  -3  -4   73.89    7.50
   4  -3  -4   72.89    5.20
  -4   3   4   82.89    9.00
   3  -3  -4  486.55   19.50
   3  -3  -4  420.46   20.80
   3  -3  -4  497.05   20.70
   3  -3  -4  438.76   21.10
   3  -3  -4  524.15   22.80
  -3   3   4  507.25   22.70
  -3   3   4  492.55   19.60
   2  -3  -4   31.80    5.50
   2  -3  -4   37.70    4.60
   2  -3  -4   34.50    4.20
  -2   3   4   34.80    3.80
  -2   3   4   36.40    5.80
   1  -3  -4  444.26   17.60
   1  -3  -4  442.76   18.80
   1  -3  -4  429.46   20.30
  -1   3   4  433.06   18.80
  -1   3   4  442.26   20.50
  -1   3   4  424.56   18.20
   0  -3  -4  569.94   25.00
   0  -3  -4  578.84   23.70
   0  -3  -4  570.54   22.40
   0   3   4  565.04   23.80
   0   3   4  563.44   25.10
   0   3   4  567.04   23.60
  -1  -3  -4  950.30   38.90
  -1  -3  -4  932.41   36.90
   1   3   4  936.11   37.80
   1   3   4  954.80   37.70
   1   3   4  937.71   38.70
   1   3   4  928.71   37.90
  -2  -3  -4  165.38   10.90
   2   3   4  204.38   11.40
   2   3   4  203.98   10.70
   2   3   4  177.48   10.10
   2   3   4  202.98   10.80
  -3  -3  -4  146.19   10.30
   3   3   4  156.78    9.40
   3   3   4  142.29    9.50
   3   3   4  131.69   10.10
  -4  -3  -4  435.56   21.20
   4   3   4  432.36   20.40
   5   3   4  153.28   12.20
   5   3   4  136.19   12.00
   6  -4  -4   62.89   10.30
   6  -4  -4   94.59    9.60
   6  -4  -4   72.99   10.60
  -6   4   4   60.39    9.40
  -6   4   4  101.19   14.60
   5  -4  -4   23.90    7.20
   5  -4  -4   34.20    8.10
   5  -4  -4   38.80    6.70
  -5   4   4   27.80    8.90
  -5   4   4   38.00    7.90
   4  -4  -4   34.30    5.90
   4  -4  -4   44.50    6.70
   4  -4  -4   31.80    6.20
  -4   4   4   23.50    6.30
   3  -4  -4  111.09    8.60
   3  -4  -4   87.89    7.30
   3  -4  -4   97.39   10.50
   3  -4  -4  103.79    8.70
  -3   4   4  110.79   10.60
  -3   4   4   94.89    5.80
   2  -4  -4  393.16   17.80
   2  -4  -4  398.36   16.70
  -2   4   4  405.36   20.10
  -2   4   4  370.86   16.30
   1  -4  -4  154.38    7.40
   1  -4  -4  141.49   11.90
   1  -4  -4  169.68    9.60
  -1   4   4  169.18    8.70
  -1   4   4  167.98   11.60
  -1   4   4  157.28    9.70
   0  -4  -4   69.69    4.70
   0  -4  -4   74.29    6.50
   0  -4  -4   82.19    8.90
   0   4   4   66.29    6.30
   0   4   4   65.09    6.90
   0   4   4   79.59    8.60
  -1  -4  -4  159.88   11.30
  -1  -4  -4  156.98    8.10
   1   4   4  158.28   10.70
   1   4   4  146.19    9.50
   1   4   4  169.18   10.10
   1   4   4  167.98   10.10
  -2  -4  -4  382.66   19.00
  -2  -4  -4  370.46   16.60
   2   4   4  363.46   17.40
   2   4   4  344.57   17.60
   2   4   4  393.06   18.00
   2   4   4  371.36   18.50
  -3  -4  -4  329.27   15.80
  -3  -4  -4  330.87   17.90
   3   4   4  330.67   17.20
   3   4   4  312.97   16.50
   4   4   4   36.30    6.70
   4   4   4   38.30    7.20
   5  -5  -4   16.50    6.90
   5  -5  -4   18.10    6.30
   5  -5  -4   11.50    7.80
  -5   5   4    8.10    8.20
  -5   5   4   22.60    9.40
   4  -5  -4   41.90    7.90
   4  -5  -4   50.19    7.70
   4  -5  -4   43.50    6.50
  -4   5   4   38.40    8.50
   3  -5  -4  192.28   11.70
   3  -5  -4  184.28   10.20
   3  -5  -4  186.48   12.70
  -3   5   4  165.78    8.20
  -3   5   4  183.18   14.80
   2  -5  -4   80.29    8.10
   2  -5  -4   95.29    6.50
  -2   5   4   79.49    6.00
  -2   5   4  102.49   11.20
   1  -5  -4  104.59    8.60
   1  -5  -4   97.39    5.90
  -1   5   4  101.59   10.90
  -1   5   4  112.39    7.50
   0  -5  -4  392.06   17.10
   0   5   4  414.36   18.40
   0   5   4  424.46   20.90
  -1  -5  -4  206.38   10.30
   1   5   4  218.68   13.40
   1   5   4  204.28   13.10
   1   5   4  186.28   12.40
   1   5   4  202.98   12.00
  -2  -5  -4   23.20    4.60
   2   5   4   20.20    5.60
   2   5   4   15.00    5.40
   2   5   4   22.90    6.00
   2   5   4   20.80    6.10
  -3  -5  -4  173.28   10.40
  -3  -5  -4  158.38   17.80
   3   5   4  164.68   13.20
   3   5   4  156.18   12.80
   3   5   4  167.18   12.60
   4  -6  -4    7.60    7.70
   4  -6  -4   22.80    7.70
  -4   6   4   19.60    9.10
   3  -6  -4   99.09   10.90
  -3   6   4   62.99   10.20
   2  -6  -4  162.08   16.80
   2  -6  -4  178.38   12.80
  -2   6   4  177.78    9.00
  -2   6   4  176.78   15.50
   1  -6  -4   20.90    7.80
   1  -6  -4   26.80    6.40
  -1   6   4   22.70    4.60
  -1   6   4    9.50    7.00
  -1   6   4   24.30    7.50
   0  -6  -4   -3.20    7.70
   0  -6  -4    3.40    4.20
   0   6   4   -0.50    5.40
   0   6   4   -2.40    4.50
   0   6   4    0.20    6.30
   0   6   4    1.30    7.40
  -1  -6  -4   49.10    6.20
  -1  -6  -4   45.50   10.30
   1   6   4   41.00    7.10
   1   6   4   61.39    7.80
   1   6   4   37.90    6.50
   1   6   4   46.00    8.50
  -2  -6  -4  197.28   11.00
  -2  -6  -4  182.78   19.20
   2   6   4  178.48   14.50
   2   6   4  195.68   14.70
   2   6   4  191.18   15.00
   2   6   4  201.28   14.80
   1   9  -5   26.30    6.60
   1   9  -5   39.00    7.10
   0   9  -5  209.68   10.70
   0   9  -5  218.68   12.70
   0   9  -5  201.08   13.70
   0   9  -5  169.48   15.80
   0   9  -5  214.08   13.30
   0  -9   5  197.08   15.00
  -1   9  -5  127.59    9.80
  -1   9  -5  131.19    7.90
  -1   9  -5  127.29   14.80
  -1   9  -5  134.39   12.20
   1  -9   5  130.79   12.70
   3   8  -5   95.09   11.00
   3   8  -5  106.59    9.30
   3   8  -5  116.79   12.90
   3   8  -5  135.09   10.80
  -3  -8   5  115.99   10.70
   2   8  -5  227.38   13.60
   2   8  -5  206.58   15.30
   2   8  -5  247.28   11.90
   2   8  -5  241.78   13.70
   2   8  -5  231.38   12.00
  -2  -8   5  254.47   14.00
   1   8  -5  206.98   13.80
   1   8  -5  234.78   12.60
   1   8  -5  246.58   14.20
   1   8  -5  236.48   11.20
   1   8  -5  253.37   13.50
  -1  -8   5  232.38   13.20
  -1  -8   5  226.78   15.30
   0   8  -5   -0.10    4.00
   0   8  -5    0.90    4.70
   0   8  -5    3.30    4.10
   0   8  -5   -2.00    4.90
   0  -8   5    7.90    5.60
  -1   8  -5   49.70    8.00
  -1   8  -5   47.10    6.40
  -1   8  -5   44.30    6.60
  -1   8  -5   45.90    6.40
   1  -8   5   45.70    8.50
  -2   8  -5  184.58   12.10
  -2   8  -5  161.88    9.70
   2  -8   5  167.78   13.30
  -3   8  -5  257.37   15.50
   3  -8   5  247.98   17.40
   4   7  -5  230.88   15.60
   4   7  -5  228.78   12.60
  -4  -7   5  188.88   13.70
   3   7  -5  139.49    8.70
   3   7  -5  134.49   11.80
  -3  -7   5  142.59   10.20
   2   7  -5   -3.50    3.60
   2   7  -5   -3.50    4.40
   2   7  -5    1.20    2.80
   2   7  -5    1.70    2.80
  -2  -7   5    0.60    3.80
   1   7  -5  165.58   10.50
   1   7  -5  165.58   10.30
   1   7  -5  156.78    8.30
   1   7  -5  168.68   10.90
   1   7  -5  191.38    9.60
  -1  -7   5  162.88   10.20
  -1  -7   5  173.48   11.30
   0   7  -5  510.35   22.60
   0   7  -5  510.75   20.20
   0   7  -5  500.25   21.40
   0   7  -5  521.15   22.30
   0  -7   5  510.65   24.20
  -1   7  -5  233.38   11.60
  -1   7  -5  230.28   12.70
  -1   7  -5  230.58   11.00
   1  -7   5  229.48   14.00
  -2   7  -5   -1.30    2.90
  -2   7  -5    4.30    4.20
   2  -7   5   -2.40    3.40
   2  -7   5   -0.40    5.00
  -3   7  -5   78.09    9.00
   3  -7   5   68.79   10.00
  -4   7  -5  294.37   16.90
   4  -7   5  287.97   19.40
   4  -7   5  296.57   13.80
   5   6  -5   37.70    6.30
   5   6  -5   25.70    7.30
  -5  -6   5   36.90    7.90
  -5  -6   5   39.50    6.90
   4   6  -5   35.30    5.00
   4   6  -5   35.70    6.30
  -4  -6   5   23.70    5.60
  -4  -6   5   26.20    5.50
   3   6  -5  301.87   14.40
   3   6  -5  325.97   16.60
  -3  -6   5  313.67   16.10
  -3  -6   5  326.47   14.70
   2   6  -5  423.36   17.70
   2   6  -5  418.96   20.10
   2   6  -5  427.16   17.90
  -2  -6   5  422.36   19.40
   1   6  -5  230.58   11.00
   1   6  -5  246.68   12.70
   1   6  -5  235.58   10.10
   1   6  -5  233.88   12.10
  -1  -6   5  236.08   12.90
  -1  -6   5  223.88   12.10
   0   6  -5   30.20    4.20
   0   6  -5   30.60    3.80
   0   6  -5   34.80    5.20
   0  -6   5   30.20    4.50
   0  -6   5   30.90    5.60
  -1   6  -5  217.58   11.70
  -1   6  -5  232.98   10.90
   1  -6   5  195.28   11.60
   1  -6   5  219.58   12.70
  -2   6  -5  751.62   29.60
  -2   6  -5  738.83   30.70
   2  -6   5  697.93   30.00
   2  -6   5  720.53   32.50
  -3   6  -5  434.96   19.80
   3  -6   5  429.26   18.60
   3  -6   5  372.26   22.00
   3  -6   5  442.36   17.40
  -4   6  -5   17.10    3.10
  -4   6  -5   13.00    4.90
   4  -6   5   17.30    3.40
   4  -6   5   17.00    8.00
   4  -6   5   17.40    7.60
  -5   6  -5   45.30    5.00
  -5   6  -5   36.70    7.50
   5  -6   5   33.00    8.10
   5  -6   5   44.60    6.10
   6   5  -5   23.70    6.70
   6   5  -5   24.80    7.70
   6   5  -5   42.70    7.10
  -6  -5   5   26.90    6.80
  -6  -5   5   38.70    9.10
   5   5  -5  159.78   10.50
   5   5  -5  130.69   12.40
  -5  -5   5  163.38   10.70
   4   5  -5  313.67   16.40
   4   5  -5  323.87   14.60
  -4  -5   5  322.87   14.90
  -4  -5   5  260.77   15.30
   3   5  -5  286.87   13.00
   3   5  -5  298.07   15.10
  -3  -5   5  274.97   14.30
  -3  -5   5  282.27   13.10
   2   5  -5   54.79    4.30
   2   5  -5   60.39    6.90
   2   5  -5   53.29    4.00
  -2  -5   5   52.69    4.50
  -2  -5   5   48.50    5.70
   1   5  -5  560.74   22.90
   1   5  -5  507.95   20.60
   1   5  -5  515.45   21.20
  -1  -5   5  518.85   23.00
  -1  -5   5  482.05   22.30
  -1  -5   5  577.64   23.20
   0   5  -5 1188.58   46.60
   0   5  -5 1190.98   45.20
   0   5  -5 1202.08   46.50
   0  -5   5 1125.49   46.90
   0  -5   5 1163.38   47.50
  -1   5  -5  270.47   12.50
  -1   5  -5  254.27   12.90
   1  -5   5  258.77   14.00
   1  -5   5  294.37   13.10
  -2   5  -5    7.50    2.60
  -2   5  -5    0.80    2.90
   2  -5   5    2.20    4.00
   2  -5   5    2.90    2.60
  -3   5  -5  179.88   10.50
   3  -5   5  169.38    9.40
   3  -5   5  170.48    7.80
  -4   5  -5  469.55   21.30
  -4   5  -5  452.05   18.80
   4  -5   5  450.25   18.70
   4  -5   5  467.55   20.10
  -5   5  -5  183.38   12.30
  -5   5  -5  171.48    9.60
   5  -5   5  169.48   10.70
   5  -5   5  187.38   13.80
   5  -5   5  174.78    9.30
   6  -5   5   -0.10    4.70
   6   4  -5  111.89   12.40
   6   4  -5  126.99   11.40
   6   4  -5  119.19   11.00
  -6  -4   5  125.19    9.40
  -6  -4   5  110.39   13.40
   5   4  -5   51.69    7.10
   5   4  -5   57.89    6.70
   5   4  -5   59.49    7.60
  -5  -4   5   51.69    6.90
  -5  -4   5   52.09    6.80
   4   4  -5  132.39    8.40
   4   4  -5  127.79    9.70
  -4  -4   5  132.89    9.00
  -4  -4   5  139.29    8.80
   3   4  -5  529.85   22.00
   3   4  -5  554.24   23.60
  -3  -4   5  523.55   23.00
  -3  -4   5  519.05   21.90
   2   4  -5  488.25   19.40
   2   4  -5  462.25   21.10
   2   4  -5  469.25   19.20
  -2  -4   5  508.15   21.20
  -2  -4   5  465.15   20.40
  -2  -4   5  475.55   19.30
   1   4  -5  112.99    7.30
   1   4  -5  108.59    6.30
  -1  -4   5  116.19    6.90
  -1  -4   5  106.99    6.80
  -1  -4   5  112.89    5.10
  -1  -4   5  106.89    7.60
   0   4  -5   67.09    5.30
   0   4  -5   58.49    3.20
   0   4  -5   66.89    5.20
   0  -4   5   68.09    5.50
   0  -4   5   58.59    5.30
  -1   4  -5  700.83   28.80
  -1   4  -5  715.23   28.60
   1  -4   5  690.03   28.60
   1  -4   5  711.03   30.00
  -2   4  -5 1328.87   52.29
  -2   4  -5 1322.37   52.69
   2  -4   5 1353.66   52.29
  -3   4  -5  576.34   26.10
  -3   4  -5  626.84   24.20
   3  -4   5  631.64   25.60
   3  -4   5  629.84   24.00
   3  -4   5  626.44   26.30
  -4   4  -5    4.70    2.50
  -4   4  -5    1.30    3.50
   4  -4   5   -1.60    4.10
   4  -4   5    3.90    2.10
   4  -4   5    5.20    3.00
  -5   4  -5  143.29    8.60
  -5   4  -5  143.89   10.60
   5  -4   5  151.28    9.80
   5  -4   5  126.59   11.60
  -6   4  -5  150.18   12.40
  -6   4  -5  180.78   10.90
   6  -4   5  135.29   13.60
   7   3  -5   -0.10    7.50
   7   3  -5    5.70    7.20
   7   3  -5   -8.30    6.70
  -7  -3   5   14.90    5.20
  -7  -3   5    7.70    9.00
   6   3  -5   73.79    9.60
   6   3  -5   69.89    9.70
   6   3  -5   91.99   10.80
  -6  -3   5   89.39    7.60
  -6  -3   5   67.09    9.20
   5   3  -5  168.18   11.10
   5   3  -5  171.98   11.50
   5   3  -5  158.28   10.80
  -5  -3   5  187.68   10.40
  -5  -3   5  176.98   11.70
   4   3  -5  350.56   16.60
   4   3  -5  344.67   17.30
  -4  -3   5  367.06   16.80
  -4  -3   5  398.76   16.90
   3   3  -5  188.58    8.50
   3   3  -5  207.48   11.10
   3   3  -5  183.08    9.70
  -3  -3   5  212.38   10.90
  -3  -3   5  177.18   10.00
  -3  -3   5  214.48    9.90
   2   3  -5  367.26   18.50
   2   3  -5  431.16   17.20
  -2  -3   5  441.36   17.30
  -2  -3   5  440.56   18.00
  -2  -3   5  422.26   18.80
   1   3  -5  784.62   30.90
   1   3  -5  745.93   30.20
  -1  -3   5  768.92   30.10
  -1  -3   5  741.43   30.30
  -1  -3   5  749.53   30.70
  -1  -3   5  748.83   29.20
   0   3  -5 2300.87   89.09
   0   3  -5 2304.27   88.89
   0  -3   5 2308.57   88.89
   0  -3   5 2339.37   89.09
  -1   3  -5  305.27   13.60
  -1   3  -5  292.27   13.50
   1  -3   5  308.97   13.60
  -2   3  -5   24.70    3.20
  -2   3  -5   31.40    3.90
   2  -3   5   31.10    4.20
  -3   3  -5  489.55   20.20
  -3   3  -5  520.75   21.90
   3  -3   5  515.55   21.70
   3  -3   5  522.15   21.80
   3  -3   5  500.95   20.30
  -4   3  -5  368.56   15.40
  -4   3  -5  344.17   16.50
   4  -3   5  367.16   15.40
   4  -3   5  348.47   16.90
   4  -3   5  352.26   16.50
  -5   3  -5  258.07   12.70
  -5   3  -5  254.67   13.80
   5  -3   5  273.87   14.70
   5  -3   5  254.97   12.70
   5  -3   5  272.87   14.20
  -6   3  -5   -4.60    5.20
  -6   3  -5   -3.50    4.80
   6  -3   5   -2.80    4.60
   6  -3   5   16.00    6.20
   7   2  -5   77.59   11.70
   7   2  -5   52.39    8.30
  -7  -2   5  111.89   15.00
  -7  -2   5   81.09    8.20
   6   2  -5  122.49   10.70
   6   2  -5  128.59   10.80
  -6  -2   5  124.89    7.00
  -6  -2   5  118.69    8.60
  -6  -2   5  125.39   12.70
   5   2  -5   11.40    4.00
   5   2  -5   12.30    4.20
  -5  -2   5   16.10    4.20
  -5  -2   5   13.30    2.70
  -5  -2   5   14.40    5.20
   4   2  -5  195.38   10.60
   4   2  -5  186.58   10.10
  -4  -2   5  192.68    9.70
  -4  -2   5  160.08   10.20
  -4  -2   5  161.58    8.60
   3   2  -5  652.63   26.00
   3   2  -5  701.43   27.50
  -3  -2   5  578.24   26.20
  -3  -2   5  662.33   27.20
  -3  -2   5  689.43   26.10
  -3  -2   5  612.04   26.40
   2   2  -5  498.85   19.80
   2   2  -5  449.06   20.60
  -2  -2   5  488.45   19.80
  -2  -2   5  481.25   20.60
  -2  -2   5  487.25   20.00
  -2  -2   5  487.15   19.80
   1   2  -5  111.49    6.40
   1   2  -5  116.99    6.90
  -1  -2   5  123.39    5.80
  -1  -2   5  117.09    5.70
  -1  -2   5  105.89    6.60
   0   2  -5  288.47   13.10
   0   2  -5  293.77   13.40
   0  -2   5  294.67   13.10
  -1   2  -5  966.20   38.60
  -1   2  -5  986.60   38.40
  -1   2  -5  971.30   39.20
   1  -2   5  981.10   38.60
   1  -2   5  957.60   37.20
  -2   2  -5 1143.89   44.90
  -2   2  -5 1160.98   46.10
   2  -2   5 1127.79   45.10
   2  -2   5 1136.89   43.90
  -3   2  -5  551.24   22.40
  -3   2  -5  520.75   24.60
  -3   2  -5  542.65   23.20
   3  -2   5  566.54   22.40
   3  -2   5  574.74   23.40
   3  -2   5  590.84   23.80
  -4   2  -5   41.30    5.50
  -4   2  -5   48.80    6.60
  -4   2  -5   54.29    4.80
   4  -2   5   50.99    4.70
   4  -2   5   43.10    6.20
   4  -2   5   48.40    6.00
  -5   2  -5  435.56   19.60
  -5   2  -5  448.66   19.20
   5  -2   5  446.56   20.10
   5  -2   5  453.95   19.10
   5  -2   5  374.86   19.90
  -6   2  -5  310.97   15.80
  -6   2  -5  286.47   19.70
  -6   2  -5  292.57   15.50
   6  -2   5  292.07   16.90
   6  -2   5  297.37   14.90
   6  -2   5  294.57   16.70
   7   1  -5    7.10    6.60
   7   1  -5    5.50    5.70
  -7  -1   5   -0.50    9.00
  -7  -1   5    6.60    4.20
  -7  -1   5   11.30    5.10
   6   1  -5   72.49    8.50
   6   1  -5   68.49    8.00
  -6  -1   5   60.49    8.20
  -6  -1   5   60.09    6.80
  -6  -1   5   71.39    6.70
   5   1  -5  116.99    8.80
  -5  -1   5  118.69    7.70
  -5  -1   5  118.69    7.70
  -5  -1   5  116.99    9.80
   4   1  -5  444.16   20.60
   4   1  -5  474.05   20.70
  -4  -1   5  464.45   19.60
  -4  -1   5  482.65   20.60
  -4  -1   5  476.55   20.10
   3   1  -5    1.40    2.40
   3   1  -5    3.00    2.20
  -3  -1   5   -0.10    2.60
  -3  -1   5    0.20    2.30
  -3  -1   5    2.40    2.70
  -3  -1   5    3.40    2.70
   2   1  -5  782.42   31.80
   2   1  -5  813.52   32.20
  -2  -1   5  805.32   32.00
  -2  -1   5  790.52   31.90
  -2  -1   5  750.22   31.50
  -2  -1   5  813.22   31.00
   1   1  -5  734.93   29.80
   1   1  -5  716.93   29.70
  -1  -1   5  741.93   29.70
  -1  -1   5  753.92   30.00
   0   1  -5 2188.18   84.49
   0   1  -5 2226.98   85.79
   0   1  -5 2287.27   86.19
   0  -1   5 2173.08   86.19
   0  -1   5 2281.37   85.79
  -1   1  -5  419.86   18.50
  -1   1  -5  418.06   17.90
  -1   1  -5  423.26   17.40
   1  -1   5  410.26   16.90
   1  -1   5  419.26   18.00
   1  -1   5  414.86   16.30
  -2   1  -5  187.38    9.10
  -2   1  -5  193.68   10.60
   2  -1   5  193.18    8.80
   2  -1   5  199.78   10.10
   2  -1   5  184.28    8.10
  -3   1  -5  961.30   41.60
  -3   1  -5  998.70   40.00
   3  -1   5 1023.60   39.90
   3  -1   5 1074.99   41.10
  -4   1  -5  236.78   11.60
  -4   1  -5  248.08   14.00
  -4   1  -5  235.38   11.60
   4  -1   5  238.38   12.80
   4  -1   5  238.48   11.80
   4  -1   5  238.08   11.50
  -5   1  -5  271.87   13.50
  -5   1  -5  274.97   13.70
   5  -1   5  266.07   13.90
   5  -1   5  276.77   13.50
  -6   1  -5    2.00    5.80
  -6   1  -5    1.90    4.20
  -6   1  -5    8.10    7.60
   6  -1   5    3.40    4.70
   6  -1   5    9.40    5.40
   6  -1   5   11.00    6.30
   7   0  -5   69.49    9.80
   7   0  -5   76.69   11.00
  -7   0   5   77.29    9.60
  -7   0   5   76.89    7.90
  -7   0   5   82.49   10.30
   6   0  -5   61.99    8.00
  -6   0   5   58.09    7.90
  -6   0   5   68.19    7.80
  -6   0   5   70.59    6.60
   5   0  -5   11.10    3.90
  -5   0   5   21.70    4.20
  -5   0   5   20.10    5.30
  -5   0   5   25.40    4.10
   4   0  -5  173.98    9.80
   4   0  -5  165.98    9.80
   4   0  -5  169.28    9.70
  -4   0   5  182.08   10.10
  -4   0   5  168.48    9.60
  -4   0   5  166.18   10.00
  -4   0   5  173.18    8.40
   3   0  -5  614.74   24.30
   3   0  -5  520.55   24.40
   3   0  -5  523.15   24.00
  -3   0   5  564.14   22.70
  -3   0   5  606.74   24.70
  -3   0   5  587.54   24.20
  -3   0   5  609.14   24.40
   2   0  -5  406.06   17.30
   2   0  -5  399.06   17.60
  -2   0   5  385.16   17.10
  -2   0   5  404.76   17.90
   1   0  -5  158.38    8.80
   1   0  -5  161.88    7.50
   1   0  -5  163.58    8.30
  -1   0   5  160.28    9.00
  -1   0   5  157.88    7.40
  -1   0   5  161.58    8.30
   0   0  -5  527.65   22.40
   0   0  -5  545.65   21.50
   0   0  -5  555.94   23.10
   0   0   5  542.95   22.50
   0   0   5  540.15   23.20
  -1   0  -5  858.61   34.90
  -1   0  -5  872.71   33.40
   1   0   5  828.62   34.80
   1   0   5  852.61   34.30
   1   0   5  840.02   33.10
   1   0   5  852.41   33.50
  -2   0  -5  719.43   28.40
  -2   0  -5  715.23   30.10
   2   0   5  708.03   28.20
   2   0   5  711.33   28.70
   2   0   5  728.23   29.60
  -3   0  -5  158.78    8.20
  -3   0  -5  158.38   10.40
   3   0   5  167.58    9.80
   3   0   5  163.88    8.00
   3   0   5  174.18    8.80
  -4   0  -5   56.49    5.10
  -4   0  -5   65.29    8.30
   4   0   5   61.99    5.40
   4   0   5   53.39    6.20
   4   0   5   55.19    7.70
  -5   0  -5  643.94   27.60
  -5   0  -5  672.23   26.70
   5   0   5  631.34   28.70
   5   0   5  595.04   26.70
   5   0   5  653.33   27.40
  -6   0  -5  323.97   16.00
  -6   0  -5  295.47   17.70
  -6   0  -5  314.37   20.60
   6   0   5  335.37   16.90
   6   0   5  338.87   17.00
   6   0   5  337.87   19.50
   7  -1  -5    1.20    5.70
   7  -1  -5   -7.40   10.50
   7  -1  -5    5.40    5.10
  -7   1   5   -1.50    6.00
  -7   1   5    6.60    8.50
  -7   1   5    2.90    5.00
   6  -1  -5   33.00    5.10
   6  -1  -5   27.10    6.60
   6  -1  -5   37.10    6.90
  -6   1   5   33.70    5.90
  -6   1   5   39.90    5.10
  -6   1   5   24.50    7.60
   5  -1  -5   64.99    6.00
   5  -1  -5   54.59    6.60
  -5   1   5   62.09    5.40
  -5   1   5   56.09    7.70
   4  -1  -5  431.26   18.90
   4  -1  -5  410.36   17.50
   4  -1  -5  397.66   18.30
   4  -1  -5  425.96   19.50
  -4   1   5  443.86   19.70
  -4   1   5  413.66   19.40
  -4   1   5  400.56   16.90
  -4   1   5  423.66   18.20
   3  -1  -5  152.98    8.80
   3  -1  -5  128.39    9.60
   3  -1  -5  157.88    8.60
   3  -1  -5  169.18    8.80
  -3   1   5  152.88    9.90
  -3   1   5  148.49    8.40
   2  -1  -5  461.55   19.90
   2  -1  -5  450.85   18.60
   2  -1  -5  434.06   18.70
   2  -1  -5  435.76   18.70
  -2   1   5  457.65   18.70
  -2   1   5  400.46   19.90
   1  -1  -5  888.51   35.20
   1  -1  -5  843.92   34.80
   1  -1  -5  892.91   36.20
  -1   1   5  936.01   36.60
  -1   1   5  858.81   35.20
   0  -1  -5  842.72   34.60
   0  -1  -5  853.01   33.20
   0   1   5  830.12   33.80
   0   1   5  834.82   33.20
   0   1   5  847.02   34.80
  -1  -1  -5  170.58    7.90
  -1  -1  -5  177.28   10.00
   1   1   5  170.58    8.40
   1   1   5  179.98    8.90
   1   1   5  180.58    9.50
   1   1   5  164.88   10.10
  -2  -1  -5  502.05   22.10
  -2  -1  -5  485.35   19.60
   2   1   5  492.65   20.30
   2   1   5  475.15   21.40
   2   1   5  491.95   20.80
   2   1   5  498.95   22.20
  -3  -1  -5  754.12   31.90
  -3  -1  -5  725.63   29.30
   3   1   5  739.73   30.60
   3   1   5  764.92   30.10
  -4  -1  -5  339.27   17.40
  -4  -1  -5  331.67   14.10
   4   1   5  313.87   15.60
   4   1   5  310.27   14.80
  -5  -1  -5  134.79    8.10
   5   1   5  138.19   12.40
   5   1   5  128.99   10.10
   6  -2  -5    5.60    4.20
   6  -2  -5    2.50    6.80
   6  -2  -5    4.70    5.00
  -6   2   5   13.00    4.50
  -6   2   5    5.60    5.80
  -6   2   5   11.20    7.20
   5  -2  -5   41.70    6.10
   5  -2  -5   50.89    6.60
  -5   2   5   46.90    5.00
  -5   2   5   45.60    6.80
   4  -2  -5  166.98   10.90
   4  -2  -5  180.38   10.60
   4  -2  -5  163.08    9.50
   4  -2  -5  192.98   12.00
   4  -2  -5  191.98    9.80
  -4   2   5  168.28   11.90
  -4   2   5  170.68    9.30
   3  -2  -5  440.46   21.80
   3  -2  -5  455.75   20.50
   3  -2  -5  465.75   19.80
   3  -2  -5  484.05   20.30
  -3   2   5  483.05   22.00
  -3   2   5  468.25   19.70
   2  -2  -5  137.49    7.70
   2  -2  -5  148.49    9.80
   2  -2  -5  145.39    7.90
   2  -2  -5  140.19    8.10
  -2   2   5  121.09   10.00
  -2   2   5  144.09    7.80
   1  -2  -5   54.79    6.20
   1  -2  -5   47.30    4.60
   1  -2  -5   55.39    4.30
  -1   2   5   50.69    7.20
  -1   2   5   43.00    4.90
   0  -2  -5  263.37   12.30
   0  -2  -5  266.07   13.70
   0   2   5  271.77   12.40
   0   2   5  261.07   12.70
   0   2   5  274.87   14.10
  -1  -2  -5  602.64   29.60
   1   2   5  717.53   29.20
   1   2   5  730.53   28.60
   1   2   5  708.53   30.10
   1   2   5  751.52   29.10
  -2  -2  -5  486.35   22.00
   2   2   5  498.45   21.50
   2   2   5  453.95   21.90
   2   2   5  484.15   21.00
   2   2   5  476.55   20.40
  -3  -2  -5    4.20    4.30
   3   2   5   -1.60    4.10
   3   2   5    0.20    3.40
   3   2   5    2.20    3.20
  -4  -2  -5   66.49    4.90
   4   2   5   64.39    7.80
   4   2   5   73.29    7.80
  -5  -2  -5  440.76   23.40
   5   2   5  454.05   22.00
   5   2   5  452.45   23.20
   5   2   5  463.05   21.60
   6  -3  -5    8.40    4.10
   6  -3  -5    8.00    7.40
   6  -3  -5   14.70    8.20
   6  -3  -5    9.80    5.50
  -6   3   5   14.70    7.40
  -6   3   5   18.30    8.10
   5  -3  -5   51.29    8.10
   5  -3  -5   51.59    7.90
   5  -3  -5   67.99    7.80
   5  -3  -5   39.10    5.80
  -5   3   5   61.29    8.30
  -5   3   5   60.89    9.20
   4  -3  -5  126.39    7.40
   4  -3  -5  115.69    8.90
   4  -3  -5  135.79   10.10
   4  -3  -5  126.99    9.60
  -4   3   5  119.69    7.40
  -4   3   5  122.29   11.30
   3  -3  -5  152.18    9.60
   3  -3  -5  133.79    7.70
   3  -3  -5  114.89    8.50
   3  -3  -5  149.39   11.70
  -3   3   5  147.79   11.50
  -3   3   5  132.99    7.90
   2  -3  -5  102.29    6.70
   2  -3  -5   85.39    9.70
   2  -3  -5  103.69    7.50
  -2   3   5   98.29    9.70
  -2   3   5  102.99    6.70
   1  -3  -5  733.53   28.20
   1  -3  -5  724.43   29.40
   1  -3  -5  673.83   31.20
  -1   3   5  715.03   31.50
  -1   3   5  706.73   29.00
   0  -3  -5  171.68   11.40
   0  -3  -5  177.28    9.80
   0  -3  -5  184.38    8.10
   0   3   5  187.78   10.00
   0   3   5  177.38   11.60
   0   3   5  173.38   10.10
  -1  -3  -5    4.00    4.10
   1   3   5   -1.90    3.70
   1   3   5    4.10    3.30
   1   3   5   -0.40    3.70
   1   3   5   -6.40    3.10
  -2  -3  -5  459.95   22.10
   2   3   5  456.75   20.90
   2   3   5  471.05   21.40
   2   3   5  469.35   20.50
   2   3   5  458.05   22.00
   3   3   5  230.78   13.20
   3   3   5  232.08   14.20
   3   3   5  239.88   14.50
  -4  -3  -5  410.46   21.80
   4   3   5  409.66   20.20
   4   3   5  409.96   21.60
   4   3   5  407.66   20.00
   5  -4  -5   28.40    6.40
   5  -4  -5   40.50    8.10
   5  -4  -5   17.70    7.10
  -5   4   5   -1.90    9.00
  -5   4   5   18.30    7.90
   4  -4  -5  174.38   11.20
   4  -4  -5  152.48   12.00
   4  -4  -5  128.79   11.10
  -4   4   5  154.28   13.80
   3  -4  -5  205.58   11.70
   3  -4  -5  205.18   15.20
   3  -4  -5  221.08   12.70
  -3   4   5  227.78   15.30
  -3   4   5  219.38   10.60
   2  -4  -5   25.80    3.60
   2  -4  -5   26.00    4.90
  -2   4   5   18.70    3.50
  -2   4   5   17.60    6.10
   1  -4  -5    0.00    2.00
   1  -4  -5    2.10    3.80
  -1   4   5    2.60    4.60
  -1   4   5    3.40    3.40
   0  -4  -5   79.39    7.50
   0  -4  -5   81.19    5.20
   0   4   5   80.29    9.40
   0   4   5   82.29    7.60
   0   4   5   62.49    8.00
  -1  -4  -5  437.66   18.90
   1   4   5  454.45   20.70
   1   4   5  467.55   21.20
   1   4   5  450.35   22.00
  -2  -4  -5  271.27   13.20
   2   4   5  274.37   15.90
   2   4   5  260.67   15.20
   2   4   5  289.57   15.60
  -3  -4  -5    2.90    4.50
  -3  -4  -5   12.00    6.50
   3   4   5    7.80    5.10
   3   4   5   15.20    6.00
   3   4   5   10.00    6.50
   3   4   5    8.20    5.60
  -4  -4  -5   72.49   10.30
   4   4   5   68.79    9.00
   4   4   5   74.09    9.60
   4   4   5   63.69    9.00
   4  -5  -5    2.90    6.40
  -4   5   5    5.10    7.80
   3  -5  -5   34.80    8.80
   3  -5  -5   43.80    6.60
   3  -5  -5   32.10    5.10
  -3   5   5   29.40    8.20
  -3   5   5   39.10    5.50
   2  -5  -5   35.70    5.90
   2  -5  -5   31.00    8.30
  -2   5   5   34.10    7.80
  -2   5   5   36.60    4.50
   1  -5  -5  252.97   18.90
   1  -5  -5  273.37   14.70
  -1   5   5  262.77   17.70
  -1   5   5  297.07   14.00
   0  -5  -5   46.40    5.30
   0  -5  -5   38.40    8.90
   0   5   5   44.20    7.10
   0   5   5   76.99   10.30
   0   5   5   52.59    6.40
  -1  -5  -5   60.79    9.50
  -1  -5  -5   56.39    6.20
   1   5   5   46.40    7.70
   1   5   5   57.79    7.00
   1   5   5   53.49    7.90
   1   5   5   63.19    7.90
  -2  -5  -5  216.38   17.30
  -2  -5  -5  216.28   11.30
   2   5   5  223.58   15.00
   2   5   5  185.68   15.10
   2   5   5  214.78   14.80
   2   5   5  206.98   14.90
   2  -6  -5   -3.70    4.00
   2  -6  -5    3.90    6.30
   2  -6  -5  -17.90   11.30
  -2   6   5   10.20    4.30
  -2   6   5   -0.20    8.20
   1  -6  -5   26.40    6.70
   1  -6  -5   29.60    8.00
  -1   6   5   27.30    8.60
  -1   6   5   33.90    5.80
   0  -6  -5   42.00   10.80
   0   6   5   35.10    8.10
   0   6   5   42.90    7.40
   0   6   5   34.90    8.20
   0   6   5   42.10    8.80
   3   8  -6  101.69    9.10
   3   8  -6  100.39   14.00
   3   8  -6  114.59   11.00
  -3  -8   6  120.09   11.10
   2   8  -6   35.80    7.10
   2   8  -6   59.19    8.40
   2   8  -6   35.90    6.60
   2   8  -6   48.60    6.80
   2   8  -6   51.89    6.20
  -2  -8   6   42.40    7.70
   1   8  -6   31.10    5.10
   1   8  -6   20.90    5.70
   1   8  -6   22.30    5.40
   1   8  -6   26.70    5.40
   1   8  -6   24.40    3.40
  -1  -8   6   32.20    7.60
   0   8  -6  137.49    8.60
   0   8  -6  137.69   10.20
   0   8  -6  127.19   11.10
   0  -8   6  123.49   11.40
  -1   8  -6  317.77   17.30
  -1   8  -6  336.77   16.20
   1  -8   6  321.17   18.60
  -2   8  -6  193.98   13.30
  -2   8  -6  203.18   11.50
   2  -8   6  186.38   14.20
  -3   8  -6   10.00    6.50
   3  -8   6   -4.30    5.80
   3  -8   6    1.30    4.50
   4   7  -6   59.89    8.10
   4   7  -6   40.10    7.50
  -4  -7   6   56.89    9.20
  -4  -7   6   69.09    8.00
   3   7  -6   67.09    7.00
   3   7  -6   82.29   11.00
  -3  -7   6   82.29    8.50
   2   7  -6  216.78   10.90
   2   7  -6  191.38   13.90
   2   7  -6  212.88   10.50
   2   7  -6  232.58   11.50
   2   7  -6  222.88   11.20
  -2  -7   6  235.68   13.00
   1   7  -6  532.95   22.50
   1   7  -6  544.05   24.10
   1   7  -6  556.34   24.50
  -1  -7   6  536.05   25.10
   0   7  -6   88.69    8.10
   0   7  -6   93.89    8.40
   0   7  -6   86.09    6.20
   0  -7   6   99.99    8.80
   0  -7   6   82.39    8.90
  -1   7  -6   17.40    4.60
  -1   7  -6   12.10    3.90
   1  -7   6   10.50    5.00
   1  -7   6   12.10    4.80
  -2   7  -6  189.68   11.80
  -2   7  -6  192.68   10.40
   2  -7   6  139.59   11.00
   2  -7   6  165.38   12.80
  -3   7  -6  217.18   13.60
   3  -7   6  213.98   15.70
  -4   7  -6  114.69   11.70
   4  -7   6  133.99   14.00
   5   6  -6   80.89    9.80
   5   6  -6   78.19   11.60
  -5  -6   6   72.39    9.20
  -5  -6   6   67.79   10.10
   4   6  -6  220.18   12.20
   4   6  -6  245.38   14.80
  -4  -6   6  220.78   12.90
  -4  -6   6  196.08   13.00
   3   6  -6  165.98   12.10
   3   6  -6  171.58    9.30
  -3  -6   6  160.48    9.40
  -3  -6   6  166.18   10.50
   2   6  -6   46.20    4.50
   2   6  -6   39.40    4.80
   2   6  -6   29.10    5.40
  -2  -6   6   49.80    6.60
   1   6  -6   84.89    5.70
   1   6  -6   89.19    8.10
  -1  -6   6   89.69    7.60
  -1  -6   6   82.29    8.50
   0   6  -6  415.36   18.30
   0   6  -6  395.06   18.40
   0   6  -6  405.96   16.40
   0  -6   6  355.46   18.70
   0  -6   6  428.86   19.50
  -1   6  -6  627.34   27.00
  -1   6  -6  612.24   26.30
   1  -6   6  617.94   28.20
   1  -6   6  648.94   27.20
  -2   6  -6  306.67   14.50
  -2   6  -6  289.67   15.20
   2  -6   6  296.37   16.70
   2  -6   6  315.07   14.90
  -3   6  -6   32.10    5.90
   3  -6   6   24.30    4.80
   3  -6   6   30.50    8.00
  -4   6  -6  218.48   13.70
   4  -6   6  198.88   12.10
   4  -6   6  212.68    9.50
   6   5  -6   55.99    8.30
   6   5  -6   41.90    8.20
   6   5  -6   34.70    8.00
  -6  -5   6   45.20    7.60
  -6  -5   6   22.90    9.40
   5   5  -6  147.19   12.80
   5   5  -6  150.38   11.00
  -5  -5   6  159.08   10.70
   4   5  -6   20.90    4.40
   4   5  -6   17.90    5.20
  -4  -5   6   16.70    4.40
  -4  -5   6   15.30    5.30
   3   5  -6  277.77   15.50
   3   5  -6  293.77   13.20
  -3  -5   6  282.87   14.50
  -3  -5   6  285.77   13.10
   2   5  -6  390.76   16.20
   2   5  -6  319.37   18.10
   2   5  -6  394.06   16.20
  -2  -5   6  397.86   15.90
  -2  -5   6  422.86   18.70
  -2  -5   6  371.26   17.60
   1   5  -6  987.00   39.10
   1   5  -6 1040.00   40.10
  -1  -5   6  887.61   40.00
  -1  -5   6  994.70   39.90
   0   5  -6  134.29    8.70
   0   5  -6  144.99    8.70
   0   5  -6  134.89    6.30
   0  -5   6  139.89    9.10
   0  -5   6  157.48    9.40
  -1   5  -6   88.79    7.20
  -1   5  -6   80.09    6.60
   1  -5   6   82.19    6.90
   1  -5   6   83.79    7.40
  -2   5  -6  587.24   26.10
  -2   5  -6  614.04   25.70
   2  -5   6  623.14   25.70
  -3   5  -6  187.08   11.60
   3  -5   6  203.38   11.00
  -4   5  -6  218.78   13.30
   4  -5   6  220.78    9.50
   4  -5   6  228.88   12.50
  -5   5  -6    9.50    4.10
  -5   5  -6   15.80    5.90
   5  -5   6    6.30    5.30
   5  -5   6    5.70    3.10
   5  -5   6   21.40    7.60
   6   4  -6   -0.90    5.70
   6   4  -6    5.40    6.90
   6   4  -6    4.90    6.70
  -6  -4   6    2.00    4.30
  -6  -4   6    1.30    7.90
   5   4  -6  105.49    9.60
   5   4  -6  120.79   10.90
  -5  -4   6  129.09    8.90
  -5  -4   6   98.59   11.00
   4   4  -6  333.47   16.70
   4   4  -6  309.67   15.30
  -4  -4   6  305.17   15.70
  -4  -4   6  333.67   15.40
   3   4  -6  203.48    9.00
   3   4  -6  211.28   12.40
  -3  -4   6  201.98   11.20
  -3  -4   6  213.18   10.40
   2   4  -6   49.30    6.00
   2   4  -6   60.49    4.70
  -2  -4   6   55.99    4.30
  -2  -4   6   62.59    7.00
  -2  -4   6   59.59    5.60
   1   4  -6  300.07   14.10
   1   4  -6  334.67   15.20
  -1  -4   6  319.07   14.40
  -1  -4   6  314.87   15.10
  -1  -4   6  308.47   12.50
   0   4  -6  685.73   28.30
   0   4  -6  672.73   28.40
   0  -4   6  686.93   28.60
   0  -4   6  684.63   28.30
  -1   4  -6  651.63   27.20
  -1   4  -6  649.14   27.20
   1  -4   6  657.33   27.10
  -2   4  -6  219.18   11.80
  -2   4  -6  230.38   11.70
   2  -4   6  240.48   11.80
  -3   4  -6   89.89    7.60
   3  -4   6   90.69    7.20
  -4   4  -6  685.73   29.00
  -4   4  -6  685.73   26.80
   4  -4   6  644.14   26.20
   4  -4   6  686.23   28.70
  -5   4  -6  351.26   15.60
  -5   4  -6  335.57   17.80
   5  -4   6  346.67   18.60
   6   3  -6   41.10    7.10
   6   3  -6   33.50    7.80
  -6  -3   6   46.40    6.90
  -6  -3   6   37.30    8.80
   5   3  -6  253.37   14.40
   5   3  -6  251.07   14.70
  -5  -3   6  227.98   14.40
  -5  -3   6  254.17   13.00
   4   3  -6   47.10    6.20
  -4  -3   6   34.60    5.30
  -4  -3   6   45.00    5.80
   3   3  -6  414.56   19.00
   3   3  -6  411.16   16.80
  -3  -3   6  394.46   17.50
  -3  -3   6  416.46   18.90
  -3  -3   6  379.76   17.70
   2   3  -6  605.24   24.20
   2   3  -6  560.04   25.40
  -2  -3   6  587.54   23.70
  -2  -3   6  608.64   24.50
  -2  -3   6  593.54   25.40
   1   3  -6 1033.70   40.80
   1   3  -6  995.80   40.20
  -1  -3   6 1025.90   39.70
  -1  -3   6 1029.30   40.60
  -1  -3   6  971.50   38.90
   0   3  -6  199.28   10.30
   0   3  -6  184.68   10.00
   0  -3   6  191.68   10.00
  -1   3  -6  418.66   18.40
  -1   3  -6  412.46   18.50
  -1   3  -6  428.36   19.20
   1  -3   6  430.66   18.50
  -2   3  -6 1113.39   43.70
  -2   3  -6  988.60   44.50
  -2   3  -6 1156.68   43.90
   2  -3   6 1120.49   43.80
   2  -3   6 1093.49   41.80
  -3   3  -6  238.48   12.70
   3  -3   6  260.07   11.00
   3  -3   6  264.47   13.00
  -4   3  -6  203.38   11.70
  -4   3  -6  211.58   10.10
   4  -3   6  215.88   12.30
   4  -3   6  209.98   10.00
  -5   3  -6   21.70    5.00
  -5   3  -6   24.20    4.60
  -5   3  -6   17.70    7.30
   5  -3   6   28.50    6.50
   5  -3   6   22.10    4.10
  -6   3  -6  124.39   15.30
  -6   3  -6  124.69   10.50
  -6   3  -6  126.89   11.40
   6  -3   6  112.09   13.50
   6  -3   6  131.79   10.20
   6  -3   6  125.29   13.10
   6   2  -6   23.40    7.20
   6   2  -6   29.50    6.30
  -6  -2   6   34.90    5.60
  -6  -2   6   26.50    4.00
  -6  -2   6   31.60    8.30
   5   2  -6  150.18   10.90
  -5  -2   6  147.99    8.70
  -5  -2   6  163.58    9.40
  -5  -2   6  146.89   11.50
   4   2  -6  378.26   17.80
   4   2  -6  382.46   16.20
  -4  -2   6  319.47   16.20
  -4  -2   6  374.76   16.60
  -4  -2   6  398.06   17.30
   3   2  -6  196.38   11.00
   3   2  -6  183.68    9.40
  -3  -2   6  194.28    9.80
  -3  -2   6  188.58    9.80
  -3  -2   6  179.88   10.90
  -3  -2   6  165.98    9.30
   2   2  -6   64.59    5.30
   2   2  -6   67.49    6.40
  -2  -2   6   60.99    5.00
  -2  -2   6   55.39    5.00
  -2  -2   6   62.29    5.90
  -2  -2   6   67.19    5.70
   1   2  -6  492.75   21.20
   1   2  -6  489.75   21.00
  -1  -2   6  517.35   19.70
  -1  -2   6  479.85   21.00
  -1  -2   6  476.15   19.90
   0   2  -6  819.92   31.80
   0   2  -6  824.92   33.80
   0   2  -6  856.01   34.10
   0  -2   6  832.82   33.80
  -1   2  -6  572.94   24.90
  -1   2  -6  568.84   23.80
  -1   2  -6  572.34   24.20
   1  -2   6  585.34   22.70
   1  -2   6  579.24   24.30
  -2   2  -6   23.70    4.40
  -2   2  -6   30.00    4.00
   2  -2   6   30.70    4.20
   2  -2   6   28.90    3.30
  -3   2  -6  107.29    7.40
   3  -2   6  104.49    6.20
   3  -2   6  116.09    8.40
   3  -2   6  103.69    5.10
  -4   2  -6  971.10   38.70
   4  -2   6  906.51   39.40
   4  -2   6  982.30   37.90
  -5   2  -6  421.56   19.10
  -5   2  -6  440.36   18.70
  -5   2  -6  393.86   22.20
   5  -2   6  412.26   20.60
   5  -2   6  416.66   19.60
   5  -2   6  376.56   18.20
  -6   2  -6   40.10    9.30
  -6   2  -6   34.20    7.30
  -6   2  -6   43.40    6.80
   6  -2   6   43.80    6.40
   6  -2   6   47.90    8.30
   6  -2   6   42.90    7.70
   6   1  -6   28.30    6.40
   6   1  -6   43.20    6.40
  -6  -1   6   42.60    6.00
  -6  -1   6   50.59    8.20
  -6  -1   6   41.70    5.40
   5   1  -6  200.88   12.20
  -5  -1   6  207.38   11.40
  -5  -1   6  201.98   10.50
   4   1  -6  202.78   11.30
   4   1  -6  174.18   11.00
   4   1  -6  177.98   10.40
  -4  -1   6  189.18   10.80
  -4  -1   6  188.08   11.00
  -4  -1   6  192.78    9.70
  -4  -1   6  203.58   10.90
   3   1  -6  230.78   11.80
   3   1  -6  221.98   12.40
  -3  -1   6  236.68   12.20
  -3  -1   6  240.48   12.60
  -3  -1   6  245.48   11.80
  -3  -1   6  241.68   10.80
   2   1  -6  921.21   37.70
   2   1  -6  962.40   38.00
  -2  -1   6  912.41   37.70
  -2  -1   6  960.40   38.20
  -2  -1   6  925.41   37.30
   1   1  -6  375.36   16.00
   1   1  -6  396.96   17.70
   1   1  -6  399.36   17.50
  -1  -1   6  400.46   18.00
  -1  -1   6  403.66   17.40
   0   1  -6   34.40    4.60
   0   1  -6   32.50    2.70
   0   1  -6   35.10    5.10
   0  -1   6   31.60    5.10
   0  -1   6   33.00    4.80
  -1   1  -6  934.31   36.90
  -1   1  -6  923.91   37.50
  -1   1  -6  929.71   38.20
   1  -1   6  929.31   36.40
   1  -1   6  933.51   37.60
  -2   1  -6  835.12   34.30
  -2   1  -6  807.02   32.50
   2  -1   6  796.32   31.40
   2  -1   6  821.42   32.10
   2  -1   6  792.92   33.40
  -3   1  -6  645.44   26.50
  -3   1  -6  643.54   28.60
   3  -1   6  660.93   27.80
   3  -1   6  644.34   26.20
   3  -1   6  626.94   25.40
  -4   1  -6   69.19    6.50
   4  -1   6   79.69    5.50
   4  -1   6   74.49    6.40
  -5   1  -6   64.29    6.90
  -5   1  -6   74.89   12.10
   5  -1   6   58.59    7.10
   5  -1   6   55.89    7.90
   6   0  -6   40.10    7.90
   6   0  -6   55.09    8.10
  -6   0   6   38.20    5.90
  -6   0   6   27.10    8.20
  -6   0   6   46.40    5.70
   5   0  -6  166.88   11.20
  -5   0   6  200.28   11.60
  -5   0   6  180.38    9.40
   4   0  -6  337.77   16.40
   4   0  -6  319.67   16.00
   4   0  -6  335.17   16.20
  -4   0   6  335.17   16.30
  -4   0   6  347.37   16.60
  -4   0   6  320.37   14.20
  -4   0   6  337.17   16.00
   3   0  -6   59.69    6.80
   3   0  -6   74.09    7.20
  -3   0   6   66.99    7.00
  -3   0   6   77.09    7.70
  -3   0   6   74.99    6.70
   2   0  -6    3.90    2.90
   2   0  -6    4.30    2.70
   2   0  -6    5.10    2.50
  -2   0   6    4.40    2.60
  -2   0   6    4.30    3.10
   1   0  -6  245.78   11.20
   1   0  -6  243.98   12.20
   1   0  -6  263.07   12.90
  -1   0   6  255.77   11.20
  -1   0   6  262.37   13.30
  -1   0   6  247.28   12.20
   0   0  -6 1011.30   40.70
   0   0  -6 1023.00   39.50
   0   0  -6 1036.70   41.40
   0   0   6  995.00   41.50
   0   0   6 1010.00   40.70
  -1   0  -6  539.85   23.70
  -1   0  -6  553.24   21.90
   1   0   6  548.35   22.20
   1   0   6  504.75   23.70
   1   0   6  517.65   21.40
   1   0   6  550.04   23.10
  -2   0  -6   14.80    4.10
  -2   0  -6   11.80    2.60
   2   0   6   14.30    3.80
   2   0   6   20.00    2.70
   2   0   6   21.20    3.60
  -3   0  -6  149.79   11.30
  -3   0  -6  167.88    8.60
   3   0   6  172.18    9.30
   3   0   6  162.98    8.40
  -4   0  -6  699.13   28.20
   4   0   6  703.93   29.00
   4   0   6  674.43   30.50
   4   0   6  685.23   28.10
  -5   0  -6  318.07   15.20
  -5   0  -6  322.37   19.40
   5   0   6  336.57   15.60
   5   0   6  308.37   16.10
   5   0   6  319.57   18.60
   6  -1  -6   70.09    9.00
   6  -1  -6   84.39    8.90
  -6   1   6   65.39    9.60
  -6   1   6   60.39    9.80
  -6   1   6   73.09    7.10
   5  -1  -6   43.90    5.70
   5  -1  -6   38.20    6.80
  -5   1   6   34.30    5.00
  -5   1   6   41.00    6.30
  -5   1   6   42.40    7.60
   4  -1  -6  120.29    9.70
   4  -1  -6  120.09    9.00
   4  -1  -6  101.59    8.50
  -4   1   6  118.69   10.10
  -4   1   6  126.29    8.80
  -4   1   6  120.79   10.70
   3  -1  -6   98.89    7.50
   3  -1  -6   81.29    7.30
   3  -1  -6   99.29    7.10
  -3   1   6   85.19    9.10
  -3   1   6   91.69    7.30
   2  -1  -6  808.52   33.00
   2  -1  -6  741.63   31.40
   2  -1  -6  785.42   31.70
   2  -1  -6  789.22   31.40
  -2   1   6  796.12   31.70
  -2   1   6  726.33   33.10
   1  -1  -6  101.79    6.20
   1  -1  -6  103.19    8.00
   1  -1  -6   90.19    7.00
  -1   1   6  114.29    9.10
  -1   1   6  107.09    7.20
   0  -1  -6   80.49    5.40
   0  -1  -6   75.19    7.10
   0   1   6   78.99    6.60
   0   1   6   77.49    7.60
  -1  -1  -6  792.02   30.40
  -1  -1  -6  777.12   32.80
   1   1   6  799.52   32.20
   1   1   6  765.02   30.80
   1   1   6  715.73   32.70
   1   1   6  776.22   31.40
  -2  -1  -6  278.17   12.50
  -2  -1  -6  306.77   15.90
   2   1   6  285.67   13.30
   2   1   6  289.37   14.00
   2   1   6  308.97   15.30
   2   1   6  297.57   15.70
  -3  -1  -6  797.82   32.10
   3   1   6  811.32   32.80
   3   1   6  836.32   33.60
  -4  -1  -6   -0.20    2.70
  -4  -1  -6   -0.20    5.60
   4   1   6    6.50    4.30
   4   1   6   -7.60    7.70
   4   1   6    5.30    4.10
  -5  -1  -6  113.49   13.90
  -5  -1  -6  102.59    7.80
   5   1   6  109.79   10.50
   5   1   6   94.19   12.40
   6  -2  -6   25.10    7.80
   6  -2  -6   14.90    5.10
   6  -2  -6   15.70    5.50
   6  -2  -6   -3.30    6.80
  -6   2   6    4.90    7.80
  -6   2   6   15.60    7.00
   5  -2  -6  154.28    9.30
   5  -2  -6  151.38   12.10
   5  -2  -6  137.89   11.70
   5  -2  -6  147.29   10.10
  -5   2   6  155.78   14.20
  -5   2   6  145.39   12.30
   4  -2  -6  165.08   10.70
   4  -2  -6  169.68   11.10
   4  -2  -6  149.69    9.80
   4  -2  -6  151.88   12.40
  -4   2   6  155.98   12.40
  -4   2   6  158.38   10.00
   3  -2  -6   13.20    3.60
   3  -2  -6    6.40    5.00
   3  -2  -6   13.70    3.80
   3  -2  -6   10.60    4.00
  -3   2   6    6.00    3.40
  -3   2   6   15.90    5.40
   2  -2  -6   53.09    5.90
   2  -2  -6   49.99    8.10
   2  -2  -6   51.89    5.90
   2  -2  -6   58.79    5.60
  -2   2   6   52.39    5.90
  -2   2   6   36.50    6.70
   1  -2  -6  121.69    7.70
   1  -2  -6  126.19    9.70
   1  -2  -6  119.19    7.10
  -1   2   6  114.59    8.20
  -1   2   6  130.09   10.60
   0  -2  -6  720.73   29.00
   0   2   6  743.13   31.30
   0   2   6  643.34   29.40
   0   2   6  724.33   29.00
  -1  -2  -6  368.36   18.20
   1   2   6  345.87   17.20
   1   2   6  364.06   16.70
   1   2   6  359.26   16.10
   1   2   6  344.97   18.00
   2   2   6   41.00    6.10
   2   2   6   43.50    6.20
   2   2   6   44.10    5.70
   2   2   6   32.10    5.40
   3   2   6  208.58   14.10
   3   2   6  219.88   12.50
   3   2   6  202.98   11.60
  -4  -2  -6  318.47   19.40
   4   2   6  332.67   17.40
   4   2   6  350.86   19.60
   5  -3  -6   -0.30    6.80
   5  -3  -6    2.20    6.30
   5  -3  -6   10.50    4.00
  -5   3   6    1.70    6.60
  -5   3   6   -6.70    9.10
   4  -3  -6   32.90    6.40
   4  -3  -6   28.10    4.40
   4  -3  -6   31.80    7.70
   4  -3  -6   28.70    5.80
  -4   3   6   23.30    4.80
  -4   3   6   32.70    7.20
   3  -3  -6   65.19    7.30
   3  -3  -6   58.19    7.10
   3  -3  -6   57.89    8.60
  -3   3   6   72.09   10.80
  -3   3   6   60.69    6.70
   2  -3  -6  233.88   16.20
   2  -3  -6  220.98   11.90
   2  -3  -6  273.27   13.10
  -2   3   6  236.38   16.00
  -2   3   6  264.77   12.50
   1  -3  -6   58.59    6.30
   1  -3  -6   41.70    4.70
  -1   3   6   46.50    7.10
  -1   3   6   67.49    6.90
   0  -3  -6  196.68   11.00
   0   3   6  211.58   11.60
   0   3   6  201.58   13.50
   0   3   6  195.08   11.60
   1   3   6  366.76   17.90
   1   3   6  362.56   18.10
   1   3   6  375.36   17.50
   1   3   6  367.46   19.30
  -2  -3  -6  114.89   11.70
   2   3   6  119.49   11.10
   2   3   6  112.99   10.80
   2   3   6  124.09   10.00
  -3  -3  -6  364.66   21.10
   3   3   6  404.26   21.10
   3   3   6  393.66   20.90
   3   3   6  388.16   21.60
   3   3   6  384.56   19.40
  -4  -3  -6    8.60    7.90
   4   3   6    0.00    7.00
   4   3   6    7.80    6.80
   4   3   6   15.20    8.50
   4  -4  -6   20.00    7.50
  -4   4   6   17.10    7.70
  -4   4   6   34.20    4.80
   3  -4  -6   10.10    5.50
   3  -4  -6   -6.90    6.30
   3  -4  -6    0.50    4.40
  -3   4   6    3.40    4.00
  -3   4   6    3.00    6.70
   2  -4  -6   76.39    8.80
   2  -4  -6   88.99   12.90
  -2   4   6   75.59   12.70
  -2   4   6   90.79    7.70
   1  -4  -6  101.49    8.70
  -1   4   6   97.99   12.30
  -1   4   6  111.79    9.00
   0  -4  -6  283.27   18.60
   0   4   6  285.67   16.40
   0   4   6  313.07   18.20
   0   4   6  304.97   16.00
  -1  -4  -6   73.59   12.20
  -1  -4  -6   98.99    6.80
   1   4   6  100.19   10.30
   1   4   6   88.19   10.80
   1   4   6  101.99   10.30
   1   4   6   87.89   11.30
  -2  -4  -6   26.30    8.10
  -2  -4  -6   28.60    5.30
   2   4   6   23.10    7.00
   2   4   6   18.20    6.40
   2   4   6   23.30    6.90
   2   4   6   14.90    6.50
  -3  -4  -6  122.99   15.50
  -3  -4  -6  163.28   10.40
   3   4   6  154.88   13.70
   3   4   6  134.29   14.50
   3   4   6  156.88   14.50
   3   4   6  154.08   13.40
   3  -5  -6   84.29   11.70
  -3   5   6   66.09   10.90
  -3   5   6   58.29    7.80
   2  -5  -6   40.80    7.50
   2  -5  -6   39.10    8.90
  -2   5   6   22.40    9.00
  -2   5   6   24.60    5.20
   1  -5  -6   10.80    9.60
   1  -5  -6   23.20    6.50
  -1   5   6   23.90    5.80
  -1   5   6   17.60    7.90
   0   5   6  118.99   12.00
   0   5   6  112.59   12.10
   0   5   6  123.69   14.00
   0   5   6  120.19   13.30
  -1  -5  -6  102.19   15.90
  -1  -5  -6  129.59    8.60
   1   5   6   99.49   13.80
   1   5   6  121.29   12.50
   1   5   6  118.39   13.60
   1   5   6  134.59   13.50
   2   8  -7   61.99    8.00
   2   8  -7   68.19    8.30
   2   8  -7   53.89    7.90
   2   8  -7   65.59    6.30
   2   8  -7   66.29    7.90
  -2  -8   7   65.29    9.00
   1   8  -7  178.48   10.40
   1   8  -7  187.48   13.90
   1   8  -7  184.98   13.00
  -1  -8   7  179.88   13.50
   0   8  -7  190.08   13.90
   0   8  -7  198.78   13.00
   0   8  -7  204.28   10.40
   0  -8   7  210.28   14.30
  -1   8  -7   69.39    9.00
  -1   8  -7   67.39    8.20
   1  -8   7   71.19    9.80
  -2   8  -7   22.50    5.30
  -2   8  -7   21.70    6.60
   2  -8   7   22.30    7.70
  -4  -7   7   78.09   10.20
   3   7  -7  177.98   10.20
   3   7  -7  178.28   14.60
  -3  -7   7  178.38   12.20
   2   7  -7  237.28   16.30
   2   7  -7  286.47   13.50
   2   7  -7  296.47   13.40
  -2  -7   7  281.47   15.10
   1   7  -7   41.20    7.10
   1   7  -7   35.30    6.00
   1   7  -7   34.10    6.30
   1   7  -7   46.40    5.30
  -1  -7   7   52.09    7.00
   0   7  -7  103.99    9.40
   0   7  -7  104.59    9.20
   0   7  -7   99.99    6.10
   0  -7   7  118.99    9.60
   0  -7   7   78.49   10.80
  -1   7  -7  404.56   18.70
  -1   7  -7  405.56   19.50
   1  -7   7  390.66   20.20
   1  -7   7  364.36   20.30
  -2   7  -7   90.49    9.00
  -2   7  -7   99.19   10.10
   2  -7   7   90.99   10.60
   2  -7   7  101.69   10.50
  -3   7  -7  124.79   11.40
   3  -7   7   92.29   11.10
   3  -7   7  111.79   11.80
   5   6  -7  130.49   14.60
   5   6  -7  118.09   11.80
  -5  -6   7  111.09   16.30
  -5  -6   7  129.49   11.60
   4   6  -7   70.29    8.20
   4   6  -7   52.89    7.80
  -4  -6   7   58.59    6.80
   3   6  -7   16.60    5.50
   3   6  -7   11.20    3.90
  -3  -6   7    3.70    3.90
  -3  -6   7   14.50    5.30
   2   6  -7  193.58    9.70
   2   6  -7  153.18   12.10
  -2  -6   7  183.38   11.00
   1   6  -7  372.86   15.60
   1   6  -7  388.46   18.50
   1   6  -7  365.16   17.20
  -1  -6   7  379.36   18.10
  -1  -6   7  362.16   19.00
   0   6  -7  265.57   13.90
   0   6  -7  255.17   10.80
   0   6  -7  269.87   14.00
   0  -6   7  259.47   14.20
   0  -6   7  266.67   15.20
  -1   6  -7   48.90    6.50
  -1   6  -7   49.70    7.00
   1  -6   7   42.70    6.10
   1  -6   7   48.80    6.90
  -2   6  -7   65.39    8.20
  -2   6  -7   69.09    7.60
   2  -6   7   71.59    8.30
   2  -6   7   51.59    8.30
  -3   6  -7  627.14   28.60
   3  -6   7  656.63   28.10
   3  -6   7  640.14   31.10
  -4   6  -7  270.47   15.90
   4  -6   7  247.58   15.10
   5   5  -7   48.90    8.30
  -5  -5   7   67.49    7.90
   4   5  -7  133.59   11.80
  -4  -5   7  125.99    9.70
  -4  -5   7  147.99    9.70
   3   5  -7  340.67   17.80
   3   5  -7  331.17   14.10
  -3  -5   7  341.27   15.00
  -3  -5   7  330.87   16.40
   2   5  -7  238.58   14.70
   2   5  -7  277.57   12.50
  -2  -5   7  255.77   15.10
  -2  -5   7  279.97   11.70
  -2  -5   7  272.67   13.80
   1   5  -7   37.10    5.40
   1   5  -7   27.80    4.10
  -1  -5   7   33.00    5.40
  -1  -5   7   30.20    5.40
   0   5  -7  446.76   20.70
   0   5  -7  464.55   20.90
   0   5  -7  463.15   20.70
   0  -5   7  467.75   20.90
   0  -5   7  451.15   20.90
  -1   5  -7  581.44   27.60
  -1   5  -7  666.33   28.10
  -1   5  -7  697.03   28.90
   1  -5   7  662.63   28.00
   1  -5   7  664.93   28.90
  -2   5  -7  257.87   14.20
  -2   5  -7  287.57   14.30
   2  -5   7  274.87   14.00
  -3   5  -7   85.19    8.90
   3  -5   7  104.69    9.10
  -4   5  -7   40.40    6.30
  -5   5  -7  121.99   12.10
   6   4  -7   90.59   13.00
   6   4  -7   78.89   10.20
  -6  -4   7   86.79    8.50
  -6  -4   7   65.39   10.80
   5   4  -7  170.28   13.30
  -5  -4   7  172.48   10.90
   4   4  -7   43.20    6.50
  -4  -4   7   62.19    7.70
  -4  -4   7   51.09    6.90
   3   4  -7   -1.20    4.50
   3   4  -7    1.50    2.40
  -3  -4   7    1.30    3.30
  -3  -4   7    1.40    3.70
   2   4  -7  257.47   14.50
   2   4  -7  262.37   12.50
  -2  -4   7  270.27   11.70
  -2  -4   7  272.57   13.20
  -2  -4   7  268.07   19.00
   1   4  -7  624.64   25.90
   1   4  -7  558.24   26.40
  -1  -4   7  624.84   26.60
  -1  -4   7  639.94   25.50
   0   4  -7  302.77   15.60
   0   4  -7  344.97   16.10
   0   4  -7  345.67   16.10
   0  -4   7  346.97   16.00
   0  -4   7  323.77   15.60
  -1   4  -7    5.20    3.50
  -1   4  -7   -1.90    3.00
  -1   4  -7    0.00    3.40
   1  -4   7   -3.60    3.00
  -2   4  -7  130.59    9.30
  -2   4  -7  134.29   10.70
  -2   4  -7  140.79    9.30
   2  -4   7  133.79    9.40
  -3   4  -7  899.21   38.60
  -3   4  -7  865.61   36.70
   3  -4   7  885.21   36.70
  -4   4  -7  362.66   18.20
  -4   4  -7  373.36   21.00
  -5   4  -7   15.90    7.90
  -5   4  -7   15.30    6.20
   5  -4   7   12.10    6.50
   6   3  -7   49.10    8.20
  -6  -3   7   63.09   10.40
  -6  -3   7   69.09    7.50
   5   3  -7  128.49   11.30
   5   3  -7  110.99   11.50
  -5  -3   7  131.49    9.40
   4   3  -7   84.29    6.60
   4   3  -7   91.59    9.60
  -4  -3   7   97.49    9.90
  -4  -3   7   96.89    8.60
  -4  -3   7   98.69    7.70
   3   3  -7  573.34   25.00
   3   3  -7  572.44   22.90
  -3  -3   7  544.35   24.90
  -3  -3   7  528.25   23.20
  -3  -3   7  517.35   22.90
   2   3  -7  117.19    7.60
   2   3  -7  118.39    9.20
  -2  -3   7  121.49    9.10
  -2  -3   7  109.19    6.70
   1   3  -7   19.10    4.00
   1   3  -7   11.20    3.30
  -1  -3   7   12.60    3.50
  -1  -3   7   13.30    2.50
  -1  -3   7   17.90    3.30
   0   3  -7  923.31   37.70
   0   3  -7  921.41   37.50
   0  -3   7  908.21   37.40
  -1   3  -7  506.85   22.80
  -1   3  -7  501.35   21.70
  -1   3  -7  497.95   22.10
   1  -3   7  500.25   22.10
  -2   3  -7  845.72   34.40
  -2   3  -7  713.03   32.40
  -2   3  -7  831.82   33.10
   2  -3   7  793.92   33.00
   2  -3   7  774.42   30.60
  -3   3  -7    4.90    3.70
   3  -3   7    8.20    4.20
   3  -3   7    9.10    2.40
  -4   3  -7  130.09    9.60
  -4   3  -7  126.49   18.30
   4  -3   7  123.59    7.40
  -5   3  -7  207.58   17.00
  -5   3  -7  224.48   13.60
   5  -3   7  226.48   11.70
   5  -3   7  207.38   15.30
   6   2  -7  101.59   11.90
   6   2  -7  101.89   11.70
  -6  -2   7  110.89    8.70
  -6  -2   7  118.99    9.10
  -6  -2   7  123.59   14.30
   5   2  -7  152.88   11.80
  -5  -2   7  155.78    9.70
  -5  -2   7  156.48    9.80
   4   2  -7   14.20    4.80
   4   2  -7   19.10    4.20
  -4  -2   7   23.20    4.70
  -4  -2   7   18.10    4.40
  -4  -2   7   22.60    5.00
  -4  -2   7   26.80    5.40
   3   2  -7   26.20    5.40
   3   2  -7   25.00    4.00
  -3  -2   7   26.10    4.50
  -3  -2   7   17.40    4.90
  -3  -2   7   30.00    4.60
  -3  -2   7   26.40    4.20
   2   2  -7  186.98   10.40
   2   2  -7  197.38   11.50
  -2  -2   7  189.98    9.70
  -2  -2   7  198.58   11.10
  -2  -2   7  182.58   10.90
   1   2  -7  910.91   37.10
   1   2  -7  910.11   36.90
   1   2  -7  889.71   34.90
  -1  -2   7  878.01   36.80
  -1  -2   7  916.81   35.10
   0   2  -7  429.76   19.20
   0   2  -7  400.16   16.20
   0   2  -7  406.96   18.70
   0  -2   7  420.06   18.80
  -1   2  -7   63.39    6.50
  -1   2  -7   61.39    5.90
  -1   2  -7   56.49    7.10
   1  -2   7   51.79    6.50
   1  -2   7   61.99    4.40
  -2   2  -7  306.87   16.30
  -2   2  -7  310.47   14.40
   2  -2   7  292.97   13.00
   2  -2   7  303.07   15.30
  -3   2  -7  580.04   26.00
   3  -2   7  629.64   24.00
   3  -2   7  642.34   25.20
  -4   2  -7  327.77   15.60
  -4   2  -7  301.47   18.70
   4  -2   7  330.37   17.70
   4  -2   7  312.07   14.50
  -5   2  -7   -8.90    6.90
  -5   2  -7    0.70    4.70
   5  -2   7    1.50    4.20
   5  -2   7    2.70    6.80
   5  -2   7    3.90    3.70
   6   1  -7   -3.60    6.70
   6   1  -7    1.30    5.40
  -6  -1   7   -0.30    4.90
  -6  -1   7    2.00    4.80
  -6  -1   7   13.20    8.30
   5   1  -7   71.49    9.60
   5   1  -7   65.09    9.40
  -5  -1   7   89.19    7.20
  -5  -1   7   77.99    8.50
   4   1  -7   57.19    7.90
   4   1  -7   65.19    8.50
  -4  -1   7   80.29    8.30
  -4  -1   7   70.19    6.20
  -4  -1   7   72.29    8.30
  -4  -1   7   64.19    8.90
   3   1  -7  482.75   20.70
   3   1  -7  375.56   20.50
  -3  -1   7  485.55   21.00
  -3  -1   7  428.96   20.90
  -3  -1   7  482.95   20.10
   2   1  -7   67.09    6.70
   2   1  -7   55.89    5.00
   2   1  -7   59.39    7.10
  -2  -1   7   58.69    7.30
  -2  -1   7   61.29    6.60
   1   1  -7  248.48   11.00
   1   1  -7  249.18   12.90
   1   1  -7  260.17   13.20
  -1  -1   7  235.78   12.70
  -1  -1   7  260.37   13.70
   0   1  -7  704.13   32.60
   0   1  -7  773.22   32.40
   0   1  -7  792.52   30.50
   0  -1   7  812.72   32.50
   0  -1   7  823.32   33.40
  -1   1  -7  247.78   11.90
  -1   1  -7  233.68   12.70
  -1   1  -7  250.57   13.60
   1  -1   7  253.77   11.30
   1  -1   7  243.48   13.10
  -2   1  -7  978.40   38.60
   2  -1   7  956.50   37.30
   2  -1   7  963.30   38.20
  -3   1  -7   13.10    3.50
   3  -1   7   19.10    3.60
   3  -1   7   10.10    2.60
  -4   1  -7  274.17   17.60
  -4   1  -7  278.67   13.50
   4  -1   7  262.57   13.40
   4  -1   7  250.47   16.50
  -5   1  -7  289.27   14.70
  -5   1  -7  300.97   20.10
   5  -1   7  283.77   14.90
   5  -1   7  283.67   18.30
   6   0  -7   80.79   10.20
  -6   0   7   93.49   10.90
  -6   0   7   95.19   11.10
  -6   0   7  103.69    8.50
   5   0  -7   67.69    9.20
   5   0  -7   74.29    9.50
  -5   0   7   61.69    9.50
  -5   0   7   61.79    8.60
  -5   0   7   84.99    6.50
   4   0  -7   -0.20    4.40
   4   0  -7    0.80    4.40
  -4   0   7   -5.60    5.20
  -4   0   7   10.20    4.80
  -4   0   7    7.60    4.60
   3   0  -7  132.89    9.70
   3   0  -7  139.09    8.60
   3   0  -7  108.49    9.50
  -3   0   7  126.49    9.70
  -3   0   7  134.99    9.40
  -3   0   7  113.09   10.30
   2   0  -7  153.38   10.30
   2   0  -7  174.68    8.80
   2   0  -7  162.98   10.20
  -2   0   7  151.08    9.80
  -2   0   7  167.68   11.70
   1   0  -7  707.83   29.50
   1   0  -7  700.43   30.20
   1   0  -7  669.63   28.10
  -1   0   7  694.23   29.40
  -1   0   7  741.03   30.90
   0   0  -7  278.37   14.40
   0   0  -7  293.47   12.70
   0   0  -7  297.07   15.30
   0   0   7  277.57   15.40
   0   0   7  312.77   14.70
  -1   0  -7   75.59    5.90
   1   0   7   69.19    7.80
   1   0   7   77.29    6.20
   1   0   7   72.99    8.30
  -2   0  -7  425.96   18.40
   2   0   7  441.06   19.00
   2   0   7  434.86   18.10
  -3   0  -7  396.46   17.50
  -3   0  -7  414.06   21.30
   3   0   7  415.96   18.50
   3   0   7  398.26   17.30
  -4   0  -7  182.18   10.00
  -4   0  -7  166.88   14.80
   4   0   7  175.18   11.10
   4   0   7  180.78   14.60
  -5   0  -7    7.60    7.60
   5   0   7   -3.10    5.40
   6  -1  -7   11.20    5.90
   6  -1  -7   -6.70    5.60
  -6   1   7   -2.00    8.20
  -6   1   7    4.50    6.70
   5  -1  -7   12.60    5.80
   5  -1  -7   30.20    7.00
   5  -1  -7   24.30    5.60
  -5   1   7   33.00    8.30
  -5   1   7   24.70    6.50
   4  -1  -7   84.69    9.30
   4  -1  -7   87.09    9.10
   4  -1  -7   91.79   11.10
  -4   1   7  101.39   11.20
  -4   1   7   96.19    9.70
  -4   1   7   82.69   14.40
   3  -1  -7  144.99   10.00
   3  -1  -7  154.28    9.60
   3  -1  -7  143.69    9.70
   3  -1  -7  143.09   12.00
  -3   1   7  149.79   12.30
  -3   1   7  155.38    9.90
   2  -1  -7   46.40    6.90
   2  -1  -7   45.10    6.00
   2  -1  -7   51.49    6.00
   2  -1  -7   56.39    6.80
  -2   1   7   64.79    6.90
  -2   1   7   55.89    9.10
   1  -1  -7  355.76   15.80
   1  -1  -7  344.17   18.00
   1  -1  -7  356.06   16.90
  -1   1   7  374.36   19.00
  -1   1   7  349.67   16.80
   0  -1  -7  430.76   18.50
   0   1   7  434.66   21.40
   0   1   7  435.36   20.00
  -1  -1  -7  199.18    9.50
   1   1   7  195.18   12.10
   1   1   7  178.48   10.70
   1   1   7  195.78    9.90
   1   1   7  197.88   12.70
  -2  -1  -7  320.07   14.20
   2   1   7  329.97   15.00
   2   1   7  323.57   17.90
   2   1   7  351.86   18.00
   2   1   7  338.67   16.10
  -3  -1  -7   33.20    4.70
  -3  -1  -7   29.80    6.80
   3   1   7   37.80    4.80
   3   1   7   37.20    5.40
   3   1   7   34.90    7.10
  -4  -1  -7  325.07   19.80
  -4  -1  -7  296.07   13.70
   4   1   7  317.47   19.20
   4   1   7  277.27   15.10
   4   1   7  314.27   16.10
   5  -2  -7    8.60    6.90
   5  -2  -7   10.80    7.00
   5  -2  -7    4.50    4.90
  -5   2   7   11.80    9.50
  -5   2   7   12.00    7.10
   4  -2  -7   -7.80    6.10
   4  -2  -7    4.10    4.20
   4  -2  -7    0.30    5.20
  -4   2   7   -0.40    4.80
  -4   2   7    1.60    8.20
  -4   2   7   -7.20    5.80
   3  -2  -7  142.69   10.10
   3  -2  -7  140.69    9.60
   3  -2  -7  126.19    9.30
   3  -2  -7  103.19   13.40
  -3   2   7  122.29   13.10
  -3   2   7  125.89    9.40
   2  -2  -7  202.48   10.90
   2  -2  -7  191.68   10.40
   2  -2  -7  196.98   14.00
   2  -2  -7  190.18   11.30
  -2   2   7  190.78   11.10
  -2   2   7  166.58   14.00
   1  -2  -7  289.07   17.30
   1  -2  -7  312.87   14.00
   1  -2  -7  303.87   14.60
  -1   2   7  324.77   18.30
  -1   2   7  304.87   15.50
   0  -2  -7   59.89    6.40
   0   2   7   90.79    8.80
   0   2   7   75.69    9.90
  -1  -2  -7   40.00    4.40
   1   2   7   36.80    6.30
   1   2   7   41.10    5.20
   1   2   7   42.90    6.10
   1   2   7   37.10    6.40
  -2  -2  -7  318.97   19.10
   2   2   7  344.87   18.70
   2   2   7  322.17   15.90
   2   2   7  339.87   17.00
   2   2   7  335.77   18.60
  -3  -2  -7  297.27   19.30
   3   2   7  336.27   19.50
   3   2   7  329.67   17.10
   4  -3  -7  113.89   12.20
   4  -3  -7  100.09    9.30
   4  -3  -7   87.89   14.70
  -4   3   7  104.59   10.30
  -4   3   7   97.39   14.40
   3  -3  -7    9.00    4.90
   3  -3  -7   17.80    5.90
   3  -3  -7   12.90    7.80
  -3   3   7    9.70    4.70
  -3   3   7   14.90    7.60
   2  -3  -7    9.70    7.80
   2  -3  -7   14.10    4.20
   2  -3  -7   18.10    5.20
  -2   3   7   20.90    4.80
  -2   3   7   19.50    7.40
   1  -3  -7  142.29   16.60
   1  -3  -7  141.59   10.10
  -1   3   7  160.98   14.20
  -1   3   7  169.48   11.30
   0  -3  -7  168.68   14.40
   0   3   7  180.28   12.70
   0   3   7  159.68   14.20
  -1  -3  -7  133.99   14.00
  -1  -3  -7  158.88    8.70
   1   3   7  141.39   13.00
   1   3   7  151.18   11.50
   1   3   7  144.09   12.70
  -2  -3  -7   16.20    7.10
   2   3   7   22.70    6.50
   2   3   7   24.90    6.90
   2   3   7   28.10    7.20
   2   3   7   27.00    7.70
   3  -4  -7   72.49    9.10
   3  -4  -7   66.99   11.00
  -3   4   7   63.19    9.00
  -3   4   7   63.99   11.20
   2  -4  -7  108.39   16.00
   2  -4  -7  139.39   11.50
  -2   4   7  149.69   10.90
  -2   4   7  114.69   15.50
   1  -4  -7   82.19    9.70
   1  -4  -7  101.89   15.40
  -1   4   7  112.39   11.20
  -1   4   7   83.59   14.30
   0  -4  -7   -0.50    7.20
   0   4   7    0.70    6.40
   0   4   7    3.20    7.20
   0   4   7    5.20    6.00
  -1  -4  -7   27.20    8.50
  -1  -4  -7   37.90    5.40
   1   4   7   24.60    7.70
   1   4   7   21.40    7.70
   1   4   7   18.30    6.90
   1   4   7   46.10    8.60
   1   8  -8   91.29   10.50
   1   8  -8   79.19    9.60
   1   8  -8   85.19    7.50
   1   8  -8   87.79   11.30
  -1  -8   8   90.49   10.80
   0   8  -8   -4.10    5.70
   0   8  -8    0.80    6.50
   0  -8   8    4.20    6.30
   0  -8   8   -3.30    7.30
  -1   8  -8   38.00    7.20
  -1   8  -8   46.70    8.30
   1  -8   8   47.10    8.60
   1  -8   8   40.60    8.90
   3   7  -8   77.09   10.20
  -3  -7   8   61.99    9.60
   2   7  -8   -1.10    3.90
   2   7  -8   -6.90    6.50
   2   7  -8    0.60    4.10
   1   7  -8  307.07   15.70
   1   7  -8  312.47   17.30
   1   7  -8  267.77   12.80
   1   7  -8  296.87   16.70
  -1  -7   8  283.37   18.10
  -1  -7   8  305.97   16.00
   0   7  -8  226.98   14.00
   0   7  -8  216.88   14.00
   0   7  -8  235.78   14.50
   0  -7   8  238.48   14.10
   0  -7   8  216.18   16.10
  -1   7  -8  195.88   14.00
  -1   7  -8  209.38   13.20
   1  -7   8  195.78   14.00
  -2   7  -8   17.80    6.70
  -2   7  -8   10.60    5.30
   2  -7   8   15.20    6.70
   4   6  -8   -0.90    6.60
  -4  -6   8    7.20    5.60
  -4  -6   8   -2.30    5.20
   3   6  -8  135.49   13.00
   3   6  -8  118.19    7.00
  -3  -6   8  105.29    9.50
   2   6  -8  286.17   17.80
   2   6  -8  321.47   14.90
  -2  -6   8  326.27   18.60
   1   6  -8  154.48   10.30
   1   6  -8  146.19    7.30
   1   6  -8  162.38   11.70
  -1  -6   8  151.18   15.30
  -1  -6   8  148.59    9.90
   0   6  -8   11.40    4.80
   0   6  -8   19.10    5.00
   0   6  -8   11.00    5.40
   0  -6   8   15.60    4.90
  -1   6  -8  132.99   10.40
  -1   6  -8  128.09   12.20
  -1   6  -8  135.79   11.00
   1  -6   8  149.19   10.50
  -2   6  -8  495.75   22.90
  -2   6  -8  482.45   23.40
   2  -6   8  504.45   24.90
  -3   6  -8  219.18   14.50
   3  -6   8  214.48   15.90
   3  -6   8  218.98   18.40
   5   5  -8   28.00    7.50
  -5  -5   8   50.39    7.70
   4   5  -8  196.48   15.40
  -4  -5   8  209.18   12.40
  -4  -5   8  219.08   12.60
   3   5  -8   38.90    7.30
   3   5  -8   41.30    5.30
  -3  -5   8   24.90    4.40
  -3  -5   8   27.50    5.80
   2   5  -8   43.80    6.50
  -2  -5   8   27.20    3.30
  -2  -5   8   53.49    8.80
   1   5  -8  565.14   24.70
   1   5  -8  576.44   25.60
  -1  -5   8  553.64   24.30
   0   5  -8  196.18   12.00
   0   5  -8  184.48   11.80
   0   5  -8  190.18   11.90
   0  -5   8  195.38   11.40
  -1   5  -8  595.84   26.30
  -1   5  -8  580.84   26.40
  -1   5  -8  621.24   27.40
   1  -5   8  596.74   26.90
  -2   5  -8    2.10    5.80
  -2   5  -8    1.00    4.10
  -2   5  -8   10.90    4.80
  -3   5  -8  164.58   12.40
  -3   5  -8  169.68   15.50
   3  -5   8  190.78   15.10
  -4   5  -8  222.18   14.90
  -4   5  -8  241.08   17.50
   4  -5   8  223.78   15.50
   5   4  -8   11.10    6.60
  -5  -4   8    1.80    4.80
   4   4  -8   44.00    5.90
  -4  -4   8   30.80    6.00
   3   4  -8  117.49   11.10
   3   4  -8  116.19    7.70
  -3  -4   8   95.59    8.40
  -3  -4   8  112.39    8.10
   2   4  -8  475.35   22.90
   2   4  -8  473.45   21.10
  -2  -4   8  492.95   19.80
   1   4  -8  210.28   11.70
   1   4  -8  200.28   12.70
  -1  -4   8  212.08   10.70
   0   4  -8   71.19    7.70
   0   4  -8   65.59    7.80
   0   4  -8   68.59    7.70
   0  -4   8   65.49    6.60
   0  -4   8   57.89    8.00
  -1   4  -8  362.16   18.90
  -1   4  -8  375.66   17.90
  -1   4  -8  378.46   18.00
  -2   4  -8  419.26   20.20
  -2   4  -8  442.36   22.20
  -2   4  -8  431.36   20.40
  -3   4  -8  211.38   15.80
  -3   4  -8  224.18   13.20
   3  -4   8  208.08   14.40
  -4   4  -8    0.30    6.90
  -4   4  -8    4.80    5.50
   4  -4   8    4.20    6.10
   5   3  -8   48.30    8.20
  -5  -3   8   56.29    7.50
   4   3  -8  194.68   13.40
   4   3  -8  155.68   10.60
  -4  -3   8  173.38   13.70
  -4  -3   8  184.98   11.60
  -4  -3   8  164.88   10.40
   3   3  -8   33.10    4.60
   3   3  -8   27.00    6.00
  -3  -3   8   32.00    4.90
  -3  -3   8   35.60    6.70
   2   3  -8  316.27   16.40
   2   3  -8  290.97   14.70
  -2  -3   8  298.17   13.60
   1   3  -8  498.15   20.50
   1   3  -8  516.45   23.10
   1   3  -8  541.05   23.80
  -1  -3   8  511.35   21.10
  -1  -3   8  537.95   21.50
   0   3  -8  172.78   10.70
   0   3  -8  165.18   10.80
   0  -3   8  154.78    7.70
   0  -3   8  162.98    7.50
  -1   3  -8  591.44   26.10
  -1   3  -8  598.14   27.10
  -1   3  -8  592.04   25.70
  -2   3  -8   58.79    6.70
  -2   3  -8   55.89    6.60
  -2   3  -8   56.19    7.80
  -3   3  -8  424.06   19.30
  -3   3  -8  405.66   21.90
   3  -3   8  392.16   20.30
   3  -3   8  390.76   16.70
  -4   3  -8  354.36   17.90
  -4   3  -8  346.67   21.40
   4  -3   8  346.67   19.90
   4  -3   8  370.66   15.70
   5   2  -8   -1.80    5.00
   5   2  -8   -4.60    5.80
  -5  -2   8   -1.40    4.80
  -5  -2   8   -1.20    4.80
  -5  -2   8   -3.20    6.60
   4   2  -8  105.89    9.80
   4   2  -8  137.49   11.70
  -4  -2   8  115.49   10.00
  -4  -2   8  115.19   10.20
  -4  -2   8  110.89   12.20
  -4  -2   8  133.39    8.80
   3   2  -8  170.48   10.60
   3   2  -8  149.59   12.10
  -3  -2   8  165.28   12.70
  -3  -2   8  176.88   11.50
  -3  -2   8  175.28   10.10
   2   2  -8  420.76   20.40
   2   2  -8  419.56   19.40
   2   2  -8  403.26   17.70
  -2  -2   8  419.86   20.10
  -2  -2   8  432.66   20.30
  -2  -2   8  405.86   18.20
   1   2  -8  143.19   10.10
   1   2  -8  149.09   10.00
   1   2  -8  132.29    6.80
  -1  -2   8  140.99   10.20
   0   2  -8   83.59    8.20
   0   2  -8   94.69    8.80
  -1   2  -8  562.24   24.10
  -1   2  -8  556.94   25.80
  -1   2  -8  556.64   24.90
   1  -2   8  560.84   22.70
  -2   2  -8  396.66   21.30
  -2   2  -8  426.06   19.00
   2  -2   8  423.26   17.50
  -3   2  -8  107.89    8.80
   3  -2   8  105.79   11.60
   3  -2   8  112.99    7.40
  -4   2  -8   35.50    5.70
  -4   2  -8   38.90    8.80
   4  -2   8   36.40    5.10
   4  -2   8   45.60    8.30
   5   1  -8   97.99   12.10
   5   1  -8   97.59   11.50
   5   1  -8  111.59   11.00
  -5  -1   8   99.69   11.00
  -5  -1   8  101.89    8.60
  -5  -1   8   99.29   12.40
   4   1  -8   44.60    6.80
   4   1  -8   31.00    7.20
   4   1  -8   45.80    7.00
  -4  -1   8   44.30    7.40
  -4  -1   8   47.20    7.00
   3   1  -8   32.70    5.60
   3   1  -8   24.40    5.70
   3   1  -8   22.80    4.70
  -3  -1   8   21.80    5.50
  -3  -1   8   31.40    6.00
  -3  -1   8   36.20    5.50
   2   1  -8  337.27   17.00
   2   1  -8  332.47   16.70
   2   1  -8  329.77   14.70
  -2  -1   8  312.57   17.50
  -2  -1   8  332.07   16.70
   1   1  -8  358.46   17.50
   1   1  -8  342.97   15.20
   1   1  -8  362.26   17.90
  -1  -1   8  376.16   18.80
  -1  -1   8  359.26   17.70
   0   1  -8  204.28   12.50
   0   1  -8  213.48   13.20
   0  -1   8  213.88   13.60
   0  -1   8  226.48   13.00
  -1   1  -8  112.39   11.00
  -1   1  -8  125.39    8.30
  -1   1  -8  124.09    9.30
   1  -1   8  122.29    7.50
  -2   1  -8   86.79    7.20
   2  -1   8   73.29    6.60
  -3   1  -8  430.06   20.60
  -3   1  -8  492.65   24.40
   3  -1   8  453.15   23.60
   3  -1   8  506.05   20.60
  -4   1  -8  338.37   16.20
  -4   1  -8  306.57   20.40
   4  -1   8  342.77   20.10
   4  -1   8  327.67   16.10
   5   0  -8   10.00    5.90
   5   0  -8    4.00    6.90
   5   0  -8   -0.50    6.60
  -5   0   8    3.10    5.90
  -5   0   8   -4.70    7.80
  -5   0   8    0.50    6.60
   4   0  -8  119.49    9.90
   4   0  -8  130.09   11.20
   4   0  -8  105.09   11.00
   4   0  -8   86.19   12.00
  -4   0   8  135.69   12.60
  -4   0   8  128.19   12.10
  -4   0   8   94.39   11.80
   3   0  -8  209.48   13.70
   3   0  -8  242.08   14.80
   3   0  -8  222.68   12.30
  -3   0   8  206.28   13.80
  -3   0   8  213.18   15.10
  -3   0   8  248.38   13.90
   2   0  -8  172.68   12.50
   2   0  -8  181.38   10.00
   2   0  -8  184.38   11.80
  -2   0   8  186.18   13.70
  -2   0   8  187.58   11.90
   1   0  -8   18.80    5.40
   1   0  -8   19.60    3.50
   1   0  -8   14.40    4.50
  -1   0   8   20.90    5.80
  -1   0   8    8.40    4.50
   0   0  -8   72.99    5.60
   0   0  -8   74.99    8.20
   0   0  -8   83.69    9.70
   0   0   8   90.09    9.70
   0   0   8   83.29    9.20
  -1   0  -8  470.75   20.00
   1   0   8  454.95   23.00
   1   0   8  459.75   22.10
   1   0   8  464.05   20.30
  -2   0  -8  426.16   18.70
   2   0   8  412.06   21.80
   2   0   8  454.45   19.70
  -3   0  -8   28.80    4.40
  -3   0  -8   26.00    8.30
   3   0   8   42.60    8.20
   3   0   8   30.80    5.70
  -4   0  -8   61.59    7.50
  -4   0  -8   71.89   10.60
   4   0   8   65.09    9.30
   5  -1  -8   90.49   12.30
   5  -1  -8  109.79   11.90
   5  -1  -8  102.69   12.30
   5  -1  -8   96.09   14.50
  -5   1   8  108.79   12.50
  -5   1   8   88.89   10.90
  -5   1   8  111.89   13.50
   4  -1  -8    5.30    5.70
   4  -1  -8   -5.80    7.00
   4  -1  -8    1.30    5.20
   4  -1  -8   14.20    6.00
  -4   1   8    0.80    6.40
  -4   1   8   10.90    8.60
  -4   1   8    3.20    6.10
   3  -1  -8    3.30    4.60
   3  -1  -8    6.20    6.30
   3  -1  -8    1.00    4.70
   3  -1  -8   -2.30    4.40
  -3   1   8    3.40    5.20
  -3   1   8    8.40    6.50
   2  -1  -8  120.99   12.20
   2  -1  -8  118.19    9.10
   2  -1  -8  136.39    8.80
   2  -1  -8  139.29   10.70
  -2   1   8  148.79   10.80
  -2   1   8  120.79   13.20
   1  -1  -8  209.48   12.60
   1  -1  -8  196.38   10.80
   1  -1  -8  197.48   14.00
  -1   1   8  210.98   14.90
  -1   1   8  211.18   13.00
   0  -1  -8  171.28   13.60
   0   1   8  189.38   13.10
   0   1   8  193.58   14.10
  -1  -1  -8   -0.80    3.00
   1   1   8   -0.70    5.40
   1   1   8   -2.00    4.90
   1   1   8   -4.60    4.10
  -2  -1  -8   86.59   12.60
  -2  -1  -8   74.09    6.10
   2   1   8   79.99   12.00
   2   1   8   78.79    7.40
   2   1   8   83.99    8.80
  -3  -1  -8  326.87   15.00
  -3  -1  -8  341.67   20.90
   3   1   8  341.77   17.40
   3   1   8  356.36   20.50
   4  -2  -8   57.09    8.80
   4  -2  -8   48.50    7.00
   4  -2  -8   77.79   10.50
   4  -2  -8   36.10    9.30
  -4   2   8   56.49   11.50
  -4   2   8   57.79    9.60
  -4   2   8   62.99    8.40
   3  -2  -8  132.49   11.30
   3  -2  -8  138.49   10.70
   3  -2  -8  137.79   11.10
   3  -2  -8  109.49   16.10
  -3   2   8  127.39   15.00
  -3   2   8  137.79   11.20
   2  -2  -8   71.09    7.60
   2  -2  -8   64.49    8.10
   2  -2  -8   82.69   10.70
  -2   2   8   72.89    9.80
  -2   2   8   63.89    9.90
   1  -2  -8    8.00    6.00
   1  -2  -8    2.30    3.50
   1  -2  -8   12.80    4.50
  -1   2   8   -2.60    6.50
  -1   2   8    8.10    5.50
   0  -2  -8   71.09    9.90
   0   2   8   77.09   11.10
   0   2   8   80.49   12.10
  -1  -2  -8  282.07   12.90
  -1  -2  -8  285.47   19.10
   1   2   8  305.67   18.50
   1   2   8  314.47   18.20
   1   2   8  283.37   15.20
   1   2   8  309.27   16.00
  -2  -2  -8  219.18   17.70
   2   2   8  241.98   17.20
   2   2   8  241.48   17.60
   2   2   8  268.37   15.20
   3  -3  -8    5.10    5.80
   3  -3  -8   18.00    8.40
   3  -3  -8   19.30    6.80
  -3   3   8   10.20    6.20
  -3   3   8    4.70    8.30
   2  -3  -8   40.30    7.10
   2  -3  -8   32.20    9.40
  -2   3   8   38.80    7.00
  -2   3   8   27.20    9.10
   1  -3  -8   89.89    9.40
   1  -3  -8  101.09   14.30
  -1   3   8   96.89   12.40
  -1   3   8  105.69   15.30
   0  -3  -8   72.19   10.60
   0   3   8   96.09   14.30
   0   3   8   63.19    8.90
   0   3   8   72.99   10.60
  -1  -3  -8    9.90    4.80
   1   3   8    5.40    7.70
   1   3   8    9.00    6.50
   1   3   8   11.50    7.60
   1   3   8   14.20    6.90
   2   7  -9  222.98   11.20
   2   7  -9  222.38   12.90
   2   7  -9  187.58   17.20
  -2  -7   9  198.78   17.00
   1   7  -9   43.90    8.30
   1   7  -9   61.09   10.10
   1   7  -9   63.49    8.70
  -1  -7   9   48.90    7.90
  -1  -7   9   49.10    9.50
   0   7  -9  233.88   15.90
   0   7  -9  224.88   15.30
   0   7  -9  236.48   15.20
   0  -7   9  204.58   18.00
   0  -7   9  260.37   14.80
  -1   7  -9   35.80    7.80
  -1   7  -9   25.00    7.80
  -1   7  -9   11.40    6.40
   1  -7   9   13.60    8.00
   1  -7   9   19.30    7.30
   3   6  -9  179.38   16.00
   3   6  -9  179.38   10.30
  -3  -6   9  163.48   15.30
   2   6  -9   59.59    8.80
   2   6  -9   75.39    8.60
  -2  -6   9   60.49    9.50
   1   6  -9   53.29    7.50
   1   6  -9   55.59    7.90
   1   6  -9   56.19    7.10
  -1  -6   9   37.10    9.20
  -1  -6   9   54.09    7.50
   0   6  -9  269.87   16.30
   0   6  -9  249.88   15.90
   0   6  -9  281.07   16.50
   0  -6   9  294.97   15.30
   0  -6   9  282.97   17.60
  -1   6  -9  242.68   15.20
  -1   6  -9  227.88   16.30
  -1   6  -9  243.38   14.70
   1  -6   9  226.78   14.30
   1  -6   9  236.88   15.90
  -2   6  -9  108.39   14.20
  -2   6  -9   94.79   11.40
  -2   6  -9   97.39   11.60
   2  -6   9   88.69   12.40
   2  -6   9   88.69   11.00
   4   5  -9    8.50    4.00
   4   5  -9   15.70    8.00
  -4  -5   9    9.30    5.90
  -4  -5   9   -3.90    6.00
   3   5  -9  196.68   15.60
   3   5  -9  198.08   11.00
  -3  -5   9  170.98   16.20
   2   5  -9  217.88   12.60
   2   5  -9  229.48   15.70
  -2  -5   9  217.78   16.80
   1   5  -9   82.79    9.50
   1   5  -9  128.49   11.30
  -1  -5   9   89.59   11.80
  -1  -5   9   96.29    8.00
   0   5  -9  181.18   12.70
   0   5  -9  180.98   13.20
   0   5  -9  180.68   12.70
   0  -5   9  172.48   13.70
   0  -5   9  203.58   11.70
  -1   5  -9   70.89   10.90
  -1   5  -9   83.69    9.80
  -1   5  -9   85.99    9.60
   1  -5   9   70.69    8.30
   1  -5   9   69.79    8.40
  -2   5  -9  392.26   20.30
  -2   5  -9  399.96   20.50
  -2   5  -9  404.16   22.50
   2  -5   9  403.26   20.90
  -3   5  -9  306.47   19.70
  -3   5  -9  289.77   17.60
   3  -5   9  291.27   18.30
   4   4  -9  113.59   13.80
   4   4  -9  110.39    9.50
  -4  -4   9  104.89    9.40
  -4  -4   9  103.09   14.20
   3   4  -9  144.89   13.70
   3   4  -9  143.99   10.00
  -3  -4   9  148.79   15.00
   2   4  -9   28.50    5.00
   2   4  -9   34.40    6.80
   1   4  -9   72.39    9.70
   1   4  -9   86.59    9.10
  -1  -4   9   76.69    6.80
   0   4  -9  430.46   21.70
   0   4  -9  438.36   21.10
   0   4  -9  456.45   21.60
   0  -4   9  447.66   22.00
   0  -4   9  453.95   20.30
  -1   4  -9  339.97   18.00
  -1   4  -9  357.36   17.70
  -1   4  -9  358.76   19.50
   1  -4   9  330.97   18.70
  -2   4  -9   38.80    6.80
  -2   4  -9   37.40    7.90
  -2   4  -9   33.80    6.30
   2  -4   9   41.20    7.50
  -3   4  -9   95.69   13.60
  -3   4  -9   67.79    8.30
   3  -4   9   56.99    9.10
   5   3  -9   -3.50    7.40
  -5  -3   9   22.30    8.40
  -5  -3   9    9.80    5.90
   4   3  -9    9.60    5.10
   4   3  -9    6.70    6.90
  -4  -3   9   -0.20    7.90
  -4  -3   9   15.20    6.20
   3   3  -9  180.08   14.10
   3   3  -9  194.38   11.60
  -3  -3   9  181.58   15.70
  -3  -3   9  183.18   11.10
   2   3  -9  211.98   10.20
   2   3  -9  204.08   14.40
   2   3  -9  208.48   12.50
  -2  -3   9  207.78   14.50
  -2  -3   9  208.68   10.80
   1   3  -9  171.98   11.50
   1   3  -9  156.08    7.20
   1   3  -9  159.48   12.00
  -1  -3   9  159.38    8.60
  -1  -3   9  163.48    8.70
   0   3  -9   11.00    5.40
   0   3  -9    5.30    4.50
   0   3  -9    8.30    4.30
   0  -3   9    9.80    2.60
  -1   3  -9  102.59    9.00
  -1   3  -9   96.29   11.40
  -1   3  -9  106.39   10.30
   1  -3   9   96.99   11.20
   1  -3   9  105.99    5.90
  -2   3  -9  504.35   23.00
  -2   3  -9  514.25   25.70
   2  -3   9  497.25   24.70
   2  -3   9  482.55   20.20
  -3   3  -9  290.27   19.90
  -3   3  -9  303.37   16.00
   3  -3   9  280.87   18.10
   3  -3   9  284.77   13.00
   5   2  -9   70.69   10.80
   5   2  -9   53.69   13.00
   5   2  -9   60.79    9.40
  -5  -2   9   92.89   11.30
  -5  -2   9   56.69    9.30
  -5  -2   9   54.79    9.80
   4   2  -9  156.68   12.80
   4   2  -9  169.88   14.40
  -4  -2   9  137.39   15.60
  -4  -2   9  154.28   12.90
   3   2  -9   66.59    7.40
   3   2  -9   79.59   11.40
   3   2  -9   96.59    9.70
  -3  -2   9   96.09   12.20
  -3  -2   9   74.89   10.80
  -3  -2   9   83.99    9.00
   2   2  -9    4.30    5.40
   2   2  -9    0.90    4.40
   2   2  -9    1.80    3.00
  -2  -2   9   -5.30    5.40
  -2  -2   9   10.50    4.30
  -2  -2   9    8.30    5.50
   1   2  -9   95.39    5.80
   1   2  -9  109.59   10.20
   1   2  -9  109.39   10.10
  -1  -2   9  106.89   11.00
   0   2  -9  450.15   22.50
   0   2  -9  450.95   21.80
   0  -2   9  453.15   19.10
  -1   2  -9  429.36   20.90
  -1   2  -9  430.06   19.80
  -1   2  -9  440.26   22.40
   1  -2   9  418.06   18.30
  -2   2  -9   10.20    6.50
  -2   2  -9   11.00    4.40
   2  -2   9    7.70    6.70
   2  -2   9    6.30    3.50
  -3   2  -9  128.29   10.10
  -3   2  -9  129.09   14.00
   3  -2   9  111.59   14.20
   3  -2   9  114.79    8.40
   4   1  -9    1.50    5.40
   4   1  -9   12.40    6.50
   4   1  -9    7.80    6.80
   4   1  -9   -2.20    5.90
  -4  -1   9    7.00    7.70
  -4  -1   9   25.20    6.70
  -4  -1   9   -7.10    7.30
   3   1  -9   78.89    9.20
   3   1  -9   74.89    8.00
   3   1  -9   64.59   10.60
  -3  -1   9   69.69    9.20
  -3  -1   9  109.49   12.00
  -3  -1   9   73.49   10.10
   2   1  -9  173.68    9.50
   2   1  -9  161.38   12.60
   2   1  -9  172.58   12.60
  -2  -1   9  177.98   13.80
  -2  -1   9  147.89   12.70
   1   1  -9  135.59   12.30
   1   1  -9  163.28   11.70
   1   1  -9  141.59    7.80
  -1  -1   9  130.89   12.00
  -1  -1   9  144.09   12.90
   0   1  -9   15.30    5.50
   0   1  -9   12.40    5.60
   0  -1   9   24.40    6.50
  -1   1  -9  149.69    9.70
  -1   1  -9  123.49   13.30
   1  -1   9  139.19   12.90
   1  -1   9  135.39    9.00
  -2   1  -9  391.66   22.50
  -2   1  -9  384.26   18.30
   2  -1   9  420.16   21.60
   2  -1   9  381.76   17.90
  -3   1  -9  215.58   17.00
  -3   1  -9  213.88   12.40
   3  -1   9  201.48   16.00
   3  -1   9  220.98   12.20
   4   0  -9   62.19    8.40
   4   0  -9   61.79    8.30
   4   0  -9   80.59    9.40
   4   0  -9   54.29   10.10
  -4   0   9   74.99   10.20
  -4   0   9   74.29   10.10
  -4   0   9   69.99   10.10
   3   0  -9   36.10    6.60
   3   0  -9   51.59    6.70
   3   0  -9   26.00    7.60
   3   0  -9   43.80    7.40
  -3   0   9   39.40    7.60
  -3   0   9   36.60    9.00
  -3   0   9   34.10    7.80
   2   0  -9   36.50    7.30
   2   0  -9   37.80    5.00
   2   0  -9   36.80    6.70
  -2   0   9   32.90    6.90
  -2   0   9   28.10    7.60
   1   0  -9  122.19   12.30
   1   0  -9  132.49   11.50
   1   0  -9  122.49    8.20
  -1   0   9  145.79   13.50
  -1   0   9  113.19   12.20
   0   0  -9  333.87   19.50
   0   0   9  350.36   18.90
   0   0   9  325.77   19.60
  -1   0  -9  220.18   16.50
  -1   0  -9  230.78   12.30
   1   0   9  230.18   12.60
   1   0   9  236.28   16.40
  -2   0  -9    1.50    3.80
  -2   0  -9  -14.20    6.60
   2   0   9   -5.00    6.70
   2   0   9    4.40    5.00
   3  -1  -9   35.10    7.10
   3  -1  -9   32.10    7.00
   3  -1  -9   33.90    9.10
   3  -1  -9   47.60    7.20
  -3   1   9   22.70    8.80
  -3   1   9   34.10    7.60
   2  -1  -9  130.69   11.90
   2  -1  -9  116.69    9.40
   2  -1  -9  102.19   14.00
   2  -1  -9  113.39   10.50
  -2   1   9  106.39   12.50
   1  -1  -9   45.10    8.50
   1  -1  -9   52.59    6.90
  -1   1   9   62.99    8.40
  -1   1   9   52.59    9.90
   0  -1  -9    9.00    4.20
   0  -1  -9    4.90    6.40
   0   1   9   13.90    7.10
   0   1   9   22.70    7.30
  -1  -1  -9  128.09   14.30
  -1  -1  -9  133.99    9.10
   1   1   9  146.79   14.80
   1   1   9  131.39   10.60
   1   1   9  111.29   14.10
   2   1   9  214.48   13.90
   2   1   9  190.08   22.50
   2  -2  -9   46.00    6.80
   2  -2  -9   28.80    7.80
  -2   2   9   16.60    9.00
  -2   2   9   29.50    7.90
   1  -2  -9  129.69   10.40
  -1   2   9  150.38   16.80
  -1   2   9  150.28   14.40
   0  -2  -9  205.38   11.10
   0   2   9  157.08   17.80
   0   2   9  188.48   16.40
   0   2   9  171.98   13.10
   2   6 -10   55.59    7.60
   1   6 -10  245.98   17.10
   1   6 -10  251.67   16.10
   1   6 -10  238.28   17.70
  -1  -6  10  241.58   13.60
  -1  -6  10  214.48   18.70
   0   6 -10  198.48   14.80
   0   6 -10  182.98   15.20
   0   6 -10  198.98   16.10
   0  -6  10  188.88   16.70
   0  -6  10  210.68   13.00
   1  -6  10   12.30    6.90
   3   5 -10   68.99   10.90
   3   5 -10   94.99    9.60
   2   5 -10   79.09   10.30
   2   5 -10   77.29   10.10
  -2  -5  10   52.79    9.70
   1   5 -10    7.40    6.90
   1   5 -10    3.40    6.10
  -1  -5  10    4.50    5.20
  -1  -5  10    6.80    7.80
   0   5 -10   97.89   11.30
   0   5 -10  104.79   12.20
   0   5 -10   75.39   11.50
   0  -5  10  112.09    9.50
   0  -5  10   98.89   14.00
  -1   5 -10  310.77   18.70
  -1   5 -10  328.87   18.50
  -1   5 -10  328.87   20.50
   1  -5  10  325.07   19.90
   1  -5  10  350.86   17.90
   3   4 -10    1.70    5.60
   3   4 -10   19.10    8.10
  -3  -4  10   17.90    8.80
  -3  -4  10    9.70    5.40
   2   4 -10  104.69   10.90
   2   4 -10   98.89    6.50
   2   4 -10  102.19   13.70
  -2  -4  10   84.49   10.70
   1   4 -10  284.57   17.00
   1   4 -10  309.47   17.90
  -1  -4  10  288.47   18.50
  -1  -4  10  263.17   13.60
   0   4 -10  253.67   16.70
   0   4 -10  257.57   16.10
   0   4 -10  268.57   15.70
   0  -4  10  252.97   17.40
   0  -4  10  255.47   14.10
  -1   4 -10    3.30    6.30
  -1   4 -10    0.60    5.50
  -1   4 -10   -4.80    6.80
   1  -4  10    0.30    7.20
  -2   4 -10  119.19   12.00
  -2   4 -10   97.59   14.60
   2  -4  10  115.69   13.60
   3   3 -10   82.89    8.30
   3   3 -10   93.79   14.40
   3   3 -10   92.69   10.90
  -3  -3  10  122.69   16.00
   2   3 -10   62.99    5.80
   2   3 -10   63.99   10.40
   2   3 -10   66.59    9.00
  -2  -3  10   49.80    8.60
   1   3 -10   13.50    6.30
   1   3 -10   21.30    6.10
  -1  -3  10   20.50    7.00
   0   3 -10  158.48   13.50
   0   3 -10  161.58   12.10
   0   3 -10  155.98   14.40
   0  -3  10  160.38    8.40
   0  -3  10  155.48   14.90
  -1   3 -10  304.57   17.70
  -1   3 -10  288.47   16.10
  -1   3 -10  297.37   19.00
   1  -3  10  271.17   18.60
   1  -3  10  284.17   12.80
  -2   3 -10  170.88   12.60
  -2   3 -10  137.09   15.20
   2  -3  10  191.48   15.30
   3   2 -10   40.90    8.60
   3   2 -10   51.99    8.10
   3   2 -10   57.89    6.60
  -3  -2  10   56.19    9.90
  -3  -2  10   45.50    8.80
   2   2 -10  148.89   13.00
   2   2 -10  144.69   13.50
   2   2 -10  149.79    8.60
  -2  -2  10  106.79   10.50
  -2  -2  10  150.28   14.50
   1   2 -10  251.47   11.80
   1   2 -10  263.27   16.90
   1   2 -10  289.87   17.20
  -1  -2  10  275.27   17.70
   0   2 -10  118.29   12.20
   0   2 -10   94.39    9.80
   0   2 -10   96.79   13.20
   0  -2  10  111.09   13.60
   0  -2  10  102.09    7.80
  -1   2 -10    1.80    7.60
  -1   2 -10    9.00    5.10
   1  -2  10    1.70    4.00
   1  -2  10    5.80    7.30
  -2   2 -10  184.88   20.20
  -2   2 -10  174.78   12.00
   2  -2  10  151.98   10.00
   3   1 -10   52.79    9.10
   3   1 -10   79.39    9.10
  -3  -1  10   70.29   10.30
  -3  -1  10   70.09   10.20
  -3  -1  10   69.39    9.30
   2   1 -10   19.60    7.50
   2   1 -10   18.80    7.00
   2   1 -10   12.70    4.50
  -2  -1  10   13.10    7.60
  -2  -1  10   20.20    8.10
   1   1 -10    0.20    6.40
   1   1 -10    5.80    6.80
   1   1 -10   14.50    3.70
  -1  -1  10    8.10    7.30
  -1  -1  10   16.90    7.70
   0   1 -10  169.08   11.30
   0   1 -10  157.48   13.60
   0   1 -10  174.58   15.10
   0  -1  10  169.08   10.80
   0  -1  10  149.79   14.90
  -1   1 -10  206.58   16.60
  -1   1 -10  208.88   12.60
   1  -1  10  207.58   16.30
   1  -1  10  200.48   12.30
   2   0 -10  160.28   10.90
   2   0 -10  168.18   16.10
   2   0 -10  177.28   15.40
  -2   0  10  121.19   17.20
  -2   0  10  157.08   15.50
   1   0 -10  131.99    9.50
   1   0 -10  172.68   14.60
   1   0 -10  156.18   15.50
  -1   0  10  161.78   15.40
  -1   0  10  148.19   16.50
   0   0 -10    8.40    5.10
   0   0 -10    3.20    7.00
   0   0  10    5.40    7.80
   0   0  10    5.50    5.40
   0   0  10  -10.30    7.30
_computing_structure_solution     'SHELXT 2014/4 (Sheldrick, 2015)'
;
_shelx_hkl_checksum              15100
_shelx_res_file
;
TITL UMD674_a.res in P-1
REM Old TITL UMD674 in P1
REM SHELXT solution in P-1
REM R1 0.120, Rweak 0.012, Alpha 0.089, Orientation as input
REM Formula found by SHELXT: C8 N O2 I
CELL 0.71073 6.4152 7.5089 8.9546 110.162 96.12 91.997
ZERR 2 0.0012 0.0012 0.0015 0.007 0.008 0.008
LATT 1
SFAC C H I N O
UNIT 16 8 2 2 4
EQIV $1 1-X,-Y,-Z
EQIV $2 1+X,+Y,1+Z
DFIX 0.87 0.01 N1 H1
L.S. 10
PLAN  20
SIZE 0.1 0.2 0.22
TEMP -73
HTAB N1 O1_$1
RTAB BD I1 O1_$2
HTAB 2
CONF
BOND $H
LIST 6
MORE -1
fmap 2
acta 50.5
REM <olex2.extras>
REM <HklSrc "%.\\UMD674_a.hkl">
REM </olex2.extras>
WGHT    0.005200    0.506500
FVAR       0.60959
I1    3    0.884675    0.235857    0.831879    11.00000    0.03483    0.03183 =
         0.02774    0.01497   -0.01217   -0.00684
O1    5    0.288134    0.153367    0.007566    11.00000    0.03875    0.04377 =
         0.02236    0.01198    0.00110    0.01546
O2    5    0.032061    0.323174    0.265939    11.00000    0.02638    0.03699 =
         0.03341    0.01056    0.00128    0.01363
N1    4    0.526005    0.152340    0.220432    11.00000    0.02193    0.03247 =
         0.01860    0.00702    0.00276    0.01047
H1    2    0.620802    0.086755    0.168482    11.00000   -1.20000
C1    1    0.342451    0.187028    0.149663    11.00000    0.02894    0.02293 =
         0.02067    0.00713    0.00104    0.00656
C2    1    0.208040    0.277637    0.287208    11.00000    0.02198    0.01980 =
         0.02639    0.00793   -0.00101    0.00319
C3    1    0.340357    0.285565    0.432862    11.00000    0.02137    0.01945 =
         0.02190    0.00804    0.00085    0.00301
C4    1    0.309099    0.351554    0.593216    11.00000    0.02773    0.02651 =
         0.02332    0.00631    0.00526    0.00360
AFIX  43
H4    2    0.182539    0.406775    0.624751    11.00000   -1.20000
AFIX   0
C5    1    0.465283    0.335830    0.707081    11.00000    0.03498    0.02740 =
         0.01895    0.00644    0.00507    0.00138
AFIX  43
H5    2    0.445999    0.378813    0.817281    11.00000   -1.20000
AFIX   0
C6    1    0.650236    0.256452    0.657967    11.00000    0.02682    0.02221 =
         0.02299    0.00962   -0.00373   -0.00266
C7    1    0.686190    0.190541    0.497618    11.00000    0.02043    0.02355 =
         0.02417    0.00801    0.00067    0.00401
AFIX  43
H7    2    0.813721    0.137330    0.466202    11.00000   -1.20000
AFIX   0
C8    1    0.528003    0.206280    0.387015    11.00000    0.02241    0.01955 =
         0.01934    0.00664    0.00282    0.00150
HKLF 4
REM  UMD674_a.res in P-1
REM R1 =  0.0200 for    1428 Fo > 4sig(Fo)  and  0.0228 for all    1533 data
REM    112 parameters refined using      1 restraints
END
WGHT      0.0052      0.5065
REM Instructions for potential hydrogen bonds
HTAB N1 O1_$1
REM Highest difference peak  1.123,  deepest hole -0.744,  1-sigma level  0.097
Q1    1   0.7947  0.2938  0.8899  11.00000  0.05    1.12
Q2    1   0.4292  0.2483  0.4317  11.00000  0.05    0.33
Q3    1   0.3251  0.4589  1.0077  11.00000  0.05    0.31
Q4    1   0.8283  0.3095  0.3928  11.00000  0.05    0.28
Q5    1   1.1688  0.4143  0.9565  11.00000  0.05    0.27
Q6    1  -0.0481  0.4365  0.6065  11.00000  0.05    0.26
Q7    1   0.5113  0.2489  0.9335  11.00000  0.05    0.26
Q8    1   1.0327  0.4623  0.9436  11.00000  0.05    0.26
Q9    1   0.1206 -0.0884 -0.0151  11.00000  0.05    0.26
Q10   1   0.2259  0.2536  0.7990  11.00000  0.05    0.25
Q11   1   0.3662  0.2164  0.8608  11.00000  0.05    0.25
Q12   1   0.2417  0.2261  0.6830  11.00000  0.05    0.25
Q13   1   0.1601  0.4198  0.1099  11.00000  0.05    0.24
Q14   1   0.2604  0.3472  0.0186  11.00000  0.05    0.24
Q15   1   0.7082  0.0436  0.7120  11.00000  0.05    0.24
Q16   1   0.1287  0.5622  0.4988  11.00000  0.05    0.24
Q17   1   0.9522  0.3548  0.7019  11.00000  0.05    0.24
Q18   1   0.0769  0.4762  0.1930  11.00000  0.05    0.24
Q19   1   0.2744  0.2431  0.2171  11.00000  0.05    0.24
Q20   1   0.8952  0.2860  0.5104  11.00000  0.05    0.23
;
_shelx_res_checksum              71518
loop_
_space_group_symop_operation_xyz
'x, y, z'
'-x, -y, -z'
loop_
_atom_site_type_symbol
_atom_site_label
_atom_site_fract_x
_atom_site_fract_y
_atom_site_fract_z
_atom_site_U_iso_or_equiv
_atom_site_adp_type
_atom_site_calc_flag
_atom_site_occupancy
I I1 0.88468(3) 0.23586(3) 0.83188(2) 0.03175(8) Uani d 1
O O1 0.2881(4) 0.1534(3) 0.0076(2) 0.0348(5) Uani d 1
O O2 0.0321(3) 0.3232(3) 0.2659(3) 0.0326(5) Uani d 1
N N1 0.5260(4) 0.1523(4) 0.2204(3) 0.0246(5) Uani d 1
H H1 0.621(4) 0.087(4) 0.168(4) 0.030 Uiso d 1
C C1 0.3425(5) 0.1870(4) 0.1497(3) 0.0244(6) Uani d 1
C C2 0.2080(5) 0.2776(4) 0.2872(3) 0.0230(6) Uani d 1
C C3 0.3404(4) 0.2856(4) 0.4329(3) 0.0208(6) Uani d 1
C C4 0.3091(5) 0.3516(4) 0.5932(3) 0.0263(6) Uani d 1
H H4 0.1825 0.4068 0.6248 0.032 Uiso calc 1
C C5 0.4653(5) 0.3358(4) 0.7071(3) 0.0275(7) Uani d 1
H H5 0.4460 0.3788 0.8173 0.033 Uiso calc 1
C C6 0.6502(5) 0.2565(4) 0.6580(3) 0.0242(6) Uani d 1
C C7 0.6862(5) 0.1905(4) 0.4976(3) 0.0229(6) Uani d 1
H H7 0.8137 0.1373 0.4662 0.028 Uiso calc 1
C C8 0.5280(5) 0.2063(4) 0.3870(3) 0.0205(6) Uani d 1
loop_
_atom_site_aniso_label
_atom_site_aniso_U_11
_atom_site_aniso_U_22
_atom_site_aniso_U_33
_atom_site_aniso_U_12
_atom_site_aniso_U_13
_atom_site_aniso_U_23
I1 0.03483(13) 0.03183(12) 0.02774(12) -0.00684(8) -0.01217(8) 0.01497(9)
O1 0.0388(13) 0.0438(13) 0.0224(11) 0.0155(11) 0.0011(9) 0.0120(10)
O2 0.0264(12) 0.0370(12) 0.0334(12) 0.0136(10) 0.0013(9) 0.0106(10)
N1 0.0219(13) 0.0325(13) 0.0186(12) 0.0105(11) 0.0028(10) 0.0070(10)
C1 0.0289(16) 0.0229(14) 0.0207(15) 0.0066(12) 0.0010(12) 0.0071(12)
C2 0.0220(16) 0.0198(13) 0.0264(15) 0.0032(12) -0.0010(12) 0.0079(12)
C3 0.0214(15) 0.0194(13) 0.0219(14) 0.0030(11) 0.0008(11) 0.0080(11)
C4 0.0277(17) 0.0265(15) 0.0233(15) 0.0036(13) 0.0053(12) 0.0063(12)
C5 0.0350(18) 0.0274(15) 0.0189(14) 0.0014(13) 0.0051(13) 0.0064(12)
C6 0.0268(17) 0.0222(14) 0.0230(14) -0.0027(12) -0.0037(12) 0.0096(12)
C7 0.0204(15) 0.0236(14) 0.0242(14) 0.0040(11) 0.0007(12) 0.0080(12)
C8 0.0224(15) 0.0196(13) 0.0193(14) 0.0015(11) 0.0028(11) 0.0066(11)
loop_
_atom_type_symbol
_atom_type_description
_atom_type_scat_dispersion_real
_atom_type_scat_dispersion_imag
_atom_type_scat_source
C C 0.0033 0.0016 'International Tables Vol C Tables 4.2.6.8 and 6.1.1.4'
H H 0.0000 0.0000 'International Tables Vol C Tables 4.2.6.8 and 6.1.1.4'
I I -0.4742 1.8119 'International Tables Vol C Tables 4.2.6.8 and 6.1.1.4'
N N 0.0061 0.0033 'International Tables Vol C Tables 4.2.6.8 and 6.1.1.4'
O O 0.0106 0.0060 'International Tables Vol C Tables 4.2.6.8 and 6.1.1.4'
loop_
_geom_angle_atom_site_label_1
_geom_angle_atom_site_label_2
_geom_angle_atom_site_label_3
_geom_angle
C1 N1 H1 124(2)
C1 N1 C8 111.5(2)
C8 N1 H1 124(2)
O1 C1 N1 128.2(3)
O1 C1 C2 125.7(3)
N1 C1 C2 106.1(2)
O2 C2 C1 123.7(3)
O2 C2 C3 131.6(3)
C3 C2 C1 104.7(2)
C4 C3 C2 132.3(3)
C4 C3 C8 120.3(3)
C8 C3 C2 107.4(2)
C3 C4 H4 120.4
C3 C4 C5 119.2(3)
C5 C4 H4 120.4
C4 C5 H5 120.4
C4 C5 C6 119.3(3)
C6 C5 H5 120.4
C5 C6 I1 118.7(2)
C5 C6 C7 122.6(3)
C7 C6 I1 118.7(2)
C6 C7 H7 121.6
C8 C7 C6 116.9(3)
C8 C7 H7 121.6
C3 C8 N1 110.3(2)
C7 C8 N1 127.9(3)
C7 C8 C3 121.8(3)
loop_
_geom_bond_atom_site_label_1
_geom_bond_atom_site_label_2
_geom_bond_distance
I1 C6 2.096(3)
O1 C1 1.217(3)
O2 C2 1.206(3)
N1 H1 0.867(10)
N1 C1 1.354(4)
N1 C8 1.403(4)
C1 C2 1.553(4)
C2 C3 1.460(4)
C3 C4 1.388(4)
C3 C8 1.400(4)
C4 H4 0.9500
C4 C5 1.390(4)
C5 H5 0.9500
C5 C6 1.392(4)
C6 C7 1.396(4)
C7 H7 0.9500
C7 C8 1.378(4)
loop_
_geom_hbond_atom_site_label_D
_geom_hbond_atom_site_label_H
_geom_hbond_atom_site_label_A
_geom_hbond_site_symmetry_A
_geom_hbond_distance_DH
_geom_hbond_distance_HA
_geom_hbond_distance_DA
_geom_hbond_angle_DHA
N1 H1 O1 2_655 0.870(10) 2.095(18) 2.888(3) 152(3)
loop_
_geom_torsion_atom_site_label_1
_geom_torsion_atom_site_label_2
_geom_torsion_atom_site_label_3
_geom_torsion_atom_site_label_4
_geom_torsion
I1 C6 C7 C8 179.9(2)
O1 C1 C2 O2 0.6(5)
O1 C1 C2 C3 179.2(3)
O2 C2 C3 C4 -1.8(6)
O2 C2 C3 C8 177.5(3)
N1 C1 C2 O2 -178.5(3)
N1 C1 C2 C3 0.1(3)
C1 N1 C8 C3 -1.5(3)
C1 N1 C8 C7 179.2(3)
C1 C2 C3 C4 179.8(3)
C1 C2 C3 C8 -1.0(3)
C2 C3 C4 C5 178.4(3)
C2 C3 C8 N1 1.5(3)
C2 C3 C8 C7 -179.2(3)
C3 C4 C5 C6 0.8(4)
C4 C3 C8 N1 -179.1(3)
C4 C3 C8 C7 0.2(4)
C4 C5 C6 I1 179.6(2)
C4 C5 C6 C7 -0.2(4)
C5 C6 C7 C8 -0.3(4)
C6 C7 C8 N1 179.5(3)
C6 C7 C8 C3 0.4(4)
C8 N1 C1 O1 -178.2(3)
C8 N1 C1 C2 0.8(3)
C8 C3 C4 C5 -0.7(4)

_cod_database_fobs_code 1543229
