#------------------------------------------------------------------------------
#$Date: 2016-06-11 05:21:39 +0300 (Sat, 11 Jun 2016) $
#$Revision: 183362 $
#$URL: file:///home/coder/svn-repositories/cod/cif/1/54/34/1543423.cif $
#------------------------------------------------------------------------------
#
# This file is available in the Crystallography Open Database (COD),
# http://www.crystallography.net/. The original data for this entry
# were provided by IUCr Journals, http://journals.iucr.org/.
#
# The file may be used within the scientific community so long as
# proper attribution is given to the journal article from which the
# data were obtained.
#
data_1543423
loop_
_publ_author_name
'Tribak, Zineb'
'Kandri Rodi, Youssef'
'Haoudi, Amal'
'Essassi, El Mokhtar'
'Capet, Fr\'ed\'eric'
'Zouihri, Hafid'
_publ_section_title
;
 5-Chloro-1-methylindoline-2,3-dione
;
_journal_coeditor_code           TK4016
_journal_issue                   6
_journal_name_full               IUCrData
_journal_page_first              x160913
_journal_paper_doi               10.1107/S2414314616009135
_journal_volume                  1
_journal_year                    2016
_chemical_formula_iupac          'C9 H6 Cl N O2'
_chemical_formula_moiety         'C9 H6 Cl N O2'
_chemical_formula_sum            'C9 H6 Cl N O2'
_chemical_formula_weight         195.60
_chemical_name_systematic
;
5-Chloro-1-methylindoline-2,3-dione
;
_space_group_crystal_system      monoclinic
_space_group_IT_number           14
_space_group_name_Hall           '-P 2ybc'
_space_group_name_H-M_alt        'P 1 21/c 1'
_symmetry_space_group_name_Hall  '-P 2ybc'
_symmetry_space_group_name_H-M   'P 1 21/c 1'
_atom_sites_solution_hydrogens   geom
_atom_sites_solution_primary     direct
_audit_creation_method
;
Olex2 1.2
(compiled 2016.02.19 svn.r3266 for OlexSys, GUI svn.r5155)
;
_cell_angle_alpha                90
_cell_angle_beta                 96.163(3)
_cell_angle_gamma                90
_cell_formula_units_Z            4
_cell_length_a                   3.9766(4)
_cell_length_b                   11.9503(13)
_cell_length_c                   17.947(2)
_cell_measurement_reflns_used    4975
_cell_measurement_temperature    299.69
_cell_measurement_theta_max      25.55
_cell_measurement_theta_min      2.85
_cell_volume                     847.94(16)
_computing_cell_refinement
;
SAINT (Bruker, 2009)
;
_computing_data_collection
;
APEX2 (Bruker, 2009)
;
_computing_data_reduction
;
SAINT (Bruker, 2009)
;
_computing_molecular_graphics
;
PLATON (Spek, 2009)
;
_computing_publication_material
;
publCIF (Westrip, 2010)
;
_computing_structure_refinement
;
SHELXL2015 (Sheldrick, 2015b)
;
_computing_structure_solution
;
<i>XT</i> (Sheldrick, 2015a)
;
_diffrn_ambient_temperature      299.69
_diffrn_measured_fraction_theta_full 1.000
_diffrn_measured_fraction_theta_max 0.997
_diffrn_measurement_device_type  'Bruker APEXII CCD'
_diffrn_measurement_method       '\f and \w scans'
_diffrn_radiation_type           MoK\a
_diffrn_radiation_wavelength     0.71073
_diffrn_reflns_av_R_equivalents  0.0272
_diffrn_reflns_limit_h_max       5
_diffrn_reflns_limit_h_min       -5
_diffrn_reflns_limit_k_max       15
_diffrn_reflns_limit_k_min       -15
_diffrn_reflns_limit_l_max       23
_diffrn_reflns_limit_l_min       -22
_diffrn_reflns_number            12975
_diffrn_reflns_theta_full        26.000
_diffrn_reflns_theta_max         28.284
_diffrn_reflns_theta_min         1.704
_diffrn_standards_number         0
_exptl_absorpt_coefficient_mu    0.410
_exptl_absorpt_correction_T_max  0.7457
_exptl_absorpt_correction_T_min  0.6969
_exptl_absorpt_correction_type   multi-scan
_exptl_absorpt_process_details
;
(SADABS; Bruker, 2009)
;
_exptl_crystal_colour            red
_exptl_crystal_density_diffrn    1.532
_exptl_crystal_description       prism
_exptl_crystal_F_000             400
_exptl_crystal_size_max          0.29
_exptl_crystal_size_mid          0.11
_exptl_crystal_size_min          0.11
_refine_diff_density_max         0.254
_refine_diff_density_min         -0.225
_refine_ls_extinction_method     none
_refine_ls_goodness_of_fit_ref   1.045
_refine_ls_hydrogen_treatment    constr
_refine_ls_matrix_type           full
_refine_ls_number_parameters     120
_refine_ls_number_reflns         2080
_refine_ls_number_restraints     0
_refine_ls_restrained_S_all      1.045
_refine_ls_R_factor_all          0.0538
_refine_ls_R_factor_gt           0.0405
_refine_ls_shift/su_max          0.000
_refine_ls_shift/su_mean         0.000
_refine_ls_structure_factor_coef Fsqd
_refine_ls_weighting_details
'w=1/[\s^2^(Fo^2^)+(0.0449P)^2^+0.2640P] where P=(Fo^2^+2Fc^2^)/3'
_refine_ls_weighting_scheme      calc
_refine_ls_wR_factor_gt          0.0959
_refine_ls_wR_factor_ref         0.1033
_reflns_number_gt                1705
_reflns_number_total             2080
_reflns_threshold_expression     'I > 2\s(I)'
_cod_data_source_file            tk4016sup1.cif
_cod_data_source_block           I
_cod_database_code               1543423
_shelx_space_group_comment
;
The symmetry employed for this shelxl refinement is uniquely defined
by the following loop, which should always be used as a source of
symmetry information in preference to the above space-group names.
They are only intended as comments.
;
_shelx_hkl_file
;
   1   0   0  783.72   25.20
   1   0   0  786.62   25.30
   1   0   0  790.62   25.20
   1   0   0  806.82   25.30
  -1   0   0  765.82   25.20
  -1   0   0  821.02   25.30
  -1   0   0  798.02   25.30
  -1   0   0  766.32   25.30
  -1   0   0  819.02   25.30
   2   0   0  559.84   17.80
  -2   0   0  520.55   17.70
   2   0   0  556.34   17.60
  -2   0   0  558.04   17.80
   2   0   0  554.64   17.80
  -2   0   0  545.95   17.70
   2   0   0  533.65   17.70
  -3   0   0   34.30    2.00
   3   0   0   40.00    2.00
  -3   0   0   37.50    1.90
   3   0   0   36.10    2.00
   3   0   0   36.40    1.90
  -3   0   0   39.40    2.10
   4   0   0   15.40    1.70
  -4   0   0   18.70    1.90
  -4   0   0   16.60    1.60
  -5   0   0    2.30    1.40
   5   0   0    1.80    1.30
   0  -1   0    0.00    0.10
   0  -1   0    0.10    0.10
   0  -1   0    0.00    0.10
   0   1   0    0.10    0.10
   0   1   0   -0.10    0.10
   0   1   0    0.00    0.10
  -1  -1   0   74.29    2.70
  -1  -1   0   81.19    2.60
   1  -1   0   76.19    2.80
  -1  -1   0   73.19    2.70
  -1  -1   0   83.59    2.70
  -1  -1   0   81.99    2.70
  -1   1   0   74.09    2.70
   1   1   0   79.09    2.60
   1   1   0   73.19    2.70
   2  -1   0   56.99    2.30
  -2  -1   0   54.39    2.20
   2  -1   0   56.59    2.20
  -2  -1   0   54.69    2.20
  -2  -1   0   52.89    2.30
  -2  -1   0   53.39    2.20
   2  -1   0   52.69    2.30
   2  -1   0   59.59    2.40
  -2   1   0   55.19    2.40
  -2   1   0   54.09    2.30
   2   1   0   58.29    2.30
  -2   1   0   54.99    2.30
   2   1   0   55.89    2.20
   2   1   0   55.69    2.20
  -2   1   0   56.39    2.20
  -3  -1   0    0.10    0.80
   3  -1   0    1.60    0.80
   3  -1   0    1.80    0.70
  -3  -1   0    2.20    0.80
  -3  -1   0    1.90    0.70
   3  -1   0    1.30    0.90
  -3   1   0    1.40    0.90
  -3   1   0    1.30    0.80
  -3   1   0    2.00    0.70
   3   1   0    2.50    0.80
   3   1   0    1.50    0.60
  -4  -1   0    8.50    1.30
  -4  -1   0    8.40    1.40
   4  -1   0    9.20    1.40
  -4   1   0    7.50    1.50
  -4   1   0    7.50    1.30
   4   1   0    6.40    1.20
  -5  -1   0    7.60    1.70
   5  -1   0    8.30    1.70
  -5   1   0   10.90    2.00
   0  -2   0 3155.28   97.49
   0  -2   0 2960.80   97.29
   0  -2   0 3051.59   97.39
   0   2   0 3076.19   97.29
   0   2   0 3039.20   97.39
   0   2   0 3005.10   97.19
   0   2   0 3134.69   97.39
   1  -2   0 1010.50   32.20
   1  -2   0  988.90   32.30
  -1  -2   0 1069.69   32.10
  -1  -2   0 1005.40   32.10
  -1  -2   0 1019.20   32.00
  -1  -2   0 1000.80   32.10
   1  -2   0 1020.90   32.20
   1  -2   0  997.30   32.30
   1  -2   0 1026.50   32.20
  -1  -2   0 1016.10   32.10
  -1   2   0  975.00   32.20
  -1   2   0  963.50   32.20
   1   2   0  997.80   32.10
   1   2   0 1043.40   32.10
  -1   2   0 1033.50   32.20
   1   2   0  995.10   32.10
  -2  -2   0   10.40    0.90
   2  -2   0   11.90    1.20
   2  -2   0   10.20    1.00
  -2  -2   0   13.10    1.00
  -2  -2   0   12.10    0.80
   2  -2   0   10.90    0.90
   2  -2   0   11.20    1.00
  -2  -2   0   12.10    0.90
   2   2   0   11.90    0.90
  -2   2   0   10.70    1.00
  -2   2   0    9.40    1.00
   2   2   0   11.10    0.90
  -2   2   0    9.00    0.90
  -2   2   0    9.90    1.00
  -3  -2   0   28.30    1.80
   3  -2   0   33.20    2.00
  -3  -2   0   29.80    1.70
  -3  -2   0   26.80    1.80
   3  -2   0   27.40    1.90
   3  -2   0   30.50    1.70
  -3  -2   0   26.40    1.60
  -3   2   0   28.00    1.90
  -3   2   0   30.90    1.90
   3   2   0   30.50    1.60
  -3   2   0   29.80    1.80
  -3   2   0   29.30    1.80
   3   2   0   27.60    1.60
  -4  -2   0    0.00    0.80
   4  -2   0    0.20    1.00
  -4  -2   0   -0.40    0.90
  -4   2   0   -0.50    0.90
  -4   2   0   -1.50    1.00
   4   2   0    0.50    0.90
   5  -2   0    0.00    1.40
  -5  -2   0    4.20    1.40
   0  -3   0   -0.10    0.30
   0  -3   0   -0.60    0.30
   0  -3   0    0.20    0.30
   0   3   0    0.20    0.30
   0   3   0   -0.30    0.30
   0   3   0   -0.10    0.30
   0   3   0   -0.70    0.30
   1  -3   0  203.38    6.90
   1  -3   0  205.58    7.00
  -1  -3   0  217.08    6.80
  -1  -3   0  209.88    6.70
   1  -3   0  205.08    6.90
  -1  -3   0  206.58    6.70
   1  -3   0  190.98    6.90
  -1  -3   0  191.88    6.70
  -1   3   0  202.18    6.90
   1   3   0  211.28    6.70
   1   3   0  201.68    6.70
   1   3   0  218.08    6.70
   1   3   0  191.98    6.70
  -1   3   0  205.38    6.90
   2  -3   0  236.58    8.20
   2  -3   0  238.18    8.30
  -2  -3   0  237.88    8.00
  -2  -3   0  240.38    8.10
  -2  -3   0  259.17    8.00
  -2  -3   0  252.37    8.00
   2  -3   0  234.68    8.30
  -2   3   0  231.78    8.20
   2   3   0  235.48    8.00
  -2   3   0  236.58    8.20
  -2   3   0  242.28    8.30
   2   3   0  240.08    8.00
  -2   3   0  238.18    8.30
  -3  -3   0    3.70    0.80
   3  -3   0    3.70    0.90
   3  -3   0    1.90    0.90
  -3  -3   0    2.20    0.80
   3  -3   0    3.70    1.10
  -3  -3   0    2.70    0.70
  -3  -3   0    2.60    0.90
  -3   3   0    2.70    1.00
  -3   3   0    3.20    0.90
  -3   3   0    2.30    0.90
  -3   3   0    4.10    1.00
   3   3   0    3.40    0.70
   3   3   0    3.70    0.80
   4  -3   0    3.50    1.30
  -4  -3   0    1.90    0.90
  -4  -3   0    2.80    1.10
  -4   3   0    2.00    1.20
  -4   3   0    3.00    1.30
   5  -3   0    4.00    1.60
  -5  -3   0    2.80    1.40
   0  -4   0  326.77   10.90
   0  -4   0  330.57   10.90
   0   4   0  339.67   10.90
   0   4   0  320.07   10.90
   0   4   0  338.87   10.90
   0   4   0  342.37   10.80
   1  -4   0  194.78    6.90
   1  -4   0  194.48    6.80
  -1  -4   0  201.78    6.60
   1  -4   0  202.68    6.90
   1  -4   0  188.18    6.80
  -1  -4   0  193.28    6.60
  -1  -4   0  207.98    6.60
  -1   4   0  181.68    6.70
   1   4   0  210.68    6.60
  -1   4   0  198.58    6.80
   1   4   0  204.78    6.60
   1   4   0  207.88    6.60
   1   4   0  189.38    6.60
  -1   4   0  198.48    6.80
   2  -4   0    3.00    0.70
  -2  -4   0    4.20    0.60
   2  -4   0    3.50    0.90
  -2  -4   0    4.00    0.60
  -2  -4   0    3.90    0.70
  -2  -4   0    4.00    0.70
   2   4   0    4.30    0.60
  -2   4   0    3.60    0.80
  -2   4   0    3.20    0.70
  -2   4   0    4.20    0.90
  -2   4   0    4.40    0.80
   2   4   0    2.90    0.60
   3  -4   0   17.00    1.80
  -3  -4   0   17.30    1.40
   3  -4   0   17.40    1.70
  -3  -4   0   18.70    1.30
  -3  -4   0   16.60    1.50
  -3   4   0   17.60    1.70
  -3   4   0   18.10    1.80
  -3   4   0   16.20    1.70
  -3   4   0   16.90    1.70
   3   4   0   16.50    1.30
   3   4   0   16.30    1.20
  -4  -4   0    1.20    0.90
  -4  -4   0    1.70    0.90
   4  -4   0    0.10    1.10
  -4   4   0    1.60    1.20
  -4   4   0    1.80    1.10
   5  -4   0    1.90    1.70
  -5  -4   0    1.40    1.30
   0  -5   0    4.20    0.70
   0  -5   0    2.50    0.60
   0   5   0    3.00    0.60
   0   5   0    2.70    0.60
   0   5   0    1.20    0.50
   0   5   0    4.20    0.70
   1  -5   0  601.14   20.10
   1  -5   0  618.44   20.10
  -1  -5   0  618.24   19.90
  -1  -5   0  628.24   19.90
  -1  -5   0  618.64   19.80
   1  -5   0  598.64   20.00
   1   5   0  620.54   19.90
   1   5   0  619.54   19.70
  -1   5   0  599.54   20.00
  -1   5   0  601.64   20.00
   1   5   0  613.24   19.80
   1   5   0  636.64   19.80
  -1   5   0  606.64   20.00
   1   5   0  631.54   19.90
   2  -5   0   40.80    2.30
  -2  -5   0   39.30    1.70
  -2  -5   0   40.70    1.90
  -2  -5   0   38.20    1.80
  -2   5   0   39.60    2.10
   2   5   0   43.00    1.80
   2   5   0   39.00    1.80
  -2   5   0   41.30    2.20
  -3  -5   0    1.60    0.60
   3  -5   0    1.80    1.00
   3  -5   0    0.80    1.10
  -3  -5   0    1.50    0.70
  -3   5   0    2.00    1.00
  -3   5   0    0.80    0.90
  -3   5   0    1.50    0.90
  -4  -5   0    4.50    1.10
   4  -5   0    4.30    1.40
  -4  -5   0    2.80    0.90
  -4   5   0    4.30    1.50
  -4   5   0    4.00    1.30
   5  -5   0    0.70    1.60
   0  -6   0  225.08    7.80
   0  -6   0  225.58    7.80
   0  -6   0  230.28    7.80
   0   6   0  233.68    7.80
   0   6   0  237.08    7.80
   0   6   0  222.28    7.80
   0   6   0  222.18    7.70
  -1  -6   0    2.70    0.70
  -1  -6   0    3.30    0.60
   1  -6   0    2.90    0.80
  -1  -6   0    3.00    0.60
   1  -6   0    2.70    0.70
   1  -6   0    2.60    0.80
  -1   6   0    4.60    0.80
   1   6   0    3.60    0.70
   1   6   0    2.80    0.60
   1   6   0    2.50    0.50
  -1   6   0    2.30    0.70
  -1   6   0    3.60    0.80
   1   6   0    4.20    0.70
   2  -6   0  141.29    5.50
  -2  -6   0  143.89    4.90
  -2  -6   0  134.99    4.90
   2  -6   0  142.19    5.40
  -2  -6   0  132.09    5.00
  -2   6   0  137.19    5.20
   2   6   0  138.99    4.90
  -2   6   0  144.79    5.30
   2   6   0  137.19    4.80
  -2   6   0  140.49    5.30
   2   6   0  127.69    4.90
  -3  -6   0  153.68    5.40
   3  -6   0  151.78    6.10
   3  -6   0  140.79    6.00
  -3  -6   0  148.19    5.30
  -3   6   0  144.89    5.80
  -3   6   0  143.69    5.90
  -3   6   0  144.99    5.80
  -4  -6   0    0.70    0.90
  -4  -6   0    1.40    0.90
   4  -6   0    1.20    1.40
  -4   6   0    0.40    1.20
  -4   6   0    2.20    1.40
   0  -7   0    2.60    0.70
   0  -7   0    2.40    0.70
   0  -7   0    3.50    0.80
   0   7   0    5.90    0.90
   0   7   0    0.80    0.40
   1  -7   0  305.77   10.70
  -1  -7   0  319.37   10.40
  -1  -7   0  304.27   10.40
   1  -7   0  314.37   10.70
  -1  -7   0  316.77   10.50
  -1   7   0  306.47   10.60
   1   7   0  318.07   10.40
  -1   7   0  306.97   10.60
   1   7   0  316.17   10.50
   1   7   0  300.37   10.40
  -2  -7   0   80.59    3.20
  -2  -7   0   76.59    3.10
   2  -7   0   85.49    3.90
  -2  -7   0   79.69    3.30
   2  -7   0   77.79    3.70
   2   7   0   77.39    3.20
  -2   7   0   79.99    3.50
   2   7   0   77.59    3.20
  -2   7   0   80.19    3.60
  -2   7   0   83.79    3.60
  -3  -7   0   30.70    2.00
   3  -7   0   35.70    2.70
   3  -7   0   33.40    2.70
  -3   7   0   34.10    2.60
   3   7   0   28.40    1.80
  -3   7   0   33.10    2.40
  -3   7   0   31.80    2.40
  -4  -7   0    2.50    0.90
   4  -7   0    0.70    1.40
  -4   7   0    1.20    1.20
  -4   7   0    1.60    1.40
   0  -8   0    2.50    0.80
   0  -8   0    2.90    0.80
   0  -8   0    2.20    0.90
   0   8   0    3.90    0.90
   0   8   0    2.70    0.80
   0   8   0    1.70    0.80
   1  -8   0   11.80    1.50
  -1  -8   0   14.10    1.30
   1  -8   0   12.40    1.50
  -1  -8   0   13.30    1.30
  -1  -8   0   14.10    1.30
  -1   8   0   14.30    1.60
   1   8   0   12.40    1.20
   1   8   0   11.40    1.20
  -1   8   0   13.90    1.60
  -1   8   0   13.10    1.40
  -2  -8   0   18.00    1.50
  -2  -8   0   19.30    1.60
   2  -8   0   22.90    2.20
  -2  -8   0   17.90    1.50
   2  -8   0   22.30    2.20
  -2   8   0   24.50    2.20
  -2   8   0   20.40    2.00
   2   8   0   18.80    1.50
  -2   8   0   22.30    1.80
   2   8   0   15.50    1.40
   3  -8   0    2.40    1.30
  -3  -8   0    3.20    1.00
   3  -8   0    3.10    1.40
  -3   8   0    3.00    1.30
  -3   8   0    1.30    1.20
   3   8   0    2.80    0.90
  -3   8   0    2.50    1.30
   4  -8   0   -0.20    1.60
  -4  -8   0    1.00    1.10
  -4   8   0    0.60    1.40
  -4   8   0    0.90    1.30
   0  -9   0    0.20    0.80
   0  -9   0   -1.70    1.00
   0   9   0    0.00    0.80
   0   9   0    1.10    0.80
   0   9   0   -0.70    0.80
  -1  -9   0   61.39    2.80
   1  -9   0   57.39    3.20
   1  -9   0   54.59    3.10
  -1  -9   0   58.09    2.90
  -1  -9   0   64.79    2.80
  -1   9   0   62.69    3.10
   1   9   0   61.49    2.80
   1   9   0   57.69    2.80
  -1   9   0   67.39    3.00
   1   9   0   56.29    2.80
  -1   9   0   61.29    3.10
   1   9   0   58.09    2.50
   2  -9   0    2.10    1.20
  -2  -9   0    4.60    1.00
   2  -9   0    2.30    1.50
  -2   9   0    4.70    1.30
  -2   9   0    0.80    1.00
  -2   9   0    1.90    1.20
   2   9   0    2.50    0.90
   3  -9   0    6.80    1.70
  -3  -9   0    4.20    1.10
   3  -9   0    1.50    1.40
  -3   9   0    5.70    1.60
  -3   9   0    6.80    1.60
   3   9   0    5.30    1.20
  -3   9   0    3.70    1.40
  -4  -9   0    1.00    1.10
   4  -9   0    0.10    1.60
  -4   9   0    2.50    1.50
   0 -10   0  142.39    5.70
   0 -10   0  140.09    5.70
   0  10   0  139.69    5.40
   0  10   0  146.09    5.60
   0  10   0  152.48    5.70
   1 -10   0   54.89    3.10
   1 -10   0   51.19    3.10
  -1 -10   0   46.50    2.60
  -1 -10   0   52.99    2.70
  -1 -10   0   54.29    2.80
   1  10   0   51.99    2.70
  -1  10   0   51.79    3.00
  -1  10   0   50.59    2.80
  -1  10   0   49.70    2.90
   2 -10   0    8.40    1.70
  -2 -10   0    6.10    1.20
   2 -10   0    9.20    1.90
  -2  10   0    4.70    1.50
  -2  10   0    4.00    1.30
   2  10   0    4.70    1.20
  -2  10   0    6.60    1.50
   3 -10   0    7.20    2.00
   3 -10   0    5.40    1.80
  -3 -10   0    9.50    1.40
  -3  10   0    8.10    1.80
  -3  10   0    5.40    1.60
  -3  10   0    6.90    1.70
   3  10   0    8.70    1.40
  -4 -10   0    0.10    1.10
   4 -10   0   -2.70    1.50
  -4  10   0   -1.60    1.40
   0 -11   0   -1.60    0.80
   0 -11   0   -1.00    1.10
   0  11   0    0.40    1.10
   0  11   0   -0.10    1.00
   1 -11   0    7.20    1.60
   1 -11   0    7.00    1.60
  -1 -11   0    5.60    1.40
   1  11   0    7.60    1.40
  -1  11   0    7.40    1.50
   1  11   0    5.80    1.30
   1  11   0    4.90    1.20
  -1  11   0    8.60    1.40
  -1  11   0    6.80    1.60
   2 -11   0   52.59    3.50
  -2 -11   0   53.89    2.90
   2 -11   0   56.39    3.70
   2  11   0   46.60    2.90
  -2  11   0   62.49    3.60
  -2  11   0   55.09    3.40
  -2  11   0   50.09    3.10
  -3 -11   0    3.30    1.20
   3 -11   0    5.40    1.90
   3 -11   0    3.80    1.80
   3  11   0    4.20    1.30
  -3  11   0    6.80    1.90
  -3  11   0    6.40    1.80
  -3  11   0    7.40    1.70
   0 -12   0   56.89    3.30
   0 -12   0   63.29    3.50
   0  12   0   61.69    3.40
   0  12   0   62.49    3.30
  -1 -12   0   41.60    2.90
   1 -12   0   45.70    3.20
   1 -12   0   41.20    3.10
  -1  12   0   46.90    3.00
   1  12   0   41.90    2.80
  -1  12   0   42.10    3.00
  -2 -12   0   48.90    3.00
   2 -12   0   53.69    3.70
   2 -12   0   48.20    3.70
  -2  12   0   54.29    3.50
   2  12   0   48.40    3.00
  -2  12   0   57.69    3.60
  -3 -12   0    0.50    1.20
   3 -12   0    3.40    1.80
   3 -12   0    3.30    1.90
   3  12   0   -0.70    1.10
  -3  12   0    3.90    1.70
  -3  12   0    0.80    1.50
   0 -13   0    1.00    1.30
   0  13   0    1.30    1.10
   0  13   0    0.20    1.20
  -1 -13   0    3.50    1.50
   1 -13   0    4.10    1.50
   1 -13   0    4.50    1.60
  -1  13   0    2.40    1.40
  -1  13   0    2.00    1.50
   1  13   0    3.80    1.40
  -2 -13   0   14.00    2.00
   2 -13   0   19.10    2.80
   2 -13   0   13.00    2.40
  -2  13   0   20.60    2.60
   2  13   0   18.40    2.20
  -2  13   0   19.80    2.70
   3 -13   0    1.30    2.10
   3 -13   0    0.90    1.80
  -3  13   0    0.00    1.60
   3  13   0    0.50    1.30
   0 -14   0    5.20    1.70
   0  14   0    4.20    1.60
   1 -14   0    4.50    1.90
   1 -14   0    4.40    1.70
  -1 -14   0    5.10    1.60
  -1  14   0    6.20    1.90
  -1  14   0    5.50    1.60
   1  14   0    7.10    1.80
   2 -14   0    3.70    2.00
   2 -14   0    3.80    1.80
  -2  14   0    0.10    1.60
  -2  14   0    1.80    1.50
   2  14   0    2.00    1.40
   0  15   0    1.00    1.50
   1  15   0    1.60    1.40
  -1  15   0    0.00    1.60
  -5   0   1    0.30    1.30
   5   0  -1   -0.40    1.30
   4   0  -1    1.60    1.10
  -4   0   1    2.10    1.10
  -4   0   1   -0.10    0.80
  -3   0   1   16.90    1.50
  -3   0   1   17.90    1.40
   2   0  -1   -0.10    0.50
  -2   0   1   -0.10    0.50
  -2   0   1   -0.90    0.40
  -2   0   1   -0.30    0.50
   2   0  -1    0.20    0.40
   2   0  -1    0.40    0.60
   2   0  -1   -0.20    0.40
  -2   0   1   -0.90    0.40
  -1   0   1  127.09    4.40
  -1   0   1  125.19    4.40
  -1   0   1  133.89    4.50
  -1   0   1  135.29    4.40
  -1   0  -1   79.69    2.80
  -1   0  -1   83.69    2.80
   1   0   1   79.89    2.80
  -2   0  -1   -0.10    0.40
  -2   0  -1   -0.10    0.40
  -2   0  -1    0.00    0.50
   2   0   1    0.60    0.50
   2   0   1   -0.20    0.40
   2   0   1   -0.10    0.40
   2   0   1   -0.70    0.40
  -2   0  -1   -0.50    0.50
   3   0   1    4.40    0.90
   3   0   1    4.60    0.70
  -3   0  -1    4.00    0.90
  -3   0  -1    5.10    1.00
  -3   0  -1    5.40    0.80
   4   0   1    0.60    0.90
  -4   0  -1    0.00    1.00
  -4   0  -1    0.60    0.80
   5   0   1    2.70    1.30
  -5   0  -1    1.00    1.30
   5  -1  -1    3.10    1.40
  -5  -1   1    1.30    1.30
  -5   1   1   -1.50    1.60
   5   1  -1    0.40    1.20
  -4  -1   1    8.60    1.30
   4  -1  -1    8.50    1.40
  -4  -1   1    8.50    1.40
  -4   1   1    8.10    1.40
  -4   1   1    8.00    1.50
   4   1  -1    7.70    1.30
   3  -1  -1    4.70    1.00
   3  -1  -1    4.80    1.00
  -3  -1   1    4.80    1.00
  -3  -1   1    3.40    0.80
  -3  -1   1    4.40    1.00
   3   1  -1    5.20    0.90
   3   1  -1    4.00    0.90
  -3   1   1    4.90    1.10
  -3   1   1    6.90    1.10
  -3   1   1    4.50    0.90
   3   1  -1    4.60    0.80
  -3   1   1    3.30    0.90
   2  -1  -1    0.30    0.50
   2  -1  -1   -0.40    0.60
  -2  -1   1    0.00    0.50
  -2  -1   1   -0.10    0.50
   2  -1  -1    0.00    0.40
  -2  -1   1   -0.70    0.40
   2  -1  -1   -0.10    0.50
  -2  -1   1    0.00    0.10
  -2   1   1   -0.40    0.40
   2   1  -1   -0.40    0.40
  -2   1   1    1.10    0.60
   2   1  -1   -0.40    0.40
  -2   1   1   -0.20    0.50
   2   1  -1   -0.10    0.50
   2   1  -1    0.00    0.50
  -2   1   1    0.00    0.50
  -1  -1   1  437.36   14.50
   1  -1  -1  472.75   14.70
  -1  -1   1  446.96   14.60
  -1  -1   1  456.15   14.60
   1  -1  -1  450.75   14.60
   1  -1  -1  459.05   14.60
  -1  -1   1  450.45   14.50
   1  -1  -1  447.06   14.70
   1   1  -1  434.56   14.50
   1   1  -1  462.95   14.50
   1   1  -1  448.76   14.60
  -1   1   1  460.55   14.60
  -1   1   1  451.95   14.60
   1   1  -1  464.35   14.50
  -1   1   1  442.06   14.60
  -1   1   1  460.15   14.60
   0  -1   1   75.79    2.50
   0  -1  -1   77.59    2.50
   0  -1   1   74.59    2.50
   0  -1  -1   78.99    2.50
   0  -1   1   77.49    2.50
   0  -1  -1   77.69    2.50
   0  -1  -1   78.39    2.50
   0  -1   1   73.49    2.50
   0   1  -1   70.99    2.60
   0   1  -1   78.09    2.50
   0   1   1   77.09    2.50
   0   1   1   76.49    2.50
   0   1   1   77.79    2.50
   0   1   1   77.39    2.50
   0   1  -1   75.59    2.50
   0   1  -1   74.79    2.50
   1  -1   1  504.05   16.70
   1  -1   1  544.05   16.70
   1  -1   1  518.15   16.70
  -1   1  -1  517.45   16.70
  -1   1  -1  515.55   16.70
  -1   1  -1  523.55   16.70
  -1   1  -1  518.95   16.70
   2  -1   1    9.30    0.90
  -2  -1  -1    8.70    0.80
   2  -1   1    9.00    0.80
  -2  -1  -1    9.40    0.80
   2  -1   1    8.70    0.80
   2  -1   1   11.20    1.00
  -2  -1  -1    8.80    0.90
   2  -1   1    9.40    1.00
   2   1   1    8.00    0.70
  -2   1  -1    8.40    0.90
  -2   1  -1    9.50    1.00
  -2   1  -1   11.30    0.90
   2   1   1    9.30    0.80
  -3  -1  -1   38.50    2.00
  -4  -1  -1    1.30    1.10
   4  -1   1    2.20    1.00
  -4  -1  -1    4.10    1.00
  -4   1  -1    2.60    0.90
   4   1   1    2.70    1.00
  -4   1  -1    2.70    1.10
  -5  -1  -1    0.80    1.30
   5  -1   1   -0.10    1.30
  -5   1  -1    0.40    1.30
   5  -2  -1    6.50    1.80
  -5  -2   1    9.90    1.70
   5   2  -1    7.60    1.50
  -4  -2   1    6.40    1.30
   4  -2  -1    6.40    1.40
  -4  -2   1    6.80    1.30
  -4   2   1    9.60    1.60
  -4   2   1   10.20    1.50
   4   2  -1    7.90    1.30
   3  -2  -1    1.80    0.70
   3  -2  -1   -0.10    0.70
   3  -2  -1    1.70    0.90
  -3  -2   1    2.40    0.90
  -3  -2   1    0.90    0.80
  -3  -2   1    0.80    0.60
   3   2  -1    1.70    0.60
  -3   2   1    2.00    0.80
  -3   2   1    3.10    0.80
  -3   2   1    2.70    0.90
   3   2  -1    1.80    0.70
  -3   2   1    1.00    0.80
   3   2  -1    1.40    0.70
  -2  -2   1   30.90    1.60
   2  -2  -1   29.30    1.50
   2  -2  -1   29.50    1.50
   2  -2  -1   28.50    1.70
   2  -2  -1   22.40    1.50
  -2  -2   1   27.30    1.40
  -2  -2   1   30.20    1.40
  -2  -2   1   31.90    1.50
  -2   2   1   26.50    1.60
   2   2  -1   29.20    1.40
   2   2  -1   29.50    1.50
  -2   2   1   28.70    1.60
  -2   2   1   26.90    1.60
   2   2  -1   29.30    1.40
  -2   2   1   25.90    1.50
   2   2  -1   30.90    1.40
   1  -2  -1  641.94   20.90
  -1  -2   1  648.64   20.80
  -1  -2   1  666.03   20.90
   1  -2  -1  657.53   21.00
  -1  -2   1  649.43   20.80
   1  -2  -1  624.84   20.90
   1  -2  -1  655.43   20.90
  -1  -2   1  654.13   20.90
   1   2  -1  671.43   20.80
  -1   2   1  634.14   20.90
   1   2  -1  648.44   20.80
   1   2  -1  676.83   20.80
  -1   2   1  655.43   20.90
  -1   2   1  629.64   20.90
  -1   2   1  651.23   20.90
   1   2  -1  653.43   20.80
   0  -2  -1  786.92   25.10
   0  -2   1  776.02   25.10
   0  -2  -1  794.22   25.10
   0  -2   1  789.62   25.10
   0  -2   1  799.52   25.10
   0  -2   1  782.32   25.10
   0  -2  -1  785.72   25.10
   0  -2  -1  806.42   25.10
   0  -2  -1  773.22   25.20
   0   2  -1  802.62   25.10
   0   2  -1  778.62   25.10
   0   2   1  793.12   25.10
   0   2   1  803.12   25.10
   0   2  -1  788.72   25.10
   0   2  -1  781.22   25.10
   0   2   1  785.32   25.10
   0   2   1  797.82   25.10
   1  -2   1 5210.68  164.08
   1  -2   1 5032.20  164.08
   1  -2   1 5203.48  164.18
  -1   2  -1 5145.58  164.08
  -1   2  -1 5260.77  164.08
   2  -2   1   73.39    2.80
  -2  -2  -1   67.89    2.60
   2  -2   1   69.69    2.90
   2  -2   1   71.29    2.70
   2  -2   1   67.89    2.90
  -2   2  -1   72.79    2.80
  -2   2  -1   68.09    2.70
  -2   2  -1   68.79    2.80
  -2   2  -1   70.19    2.80
  -3  -2  -1   62.99    2.60
   3  -2   1   65.09    2.90
   3  -2   1   62.29    2.90
  -3  -2  -1   63.19    2.70
  -3  -2  -1   55.49    2.50
  -3  -2  -1   65.19    2.70
   3  -2   1   57.19    2.70
  -3   2  -1   64.99    2.90
  -3   2  -1   61.19    2.80
  -3   2  -1   59.49    2.80
  -3   2  -1   59.99    2.80
  -4  -2  -1    4.80    1.10
  -4  -2  -1    3.50    1.10
   4  -2   1    5.70    1.30
  -4   2  -1    4.70    1.20
  -4   2  -1    4.50    1.30
   5  -2   1    1.50    1.40
  -5  -2  -1   -0.90    1.10
   5  -3  -1    2.20    1.50
  -5  -3   1    4.20    1.40
  -4  -3   1    7.60    1.20
   4  -3  -1    9.30    1.50
  -4  -3   1    7.80    1.30
  -4   3   1    9.10    1.60
   4   3  -1    6.90    1.20
  -4   3   1   11.40    1.60
  -3  -3   1   57.69    2.50
  -3  -3   1   54.09    2.60
  -3  -3   1   56.99    2.50
  -3  -3   1   61.59    2.60
   3   3  -1   52.49    2.40
   3   3  -1   55.59    2.50
  -3   3   1   57.49    2.90
  -3   3   1   60.49    2.80
  -3   3   1   56.29    2.70
  -3   3   1   53.49    2.80
  -2  -3   1  209.38    7.10
  -2  -3   1  205.78    7.20
  -2  -3   1  211.88    7.10
   2  -3  -1  209.38    7.40
   2  -3  -1  210.88    7.30
  -2  -3   1  210.18    7.00
   2  -3  -1  218.68    7.50
  -2   3   1  216.18    7.30
  -2   3   1  202.28    7.30
   2   3  -1  218.08    7.10
   2   3  -1  205.88    7.10
   2   3  -1  210.38    7.10
   2   3  -1  215.28    7.10
  -2   3   1  203.88    7.40
   1  -3  -1  921.91   29.20
  -1  -3   1  927.21   29.00
   1  -3  -1  910.61   29.20
   1  -3  -1  895.21   29.10
  -1  -3   1  891.61   29.10
  -1  -3   1  930.81   29.10
   1  -3  -1  912.31   29.10
   1   3  -1  897.31   29.00
  -1   3   1  901.21   29.10
  -1   3   1  859.81   29.70
  -1   3   1  933.01   29.20
   1   3  -1  938.91   29.00
   1   3  -1  893.21   29.00
  -1   3   1  926.41   29.20
   1   3  -1  914.21   28.90
   0  -3   1 1720.63   55.09
   0  -3  -1 1721.23   54.99
   0  -3   1 1754.12   54.99
   0  -3   1 1710.73   54.79
   0  -3   1 1758.32   54.89
   0  -3  -1 1717.93   55.09
   0  -3  -1 1732.93   54.79
   0   3  -1 1752.92   54.89
   0   3   1 1695.53   55.29
   0   3  -1 1649.04   54.89
   0   3   1 1728.03   55.29
   0   3  -1 1760.32   54.89
   0   3   1 1759.32   54.79
   0   3   1 1745.73   54.79
   1  -3   1    7.30    0.70
   1  -3   1    8.20    0.80
   1  -3   1    8.10    0.90
   1  -3   1    7.90    0.80
  -1  -3  -1    8.60    0.60
  -1  -3  -1    7.00    0.60
   1   3   1    8.20    0.60
   1   3   1    7.80    0.60
  -1   3  -1    8.70    0.80
  -1   3  -1    6.90    0.80
  -2  -3  -1  723.33   23.20
   2  -3   1  747.13   23.60
  -2  -3  -1  722.13   23.30
   2  -3   1  708.13   23.40
  -2   3  -1  711.23   23.40
  -2   3  -1  722.03   23.50
  -2   3  -1  740.93   23.50
  -2   3  -1  718.33   23.50
   3  -3   1    4.30    1.00
  -3  -3  -1    4.40    0.90
  -3  -3  -1    3.40    0.90
   3  -3   1    4.80    1.10
  -3  -3  -1    5.40    0.80
   3  -3   1    5.70    1.10
  -3  -3  -1    3.70    0.80
  -3   3  -1    4.90    1.00
  -3   3  -1    5.90    1.00
  -3   3  -1    6.30    1.10
  -3   3  -1    4.60    1.10
   4  -3   1    8.40    1.50
  -4  -3  -1    6.20    1.20
  -4  -3  -1    6.90    1.10
  -4   3  -1    6.60    1.40
  -4   3  -1    8.50    1.40
  -5  -3  -1    0.40    1.20
   5  -3   1    1.20    1.40
   5  -4  -1    7.20    2.00
  -5  -4   1    8.80    1.70
  -4  -4   1    0.10    1.10
  -4  -4   1    1.50    0.80
   4  -4  -1   -0.20    1.10
  -4   4   1    1.00    1.20
  -4   4   1    2.50    1.30
   4   4  -1    0.80    0.90
  -3  -4   1    4.30    0.90
  -3  -4   1    5.90    0.90
   3  -4  -1    5.70    1.20
   3  -4  -1    5.80    1.30
  -3  -4   1    5.00    1.00
  -3  -4   1    5.70    1.10
  -3   4   1    6.80    1.30
  -3   4   1    4.10    1.20
  -3   4   1    5.70    1.10
   3   4  -1    5.40    0.90
  -3   4   1    5.10    1.10
   3   4  -1    5.70    0.90
  -2  -4   1  152.68    5.20
   2  -4  -1  161.28    5.70
   2  -4  -1  152.38    5.70
  -2  -4   1  154.38    5.30
  -2  -4   1  150.58    5.40
  -2  -4   1  148.29    5.30
   2   4  -1  149.99    5.30
  -2   4   1  153.08    5.60
  -2   4   1  156.78    5.60
   2   4  -1  151.58    5.30
   2   4  -1  154.58    5.30
  -2   4   1  141.09    5.50
   2   4  -1  163.68    5.30
  -2   4   1  147.59    5.50
   1  -4  -1  745.23   24.00
  -1  -4   1  741.23   23.80
  -1  -4   1  735.93   23.80
   1  -4  -1  718.83   23.80
   1  -4  -1  726.43   23.90
  -1  -4   1  760.22   23.70
  -1   4   1  766.12   23.90
   1   4  -1  715.83   23.60
   1   4  -1  727.13   23.80
   1   4  -1  766.62   23.80
  -1   4   1  743.83   23.90
  -1   4   1  744.53   23.90
   1   4  -1  745.63   23.80
   0  -4  -1   40.60    1.70
   0  -4   1   42.80    1.80
   0  -4   1   40.00    1.70
   0  -4  -1   40.30    1.70
   0   4   1   41.70    1.70
   0   4   1   39.60    1.70
   0   4   1   43.40    1.70
   0   4  -1   38.40    1.70
   0   4  -1   40.80    1.70
   0   4  -1   40.20    1.70
   0   4   1   41.50    1.60
   0   4   1   40.10    1.70
   0   4   1   39.80    1.70
   0   4  -1   41.00    1.70
  -1  -4  -1  130.49    4.30
  -1  -4  -1  121.99    4.30
   1  -4   1  124.09    4.60
   1  -4   1  130.69    4.50
   1  -4   1  126.79    4.50
   1  -4   1  121.99    4.60
  -1  -4  -1  125.39    4.30
  -1   4  -1  122.19    4.50
   1   4   1  118.59    4.30
   1   4   1  132.39    4.30
  -1   4  -1  121.59    4.50
   1   4   1  128.19    4.30
   1   4   1  129.09    4.20
  -1   4  -1  127.49    4.50
  -1   4  -1  121.99    4.50
   2  -4   1   18.70    1.30
  -2  -4  -1   17.50    1.10
   2  -4   1   19.40    1.50
   2  -4   1   19.50    1.50
  -2   4  -1   19.00    1.30
  -2   4  -1   16.70    1.40
  -2   4  -1   20.70    1.40
   3  -4   1   69.59    3.40
  -3  -4  -1   66.49    3.00
  -3  -4  -1   78.09    2.90
  -3   4  -1   68.89    3.20
  -3   4  -1   72.39    3.40
  -3   4  -1   67.89    3.30
  -3   4  -1   69.49    3.20
  -4  -4  -1   15.60    1.60
  -4  -4  -1   16.70    1.50
   4  -4   1   18.40    2.10
  -4   4  -1   16.30    1.90
  -4   4  -1   19.20    2.20
   5  -4   1    2.10    1.50
   5  -5  -1    1.00    1.70
   4  -5  -1    5.50    1.60
  -4  -5   1    2.40    1.10
  -4  -5   1    4.10    1.00
  -4   5   1    4.90    1.50
  -4   5   1    3.40    1.40
   3  -5  -1   -0.70    0.90
  -3  -5   1    0.40    0.60
   3  -5  -1    0.50    1.10
  -3  -5   1    1.30    0.80
  -3   5   1    1.90    1.00
  -3   5   1    0.80    0.90
  -3   5   1   -0.40    0.90
   3   5  -1    1.00    0.70
  -2  -5   1   62.69    2.70
  -2  -5   1   65.59    2.60
   2  -5  -1   65.89    3.00
  -2  -5   1   65.69    2.60
   2  -5  -1   61.29    3.10
  -2   5   1   64.69    2.80
   2   5  -1   62.99    2.60
   2   5  -1   65.09    2.60
  -2   5   1   62.59    2.90
   2   5  -1   65.39    2.60
  -2   5   1   66.89    2.90
  -2   5   1   70.49    3.00
   1  -5  -1  805.82   26.40
  -1  -5   1  818.32   26.20
   1  -5  -1  787.82   26.50
   1  -5  -1  810.02   26.50
  -1  -5   1  818.12   26.30
  -1  -5   1  828.72   26.30
  -1   5   1  809.22   26.40
   1   5  -1  828.32   26.30
   1   5  -1  803.62   26.30
   1   5  -1  833.62   26.10
  -1   5   1  808.52   26.40
   1   5  -1  843.62   26.20
  -1   5   1  797.62   26.40
  -1   5   1  834.52   26.40
   1   5  -1  832.02   26.20
   0  -5   1   97.19    3.50
   0  -5  -1   95.69    3.50
   0  -5   1   91.59    3.50
   0  -5  -1   94.89    3.50
   0   5  -1   90.89    3.40
   0   5  -1   90.19    3.50
   0   5   1   93.79    3.50
   0   5  -1   94.29    3.50
   0   5   1   93.79    3.40
   0   5   1   95.89    3.40
   0   5   1   90.29    3.50
   0   5   1   95.69    3.50
   0   5  -1   97.79    3.50
   0   5   1   93.59    3.40
  -1  -5  -1    6.40    0.80
   1  -5   1    3.90    0.70
  -1  -5  -1    5.70    0.70
   1  -5   1    5.50    0.90
  -1  -5  -1    4.20    0.60
   1  -5   1    6.10    0.90
  -1   5  -1    4.60    0.80
  -1   5  -1    5.00    0.90
  -1   5  -1    4.80    0.80
   1   5   1    4.30    0.60
   1   5   1    3.60    0.50
   1   5   1    5.20    0.70
  -1   5  -1    4.80    0.80
   1   5   1    5.20    0.70
  -2  -5  -1   90.99    3.30
   2  -5   1   94.89    3.90
  -2  -5  -1   92.49    3.30
  -2  -5  -1   87.99    3.40
   2  -5   1   90.29    3.80
  -2  -5  -1   90.99    3.20
  -2   5  -1   87.29    3.80
  -2   5  -1   86.59    3.70
  -2   5  -1   93.19    3.70
  -2   5  -1   88.59    3.70
   2   5   1   93.09    3.30
   3  -5   1   10.90    1.60
   3  -5   1   10.40    1.50
  -3  -5  -1   15.50    1.20
  -3   5  -1   11.90    1.50
  -3   5  -1   14.20    1.60
  -3   5  -1    9.50    1.50
  -4  -5  -1    0.20    0.80
   4  -5   1    1.60    1.30
  -4   5  -1    1.10    1.20
  -4   5  -1    1.70    1.30
   4  -6  -1    6.70    1.70
  -4  -6   1    9.70    1.40
  -4  -6   1   12.70    1.40
  -4   6   1    7.70    1.80
  -4   6   1   11.00    1.80
  -3  -6   1   10.30    1.10
  -3  -6   1   11.80    1.30
   3  -6  -1    9.20    1.60
   3  -6  -1   10.00    1.70
  -3   6   1   12.00    1.60
  -3   6   1   10.70    1.60
   3   6  -1   11.20    1.20
  -3   6   1   11.80    1.70
  -2  -6   1    7.80    0.90
   2  -6  -1    6.90    1.20
   2  -6  -1    6.80    1.30
  -2  -6   1    6.50    0.90
  -2  -6   1    6.60    0.90
  -2   6   1    8.00    1.10
   2   6  -1    6.40    0.80
   2   6  -1    8.40    0.90
  -2   6   1    7.10    1.10
  -2   6   1    8.60    1.30
   2   6  -1    9.10    1.00
  -1  -6   1    3.00    0.70
  -1  -6   1    4.60    0.70
   1  -6  -1    4.50    0.90
  -1  -6   1    3.60    0.70
   1  -6  -1    3.60    0.70
   1  -6  -1    2.70    0.90
  -1   6   1    3.10    0.70
  -1   6   1    3.30    0.70
  -1   6   1    3.80    0.90
   1   6  -1    4.10    0.70
   1   6  -1    3.80    0.70
  -1   6   1    3.90    0.80
   1   6  -1    3.20    0.70
   1   6  -1    3.40    0.60
   0  -6   1   11.00    1.10
   0  -6  -1   10.90    1.10
   0  -6  -1   10.30    1.00
   0  -6   1   13.20    1.20
   0  -6   1   10.60    1.00
   0   6   1   11.80    1.10
   0   6   1   11.20    1.00
   0   6  -1   10.80    1.10
   0   6  -1   10.20    1.00
   0   6   1   11.10    1.00
   0   6   1   11.00    1.00
   0   6   1   10.90    1.00
   0   6   1   11.90    1.10
   1  -6   1  120.99    4.60
   1  -6   1  120.39    4.70
  -1  -6  -1  127.09    4.40
  -1  -6  -1  121.19    4.30
   1  -6   1  119.59    4.60
  -1  -6  -1  121.09    4.40
  -1   6  -1  122.89    4.60
   1   6   1  117.49    4.20
   1   6   1  123.69    4.40
  -1   6  -1  116.99    4.50
  -1   6  -1  116.29    4.50
   1   6   1  129.49    4.30
   1   6   1  122.89    4.30
  -2  -6  -1   71.49    2.90
   2  -6   1   73.39    3.40
  -2  -6  -1   79.19    2.90
  -2  -6  -1   70.39    2.90
   2  -6   1   76.59    3.50
  -2   6  -1   81.19    3.40
  -2   6  -1   76.69    3.40
   2   6   1   77.69    2.90
   2   6   1   67.59    2.80
  -2   6  -1   75.89    3.20
   3  -6   1    0.70    1.10
  -3  -6  -1    1.20    0.60
   3  -6   1    1.50    1.20
  -3   6  -1    2.90    1.10
  -3   6  -1    2.00    1.00
  -3   6  -1    1.80    1.00
   4  -6   1    3.50    1.60
  -4  -6  -1    3.10    0.90
  -4   6  -1    3.60    1.50
  -4   6  -1    4.90    1.50
   4  -7  -1   17.90    2.50
  -4  -7   1   21.30    1.80
  -4  -7   1   18.90    1.90
  -4   7   1   20.30    2.40
  -4   7   1   20.90    2.40
   3  -7  -1   17.20    2.20
   3  -7  -1   16.80    2.20
  -3  -7   1   16.50    1.50
  -3   7   1   15.60    1.90
  -3   7   1   14.60    1.80
  -3   7   1   14.80    2.00
   3   7  -1   13.20    1.40
   2  -7  -1    7.50    1.50
  -2  -7   1    6.80    1.00
   2  -7  -1    8.30    1.40
  -2  -7   1    7.20    1.00
  -2  -7   1    7.20    1.00
   2   7  -1   10.30    1.10
   2   7  -1    7.00    0.90
   2   7  -1    7.20    0.90
  -2   7   1    8.70    1.30
  -2   7   1    4.40    1.10
  -2   7   1    6.90    1.20
  -1  -7   1   72.29    2.80
  -1  -7   1   66.89    2.80
   1  -7  -1   63.99    3.00
   1  -7  -1   67.99    3.00
  -1  -7   1   63.59    2.70
  -1   7   1   66.79    2.90
   1   7  -1   70.19    2.80
   1   7  -1   67.79    2.80
  -1   7   1   65.99    3.00
   1   7  -1   51.59    2.60
  -1   7   1   64.09    2.80
   0  -7  -1   14.20    1.20
   0  -7  -1   15.20    1.20
   0  -7   1   13.80    1.30
   0  -7   1   15.00    1.40
   0  -7   1   15.90    1.40
   0   7  -1   16.20    1.40
   0   7   1   10.40    1.10
   0   7  -1   14.60    1.30
   0   7   1   15.10    1.10
   0   7   1   15.60    1.30
   0   7   1   15.70    1.20
  -1  -7  -1    2.60    0.70
   1  -7   1    1.90    0.80
   1  -7   1    1.60    0.90
  -1  -7  -1    2.20    0.70
  -1  -7  -1    2.00    0.70
  -1   7  -1    3.50    0.90
   1   7   1    1.50    0.60
   1   7   1    2.30    0.70
   1   7   1    1.70    0.70
  -1   7  -1    2.70    0.90
  -2  -7  -1    4.00    0.70
   2  -7   1    3.80    1.30
  -2  -7  -1    3.60    0.80
  -2  -7  -1    4.70    0.80
   2  -7   1    2.90    1.00
   2   7   1    3.80    0.80
  -2   7  -1    4.10    1.10
  -2   7  -1    3.50    1.00
  -2   7  -1    2.30    1.00
   2   7   1    3.80    0.70
  -3  -7  -1   13.50    1.30
   3  -7   1   15.10    1.90
   3  -7   1   14.20    1.90
  -3   7  -1   12.10    1.70
  -3   7  -1   10.90    1.60
  -3   7  -1   12.90    1.60
   4  -7   1    6.30    1.80
  -4  -7  -1    2.30    0.90
  -4   7  -1    4.60    1.60
  -4   7  -1    2.50    1.30
   4  -8  -1   21.20    2.80
  -4  -8   1   15.10    1.70
  -4   8   1   14.70    2.30
  -4   8   1   14.60    2.20
   3  -8  -1   36.70    2.80
  -3  -8   1   33.10    2.10
   3  -8  -1   41.30    3.00
  -3   8   1   31.50    2.70
   3   8  -1   36.00    2.10
  -3   8   1   36.00    2.60
  -3   8   1   31.90    2.60
   2  -8  -1   47.80    3.10
  -2  -8   1   44.00    2.40
  -2  -8   1   46.10    2.30
   2  -8  -1   43.80    2.80
  -2  -8   1   46.60    2.30
  -2   8   1   49.20    2.60
  -2   8   1   54.89    2.90
   2   8  -1   45.60    2.40
   2   8  -1   46.80    2.30
  -2   8   1   46.50    2.80
  -1  -8   1   54.39    2.60
   1  -8  -1   51.49    2.80
  -1  -8   1   55.19    2.50
   1  -8  -1   53.59    2.80
  -1  -8   1   55.49    2.50
   1   8  -1   53.39    2.50
   1   8  -1   56.79    2.50
  -1   8   1   57.99    2.80
  -1   8   1   58.49    2.80
   0  -8   1   -0.40    0.60
   0  -8   1   -0.10    0.80
   0  -8  -1    0.30    0.60
   0  -8  -1   -0.20    0.50
   0  -8   1   -0.50    0.70
   0   8  -1    0.30    0.70
   0   8   1   -0.10    0.70
   0   8  -1   -0.80    0.70
   0   8   1    0.00    0.60
   0   8   1    0.20    0.50
  -1  -8  -1   14.40    1.30
  -1  -8  -1   12.40    1.20
  -1  -8  -1   12.30    1.30
   1  -8   1   13.20    1.60
   1  -8   1   11.40    1.50
   1   8   1   12.30    1.20
  -1   8  -1   15.40    1.60
  -1   8  -1   10.70    1.40
   1   8   1   14.90    1.30
   1   8   1   11.80    1.20
  -2  -8  -1   23.10    1.60
   2  -8   1   26.80    2.40
   2  -8   1   28.10    2.50
  -2  -8  -1   21.90    1.60
  -2   8  -1   26.70    2.10
  -2   8  -1   23.60    2.10
   2   8   1   23.40    2.20
  -2   8  -1   25.00    2.00
   2   8   1   23.50    1.60
  -3  -8  -1   15.20    1.40
   3  -8   1   15.50    2.00
   3  -8   1   12.90    2.00
  -3   8  -1    9.00    1.70
  -3   8  -1   13.20    1.80
  -3   8  -1   14.70    2.10
   4  -8   1   44.60    3.40
  -4   8  -1   36.40    3.20
  -4   8  -1   34.90    3.00
  -4  -9   1    0.40    1.10
   4  -9  -1    1.60    1.70
  -4   9   1    1.30    1.50
   3  -9  -1   79.69    4.40
  -3  -9   1   72.69    3.50
   3  -9  -1   85.79    4.40
  -3   9   1   80.29    4.20
  -3   9   1   80.09    4.00
  -3   9   1   80.09    4.10
   3   9  -1   77.59    3.50
  -2  -9   1   48.30    2.50
   2  -9  -1   54.29    3.10
   2  -9  -1   46.30    3.20
  -2   9   1   45.60    2.90
  -2   9   1   47.10    2.70
   2   9  -1   44.80    2.30
   2   9  -1   44.30    2.40
  -2   9   1   46.90    2.90
   1  -9  -1  347.07   12.10
  -1  -9   1  326.27   11.80
  -1  -9   1  353.86   11.80
  -1  -9   1  344.97   11.90
   1  -9  -1  343.97   12.10
  -1   9   1  353.96   12.00
  -1   9   1  355.26   12.10
   0  -9  -1   76.39    3.50
   0  -9   1   87.09    3.70
   0  -9  -1   80.99    3.60
   0  -9   1   77.09    3.60
   0   9   1   81.69    3.30
   0   9  -1   86.19    3.60
   0   9   1   78.49    3.50
   0   9   1   82.09    3.50
   0   9  -1   80.59    3.60
  -1  -9  -1   14.20    1.40
   1  -9   1   12.70    1.70
  -1  -9  -1   14.00    1.50
   1  -9   1   13.20    1.60
  -1  -9  -1   11.70    1.30
   1   9   1   12.60    1.30
   1   9   1   10.60    1.20
  -1   9  -1   13.90    1.60
   1   9   1   11.30    1.30
   1   9   1   12.30    1.10
   1   9   1   13.60    1.40
  -1   9  -1   11.30    1.50
  -2  -9  -1  116.19    4.60
   2  -9   1  123.99    5.30
   2  -9   1  128.69    5.50
   2   9   1  117.69    4.60
  -2   9  -1  120.59    5.00
  -2   9  -1  121.49    5.20
  -2   9  -1  114.69    5.10
   3  -9   1    0.30    1.30
  -3  -9  -1    0.00    0.90
   3  -9   1   -1.10    1.10
  -3   9  -1    3.10    1.30
  -3   9  -1   -0.90    1.30
  -3   9  -1    0.30    1.10
   4  -9   1    3.10    1.70
  -4   9  -1    3.80    1.60
  -4 -10   1   -1.80    1.70
   4 -10  -1    8.80    2.30
  -4  10   1    3.90    1.80
  -3 -10   1    0.40    1.00
   3 -10  -1   -1.60    1.30
   3 -10  -1    0.00    1.40
  -3  10   1    1.60    1.30
  -3  10   1    1.30    1.30
  -3  10   1   -0.10    1.30
   3  10  -1   -0.30    1.00
  -2 -10   1   16.90    1.70
   2 -10  -1   20.60    2.40
   2 -10  -1   21.60    2.60
   2  10  -1   15.60    1.70
  -2  10   1   14.20    1.80
  -2  10   1   20.20    2.20
  -2  10   1   16.00    2.00
   1 -10  -1   85.69    4.00
  -1 -10   1   82.99    3.70
   1 -10  -1   82.99    4.10
  -1 -10   1   81.39    3.70
   1  10  -1   83.69    3.70
   1  10  -1   82.99    3.70
  -1  10   1   80.89    3.90
  -1  10   1   85.09    4.00
   0 -10  -1   88.89    3.90
   0 -10   1   83.99    3.90
   0 -10   1   81.79    3.90
   0 -10  -1   85.69    3.80
   0  10   1   85.99    3.80
   0  10  -1   83.19    3.90
   0  10  -1   86.59    3.90
   0  10   1   85.89    3.60
   0  10   1   84.89    3.70
   0  10  -1   82.99    3.70
  -1 -10  -1   33.00    2.20
   1 -10   1   34.10    2.70
  -1 -10  -1   38.90    2.30
   1 -10   1   34.80    2.50
  -1 -10  -1   30.70    2.00
   1  10   1   38.00    2.30
  -1  10  -1   37.60    2.50
  -1  10  -1   34.30    2.50
   1  10   1   39.50    2.10
   2 -10   1   45.10    3.10
   2 -10   1   43.90    3.30
  -2 -10  -1   43.20    2.50
  -2  10  -1   42.80    2.80
  -2  10  -1   42.40    3.00
   2  10   1   43.40    2.40
  -2  10  -1   46.60    3.00
  -3 -10  -1    0.80    1.00
   3 -10   1    4.20    1.70
   3 -10   1    2.20    1.60
   3  10   1    1.70    1.10
  -3  10  -1    1.90    1.30
  -3  10  -1    2.50    1.40
  -3  10  -1    0.50    1.40
   4 -10   1    4.90    2.10
  -4  10  -1    3.40    1.70
   3 -11  -1   -0.60    1.40
   3 -11  -1    2.90    1.80
  -3  11   1    3.10    1.70
  -3  11   1    3.40    1.60
   3  11  -1    2.70    1.20
  -3  11   1    2.50    1.40
   2 -11  -1    0.40    1.40
   2 -11  -1    0.20    1.30
  -2 -11   1    1.90    1.10
  -2  11   1    0.70    1.30
  -2  11   1   -1.00    1.00
   2  11  -1    1.80    1.10
  -2  11   1    1.20    1.20
  -1 -11   1   25.50    2.30
   1 -11  -1   28.10    2.70
   1 -11  -1   25.10    2.60
  -1 -11   1   25.00    2.20
   1  11  -1   21.60    2.10
  -1  11   1   26.70    2.40
  -1  11   1   26.30    2.30
   1  11  -1   23.00    2.10
   0 -11   1   14.40    2.00
   0 -11  -1   13.30    1.80
   0 -11   1   15.10    1.90
   0 -11  -1   13.10    1.80
   0  11  -1   14.50    1.90
   0  11   1   15.00    1.70
   0  11  -1   10.40    1.60
   0  11   1   13.40    1.70
   0  11  -1   11.00    1.60
   1 -11   1   18.30    2.30
  -1 -11  -1   19.80    2.00
   1 -11   1   20.60    2.30
  -1  11  -1   18.70    2.10
  -1  11  -1   19.20    2.10
   1  11   1   17.50    1.80
  -1  11  -1   15.70    1.80
   2 -11   1   34.00    2.90
  -2 -11  -1   32.80    2.30
   2 -11   1   35.20    3.30
   2  11   1   30.20    2.20
  -2  11  -1   28.20    2.40
  -2  11  -1   30.60    3.00
  -2  11  -1   30.00    2.80
   3 -11   1   13.80    2.40
   3 -11   1   12.90    2.50
  -3 -11  -1   12.00    1.60
  -3  11  -1   12.60    2.10
   3  11   1   13.60    1.60
  -3  11  -1   12.90    2.30
  -3  11  -1    7.90    1.70
  -3 -12   1    7.00    1.50
   3 -12  -1    6.90    2.20
   3 -12  -1    7.30    2.20
  -3  12   1   12.80    2.30
   3  12  -1    9.30    1.70
  -3  12   1   14.10    2.40
   2 -12  -1   75.19    4.50
   2 -12  -1   76.99    4.40
  -2 -12   1   70.99    3.70
  -2  12   1   79.09    4.30
   2  12  -1   71.19    3.80
  -2  12   1   78.59    4.30
  -1 -12   1   40.50    2.80
   1 -12  -1   44.20    3.20
   1 -12  -1   43.70    3.00
  -1  12   1   39.10    3.00
   1  12  -1   36.50    2.70
  -1  12   1   39.60    2.80
   0 -12  -1    7.90    1.60
   0 -12   1    4.60    1.40
   0 -12   1    5.30    1.60
   0 -12  -1    6.70    1.40
   0  12  -1    6.70    1.70
   0  12  -1    4.80    1.30
   0  12   1    8.10    1.70
   0  12   1    5.80    1.30
   1 -12   1   20.00    2.50
   1 -12   1   23.20    2.60
  -1 -12  -1   17.00    2.10
   1  12   1   24.20    2.20
  -1  12  -1   22.30    2.30
  -1  12  -1   22.60    2.40
   2 -12   1   -0.10    1.50
   2 -12   1    1.30    1.40
  -2 -12  -1    0.40    1.20
  -2  12  -1    0.10    1.30
   2  12   1   -0.40    1.00
  -2  12  -1    0.80    1.40
   3 -12   1    3.10    1.90
   3 -12   1    2.10    1.90
  -3 -12  -1    1.30    1.20
  -3  12  -1    0.30    1.60
   3  12   1    2.60    1.10
   3 -13  -1    0.30    1.80
   3 -13  -1    1.90    1.90
  -3  13   1   -1.40    1.50
   3  13  -1    1.10    1.30
   2 -13  -1    1.30    1.50
  -2 -13   1    1.60    1.40
   2 -13  -1    2.30    1.80
   2  13  -1    1.10    1.30
  -2  13   1    0.00    1.50
  -2  13   1    3.40    1.50
  -1 -13   1    2.80    1.50
   1 -13  -1    7.00    1.90
   1 -13  -1    5.80    1.70
   1  13  -1    5.20    1.50
  -1  13   1    8.20    1.90
  -1  13   1    9.50    1.80
   0 -13   1    1.40    1.40
   0 -13  -1   -0.30    1.20
   0 -13   1    0.40    1.10
   0  13   1   -0.20    1.20
   0  13  -1   -1.40    1.00
   0  13  -1   -0.30    1.10
   0  13   1    2.20    1.50
   1 -13   1    2.20    1.50
   1 -13   1    1.00    1.50
  -1 -13  -1    1.30    1.40
   1  13   1   -0.50    1.10
  -1  13  -1    3.00    1.40
  -1  13  -1    1.20    1.40
   2 -13   1   27.40    3.10
  -2 -13  -1   26.50    2.50
   2 -13   1   32.10    3.40
   2  13   1   26.30    2.50
  -2  13  -1   23.00    2.90
  -2  13  -1   22.30    2.70
   3 -13   1   32.20    3.70
   3  13   1   30.90    2.40
   2 -14  -1   20.20    2.90
   2 -14  -1   15.70    2.80
   2  14  -1   19.20    2.40
  -2  14   1   16.80    2.60
  -2  14   1   19.70    2.70
   1 -14  -1    1.50    1.60
   1 -14  -1   -1.60    1.20
  -1 -14   1    1.90    1.40
   1  14  -1    1.10    1.30
  -1  14   1    2.90    1.50
  -1  14   1    1.20    1.50
   0 -14  -1    8.10    1.90
   0 -14   1    6.60    1.80
   0  14   1    6.40    1.70
   0  14  -1    6.60    1.70
  -1 -14  -1    9.00    1.90
   1 -14   1    6.20    1.70
   1 -14   1    8.20    2.00
   1  14   1    6.70    1.70
  -1  14  -1    6.50    1.80
  -1  14  -1    7.60    1.80
   2 -14   1   -0.30    1.60
   2 -14   1    2.10    1.90
   2  14   1    1.30    1.40
  -2  14  -1   -0.10    1.60
  -2  14  -1    0.70    1.40
  -1  15   1    2.30    1.70
   1  15  -1   -0.50    1.30
   0  15   1   29.70    3.00
   0  15  -1   32.70    3.10
  -1  15  -1    4.50    1.90
   1  15   1    4.90    1.70
   5   0  -2    4.70    1.60
  -5   0   2    1.10    1.40
   4   0  -2  107.49    4.60
  -4   0   2  112.39    4.70
  -4   0   2  105.79    4.50
  -3   0   2  106.69    4.40
   3   0  -2  118.39    4.50
  -3   0   2  122.39    4.50
   3   0  -2  117.39    4.50
   3   0  -2  107.09    4.30
  -3   0   2  113.99    4.40
  -3   0   2  114.29    4.60
  -2   0   2  130.59    4.90
   2   0  -2  129.79    4.90
  -2   0   2  137.39    4.90
   2   0  -2  143.89    4.80
  -2   0   2  139.39    4.90
   2   0  -2  139.39    4.90
  -2   0   2  141.49    5.00
   2   0  -2  143.79    5.00
  -1   0   2  497.45   16.70
   1   0  -2  527.05   16.80
   1   0  -2  515.95   16.70
  -1   0   2  523.35   16.80
   1   0  -2  535.35   16.80
  -1   0   2  509.85   16.70
   1   0  -2  531.65   16.70
  -1   0   2  518.75   16.70
   0   0   2    0.20    0.10
   0   0  -2    0.20    0.20
   0   0   2    0.20    0.20
   0   0  -2    0.40    0.10
   0   0  -2    0.10    0.10
   0   0  -2    0.20    0.10
   0   0   2    0.10    0.10
   2   0   2  262.27    8.70
  -2   0  -2  265.47    8.80
  -2   0  -2  259.87    8.70
  -2   0  -2  260.67    8.80
   2   0   2  273.17    8.80
  -3   0  -2    3.40    0.90
  -3   0  -2    3.10    0.90
  -3   0  -2    4.10    0.80
  -3   0  -2    3.10    0.70
   3   0   2    2.40    0.60
   3   0   2    2.90    0.80
  -4   0  -2   14.80    1.70
   4   0   2   16.40    1.60
  -4   0  -2   17.10    1.70
  -5   0  -2   -1.50    1.20
  -5  -1   2    3.40    1.50
   5  -1  -2    3.10    1.60
   5   1  -2    0.00    1.30
   4  -1  -2    1.20    1.10
  -4  -1   2   -0.50    0.90
  -4  -1   2    1.50    1.10
   4   1  -2    0.60    1.00
  -4   1   2    4.70    1.20
  -4   1   2    0.60    1.10
  -3  -1   2    2.80    1.00
   3  -1  -2    3.20    0.80
   3  -1  -2    4.90    1.10
  -3  -1   2    3.10    0.90
   3  -1  -2    4.00    0.90
  -3  -1   2    4.00    1.00
  -3  -1   2    2.30    0.80
  -3   1   2    3.60    1.00
   3   1  -2    3.30    0.90
  -3   1   2    4.00    0.90
   3   1  -2    2.10    0.80
  -3   1   2    3.50    0.80
   3   1  -2    3.90    0.80
  -3   1   2    2.40    0.90
   2  -1  -2  151.68    5.30
   2  -1  -2  153.48    5.40
   2  -1  -2  146.39    5.30
  -2  -1   2  153.18    5.20
   2  -1  -2  154.68    5.20
  -2  -1   2  143.19    5.20
  -2  -1   2  150.68    5.30
  -2  -1   2  149.79    5.40
  -2   1   2  153.78    5.40
  -2   1   2  147.09    5.30
   2   1  -2  150.88    5.30
   2   1  -2  145.09    5.20
  -2   1   2  147.89    5.30
   2   1  -2  156.18    5.10
  -2   1   2  144.89    5.30
   2   1  -2  152.58    5.30
   2   1  -2  142.69    5.20
   1  -1  -2  525.75   16.70
  -1  -1   2  505.65   16.80
  -1  -1   2  526.05   16.60
   1  -1  -2  508.85   16.70
   1  -1  -2  523.65   16.70
   1  -1  -2  514.35   16.70
  -1  -1   2  512.15   16.70
  -1  -1   2  514.85   16.70
   1  -1  -2  508.75   16.80
  -1  -1   2  517.05   16.70
  -1   1   2  520.55   16.70
   1   1  -2  529.45   16.70
  -1   1   2  516.85   16.70
  -1   1   2  521.45   16.70
   1   1  -2  544.25   16.70
   1   1  -2  512.55   16.70
  -1   1   2  513.25   16.80
   0  -1  -2 1187.78   36.30
   0  -1  -2 1163.48   36.40
   0  -1  -2 1159.78   36.30
   0  -1   2 1157.48   36.20
   0  -1   2 1210.68   36.60
   0  -1   2 1137.49   36.20
   0  -1  -2 1193.88   36.40
   0  -1  -2 1121.89   36.40
   0  -1   2 1068.69   36.30
   0   1  -2 1131.79   36.30
   0   1  -2 1132.89   36.20
   0   1   2 1142.29   36.30
   0   1   2 1107.79   36.20
   0   1   2 1172.38   36.30
   0   1   2  995.50   36.30
   0   1  -2 1138.49   36.20
   0   1   2 1137.89   36.30
   1  -1   2 9728.93  310.67
   1  -1   2 9798.02  310.47
   1  -1   2 9663.83  310.47
   1  -1   2 9887.51  310.47
  -1   1  -2 9627.24  310.57
  -1   1  -2 9999.00  310.57
  -1   1  -2 9829.82  310.47
  -1   1  -2 9941.50  310.57
  -1   1  -2 9775.52  310.47
   2  -1   2  236.78    7.80
   2  -1   2  241.28    7.90
   2  -1   2  240.08    7.90
   2  -1   2  225.08    7.80
  -2   1  -2  229.18    7.90
  -2   1  -2  237.38    7.90
  -2   1  -2  236.78    7.90
   3  -1   2   79.79    3.30
  -3  -1  -2   83.69    3.20
  -3  -1  -2   91.39    3.30
  -3  -1  -2   83.29    3.40
  -3  -1  -2   93.09    3.40
   3  -1   2   81.49    3.40
  -3   1  -2   80.39    3.50
  -3   1  -2   81.89    3.40
  -3   1  -2   81.89    3.50
  -4  -1  -2    3.10    1.00
  -4  -1  -2    0.50    1.00
   4  -1   2    3.60    1.10
  -4   1  -2    3.30    1.10
  -4   1  -2   -0.70    0.90
   5  -1   2   -0.60    1.20
  -5  -1  -2   -0.60    1.20
  -5   1  -2   -0.40    1.20
  -5  -2   2    4.70    1.50
   5  -2  -2    5.00    1.70
   5   2  -2    4.10    1.40
   4  -2  -2   35.10    2.50
  -4  -2   2   33.40    2.40
  -4  -2   2   31.40    2.20
   4   2  -2   34.00    2.30
  -4   2   2   31.80    2.40
  -4   2   2   39.50    2.70
  -3  -2   2    3.10    0.90
   3  -2  -2    1.70    0.80
  -3  -2   2    3.30    0.80
   3  -2  -2    2.70    0.80
  -3  -2   2    5.40    1.10
  -3   2   2    3.30    1.00
  -3   2   2    3.60    0.90
  -3   2   2    4.60    1.00
  -3   2   2    4.00    0.90
   3   2  -2    3.30    0.80
   3   2  -2    4.60    0.90
   3   2  -2    5.20    0.90
   2  -2  -2   52.29    2.30
  -2  -2   2   51.39    2.40
  -2  -2   2   53.49    2.20
   2  -2  -2   60.69    2.50
   2  -2  -2   55.79    2.30
   2  -2  -2   55.99    2.50
  -2  -2   2   54.99    2.30
  -2  -2   2   54.89    2.30
  -2   2   2   50.29    2.30
  -2   2   2   55.19    2.40
   2   2  -2   57.59    2.10
   2   2  -2   53.89    2.30
   2   2  -2   56.29    2.30
   2   2  -2   55.39    2.30
   2   2  -2   54.99    2.30
  -2   2   2   54.19    2.50
  -1  -2   2  967.60   29.40
  -1  -2   2  997.80   29.50
  -1  -2   2  841.92   29.40
   1  -2  -2  911.01   29.40
  -1   2   2  879.41   29.50
   1   2  -2  921.91   29.30
   1   2  -2  862.01   29.40
   1   2  -2  978.60   29.40
   1   2  -2  932.61   29.40
   0  -2  -2   97.79    3.20
   0  -2  -2   96.49    3.20
   0  -2  -2   96.89    3.20
   0  -2   2   89.39    3.30
   0  -2   2   93.79    3.20
   0  -2  -2   94.29    3.20
   0  -2  -2  100.59    3.20
   0  -2   2   92.19    3.20
   0  -2   2   91.29    3.20
   0   2   2   94.89    3.20
   0   2  -2   95.89    3.30
   0   2  -2   92.49    3.20
   0   2   2   97.39    3.20
   0   2  -2   99.69    3.20
   0   2   2   92.59    3.20
   0   2   2   95.99    3.20
   0   2  -2   92.99    3.30
   1  -2   2    6.00    0.60
   1  -2   2    4.60    0.50
   1  -2   2    4.90    0.60
  -1   2  -2    6.20    0.60
  -1   2  -2    5.30    0.60
  -1   2  -2    4.90    0.60
   2  -2   2  177.38    6.00
   2  -2   2  178.78    6.20
   2  -2   2  172.18    6.00
   2  -2   2  174.88    6.10
  -2   2  -2  171.58    6.10
  -2   2  -2  177.48    6.10
  -2   2  -2  176.48    6.10
  -3  -2  -2   71.29    2.80
   3  -2   2   69.39    3.10
   3  -2   2   73.79    3.10
   3  -2   2   60.99    2.90
  -3   2  -2   75.09    3.20
  -3   2  -2   68.39    3.10
  -3   2  -2   74.79    3.20
  -3   2  -2   69.29    3.00
  -4  -2  -2    4.90    1.10
   4  -2   2    6.70    1.30
  -4   2  -2    6.30    1.20
  -4   2  -2    8.60    1.50
   5  -2   2    0.80    1.30
  -5  -3   2    2.90    1.40
   5  -3  -2    2.60    1.60
   5   3  -2    2.40    1.40
  -4  -3   2   -1.10    0.80
   4  -3  -2    0.70    1.00
  -4  -3   2    0.10    1.10
  -4   3   2    1.10    1.20
  -4   3   2    1.10    1.10
   4   3  -2    1.00    1.00
  -3  -3   2   19.80    1.50
   3  -3  -2   11.30    1.70
  -3  -3   2   16.30    1.50
  -3  -3   2   18.60    1.40
   3  -3  -2   16.60    1.70
   3   3  -2   16.30    1.30
   3   3  -2   17.60    1.40
  -3   3   2   13.50    1.50
  -3   3   2   16.80    1.60
  -3   3   2   17.50    1.60
  -3   3   2   15.40    1.70
   3   3  -2   16.00    1.40
  -2  -3   2   47.20    2.00
  -2  -3   2   44.10    2.10
  -2  -3   2   50.89    2.20
   2  -3  -2   47.30    2.30
  -2   3   2   46.60    2.30
   2   3  -2   55.09    2.10
  -2   3   2   46.20    2.20
   2   3  -2   46.80    2.10
   2   3  -2   47.80    2.00
  -2   3   2   43.50    2.20
   2   3  -2   48.30    2.10
   1  -3  -2    1.80    0.70
   1  -3  -2    2.00    0.60
  -1  -3   2    2.80    0.50
  -1  -3   2    2.40    0.50
   1  -3  -2    2.40    0.50
  -1  -3   2    3.20    0.60
   1  -3  -2    2.30    0.50
   1   3  -2    2.80    0.50
  -1   3   2    2.90    0.60
  -1   3   2    2.00    0.60
  -1   3   2    2.10    0.60
   1   3  -2    3.60    0.60
   1   3  -2    3.00    0.40
  -1   3   2    2.20    0.60
   1   3  -2    2.60    0.50
   0  -3   2  103.99    3.60
   0  -3  -2  103.59    3.60
   0  -3  -2  108.59    3.60
   0  -3   2  105.09    3.70
   0  -3   2  101.39    3.60
   0  -3  -2  107.19    3.60
   0  -3  -2  106.49    3.60
   0  -3   2  104.59    3.60
   0  -3  -2  105.39    3.60
   0   3  -2  103.49    3.60
   0   3   2  107.49    3.60
   0   3  -2  104.99    3.60
   0   3  -2   99.99    3.60
   0   3  -2  101.39    3.60
   0   3   2  103.09    3.50
   0   3   2  105.29    3.60
   0   3   2  109.49    3.60
   1  -3   2  239.38    8.00
   1  -3   2  233.78    7.90
   1  -3   2  237.78    8.00
   1  -3   2  242.28    7.90
  -1   3  -2  242.18    7.90
  -1   3  -2  229.68    7.90
   2  -3   2  277.17    9.40
   2  -3   2  285.67    9.60
   2  -3   2  283.67    9.50
  -2   3  -2  283.07    9.50
  -2   3  -2  267.87    9.40
  -2   3  -2  283.57    9.50
   3  -3   2    7.70    1.20
  -3   3  -2   10.20    1.30
  -3   3  -2    8.80    1.20
  -3   3  -2   10.10    1.20
  -3   3  -2    9.00    1.30
  -4  -3  -2   -0.20    0.80
   4  -3   2    1.80    1.20
  -4   3  -2    0.60    1.00
  -4   3  -2    1.00    1.10
   5  -3   2   -1.00    1.20
   5  -4  -2    7.40    2.00
  -4  -4   2    0.90    1.10
   4  -4  -2    0.00    1.10
  -4  -4   2   -0.70    0.80
  -4   4   2    1.20    1.20
   4   4  -2    0.90    1.00
  -4   4   2    0.90    1.20
  -3  -4   2    6.40    1.10
   3  -4  -2    7.30    1.40
  -3  -4   2    8.30    1.00
   3  -4  -2    7.00    1.40
  -3  -4   2    7.70    1.10
  -3  -4   2    6.30    0.90
   3   4  -2    7.60    1.00
   3   4  -2    7.90    1.10
  -3   4   2    7.80    1.30
   3   4  -2    5.70    0.90
  -3   4   2    7.30    1.20
  -3   4   2    8.40    1.30
  -2  -4   2   14.80    1.20
  -2  -4   2   14.30    1.10
  -2  -4   2   15.80    1.10
   2  -4  -2   14.60    1.50
   2  -4  -2   14.70    1.40
  -2  -4   2   13.90    0.90
  -2   4   2   14.80    1.30
   2   4  -2   15.40    1.10
   2   4  -2   14.60    1.10
  -2   4   2   15.40    1.40
  -2   4   2   16.40    1.40
   2   4  -2   15.90    1.10
  -2   4   2   15.10    1.40
  -1  -4   2  244.28    8.30
   1  -4  -2  249.28    8.40
   1  -4  -2  249.18    8.50
  -1  -4   2  246.28    8.20
  -1  -4   2  247.98    8.30
  -1   4   2  258.57    8.40
   1   4  -2  241.58    8.20
   1   4  -2  247.68    8.30
   1   4  -2  245.18    8.30
  -1   4   2  249.78    8.40
  -1   4   2  247.98    8.40
   1   4  -2  258.67    8.30
   0  -4  -2   10.70    0.80
   0  -4   2   11.10    0.90
   0  -4  -2    9.90    0.80
   0  -4  -2   11.30    0.80
   0  -4   2   10.60    0.90
   0  -4   2   10.10    0.90
   0   4   2   11.20    0.80
   0   4  -2   10.00    0.80
   0   4  -2   11.40    0.90
   0   4   2   10.90    0.80
   0   4  -2   11.10    0.90
   0   4   2   10.30    0.80
   0   4   2    9.20    0.80
   0   4  -2   11.50    0.90
   1  -4   2    5.60    0.80
   1  -4   2    3.80    0.80
   1  -4   2    5.50    0.70
  -1  -4  -2    6.10    0.60
   1  -4   2    4.70    0.80
  -1   4  -2    4.70    0.70
   1   4   2    3.30    0.40
  -1   4  -2    5.00    0.80
  -1   4  -2    4.70    1.10
   2  -4   2  326.47   11.00
   2  -4   2  319.57   11.00
   2  -4   2  323.77   10.90
  -2   4  -2  321.07   10.90
  -2   4  -2  316.67   10.90
  -2   4  -2  327.87   10.90
   3  -4   2   52.29    2.80
   3  -4   2   53.89    2.80
  -3   4  -2   52.79    2.70
  -3   4  -2   54.59    2.90
  -3   4  -2   50.79    2.60
  -3   4  -2   52.99    2.70
  -4  -4  -2    4.70    1.00
   4  -4   2    3.50    1.30
  -4   4  -2    7.30    1.50
  -4   4  -2    2.70    1.30
   5  -4   2   -1.50    1.30
   5  -5  -2    6.70    2.10
   4  -5  -2   19.00    2.30
  -4  -5   2   20.40    1.90
  -4  -5   2   23.60    1.80
  -4   5   2   19.60    2.20
   4   5  -2   19.70    1.90
  -4   5   2   18.10    2.20
   3  -5  -2    0.90    1.00
  -3  -5   2    0.50    0.60
   3  -5  -2    0.60    1.10
  -3  -5   2    0.30    0.80
  -3   5   2    0.90    0.90
  -3   5   2    0.10    0.90
  -3   5   2    0.30    0.90
   3   5  -2    1.10    0.70
   2  -5  -2  245.68    8.30
   2  -5  -2  244.28    8.40
  -2  -5   2  216.28    8.00
  -2  -5   2  245.98    8.20
  -2  -5   2  230.28    7.90
  -2  -5   2  234.38    7.90
  -2   5   2  226.68    8.10
   2   5  -2  239.48    7.90
  -2   5   2  225.98    8.20
   2   5  -2  227.68    7.90
  -2   5   2  232.68    8.20
  -2   5   2  207.58    8.40
   2   5  -2  232.58    7.90
  -1  -5   2   20.80    1.20
   1  -5  -2   20.80    1.40
   1  -5  -2   22.20    1.30
   1  -5  -2   20.10    1.30
  -1  -5   2   20.20    1.20
  -1  -5   2   19.90    1.30
   1  -5  -2   17.80    1.50
   1   5  -2   20.30    1.00
   1   5  -2   19.40    1.20
   1   5  -2   20.30    1.20
  -1   5   2   18.50    1.30
  -1   5   2   17.00    1.40
  -1   5   2   19.60    1.40
   1   5  -2   19.80    1.30
  -1   5   2   20.70    1.40
   0  -5   2  321.17   10.70
   0  -5  -2  318.37   10.70
   0  -5  -2  333.87   10.70
   0  -5   2  313.67   10.60
   0  -5   2  318.97   10.70
   0   5   2  331.27   10.60
   0   5   2  325.47   10.60
   0   5   2  325.37   10.50
   0   5   2  317.57   10.50
   0   5  -2  315.47   10.80
   0   5  -2  327.27   10.70
   0   5  -2  319.97   10.60
   0   5  -2  312.57   10.70
   1  -5   2  126.19    4.80
  -1  -5  -2  135.19    4.60
   1  -5   2  136.59    5.00
  -1  -5  -2  132.79    4.60
  -1  -5  -2  134.59    4.60
   1   5   2  135.89    4.60
   1   5   2  133.39    4.60
   1   5   2  139.09    4.60
  -1   5  -2  132.69    4.90
   1   5   2  141.49    4.60
  -1   5  -2  132.49    4.80
  -1   5  -2  124.69    4.80
   1   5   2  135.09    4.50
   2  -5   2    7.00    1.20
   2  -5   2    6.10    1.10
  -2   5  -2    6.80    1.00
  -2   5  -2    6.50    1.00
   3  -5   2   41.00    2.60
   3  -5   2   42.20    2.60
  -3   5  -2   40.80    2.40
  -3   5  -2   43.30    2.60
  -3   5  -2   44.00    2.50
  -3   5  -2   32.70    3.50
   4  -5   2    8.00    1.70
  -4   5  -2    5.00    1.40
  -4   5  -2    4.90    1.40
   4  -6  -2   17.90    2.40
  -4  -6   2   16.40    1.60
  -4  -6   2   21.10    1.90
   4   6  -2   21.50    1.80
  -4   6   2   17.60    2.20
  -4   6   2   18.30    2.40
  -3  -6   2    8.30    1.20
  -3  -6   2    8.70    1.00
   3  -6  -2    7.90    1.60
   3  -6  -2    7.20    1.50
  -3   6   2    7.10    1.40
   3   6  -2    6.90    1.10
  -3   6   2    7.50    1.50
  -3   6   2    7.10    1.30
   2  -6  -2   73.69    3.40
  -2  -6   2   75.09    3.00
   2  -6  -2   76.29    3.50
  -2  -6   2   69.69    3.10
  -2  -6   2   70.99    3.00
  -2   6   2   72.39    3.30
   2   6  -2   73.29    3.00
   2   6  -2   71.19    3.00
  -2   6   2   71.39    3.20
   2   6  -2   76.79    3.00
  -2   6   2   74.79    3.30
   1  -6  -2  383.46   12.90
   1  -6  -2  381.26   12.70
  -1  -6   2  379.46   12.60
   1  -6  -2  380.66   12.80
  -1  -6   2  370.46   12.70
  -1  -6   2  371.26   12.50
  -1   6   2  393.46   12.80
   1   6  -2  379.76   12.60
   1   6  -2  396.16   12.60
  -1   6   2  381.36   12.70
  -1   6   2  375.66   12.70
   0  -6   2 1012.90   32.50
   0  -6   2  987.50   32.40
   0  -6  -2 1004.40   32.40
   0  -6  -2 1015.20   32.50
   0  -6   2 1003.80   32.50
   0  -6  -2 1003.30   32.40
   0   6  -2 1016.30   32.50
   0   6  -2 1017.70   32.40
   0   6   2 1033.60   32.30
   0   6   2 1022.60   32.40
   0   6   2 1038.10   32.40
   0   6  -2  896.81   32.40
   0   6   2 1046.90   32.50
   0   6   2 1038.30   32.30
   1  -6   2   99.09    4.00
   1  -6   2  103.49    4.10
  -1  -6  -2  104.09    3.70
  -1  -6  -2  100.09    3.70
  -1  -6  -2  102.09    3.70
   1   6   2  108.39    3.70
   1   6   2   98.79    3.60
  -1   6  -2   96.09    3.90
   1   6   2  103.19    3.70
  -1   6  -2  102.99    4.00
  -1   6  -2   98.49    4.00
  -1   6  -2  103.89    3.90
   1   6   2  104.69    3.70
  -2  -6  -2   94.59    3.30
   2  -6   2   90.69    4.00
   2  -6   2   92.19    3.90
  -2  -6  -2   89.49    3.30
  -2   6  -2   83.29    3.80
  -2   6  -2   85.59    3.80
   3  -6   2    0.90    1.10
   3  -6   2    2.50    1.10
  -3   6  -2    1.10    1.00
  -3   6  -2    0.50    0.90
  -3   6  -2    0.10    0.90
   4  -6   2   26.00    2.60
  -4  -6  -2   20.70    1.60
  -4   6  -2   17.40    2.10
  -4   6  -2   21.60    2.50
  -4  -7   2   12.20    1.70
  -4  -7   2    8.70    1.30
   4  -7  -2   14.10    2.30
  -4   7   2   15.70    2.20
   4   7  -2   14.60    1.60
  -4   7   2   14.40    2.20
   3  -7  -2    3.00    1.40
   3  -7  -2    0.50    1.10
  -3  -7   2    4.30    1.00
  -3   7   2    4.00    1.20
  -3   7   2    2.30    1.20
  -3   7   2    3.20    1.30
   3   7  -2    2.30    0.90
   2  -7  -2  209.78    7.90
  -2  -7   2  200.68    7.40
  -2  -7   2  220.78    7.30
  -2  -7   2  209.58    7.40
   2  -7  -2  201.98    7.80
   2   7  -2  208.18    7.40
  -2   7   2  209.88    7.60
  -2   7   2  206.38    7.60
  -2   7   2  220.18    7.70
   2   7  -2  213.78    7.30
   2   7  -2  198.08    7.30
  -1  -7   2   11.10    1.10
  -1  -7   2   12.90    1.20
   1  -7  -2   14.40    1.50
   1  -7  -2   12.10    1.40
  -1  -7   2   12.00    1.20
  -1   7   2   14.10    1.30
   1   7  -2   10.10    1.10
  -1   7   2   11.50    1.30
   1   7  -2   12.30    1.20
  -1   7   2   13.20    1.40
   1   7  -2   13.60    1.40
   0  -7  -2  624.44   20.70
   0  -7   2  618.04   20.80
   0  -7  -2  641.24   20.80
   0  -7  -2  581.54   20.70
   0  -7   2  620.44   20.80
   0  -7   2  643.94   20.80
   0   7  -2  665.43   20.90
   0   7   2  653.63   20.70
   0   7   2  660.03   20.70
   0   7  -2  649.83   20.80
   0   7   2  633.14   20.80
   0   7   2  649.34   20.80
  -1  -7  -2   13.40    1.20
   1  -7   2   11.20    1.40
   1  -7   2   11.10    1.40
  -1  -7  -2   13.10    1.10
  -1  -7  -2   11.50    1.00
   1   7   2   12.50    1.10
  -1   7  -2   10.90    1.30
  -1   7  -2   11.30    1.30
  -1   7  -2    9.10    1.10
   1   7   2   11.90    1.00
   1   7   2   11.50    1.10
   2  -7   2   44.10    2.70
   2  -7   2   48.50    2.90
  -2  -7  -2   45.40    2.10
  -2  -7  -2   47.60    2.10
  -2   7  -2   48.00    2.60
   2   7   2   43.80    2.00
   2   7   2   44.60    2.00
  -2   7  -2   42.10    2.60
   3  -7   2    9.20    1.70
   3  -7   2   11.10    1.80
  -3   7  -2    7.20    1.40
  -3   7  -2   11.40    1.70
  -3   7  -2   10.80    1.70
   4  -7   2    5.00    1.80
  -4  -7  -2    1.60    0.90
  -4   7  -2    6.40    1.70
  -4   7  -2    1.60    1.30
  -4  -8   2    7.10    1.50
   4  -8  -2   10.90    2.20
   4   8  -2    8.60    1.40
  -4   8   2   10.40    1.90
  -4   8   2   11.90    2.20
   3  -8  -2    9.60    1.80
   3  -8  -2    5.90    1.70
  -3  -8   2    8.40    1.30
  -3   8   2    6.20    1.50
  -3   8   2    8.40    1.70
  -3   8   2    8.40    1.60
   3   8  -2    6.80    1.20
  -2  -8   2   14.90    1.50
  -2  -8   2   17.30    1.60
   2  -8  -2   14.00    1.90
  -2  -8   2   17.40    1.50
   2  -8  -2   18.40    2.10
  -2   8   2   15.80    1.70
  -2   8   2   16.00    1.80
   2   8  -2   16.30    1.50
  -2   8   2   15.60    1.80
   2   8  -2   13.90    1.40
  -1  -8   2   58.59    2.70
  -1  -8   2   63.09    2.80
   1  -8  -2   63.99    3.00
   1  -8  -2   62.49    3.10
  -1   8   2   65.29    3.00
  -1   8   2   60.29    2.80
  -1   8   2   60.39    2.90
   1   8  -2   59.59    2.80
   0  -8   2  122.79    4.90
   0  -8  -2  124.09    4.80
   0  -8  -2  125.69    4.70
   0  -8   2  129.09    4.90
   0   8   2  130.69    4.70
   0   8  -2  129.49    4.90
   0   8   2  128.49    4.80
   0   8  -2  124.29    4.90
   1  -8   2   14.70    1.60
  -1  -8  -2   15.40    1.40
  -1  -8  -2   12.10    1.20
   1  -8   2   11.00    1.50
  -1  -8  -2   16.40    1.40
   1   8   2   13.60    1.20
  -1   8  -2   11.00    1.40
  -1   8  -2   10.80    1.40
   1   8   2   13.40    1.10
  -1   8  -2   13.40    1.50
   1   8   2   15.30    1.40
   2  -8   2    2.00    1.10
   2  -8   2    0.60    1.20
  -2  -8  -2    0.70    0.70
  -2  -8  -2    0.70    0.70
   2   8   2    0.80    0.70
  -2   8  -2    1.50    1.00
  -2   8  -2    2.10    1.10
   2   8   2    0.50    0.60
   3  -8   2   30.40    2.60
   3  -8   2   28.50    2.80
  -3   8  -2   29.40    2.80
  -3   8  -2   27.50    2.40
  -3   8  -2   29.00    2.50
   4  -8   2    4.50    1.60
  -4   8  -2    0.30    1.30
  -4   8  -2    2.70    1.80
  -4  -9   2    3.10    1.20
   4  -9  -2    4.20    1.90
  -4   9   2    2.90    1.60
   4   9  -2    3.80    1.20
   3  -9  -2   22.60    2.60
  -3  -9   2   23.40    1.90
   3  -9  -2   25.00    2.60
   3   9  -2   23.00    2.00
  -3   9   2   22.30    2.40
  -3   9   2   20.30    2.30
  -3   9   2   15.50    2.10
   2  -9  -2    2.70    1.30
  -2  -9   2    0.60    0.90
   2  -9  -2    2.50    1.40
  -2   9   2    1.40    1.10
  -2   9   2    2.20    1.00
   2   9  -2    1.10    0.80
   2   9  -2    2.10    0.90
  -2   9   2    3.40    1.30
  -1  -9   2    9.40    1.20
   1  -9  -2   12.20    1.70
  -1  -9   2    9.10    1.30
   1  -9  -2   11.80    1.60
  -1  -9   2   12.00    1.70
  -1   9   2   11.20    1.60
  -1   9   2   10.30    1.50
  -1   9   2   11.80    1.40
   1   9  -2   13.40    1.40
   1   9  -2    9.20    1.30
   0  -9  -2    8.40    1.20
   0  -9   2    9.80    1.40
   0  -9  -2    9.30    1.30
   0  -9   2   10.40    1.50
   0   9   2   10.40    1.30
   0   9   2    9.20    1.30
   0   9  -2   10.50    1.50
   0   9   2    9.70    1.10
   0   9  -2    9.90    1.40
  -1  -9  -2   27.30    1.90
   1  -9   2   28.90    2.40
   1  -9   2   25.70    2.20
  -1  -9  -2   26.10    1.70
  -1  -9  -2   26.50    1.80
  -1   9  -2   29.20    2.20
   1   9   2   27.50    1.70
   1   9   2   32.00    1.90
  -1   9  -2   26.50    2.30
  -1   9  -2   27.40    2.20
   1   9   2   26.80    1.70
   2  -9   2   10.40    1.90
  -2  -9  -2   13.90    1.40
   2  -9   2   11.90    1.80
  -2   9  -2   13.10    1.70
  -2   9  -2   13.40    1.70
  -2   9  -2   12.90    1.80
   2   9   2   13.40    1.30
   3  -9   2    3.90    1.50
  -3  -9  -2    0.60    0.90
   3  -9   2    2.60    1.50
  -3   9  -2    0.70    1.20
  -3   9  -2    3.10    1.30
  -3   9  -2    0.20    1.40
   4  -9   2   -0.10    1.60
  -4   9  -2    0.90    1.40
   4 -10  -2    1.00    1.70
  -4  10   2    2.60    1.70
   4  10  -2   -1.10    1.10
   3 -10  -2    7.40    1.90
   3 -10  -2    3.20    1.70
  -3 -10   2    4.00    1.20
  -3  10   2    4.60    1.60
  -3  10   2    5.80    1.60
   3  10  -2    5.70    1.30
  -3  10   2    5.40    1.80
   2 -10  -2    2.10    1.40
   2 -10  -2    0.70    1.20
  -2 -10   2    2.60    1.10
  -2  10   2    3.00    1.20
   2  10  -2    0.80    0.90
  -2  10   2    2.20    1.10
  -2  10   2    0.80    1.20
   1 -10  -2   62.79    3.30
  -1 -10   2   60.49    3.00
   1 -10  -2   61.29    3.40
  -1 -10   2   58.19    3.00
  -1  10   2   56.59    3.10
  -1  10   2   60.09    3.20
  -1  10   2   58.89    2.90
   1  10  -2   56.99    3.00
   1  10  -2   63.29    3.00
   0 -10  -2   55.69    2.90
   0 -10   2   46.00    2.80
   0 -10  -2   47.40    2.70
   0 -10   2   47.50    2.90
   0  10  -2   51.79    2.80
   0  10   2   50.99    2.70
   0  10  -2   48.90    2.80
   0  10   2   50.49    2.70
   0  10   2   45.20    2.40
   1 -10   2   34.00    2.70
  -1 -10  -2   31.60    2.10
  -1 -10  -2   39.40    2.40
   1 -10   2   36.90    2.60
  -1  10  -2   41.00    2.60
  -1  10  -2   35.40    2.50
   1  10   2   37.80    2.20
   1  10   2   33.10    2.00
   2 -10   2    1.70    1.30
  -2 -10  -2    1.60    1.00
   2 -10   2    3.30    1.60
   2  10   2    2.70    1.00
  -2  10  -2    1.90    1.30
  -2  10  -2    4.30    1.40
  -2  10  -2    1.60    1.10
   3 -10   2    8.90    2.00
   3 -10   2    6.00    1.90
  -3 -10  -2    3.70    1.20
  -3  10  -2    6.60    1.70
  -3  10  -2    6.90    1.80
  -3  10  -2    4.80    1.50
   4 -10   2    0.10    1.70
  -4  10  -2    1.50    2.00
   3 -11  -2    4.00    1.70
  -3 -11   2    3.20    1.30
   3 -11  -2    4.30    1.80
  -3  11   2    1.20    1.50
  -3  11   2    4.10    1.70
   3  11  -2    2.60    1.20
   2 -11  -2   17.90    2.40
   2 -11  -2   17.30    2.30
  -2 -11   2   18.10    1.90
   2  11  -2   17.50    1.90
  -2  11   2   12.80    1.80
  -2  11   2   19.80    2.30
  -2  11   2   17.80    2.20
   1 -11  -2   20.80    2.20
   1 -11  -2   25.10    2.60
  -1 -11   2   23.80    2.00
  -1 -11   2   22.60    2.20
   1  11  -2   18.10    2.00
   1  11  -2   19.50    2.00
  -1  11   2   20.40    2.20
  -1  11   2   21.20    2.10
   0 -11  -2   86.49    4.00
   0 -11   2   90.59    4.20
   0 -11   2   90.59    4.20
   0 -11  -2   87.09    4.10
   0  11  -2   84.29    4.10
   0  11   2   88.89    3.90
   0  11   2   89.89    4.00
   0  11  -2   77.59    3.90
   0  11  -2   86.09    4.10
   1 -11   2   21.50    2.50
   1 -11   2   26.70    2.80
  -1 -11  -2   26.60    2.30
  -1  11  -2   25.10    2.40
   1  11   2   23.60    2.00
  -1  11  -2   22.70    2.40
   2 -11   2   16.60    2.30
  -2 -11  -2   15.80    1.90
   2 -11   2   14.60    2.20
  -2  11  -2   18.20    2.20
   2  11   2   15.40    1.70
  -2  11  -2   13.40    2.10
  -2  11  -2   14.80    2.00
   3 -11   2   14.10    2.50
  -3 -11  -2   14.50    1.70
   3 -11   2   18.50    2.60
  -3  11  -2   12.70    2.00
  -3  11  -2   18.20    2.50
   3 -12  -2   28.50    3.40
   3 -12  -2   30.00    3.30
  -3 -12   2   22.10    2.20
  -3  12   2   26.50    3.00
   3  12  -2   26.60    2.40
  -3  12   2   23.30    2.80
   2 -12  -2   13.70    2.30
   2 -12  -2   10.70    2.00
  -2 -12   2   15.00    1.90
   2  12  -2   15.50    1.90
  -2  12   2   12.80    2.10
  -2  12   2   17.50    2.40
   1 -12  -2  108.89    5.10
   1 -12  -2  106.39    5.10
  -1 -12   2  102.99    4.70
  -1  12   2  113.29    5.00
  -1  12   2  103.99    4.80
   1  12  -2   97.89    4.70
   1  12  -2  112.79    4.80
   0 -12   2    1.70    1.10
   0 -12  -2    0.20    1.10
   0 -12   2    1.60    1.40
   0 -12  -2    1.50    1.10
   0  12   2    2.70    1.30
   0  12  -2    2.90    1.30
   0  12   2    0.60    1.10
   0  12  -2    2.10    1.20
   0  12  -2    1.20    1.20
   1 -12   2   43.60    3.30
   1 -12   2   48.60    3.30
  -1 -12  -2   41.10    2.80
   1  12   2   43.30    2.70
  -1  12  -2   44.60    3.00
  -1  12  -2   45.90    3.10
   2 -12   2   15.70    2.40
  -2 -12  -2   12.50    1.70
   2 -12   2   18.50    2.50
   2  12   2   15.60    1.70
  -2  12  -2   14.00    2.50
  -2  12  -2   11.80    2.10
  -2  12  -2   14.50    2.20
  -3 -12  -2    3.90    1.30
   3 -12   2    3.90    1.80
   3 -13  -2    1.00    1.90
   3 -13  -2    1.20    1.70
   3  13  -2    3.70    1.40
  -3  13   2    2.40    1.70
  -2 -13   2    3.20    1.40
   2 -13  -2    2.30    1.80
   2 -13  -2    0.50    1.40
  -2  13   2    2.60    1.50
  -2  13   2    6.00    1.80
   2  13  -2    2.00    1.40
   1 -13  -2    1.50    1.50
   1 -13  -2    3.50    1.40
  -1 -13   2    3.70    1.50
  -1  13   2    3.20    1.40
  -1  13   2    3.30    1.50
   1  13  -2    2.50    1.30
   0 -13   2    4.30    1.60
   0 -13  -2    5.80    1.60
   0 -13   2    4.00    1.50
   0  13  -2    4.70    1.50
   0  13  -2    8.10    1.70
   0  13   2    8.70    1.70
   1 -13   2   20.90    2.70
  -1 -13  -2   16.90    2.20
   1 -13   2   20.30    2.60
   1  13   2   16.70    2.00
  -1  13  -2   18.60    2.40
  -1  13  -2   14.20    2.10
   2 -13   2    1.60    1.60
   2 -13   2    0.60    1.50
  -2 -13  -2    0.70    1.30
  -2  13  -2    0.10    1.50
  -2  13  -2    1.20    1.50
   2  13   2    0.90    1.20
   2 -14  -2    0.40    1.60
   2 -14  -2    2.20    1.90
  -2  14   2    1.10    1.60
   2  14  -2    3.20    1.60
  -2  14   2    2.00    1.50
   1 -14  -2    3.20    1.80
  -1 -14   2    1.30    1.50
  -1  14   2    1.40    1.50
  -1  14   2    2.30    1.70
   1  14  -2    0.40    1.30
   0 -14   2    3.50    1.60
   0 -14  -2    2.30    1.40
   0  14  -2    2.40    1.50
   0  14   2    3.70    1.60
  -1 -14  -2    7.00    1.80
   1 -14   2    8.80    1.90
   1 -14   2    8.00    2.00
  -1  14  -2    6.70    1.80
   1  14   2    5.50    1.60
  -1  14  -2    8.10    2.00
   2 -14   2    0.70    1.70
   2 -14   2    1.10    1.80
  -2  14  -2    1.40    1.50
  -2  14  -2   -1.30    1.50
   2  14   2   -0.60    1.30
  -1  15   2    2.10    1.60
   1  15  -2    0.70    1.30
   0  15  -2    3.70    1.70
   0  15   2    4.50    1.70
   1 -15   2    7.50    2.00
  -1  15  -2    8.60    2.00
  -1  15  -2   10.70    2.20
   1  15   2    9.90    1.90
  -5   0   3    1.50    1.90
   5   0  -3   -0.60    1.40
  -4   0   3    0.90    1.00
  -4   0   3    0.50    1.10
   4   0  -3    1.90    1.10
  -3   0   3    6.70    1.10
   3   0  -3    8.20    1.20
  -3   0   3    6.20    1.00
   3   0  -3    7.80    1.50
   3   0  -3    4.90    0.90
  -3   0   3    3.70    0.90
  -3   0   3    5.90    1.00
   2   0  -3    0.00    0.60
   2   0  -3   -0.30    0.50
  -2   0   3    0.00    0.60
   2   0  -3    0.60    0.50
  -2   0   3    0.20    0.50
   2   0  -3   -0.60    0.40
   2   0  -3    0.80    0.50
  -2   0   3   -0.10    0.50
  -2   0   3    0.30    0.50
  -1   0   3  768.62   25.30
   1   0  -3  792.02   25.30
  -1   0   3  798.42   25.40
  -1   0   3  836.92   25.30
   1   0  -3  799.22   25.20
   1   0  -3  734.33   25.30
  -1   0   3  800.12   25.20
   0   0   3   -0.10    0.30
   0   0  -3    0.10    0.20
   0   0   3    0.00    0.10
   0   0   3    0.30    0.20
   0   0  -3    0.00    0.20
   0   0  -3    0.10    0.20
   0   0  -3    0.20    0.30
   0   0   3    0.00    0.20
  -2   0  -3    0.00    0.40
  -3   0  -3    3.50    0.80
  -3   0  -3    2.80    0.60
  -3   0  -3    1.50    0.70
  -3   0  -3    3.00    0.70
  -4   0  -3    1.10    1.00
  -4   0  -3   -0.20    0.90
  -5   0  -3    1.40    1.30
  -5  -1   3    1.00    1.60
   5  -1  -3    1.40    1.60
   5   1  -3    0.40    1.30
  -4  -1   3    7.60    1.40
  -4  -1   3    8.80    1.50
   4  -1  -3    5.50    1.40
  -4   1   3    7.00    1.50
  -4   1   3    8.30    1.40
   4   1  -3    5.80    1.30
   3  -1  -3   12.80    1.50
  -3  -1   3   14.80    1.60
  -3  -1   3   12.50    1.30
   3  -1  -3   15.10    1.30
  -3  -1   3   13.50    1.40
  -3  -1   3   14.10    1.40
  -3   1   3   14.60    1.60
   3   1  -3   13.90    1.30
  -3   1   3   15.50    1.50
   3   1  -3   13.70    1.50
  -3   1   3   14.40    1.50
  -3   1   3   14.10    1.40
   3   1  -3   14.20    1.50
  -2  -1   3    3.20    0.70
   2  -1  -3    2.60    0.60
   2  -1  -3    1.80    0.70
   2  -1  -3    3.00    0.80
  -2  -1   3    3.60    0.60
   2  -1  -3    2.10    0.60
  -2  -1   3    3.20    0.60
   2  -1  -3    1.90    0.60
  -2  -1   3    2.10    0.60
  -2   1   3    3.40    0.80
  -2   1   3    2.40    0.60
   2   1  -3    2.40    0.60
   2   1  -3    2.60    0.70
  -2   1   3    3.30    0.70
   2   1  -3    3.70    0.60
   2   1  -3    2.50    0.60
  -1  -1   3 1719.13   52.99
  -1  -1   3 1646.44   53.09
  -1  -1   3 1819.52   53.19
   1  -1  -3 1683.33   52.99
   1  -1  -3 1714.43   53.09
  -1  -1   3 1561.54   52.99
   1  -1  -3 1670.83   53.19
  -1   1   3 1625.84   52.99
   1   1  -3 1750.52   52.99
  -1   1   3 1551.64   52.99
   1   1  -3 1714.93   52.99
  -1   1   3 1658.23   52.99
  -1   1   3 1675.43   52.89
   1   1  -3 1614.54   52.99
   1   1  -3 1588.34   52.89
  -1   1   3 1698.33   53.29
   1   1  -3 1646.84   52.89
   0  -1   3  665.53   21.50
   0  -1  -3  669.83   21.50
   0  -1   3  662.33   21.50
   0  -1   3  691.63   21.50
   0  -1  -3  669.13   21.50
   0  -1  -3  660.23   21.40
   0  -1   3  711.83   21.60
   0  -1  -3  655.03   21.50
   0  -1  -3  692.23   21.70
   0   1  -3  687.93   21.50
   0   1   3  691.93   21.50
   0   1   3  686.63   21.50
   0   1   3  675.93   21.50
   0   1   3  669.03   21.50
   0   1  -3  642.54   21.50
   0   1  -3  663.73   21.50
   0   1   3  692.73   21.50
   1  -1   3  371.36   12.10
   1  -1   3  389.26   12.10
   1  -1   3  381.26   12.10
   1  -1   3  380.16   12.10
  -1   1  -3  380.26   12.10
  -1   1  -3  363.16   12.10
  -1   1  -3  366.16   12.10
   2  -1   3  964.40   31.10
   2  -1   3 1003.70   31.20
   2  -1   3  985.60   31.20
  -2   1  -3  953.20   31.10
  -2   1  -3  965.10   31.20
  -2   1  -3  972.20   31.20
  -3   1  -3   20.20    1.60
   4  -1   3   11.40    1.50
  -4  -1  -3   10.10    1.40
  -4  -1  -3   10.10    1.30
  -4   1  -3   11.60    1.60
  -4   1  -3    8.70    1.30
  -5  -1  -3    0.90    1.20
  -5   1  -3    0.70    1.30
   5  -2  -3   19.90    2.50
  -5  -2   3   17.40    2.70
   5   2  -3   13.00    1.90
  -4  -2   3    4.60    1.30
  -4  -2   3    3.70    1.10
   4  -2  -3    3.20    1.20
  -4   2   3    2.30    1.10
   4   2  -3    3.00    1.10
  -4   2   3    4.30    1.40
  -3  -2   3   94.29    3.70
  -3  -2   3   94.89    3.90
   3  -2  -3   88.79    4.00
  -3  -2   3  101.59    3.90
  -3  -2   3   92.19    3.70
   3   2  -3   90.59    3.70
  -3   2   3   86.49    3.90
   3   2  -3   87.19    3.60
   3   2  -3   90.69    3.80
  -3   2   3   87.49    3.80
  -3   2   3   91.99    3.80
   2  -2  -3  228.28    8.30
  -2  -2   3  231.68    8.00
  -2  -2   3  235.88    8.10
  -2  -2   3  245.48    8.10
   2  -2  -3  235.98    8.30
   2  -2  -3  245.88    8.20
   2  -2  -3  245.68    8.10
   2  -2  -3  243.68    8.30
  -2  -2   3  237.58    8.20
  -2   2   3  241.28    8.30
  -2   2   3  236.28    8.20
   2   2  -3  248.68    8.20
   2   2  -3  234.78    8.10
  -2   2   3  240.38    8.20
   2   2  -3  232.18    8.00
   2   2  -3  237.58    8.10
  -2   2   3  239.58    8.30
   2   2  -3  244.28    8.10
  -1  -2   3   23.40    1.20
   1  -2  -3   22.20    1.20
   1  -2  -3   22.50    1.30
  -1  -2   3   23.90    1.10
   1  -2  -3   25.90    1.30
  -1  -2   3   23.60    1.20
   1  -2  -3   25.20    1.20
   1  -2  -3   23.70    1.20
  -1   2   3   23.20    1.20
   1   2  -3   23.60    1.10
   1   2  -3   22.30    1.20
  -1   2   3   21.80    1.20
   1   2  -3   23.50    1.20
  -1   2   3   21.90    1.30
   1   2  -3   23.10    1.20
  -1   2   3   22.10    1.20
   1   2  -3   23.50    1.10
  -1   2   3   22.90    1.20
   0  -2  -3  182.58    5.70
   0  -2  -3  177.38    5.80
   0  -2   3  172.78    5.80
   0  -2   3  172.48    5.80
   0  -2   3  177.68    5.80
   0  -2  -3  181.98    5.80
   0  -2  -3  175.98    5.80
   0  -2  -3  179.78    5.80
   0  -2   3  174.48    5.80
   0   2  -3  171.98    5.80
   0   2   3  176.38    5.80
   0   2   3  174.38    5.80
   0   2   3  174.38    5.70
   0   2  -3  171.98    5.80
   0   2  -3  171.08    5.80
   0   2  -3  175.68    5.80
   0   2   3  177.88    5.80
   0   2   3  173.08    5.80
   1  -2   3  119.09    4.00
   1  -2   3  118.29    4.00
   1  -2   3  117.29    4.10
  -1   2  -3  114.89    4.00
  -1   2  -3  115.99    4.00
  -1   2  -3  112.69    4.00
   2  -2   3  112.59    4.00
   2  -2   3  108.69    4.20
   2  -2   3  114.79    4.20
   2  -2   3  105.99    4.10
  -2   2  -3  116.89    4.10
  -2   2  -3  116.39    4.20
  -2   2  -3  115.59    4.10
   3  -2   3   97.89    3.80
   3  -2   3   81.49    3.50
  -3   2  -3   89.79    3.70
  -3   2  -3   95.99    3.70
  -3   2  -3   94.89    3.80
  -3   2  -3   85.59    3.60
  -4  -2  -3   18.50    1.60
   4  -2   3   18.60    1.90
  -4   2  -3   17.40    1.80
  -4   2  -3   17.30    1.90
   5  -3  -3    1.20    1.60
   5   3  -3    2.70    1.50
   4  -3  -3   48.60    3.00
  -4  -3   3   49.20    2.80
  -4  -3   3   47.60    2.60
  -4   3   3   51.59    3.10
   4   3  -3   43.30    2.70
  -4   3   3   47.20    2.90
   3  -3  -3   20.40    1.90
  -3  -3   3   21.00    1.50
  -3  -3   3   18.50    1.50
   3  -3  -3   18.20    1.90
  -3  -3   3   21.40    1.60
  -3  -3   3   18.40    1.60
   3   3  -3   15.40    1.40
  -3   3   3   14.20    1.60
   3   3  -3   18.80    1.50
  -3   3   3   18.20    1.70
   3   3  -3   20.70    1.60
  -2  -3   3  174.08    5.90
   2  -3  -3  164.48    6.10
  -2  -3   3  169.48    5.80
   2  -3  -3  164.08    6.20
  -2  -3   3  159.68    5.90
  -2  -3   3  176.18    6.10
  -2   3   3  161.78    6.10
  -2   3   3  157.88    6.00
  -2   3   3  170.18    6.10
   2   3  -3  159.98    5.90
   2   3  -3  183.98    6.00
   2   3  -3  178.18    6.10
   2   3  -3  175.18    5.90
  -2   3   3  164.88    6.00
   1  -3  -3 1200.58   37.90
  -1  -3   3 1156.68   37.70
  -1  -3   3 1162.68   37.80
   1  -3  -3 1197.08   37.80
   1  -3  -3 1169.18   37.90
   1  -3  -3 1188.78   37.80
  -1   3   3 1179.98   37.80
  -1   3   3 1163.98   37.90
   1   3  -3 1190.48   37.80
  -1   3   3 1223.88   37.90
   1   3  -3 1159.48   37.80
   1   3  -3 1198.88   37.80
   1   3  -3 1179.98   37.70
  -1   3   3 1198.28   37.80
   1   3  -3 1177.48   37.70
   0  -3   3   61.19    2.40
   0  -3  -3   67.29    2.30
   0  -3  -3   66.79    2.40
   0  -3  -3   64.79    2.30
   0  -3  -3   68.99    2.40
   0  -3   3   64.79    2.40
   0  -3   3   63.69    2.40
   0  -3   3   63.39    2.40
   0  -3  -3   67.49    2.40
   0  -3   3   63.49    2.40
   0   3  -3   61.69    2.40
   0   3   3   64.79    2.40
   0   3   3   63.39    2.30
   0   3  -3   64.79    2.40
   0   3   3   63.69    2.30
   0   3   3   67.49    2.30
   0   3  -3   61.09    2.40
   0   3  -3   66.19    2.40
   1  -3   3  248.88    8.10
   1  -3   3  234.98    8.00
   1  -3   3  241.98    8.10
  -1   3  -3  240.08    8.10
  -1   3  -3  244.18    8.10
   2  -3   3  940.61   30.40
   2  -3   3  964.80   30.40
   2  -3   3  924.91   30.30
  -2   3  -3  950.00   30.30
  -2   3  -3  938.11   30.30
  -2   3  -3  933.91   30.30
   3  -3   3   83.99    3.60
   3  -3   3   79.29    3.50
  -3   3  -3   80.19    3.50
  -3   3  -3   84.29    3.60
  -3   3  -3   78.59    3.50
  -3   3  -3   82.99    3.50
   4  -3   3   25.20    2.20
  -4   3  -3   23.80    2.10
  -4   3  -3   24.00    2.30
   5  -3   3    0.60    1.30
   5  -4  -3    9.40    2.10
   5   4  -3    9.80    1.80
  -4  -4   3   -2.30    1.00
  -4  -4   3    0.10    0.90
   4  -4  -3   -1.20    1.00
   4   4  -3    0.40    1.00
  -4   4   3    1.00    1.20
  -4   4   3    2.00    1.30
   3  -4  -3   39.00    2.50
  -3  -4   3   34.10    1.90
   3  -4  -3   34.50    2.50
  -3  -4   3   36.40    1.90
  -3  -4   3   39.90    2.10
  -3  -4   3   33.20    2.10
   3   4  -3   36.00    2.10
  -3   4   3   39.30    2.30
  -3   4   3   33.40    2.20
  -3   4   3   34.50    2.30
   3   4  -3   33.10    2.00
  -2  -4   3    3.60    0.60
  -2  -4   3    3.60    0.70
  -2  -4   3    2.50    0.70
   2  -4  -3    3.50    1.00
   2  -4  -3    3.20    0.90
  -2  -4   3    3.60    0.70
   2   4  -3    2.50    0.60
  -2   4   3    3.30    0.90
   2   4  -3    2.40    0.60
  -2   4   3    3.70    0.90
  -2   4   3    4.10    0.90
  -2   4   3    3.40    0.80
   2   4  -3    3.40    0.80
   1  -4  -3    6.30    1.00
  -1  -4   3    5.10    0.70
  -1  -4   3    5.20    0.70
   1  -4  -3    6.20    0.80
   1  -4  -3    5.00    0.70
   1  -4  -3    6.60    0.90
   1   4  -3    6.10    0.80
   1   4  -3    5.60    0.80
   1   4  -3    6.30    0.80
   1   4  -3    5.90    0.60
   1   4  -3    6.30    0.80
  -1   4   3    4.40    0.70
  -1   4   3    6.30    0.90
   1   4  -3    5.00    0.70
  -1   4   3    6.30    0.80
   0  -4  -3 3038.10   94.19
   0  -4  -3 2930.31   94.19
   0  -4   3 2898.91   94.09
   0  -4   3 3038.80   93.69
   0  -4  -3 2972.40   94.09
   0  -4  -3 3026.80   94.19
   0  -4   3 2907.11   93.79
   0   4   3 3025.70   93.79
   0   4  -3 2900.81   93.79
   0   4  -3 2963.50   94.19
   0   4   3 2918.71   94.19
   0   4   3 2938.91   93.69
   0   4   3 2900.01   93.89
   0   4  -3 2973.80   93.69
   0   4  -3 2921.01   93.79
   1  -4   3  146.29    5.20
   1  -4   3  142.69    5.10
   1  -4   3  149.39    5.20
   1  -4   3  140.39    5.10
  -1   4  -3  148.89    5.40
  -1   4  -3  142.29    5.10
  -1   4  -3  145.99    5.10
   2  -4   3   12.60    1.20
   2  -4   3   14.80    1.40
  -2   4  -3   11.50    1.20
  -2   4  -3   12.50    1.20
  -2   4  -3   12.60    1.20
   3  -4   3   56.39    3.00
   3  -4   3   60.69    3.00
  -3   4  -3   57.39    2.80
  -3   4  -3   55.99    2.90
  -3   4  -3   53.89    2.80
  -3   4  -3   57.39    2.80
   4  -4   3    3.60    1.40
  -4   4  -3    4.30    1.20
  -4   4  -3    6.00    1.50
   5  -5  -3    5.30    1.90
   5   5  -3    2.50    1.40
  -4  -5   3    2.00    1.00
  -4  -5   3    1.50    1.10
   4  -5  -3    1.00    1.40
  -4   5   3    2.40    1.20
   4   5  -3    3.20    1.20
  -4   5   3    2.60    1.30
  -3  -5   3    1.30    1.40
   3  -5  -3    1.10    1.10
  -3  -5   3    1.80    0.70
  -3  -5   3    0.40    0.80
   3  -5  -3    0.10    1.00
  -3   5   3    1.50    0.90
   3   5  -3    1.60    0.80
  -3   5   3    1.60    1.00
   3   5  -3    1.50    0.80
  -3   5   3    2.70    1.00
  -2  -5   3   68.39    2.80
   2  -5  -3   65.09    3.20
  -2  -5   3   69.89    2.80
  -2  -5   3   65.49    2.70
  -2  -5   3   67.89    2.90
   2  -5  -3   67.39    3.20
   2   5  -3   70.39    2.90
   2   5  -3   73.09    2.90
  -2   5   3   62.69    3.10
   2   5  -3   66.09    2.80
  -2   5   3   68.09    3.00
  -2   5   3   68.79    3.10
  -1  -5   3   51.79    2.20
   1  -5  -3   49.40    2.10
   1  -5  -3   45.50    2.30
   1  -5  -3   45.70    2.20
  -1  -5   3   47.90    2.10
  -1   5   3   46.30    2.20
   1   5  -3   48.20    2.10
   1   5  -3   49.50    1.90
  -1   5   3   47.10    2.10
  -1   5   3   48.80    2.20
   1   5  -3   44.60    2.00
   1   5  -3   47.80    2.10
  -1   5   3   45.20    2.20
   1   5  -3   49.90    2.10
   0  -5   3   48.70    2.10
   0  -5   3   50.49    2.10
   0  -5  -3   45.60    2.10
   0  -5  -3   46.70    2.10
   0  -5   3   48.00    2.20
   0  -5  -3   46.40    2.00
   0   5  -3   47.30    2.10
   0   5   3   49.80    1.90
   0   5  -3   50.49    2.10
   0   5   3   47.50    2.00
   0   5   3   47.00    2.00
   0   5   3   48.00    2.00
   1  -5   3   54.39    2.40
   1  -5   3   53.99    2.50
  -1  -5  -3   50.19    2.10
  -1  -5  -3   59.29    2.10
  -1   5  -3   55.19    2.40
  -1   5  -3   50.29    2.40
  -1   5  -3   54.19    2.40
   1   5   3   57.99    2.10
   1   5   3   57.49    2.10
   2  -5   3   12.30    1.40
  -2   5  -3   13.40    1.30
  -2   5  -3   13.80    1.30
   3  -5   3    7.40    1.30
  -3   5  -3    6.40    1.20
  -3   5  -3    6.30    1.20
  -3   5  -3    8.30    1.40
   4  -5   3    1.30    1.30
  -4   5  -3    0.10    1.10
  -4   5  -3    2.20    1.30
   4  -6  -3    3.40    1.60
  -4  -6   3    0.70    1.10
  -4  -6   3    0.50    0.90
  -4   6   3    2.00    1.30
  -4   6   3    2.00    1.40
   4   6  -3    1.20    1.10
   3  -6  -3   34.60    2.60
   3  -6  -3   38.70    2.80
  -3  -6   3   36.80    2.20
  -3  -6   3   35.40    2.00
   3   6  -3   38.20    2.60
  -3   6   3   38.40    2.50
  -3   6   3   39.10    2.50
  -3   6   3   39.10    2.70
   3   6  -3   37.00    2.10
  -2  -6   3   25.80    1.60
  -2  -6   3   22.70    1.60
   2  -6  -3   23.10    2.00
   2  -6  -3   23.60    1.90
  -2  -6   3   26.40    1.60
  -2   6   3   24.00    1.70
  -2   6   3   26.60    1.90
   2   6  -3   25.40    1.60
   2   6  -3   23.20    1.50
  -2   6   3   24.20    1.90
   2   6  -3   26.80    1.60
   1  -6  -3  156.98    5.80
  -1  -6   3  164.98    5.60
   1  -6  -3  152.98    5.60
   1  -6  -3  154.78    5.60
   1  -6  -3  151.78    5.70
  -1  -6   3  150.48    5.60
  -1   6   3  151.98    5.60
   1   6  -3  159.98    5.60
  -1   6   3  159.18    5.70
  -1   6   3  158.58    5.60
   1   6  -3  147.89    5.50
   1   6  -3  159.68    5.60
   0  -6  -3  231.18    8.00
   0  -6   3  228.28    8.10
   0  -6  -3  242.58    8.10
   0  -6  -3  233.18    8.00
   0  -6   3  236.28    8.10
   0  -6   3  233.88    8.00
   0   6  -3  227.48    8.00
   0   6   3  244.58    8.00
   0   6   3  231.58    8.00
   0   6   3  233.58    7.90
   0   6  -3  233.68    8.10
   0   6   3  242.08    7.90
   0   6  -3  239.08    8.10
   1  -6   3   32.80    2.00
   1  -6   3   33.50    2.00
  -1  -6  -3   32.50    1.60
  -1  -6  -3   38.20    1.60
  -1  -6  -3   34.50    1.60
   1   6   3   34.70    1.60
  -1   6  -3   34.00    1.90
  -1   6  -3   31.20    1.80
   1   6   3   29.80    1.40
   1   6   3   35.80    1.60
  -1   6  -3   38.00    2.00
   2  -6   3    6.10    1.20
   2  -6   3    7.60    1.30
  -2   6  -3    6.80    1.10
  -2   6  -3    7.00    1.20
   3  -6   3   33.10    2.40
   3  -6   3   26.00    2.40
  -3   6  -3   34.80    2.30
  -3   6  -3   37.90    2.60
   4  -6   3    0.80    1.40
  -4   6  -3    3.40    1.40
  -4   6  -3    4.70    1.60
  -4  -7   3    3.40    1.10
   4  -7  -3    5.40    1.80
  -4  -7   3    5.20    1.40
  -4   7   3    5.50    1.70
   4   7  -3    4.70    1.20
  -4   7   3    3.20    1.50
   3  -7  -3   77.99    4.10
  -3  -7   3   77.89    3.40
   3  -7  -3   80.59    4.20
  -3   7   3   75.99    3.80
  -3   7   3   81.99    4.00
  -3   7   3   73.89    3.90
   3   7  -3   78.09    3.50
  -2  -7   3   23.70    1.60
   2  -7  -3   24.50    2.20
  -2  -7   3   23.20    1.60
   2  -7  -3   22.00    2.10
  -2  -7   3   22.00    1.60
   2   7  -3   21.50    1.60
  -2   7   3   21.80    1.80
   2   7  -3   18.40    1.50
   2   7  -3   23.30    1.60
  -2   7   3   22.50    1.90
  -2   7   3   21.60    1.90
   1  -7  -3    3.70    0.90
   1  -7  -3    4.00    1.00
  -1  -7   3    4.30    0.80
  -1  -7   3    4.50    0.90
  -1   7   3    5.30    1.00
   1   7  -3    6.30    0.90
  -1   7   3    4.00    0.80
  -1   7   3    3.10    0.90
   0  -7   3   39.70    2.00
   0  -7  -3   37.80    2.00
   0  -7  -3   36.20    1.90
   0  -7  -3   37.80    2.00
   0  -7   3   35.70    2.00
   0  -7   3   36.90    1.90
   0   7   3   38.50    1.90
   0   7   3   36.90    1.90
   0   7  -3   37.40    2.00
   0   7   3   36.60    1.80
   0   7  -3   42.60    2.10
  -1  -7  -3   23.50    1.50
  -1  -7  -3   23.00    1.40
  -1  -7  -3   24.30    1.40
   1  -7   3   21.40    1.80
   1  -7   3   24.20    1.80
  -1   7  -3   22.90    1.70
  -1   7  -3   23.10    1.70
   1   7   3   24.10    1.30
   1   7   3   23.70    1.30
   1   7   3   25.00    1.40
   2  -7   3    1.50    1.10
   2  -7   3    0.70    1.00
  -2   7  -3   -0.40    0.90
  -2   7  -3    0.50    0.90
   3  -7   3    1.60    1.20
   3  -7   3    1.10    1.10
  -3   7  -3    0.00    1.00
  -3   7  -3    3.50    1.30
  -3   7  -3    0.80    1.10
   4  -7   3    3.20    1.60
  -4   7  -3    6.20    1.80
  -4   7  -3    2.30    1.40
   4  -8  -3    3.50    1.60
  -4  -8   3    2.60    1.30
  -4   8   3    1.10    1.50
  -4   8   3    4.00    1.60
   4   8  -3    3.10    1.20
  -3  -8   3    1.80    1.10
   3  -8  -3    2.90    1.50
   3  -8  -3    4.90    1.60
  -3   8   3    0.60    1.00
  -3   8   3    2.90    1.20
   3   8  -3    0.70    0.90
  -3   8   3    2.70    1.30
  -2  -8   3   19.00    1.60
  -2  -8   3   19.00    1.70
   2  -8  -3   20.50    2.10
   2  -8  -3   18.80    2.10
  -2  -8   3   15.80    1.60
  -2   8   3   19.60    2.00
  -2   8   3   18.30    1.90
   2   8  -3   18.40    1.50
   2   8  -3   17.50    1.60
  -2   8   3   16.70    1.80
   1  -8  -3    4.60    1.10
  -1  -8   3    4.80    1.00
  -1  -8   3    6.50    1.00
   1  -8  -3    4.10    1.00
  -1   8   3    6.30    1.00
  -1   8   3    7.00    1.20
  -1   8   3    5.50    1.10
   1   8  -3    4.60    0.90
   1   8  -3    5.80    1.00
   0  -8   3  264.27    9.30
   0  -8   3  267.77    9.20
   0  -8  -3  267.67    9.20
   0  -8  -3  266.57    9.10
   0   8   3  260.67    9.00
   0   8  -3  264.37    9.20
   0   8  -3  265.67    9.20
   0   8   3  258.87    9.10
   1  -8   3   72.89    3.40
  -1  -8  -3   73.89    3.00
  -1  -8  -3   66.99    2.90
  -1  -8  -3   64.09    2.90
   1  -8   3   70.39    3.40
  -1   8  -3   73.39    3.30
   1   8   3   69.89    2.80
   1   8   3   68.19    2.90
   1   8   3   71.09    3.00
  -1   8  -3   73.09    3.30
   2  -8   3   13.00    1.80
  -2  -8  -3   15.00    1.30
   2  -8   3   12.50    1.90
  -2   8  -3   11.90    1.70
  -2   8  -3   13.50    1.80
   3  -8   3   12.90    2.00
   3  -8   3   13.70    2.00
  -3   8  -3   15.30    2.00
  -3   8  -3   13.80    1.90
  -3   8  -3   13.50    2.00
   4  -8   3    2.20    1.50
  -4   8  -3   -0.80    1.30
   4  -9  -3    1.70    1.80
  -4  -9   3    0.90    1.20
   4   9  -3    3.40    1.30
  -4   9   3    1.90    1.50
  -3  -9   3   33.20    2.20
   3  -9  -3   29.80    3.10
   3  -9  -3   35.30    3.30
  -3   9   3   33.80    2.90
  -3   9   3   31.70    2.80
  -3   9   3   30.10    2.70
   3   9  -3   32.60    2.30
  -2  -9   3  109.29    4.90
   2  -9  -3  127.99    5.50
   2  -9  -3  124.69    5.30
  -2  -9   3  115.89    4.70
  -2   9   3  125.69    5.20
   2   9  -3  119.69    4.80
  -2   9   3  122.39    5.20
  -2   9   3  120.59    5.00
  -1  -9   3   61.69    3.00
  -1  -9   3   60.49    2.90
   1  -9  -3   55.79    3.20
   1  -9  -3   54.89    3.00
   1   9  -3   58.19    2.90
   1   9  -3   60.89    2.90
  -1   9   3   57.79    3.00
  -1   9   3   59.99    2.80
  -1   9   3   56.49    3.00
   0  -9  -3   13.10    1.40
   0  -9  -3    9.60    1.20
   0  -9   3   10.50    1.50
   0  -9   3   12.70    1.60
   0   9  -3   13.80    1.50
   0   9  -3   13.80    1.50
   0   9   3   13.10    1.20
   0   9   3   14.10    1.40
   1  -9   3  287.57    9.60
  -1  -9  -3  240.98    9.00
  -1  -9  -3  249.97    9.10
  -1  -9  -3  276.97    9.10
   1  -9   3  265.67    9.60
  -1   9  -3  265.27    9.40
   1   9   3  266.67    9.10
  -1   9  -3  263.37    9.30
   1   9   3  234.08    9.30
   1   9   3  267.37    9.00
  -1   9  -3  270.77    9.40
   2  -9   3    8.50    1.90
   2  -9   3    8.70    1.70
  -2  -9  -3    9.70    1.30
  -2   9  -3   10.20    1.70
  -2   9  -3   11.00    1.60
   3  -9   3   -0.60    1.30
   3  -9   3    0.10    1.40
  -3   9  -3   -0.30    1.10
  -3   9  -3    0.70    1.40
   4  -9   3    1.30    1.60
  -4   9  -3    0.70    1.50
   4 -10  -3    2.90    1.80
   4  10  -3    1.70    1.30
   3 -10  -3   13.30    2.40
   3 -10  -3   13.20    2.30
  -3 -10   3   12.30    1.70
  -3  10   3   13.60    2.10
  -3  10   3   18.40    2.20
  -3  10   3   12.80    2.00
   3  10  -3   13.70    1.80
   2 -10  -3   77.69    4.30
  -2 -10   3   82.39    3.70
   2 -10  -3   85.99    4.30
  -2  10   3   80.99    4.10
  -2  10   3   78.79    4.10
   2  10  -3   79.69    3.70
  -2  10   3   82.69    3.90
   1 -10  -3   37.50    2.50
   1 -10  -3   34.50    2.70
  -1 -10   3   35.10    2.30
  -1 -10   3   35.70    2.30
   1  10  -3   34.70    2.30
   1  10  -3   32.90    2.20
  -1  10   3   37.50    2.50
  -1  10   3   34.80    2.20
  -1  10   3   34.80    2.40
   0 -10  -3  268.17    9.40
   0 -10   3  266.57    9.50
   0 -10   3  261.47    9.40
   0 -10  -3  252.37    9.40
   0  10  -3  265.57    9.40
   0  10   3  262.97    9.10
   0  10  -3  267.57    9.50
   0  10   3  263.57    9.30
   0  10   3  259.37    9.30
   1 -10   3    9.50    1.80
   1 -10   3   14.70    1.90
  -1 -10  -3   14.80    1.70
  -1  10  -3   12.30    1.70
   1  10   3   12.70    1.50
   1  10   3   12.80    1.40
  -1  10  -3   11.50    1.80
  -1  10  -3   13.70    1.80
   2 -10   3   18.30    2.30
   2 -10   3   21.20    2.50
  -2 -10  -3   23.20    1.90
   2  10   3   23.10    1.80
  -2  10  -3   18.80    2.30
  -2  10  -3   20.40    2.40
   3 -10   3   17.40    2.60
   3 -10   3   20.80    2.60
  -3  10  -3   12.70    2.20
  -3  10  -3   17.10    2.20
   3 -11  -3    7.80    2.10
  -3 -11   3    7.60    1.60
   3 -11  -3    6.70    2.00
  -3  11   3    6.10    1.80
   3  11  -3    7.40    1.60
  -3  11   3    8.50    2.00
  -2 -11   3   15.60    1.80
   2 -11  -3   14.10    2.10
   2 -11  -3   15.10    2.40
  -2  11   3   17.30    2.30
  -2  11   3   13.00    2.00
   2  11  -3   18.70    2.00
   1 -11  -3  127.39    5.50
  -1 -11   3  118.19    5.10
   1 -11  -3  120.99    5.30
  -1 -11   3  118.39    5.10
   1  11  -3  131.59    5.10
  -1  11   3  115.99    5.20
  -1  11   3  122.79    5.30
   1  11  -3  124.09    5.10
   0 -11  -3   65.79    3.40
   0 -11   3   62.69    3.50
   0 -11   3   68.89    3.60
   0 -11  -3   71.19    3.50
   0  11  -3   69.99    3.50
   0  11   3   63.59    3.30
   0  11  -3   67.59    3.50
   0  11   3   66.39    3.40
   1 -11   3    5.20    1.50
   1 -11   3    5.70    1.70
  -1 -11  -3    7.90    1.40
   1  11   3    4.10    1.20
  -1  11  -3    5.50    1.50
  -1  11  -3    2.90    1.40
  -2 -11  -3   21.20    2.00
   2 -11   3   26.70    2.80
   2 -11   3   21.90    2.60
  -2  11  -3   19.70    2.40
  -2  11  -3   19.00    2.20
  -2  11  -3   25.30    2.60
   2  11   3   21.70    1.90
   3 -11   3    2.10    1.80
  -3 -11  -3    1.30    1.10
  -3  11  -3   -1.20    1.30
  -3  11  -3    2.40    1.70
   3 -12  -3    1.80    1.80
  -3 -12   3    1.60    2.00
   3 -12  -3    2.30    1.60
  -3  12   3    0.10    1.60
  -3  12   3    0.50    1.50
   3  12  -3    0.90    1.30
   2 -12  -3   -1.10    1.20
  -2 -12   3    1.30    1.30
   2 -12  -3   -0.70    1.50
  -2  12   3   -1.00    1.30
  -2  12   3    0.60    1.20
   2  12  -3   -1.30    1.00
  -1 -12   3   12.30    1.80
   1 -12  -3    9.80    1.90
   1 -12  -3   12.50    1.90
   1  12  -3    9.70    1.60
  -1  12   3   14.90    2.10
  -1  12   3   14.90    2.00
   1  12  -3   12.50    1.80
   0 -12  -3   17.00    2.10
   0 -12   3   24.40    2.50
   0 -12   3   21.70    2.40
   0  12   3   16.40    1.90
   0  12  -3   17.90    2.20
   0  12  -3   17.20    2.10
   0  12  -3   16.40    2.00
   0  12   3   21.50    2.20
   1 -12   3    6.00    1.70
  -1 -12  -3    6.70    1.50
   1 -12   3    7.40    1.70
  -1  12  -3    6.20    1.60
   1  12   3    4.40    1.30
  -1  12  -3    3.90    1.50
   2 -12   3    6.00    1.80
   2 -12   3    7.30    2.00
  -2 -12  -3    5.50    1.40
  -2  12  -3    6.20    1.60
  -2  12  -3    1.80    1.60
   2  12   3    5.20    1.30
  -2  12  -3    4.50    1.60
   3 -12   3   16.50    2.70
  -3 -12  -3   14.90    1.80
  -3  12  -3   11.80    2.90
   3 -13  -3   -0.50    1.70
   3 -13  -3    4.80    2.00
   3  13  -3   -1.00    1.40
  -3  13   3    1.20    1.70
  -2 -13   3    7.50    1.70
   2 -13  -3    5.10    1.90
   2 -13  -3    7.10    2.10
  -2  13   3    3.50    1.50
  -2  13   3    9.00    1.90
   2  13  -3    3.00    1.40
   1 -13  -3   20.20    2.50
  -1 -13   3   18.30    2.20
   1 -13  -3   18.30    2.40
   1  13  -3   19.00    2.20
  -1  13   3   19.40    2.40
  -1  13   3   20.80    2.40
   0 -13  -3    1.00    1.10
   0 -13   3    1.80    1.40
   0 -13   3   -1.00    1.20
   0  13  -3   -1.20    1.10
   0  13  -3    1.00    1.30
   0  13   3    0.90    1.30
   0  13  -3    1.50    1.30
  -1 -13  -3   12.70    1.90
   1 -13   3   12.90    2.40
   1 -13   3   17.40    2.50
  -1  13  -3   12.70    2.10
   1  13   3   15.60    2.00
  -1  13  -3   11.70    2.00
  -2 -13  -3   -0.30    1.20
   2 -13   3    3.50    1.80
   2 -13   3    4.70    1.90
  -2  13  -3    1.30    1.50
  -2  13  -3    3.30    1.60
   2  13   3    2.50    1.30
   2 -14  -3   12.50    2.60
   2  14  -3    6.00    1.70
  -2  14   3    9.80    2.10
  -2  14   3    9.60    2.00
   1 -14  -3    1.20    1.60
  -1 -14   3    3.00    1.60
  -1  14   3    5.90    1.70
   1  14  -3    1.50    1.50
   0 -14  -3   -0.40    1.20
   0 -14   3    0.20    1.50
   0  14  -3   -1.40    1.20
   0  14  -3    0.00    1.30
   0  14   3   -2.00    1.20
  -1 -14  -3    5.50    1.70
   1 -14   3    4.50    1.90
   1 -14   3    5.50    1.90
  -1  14  -3    2.60    1.60
  -1  14  -3    1.90    1.60
   1  14   3    3.60    1.50
   2 -14   3    6.70    2.10
   2 -14   3   12.20    2.60
   2  14   3    7.90    1.70
  -2  14  -3    7.80    2.10
  -2  14  -3   10.60    2.40
   1  15  -3    1.60    1.50
  -1  15   3    0.60    1.60
   0  15   3    0.80    1.40
   0  15  -3    0.50    1.40
   1 -15   3    6.00    2.30
   1  15   3    8.10    1.90
  -1  15  -3   10.00    2.20
  -1  15  -3   11.60    2.40
   5   0  -4    2.50    1.60
  -4   0   4   57.59    3.10
  -4   0   4   52.39    2.90
   4   0  -4   49.50    3.00
   3   0  -4   34.90    2.00
  -3   0   4   36.80    2.30
  -3   0   4   41.80    2.30
  -3   0   4   39.60    2.10
  -3   0   4   35.70    2.10
   2   0  -4  515.55   17.00
  -2   0   4  524.95   16.90
  -2   0   4  511.25   17.00
   2   0  -4  522.75   17.00
  -2   0   4  510.45   17.10
   2   0  -4  514.95   16.90
   2   0  -4  517.45   17.10
   2   0  -4  527.95   17.10
  -1   0   4  925.01   30.10
   1   0  -4  961.70   30.10
  -1   0   4  916.01   30.20
  -1   0   4  956.50   30.00
   1   0  -4  944.91   30.10
  -1   0   4  929.91   30.10
   1   0  -4  969.00   30.10
  -1   0   4  936.61   30.10
   1   0  -4  923.81   30.00
   1   0  -4  944.81   30.20
   0   0  -4   10.50    0.60
   0   0  -4   10.70    0.70
   0   0   4   10.50    0.60
   0   0  -4   11.00    0.60
   0   0  -4   11.20    0.60
   0   0   4   10.70    0.60
   0   0   4   11.50    0.70
  -3   0  -4  107.79    4.00
  -4   0  -4   38.60    2.30
  -4   0  -4   37.60    2.20
   5  -1  -4    3.20    1.70
   5   1  -4    2.00    1.50
  -4  -1   4    2.90    1.10
  -4  -1   4    3.40    1.40
   4  -1  -4    0.80    1.10
   4   1  -4    0.80    1.10
  -4   1   4    2.80    1.20
  -4   1   4    2.90    1.30
  -3  -1   4  265.07    8.80
  -3  -1   4  256.87    8.70
  -3  -1   4  243.58    8.70
   3  -1  -4  247.88    8.90
  -3  -1   4  244.28    8.90
  -3   1   4  251.47    8.70
   3   1  -4  255.97    8.80
  -3   1   4  249.78    8.80
  -3   1   4  233.68    8.90
   3   1  -4  236.28    8.60
   2  -1  -4   36.60    2.00
  -2  -1   4   39.90    2.00
  -2  -1   4   36.40    1.90
   2  -1  -4   40.90    1.80
  -2  -1   4   40.70    1.90
  -2  -1   4   34.70    1.80
  -2   1   4   38.40    1.90
  -2   1   4   39.90    2.00
   2   1  -4   41.80    1.80
  -2   1   4   33.50    1.90
   2   1  -4   35.60    1.80
  -2   1   4   40.30    1.90
   2   1  -4   37.20    1.80
   2   1  -4   43.10    2.10
   1  -1  -4  637.64   20.20
   1  -1  -4  634.24   20.20
   1  -1  -4  599.74   20.20
  -1  -1   4  625.74   20.10
   1  -1  -4  616.44   20.30
   1  -1  -4  629.34   20.30
  -1  -1   4  615.44   20.20
  -1  -1   4  627.34   20.30
  -1   1   4  627.24   20.30
  -1   1   4  617.74   20.20
   1   1  -4  617.34   20.30
   1   1  -4  634.24   20.20
  -1   1   4  651.03   20.20
  -1   1   4  650.33   20.30
   1   1  -4  639.74   20.10
  -1   1   4  618.14   20.20
   1   1  -4  619.74   20.20
   1   1  -4  632.54   20.30
   0  -1  -4  544.65   17.00
   0  -1   4  521.55   16.90
   0  -1   4  533.55   17.00
   0  -1   4  516.75   17.00
   0  -1  -4  521.55   17.00
   0  -1  -4  550.74   16.90
   0  -1   4  520.75   17.00
   0  -1  -4  535.75   16.90
   0  -1  -4  536.85   17.00
   0   1   4  537.55   16.90
   0   1  -4  534.15   17.00
   0   1   4  544.25   16.90
   0   1   4  514.65   17.00
   0   1   4  527.75   17.00
   0   1  -4  516.45   17.00
   0   1   4  535.85   16.90
   0   1  -4  522.05   17.00
   1  -1   4   57.69    2.20
   1  -1   4   57.69    2.10
  -1   1  -4   60.19    2.20
  -1   1  -4   58.79    2.10
  -1   1  -4   59.49    2.10
   2  -1   4  757.42   24.10
   2  -1   4  762.22   24.20
  -2   1  -4  763.82   24.10
  -2   1  -4  725.83   24.10
  -2   1  -4  749.13   24.10
   3  -1   4    4.40    0.70
   3  -1   4    3.50    0.80
  -3   1  -4    5.70    1.00
  -3   1  -4    5.10    0.90
  -3   1  -4    4.80    0.90
  -4  -1  -4    1.90    0.90
  -4   1  -4    3.00    1.00
  -4   1  -4    3.50    1.10
  -5   1  -4    7.20    1.50
   5  -2  -4    8.10    2.00
   5   2  -4    8.90    1.80
   4  -2  -4    0.40    1.00
  -4  -2   4    2.20    1.20
  -4  -2   4    0.40    0.90
   4   2  -4    0.30    1.10
  -4   2   4   -0.30    0.90
  -4   2   4    2.80    1.20
  -3  -2   4    9.60    1.40
  -3  -2   4   13.90    1.50
   3  -2  -4   10.30    1.40
   3  -2  -4   13.10    1.60
  -3  -2   4   15.80    1.40
  -3  -2   4   12.50    1.30
  -3   2   4   13.70    1.50
   3   2  -4   10.00    1.30
   3   2  -4   11.00    1.30
   3   2  -4   12.60    1.30
  -3   2   4   14.30    1.50
  -3   2   4   17.50    1.60
   2  -2  -4   90.99    3.70
  -2  -2   4   90.59    3.40
  -2  -2   4   91.39    3.50
   2  -2  -4   87.49    3.40
  -2  -2   4   93.29    3.50
  -2  -2   4   87.99    3.60
  -2   2   4   90.99    3.60
  -2   2   4   87.69    3.50
   2   2  -4   87.69    3.50
  -2   2   4   88.09    3.60
   2   2  -4   93.99    3.60
  -2   2   4   87.99    3.60
  -1  -2   4   38.80    1.80
  -1  -2   4   40.50    1.70
   1  -2  -4   40.40    1.70
   1  -2  -4   42.90    1.90
   1  -2  -4   39.60    1.80
  -1  -2   4   40.80    1.60
   1  -2  -4   39.80    1.90
   1  -2  -4   38.90    1.80
  -1   2   4   40.90    1.70
   1   2  -4   37.90    1.70
   1   2  -4   37.60    1.70
  -1   2   4   40.20    1.80
  -1   2   4   38.40    1.80
   1   2  -4   39.40    1.70
  -1   2   4   36.50    1.80
   1   2  -4   41.00    1.60
   1   2  -4   41.20    1.80
  -1   2   4   40.80    1.90
   0  -2   4  548.95   17.50
   0  -2  -4  543.65   17.40
   0  -2  -4  528.45   17.40
   0  -2  -4  549.74   17.40
   0  -2   4  551.14   17.40
   0  -2   4  534.95   17.50
   0  -2  -4  552.44   17.40
   0  -2  -4  537.85   17.40
   0  -2   4  536.95   17.50
   0   2   4  540.65   17.40
   0   2  -4  538.95   17.50
   0   2   4  540.15   17.30
   0   2  -4  537.15   17.50
   0   2  -4  548.55   17.50
   0   2   4  542.75   17.40
   0   2  -4  541.45   17.40
   0   2   4  547.95   17.40
   0   2   4  559.24   17.40
   1  -2   4  125.19    4.40
   1  -2   4  132.99    4.30
   1  -2   4  124.59    4.30
  -1   2  -4  123.49    4.40
  -1   2  -4  126.19    4.30
  -1   2  -4  124.79    4.30
   2  -2   4  621.54   20.50
   2  -2   4  636.74   20.60
   2  -2   4  642.94   20.60
   2  -2   4  638.94   20.60
  -2   2  -4  647.64   20.60
  -2   2  -4  631.34   20.60
  -2   2  -4  635.74   20.60
   3  -2   4   54.29    2.60
   3  -2   4   51.29    2.40
  -3   2  -4   49.50    2.50
  -3   2  -4   60.19    2.50
  -3   2  -4   54.99    2.70
  -3   2  -4   44.20    2.60
   4  -2   4   12.10    1.50
  -4   2  -4   11.70    1.50
  -4   2  -4   11.10    1.70
   5  -3  -4    6.40    2.00
   5   3  -4    3.90    1.60
  -4  -3   4    9.20    1.40
  -4  -3   4   12.30    1.60
   4  -3  -4   10.30    1.80
   4   3  -4    9.40    1.50
  -4   3   4   13.30    1.90
  -4   3   4   13.00    1.80
  -3  -3   4   32.50    2.00
  -3  -3   4   28.10    2.00
   3  -3  -4   29.50    2.10
  -3  -3   4   25.60    1.80
  -3  -3   4   29.40    1.80
   3  -3  -4   32.60    2.30
   3   3  -4   28.30    1.90
  -3   3   4   31.30    2.20
  -3   3   4   29.10    2.00
   3   3  -4   26.30    2.20
   3   3  -4   27.50    1.90
  -3   3   4   28.80    2.00
   2  -3  -4   50.29    2.40
  -2  -3   4   55.19    2.30
   2  -3  -4   49.50    2.50
  -2  -3   4   52.99    2.40
  -2  -3   4   51.89    2.20
   2  -3  -4   51.89    2.60
  -2  -3   4   48.20    2.30
   2   3  -4   57.49    2.40
   2   3  -4   51.99    2.30
  -2   3   4   49.90    2.50
  -2   3   4   56.29    2.50
   1  -3  -4   44.00    2.00
  -1  -3   4   50.89    2.00
   1  -3  -4   44.20    2.00
  -1  -3   4   51.79    2.10
   1  -3  -4   43.70    2.10
   1   3  -4   47.90    2.00
   1   3  -4   52.09    2.10
   1   3  -4   47.20    1.90
  -1   3   4   48.50    2.10
   1   3  -4   43.60    2.00
   1   3  -4   43.10    2.00
  -1   3   4   46.30    2.10
  -1   3   4   43.40    2.10
  -1   3   4   51.09    2.00
  -1   3   4   43.90    2.10
   0  -3  -4   41.60    1.60
   0  -3  -4   44.10    1.70
   0  -3   4   39.30    1.80
   0  -3   4   42.20    1.70
   0  -3  -4   42.40    1.70
   0  -3   4   43.10    1.80
   0  -3   4   42.00    1.80
   0  -3  -4   41.70    1.60
   0   3  -4   42.20    1.70
   0   3   4   41.40    1.60
   0   3  -4   40.70    1.80
   0   3   4   40.60    1.50
   0   3  -4   41.00    1.70
   0   3   4   41.70    1.70
   0   3   4   40.50    1.60
   0   3  -4   38.10    1.80
   1  -3   4    3.00    0.60
   1  -3   4    4.20    0.70
   1  -3   4    2.50    0.70
  -1   3  -4    4.90    0.70
  -1   3  -4    4.00    0.70
  -1   3  -4    4.20    0.70
   2  -3   4   35.90    1.70
   2  -3   4   32.50    1.80
   2  -3   4   34.40    1.90
  -2   3  -4   33.10    1.80
  -2   3  -4   34.50    1.70
  -2   3  -4   34.70    1.80
   3  -3   4  227.58    8.00
   3  -3   4  214.98    7.90
  -3   3  -4  236.78    8.00
  -3   3  -4  210.88    8.00
  -3   3  -4  222.28    7.90
   4  -3   4   25.60    2.20
  -4   3  -4   27.30    2.40
  -4   3  -4   27.20    2.10
   5  -3   4   -1.60    1.10
   5  -4  -4    3.90    1.80
   5   4  -4    4.00    1.70
   4  -4  -4   10.20    1.80
  -4  -4   4   11.50    1.70
  -4  -4   4    8.80    1.40
  -4   4   4    8.30    1.60
   4   4  -4   10.80    1.70
  -4   4   4    9.30    1.80
  -3  -4   4   11.10    1.30
   3  -4  -4    8.70    1.40
  -3  -4   4   10.70    1.30
  -3  -4   4   13.00    1.50
  -3  -4   4   12.00    1.20
   3  -4  -4   11.20    1.60
   3   4  -4   12.70    1.30
  -3   4   4   10.20    1.30
   3   4  -4   10.70    1.30
  -3   4   4   11.00    1.50
  -3   4   4   12.40    1.50
  -2  -4   4   55.49    2.60
  -2  -4   4   54.69    2.40
   2  -4  -4   48.40    2.70
  -2  -4   4   60.99    2.50
  -2  -4   4   55.19    2.30
  -2   4   4   52.69    2.60
   2   4  -4   63.09    2.60
   2   4  -4   56.59    2.40
  -2   4   4   51.39    2.50
  -1  -4   4  282.97    9.60
   1  -4  -4  287.97    9.60
   1  -4  -4  282.87    9.70
  -1  -4   4  293.37    9.60
  -1  -4   4  286.97    9.60
   1  -4  -4  282.17    9.50
   1  -4  -4  288.87    9.70
  -1   4   4  285.87    9.60
  -1   4   4  287.27    9.60
   1   4  -4  281.97    9.40
   1   4  -4  282.87    9.60
   1   4  -4  266.87    9.50
  -1   4   4  287.57    9.60
   1   4  -4  298.17    9.60
   1   4  -4  291.97    9.50
   0  -4  -4    7.70    0.70
   0  -4  -4    9.00    0.80
   0  -4   4    7.50    0.90
   0  -4   4    7.10    0.80
   0  -4  -4    7.90    0.90
   0  -4  -4    6.50    0.80
   0  -4   4    7.00    0.80
   0   4   4    8.50    0.80
   0   4   4    7.90    0.80
   0   4  -4    7.10    0.80
   0   4   4    6.10    0.70
   0   4  -4    7.10    0.80
   0   4   4    8.00    0.70
   1  -4   4   74.99    3.00
   1  -4   4   76.99    2.90
   1  -4   4   75.19    2.90
   1  -4   4   70.79    3.00
  -1   4  -4   74.69    2.90
  -1   4  -4   74.69    3.00
   2  -4   4    8.80    1.00
   2  -4   4    9.70    1.10
  -2   4  -4    9.40    1.10
  -2   4  -4    8.40    1.00
  -2   4  -4   10.60    1.10
   3  -4   4   10.40    1.40
   3  -4   4   10.20    1.40
  -3   4  -4   13.90    1.60
  -3   4  -4    8.20    1.50
   4  -4   4    7.60    1.60
  -4   4  -4    8.90    1.60
  -4   4  -4    8.10    1.50
   5  -5  -4   12.50    2.30
   5   5  -4    9.10    1.90
  -4  -5   4   19.60    1.90
  -4  -5   4   14.50    1.90
   4  -5  -4   23.50    2.60
  -4   5   4   18.40    2.30
   4   5  -4   16.50    1.90
  -4   5   4   17.80    2.20
  -3  -5   4   71.69    4.30
  -3  -5   4   79.49    3.60
   3  -5  -4   92.19    4.30
  -3  -5   4   94.69    3.60
  -3  -5   4   92.49    3.70
   3  -5  -4   88.89    4.30
   3   5  -4   85.69    3.60
  -3   5   4   92.49    4.00
   3   5  -4   88.19    3.70
  -3   5   4   87.49    4.10
  -3   5   4   91.29    4.00
   2  -5  -4   37.00    2.20
   2  -5  -4   31.60    2.20
  -2  -5   4   31.60    1.90
  -2  -5   4   35.90    1.80
  -2  -5   4   34.40    1.70
  -2  -5   4   35.30    1.80
   2   5  -4   33.60    1.80
  -2   5   4   34.60    2.00
   2   5  -4   34.10    1.80
  -2   5   4   35.70    2.10
  -2   5   4   33.30    2.00
   1  -5  -4  319.07   10.50
  -1  -5   4  322.87   10.60
   1  -5  -4  314.97   10.60
  -1  -5   4  298.97   10.60
  -1  -5   4  303.47   10.40
   1  -5  -4  298.57   10.70
   1  -5  -4  318.97   10.70
   1   5  -4  307.07   10.40
   1   5  -4  328.67   10.60
   1   5  -4  315.57   10.50
  -1   5   4  317.77   10.60
   1   5  -4  313.77   10.50
  -1   5   4  316.27   10.60
   1   5  -4  306.67   10.50
  -1   5   4  328.77   10.60
  -1   5   4  326.57   10.60
   0  -5  -4   65.89    2.60
   0  -5  -4   67.99    2.60
   0  -5  -4   67.09    2.60
   0  -5  -4   66.29    2.60
   0  -5   4   65.19    2.80
   0  -5  -4   70.29    2.70
   0  -5   4   64.99    2.70
   0  -5   4   65.59    2.70
   0   5  -4   69.59    2.80
   0   5   4   66.69    2.60
   0   5  -4   69.99    2.80
   0   5   4   67.09    2.50
   0   5   4   63.69    2.60
   0   5  -4   65.89    2.60
   0   5   4   68.09    2.60
   0   5   4   68.69    2.60
   1  -5   4   73.69    3.00
  -1   5  -4   68.59    2.90
  -1   5  -4   71.19    2.80
  -1   5  -4   66.69    2.90
   2  -5   4   62.89    2.80
  -2   5  -4   64.89    2.90
  -2   5  -4   66.19    2.90
   3  -5   4   86.89    3.90
  -3   5  -4   93.39    4.00
  -3   5  -4   67.49    4.50
   4  -5   4   15.50    2.10
  -4   5  -4   15.20    1.90
  -4   5  -4   12.50    2.00
  -4  -6   4    9.00    1.40
   4  -6  -4   11.30    2.10
  -4  -6   4    9.70    1.70
  -4   6   4   12.30    1.90
  -4   6   4    9.00    1.90
   4   6  -4    9.80    1.60
  -3  -6   4    7.60    1.10
   3  -6  -4    7.60    1.60
   3  -6  -4    7.80    1.60
  -3  -6   4    6.80    1.20
   3   6  -4    8.50    1.30
  -3   6   4    5.00    1.30
  -3   6   4    8.90    1.50
  -3   6   4   10.20    1.60
   3   6  -4    7.50    1.20
  -2  -6   4   19.70    1.40
   2  -6  -4   15.80    1.70
  -2  -6   4   16.20    1.40
   2  -6  -4   14.80    1.70
  -2  -6   4   16.90    1.40
  -2   6   4   14.70    1.60
  -2   6   4   14.40    1.40
  -2   6   4   16.10    1.60
   2   6  -4   21.60    1.50
   2   6  -4   17.80    1.30
   1  -6  -4  194.28    6.90
  -1  -6   4  181.98    6.90
   1  -6  -4  196.28    7.10
   1  -6  -4  198.58    7.00
  -1  -6   4  198.28    6.90
  -1  -6   4  196.98    6.80
  -1   6   4  203.58    6.90
   1   6  -4  197.18    6.90
  -1   6   4  198.18    7.00
  -1   6   4  194.68    6.90
   0  -6   4  136.49    5.10
   0  -6  -4  139.29    5.00
   0  -6   4  139.59    5.10
   0  -6   4  146.49    5.20
   0  -6  -4  147.89    5.10
   0  -6  -4  148.49    5.10
   0   6  -4  139.29    5.20
   0   6  -4  145.59    5.20
   0   6   4  143.99    4.90
   0   6   4  123.79    5.00
   0   6  -4  140.89    5.10
   0   6   4  151.08    5.10
   0   6   4  141.39    5.00
   0   6   4  142.69    5.00
   1  -6   4 1173.88   39.10
  -1  -6  -4 1181.88   38.80
  -1  -6  -4 1248.18   38.80
  -1  -6  -4 1256.87   38.80
   1  -6   4 1208.48   39.20
   1   6   4 1242.58   38.80
  -1   6  -4 1150.08   39.00
  -1   6  -4 1243.78   39.10
   1   6   4 1255.57   38.80
  -1   6  -4 1184.98   39.00
   2  -6   4   31.10    2.30
   2  -6   4   32.80    2.20
  -2   6  -4   31.80    2.00
  -2   6  -4   33.10    2.10
   3  -6   4   25.70    2.30
   3  -6   4   26.80    2.30
  -3   6  -4   29.20    2.40
   4  -6   4    7.30    1.70
  -4   6  -4    7.40    1.70
  -4   6  -4    8.40    1.70
  -4  -7   4    0.80    1.10
  -4  -7   4    0.40    1.30
   4  -7  -4    1.70    1.60
  -4   7   4    2.10    1.40
  -4   7   4   -2.20    1.20
   4   7  -4    2.80    1.20
   3  -7  -4   66.29    3.70
  -3  -7   4   65.29    3.10
   3  -7  -4   58.89    3.70
   3   7  -4   55.49    3.00
  -3   7   4   66.39    3.40
  -3   7   4   61.59    3.40
  -3   7   4   61.79    3.50
  -2  -7   4    8.20    1.20
  -2  -7   4    8.50    1.20
   2  -7  -4    6.60    1.30
   2  -7  -4    6.60    1.40
  -2  -7   4    9.00    1.20
   2   7  -4    7.90    1.10
  -2   7   4    5.90    1.10
  -2   7   4    6.20    1.30
  -2   7   4    8.50    1.40
   2   7  -4    7.90    1.00
   1  -7  -4   94.79    3.90
   1  -7  -4   87.99    3.80
  -1  -7   4   92.69    4.20
  -1  -7   4   85.89    3.70
  -1  -7   4   92.69    3.70
   1  -7  -4   89.69    3.90
   1  -7  -4   89.89    3.90
   1   7  -4   93.19    3.70
  -1   7   4   92.89    3.70
   1   7  -4   94.99    3.70
  -1   7   4   95.99    3.80
  -1   7   4   90.79    3.80
   0  -7   4    0.30    0.70
   0  -7  -4    0.90    0.60
   0  -7  -4   -0.20    0.50
   0  -7  -4    0.00    0.60
   0  -7   4    0.00    0.70
   0   7  -4    0.70    0.70
   0   7   4    0.20    0.50
   0   7   4    0.20    0.30
   0   7   4    0.20    0.50
   0   7   4   -0.50    0.50
   0   7  -4    0.20    0.60
  -1  -7  -4   85.59    3.30
  -1  -7  -4   83.89    3.20
   1  -7   4   88.89    3.70
  -1  -7  -4   83.99    3.20
   1  -7   4   83.69    3.60
  -1   7  -4   82.19    3.60
  -1   7  -4   85.79    3.60
   1   7   4   84.09    3.20
   1   7   4   84.99    3.20
   2  -7   4   97.39    4.40
   2  -7   4   99.49    4.30
  -2   7  -4   97.69    4.20
  -2   7  -4   92.19    4.10
   3  -7   4    5.50    1.50
   3  -7   4    8.10    1.60
  -3   7  -4    6.20    1.50
  -3   7  -4    5.10    1.30
   4  -7   4    5.40    1.70
  -4   7  -4    4.50    1.50
  -4   7  -4    4.30    1.70
  -4  -8   4   -0.30    1.20
   4  -8  -4   -1.60    1.50
  -4   8   4    1.00    1.60
  -4   8   4   -0.60    1.20
   4   8  -4    0.40    1.10
  -3  -8   4    2.30    1.10
   3  -8  -4    0.10    1.30
   3  -8  -4    4.70    1.50
   3   8  -4    2.90    1.10
  -3   8   4    1.20    1.20
  -3   8   4    1.70    1.10
  -3   8   4    1.70    1.20
  -2  -8   4    8.00    1.20
   2  -8  -4    4.80    1.20
   2  -8  -4    8.70    1.60
  -2  -8   4    6.50    1.10
  -2  -8   4    5.60    1.10
  -2   8   4    5.10    1.30
  -2   8   4    6.50    1.30
  -2   8   4    5.70    1.30
   2   8  -4    7.00    1.20
   1  -8  -4  105.19    4.30
  -1  -8   4  106.79    4.20
   1  -8  -4   97.49    4.40
  -1  -8   4   86.89    4.20
  -1   8   4  111.69    4.10
  -1   8   4  101.79    4.20
   1   8  -4  101.89    4.10
   1   8  -4  100.99    4.10
  -1   8   4  105.09    4.20
   0  -8  -4  117.49    4.60
   0  -8  -4  118.79    4.70
   0  -8  -4  122.79    4.80
   0  -8   4  126.59    4.80
   0  -8   4  124.89    4.90
   0   8   4  121.49    4.60
   0   8   4  124.39    4.50
   0   8  -4  124.49    4.80
   0   8  -4  129.59    4.80
   0   8   4  118.29    4.60
  -1  -8  -4  167.68    6.10
  -1  -8  -4  178.38    6.20
   1  -8   4  171.48    6.60
   1  -8   4  173.68    6.60
  -1  -8  -4  174.38    6.10
  -1   8  -4  169.98    6.50
  -1   8  -4  177.18    6.50
   1   8   4  171.38    6.10
   1   8   4  170.58    6.10
   1   8   4  176.98    6.00
   2  -8   4    1.40    1.20
   2  -8   4    0.70    1.20
  -2   8  -4   -0.70    1.00
  -2   8  -4    2.10    1.20
   3  -8   4   11.10    2.00
   3  -8   4    7.80    1.80
  -3   8  -4    9.40    1.80
  -3   8  -4    8.60    1.70
   4  -8   4    0.90    1.60
  -4   8  -4    0.40    1.30
  -4  -9   4   -2.30    1.20
   4  -9  -4    1.10    1.60
   4   9  -4    2.40    1.30
  -4   9   4   -0.10    1.40
  -3  -9   4   -0.20    1.00
   3  -9  -4   -0.90    1.30
   3  -9  -4   -2.10    1.30
  -3   9   4    0.00    1.20
  -3   9   4    0.40    1.20
  -3   9   4    1.70    1.40
   3   9  -4    0.40    1.00
   2  -9  -4   62.69    3.60
  -2  -9   4   65.29    3.10
  -2  -9   4   59.49    3.10
   2  -9  -4   66.09    3.70
  -2   9   4   66.19    3.50
  -2   9   4   73.09    3.40
   2   9  -4   61.89    3.10
   2   9  -4   63.79    3.10
  -2   9   4   71.49    3.60
  -1  -9   4   47.10    2.70
  -1  -9   4   56.69    2.80
   1  -9  -4   52.19    2.90
   1  -9  -4   52.29    3.10
   1   9  -4   50.29    2.70
  -1   9   4   51.29    2.80
  -1   9   4   54.19    2.90
  -1   9   4   57.09    2.70
   1   9  -4   59.19    2.80
   0  -9  -4  185.58    6.90
   0  -9  -4  179.18    6.80
   0  -9   4  190.88    6.90
   0  -9  -4  177.48    6.70
   0  -9   4  186.28    7.00
   0   9   4  190.48    6.60
   0   9  -4  176.38    6.90
   0   9  -4  197.38    6.90
   1  -9   4  153.98    6.00
   1  -9   4  153.98    6.10
  -1  -9  -4  143.79    5.50
  -1  -9  -4  140.69    5.40
  -1  -9  -4  155.38    5.60
  -1   9  -4  152.78    5.90
   1   9   4  147.59    5.40
   1   9   4  139.19    5.50
  -1   9  -4  150.68    5.90
   2  -9   4   31.10    2.80
   2  -9   4   23.90    2.50
  -2  -9  -4   24.40    1.80
  -2   9  -4   26.20    2.40
  -2   9  -4   26.50    2.50
   3  -9   4    7.80    1.80
  -3   9  -4    5.60    1.60
  -3   9  -4    5.60    1.70
   4  -9   4    4.30    1.80
   4 -10  -4   -0.90    1.70
   4  10  -4    0.30    1.30
   3 -10  -4    1.80    1.60
  -3 -10   4    0.90    1.10
   3 -10  -4   -0.20    1.50
  -3  10   4    0.40    1.20
  -3  10   4    1.80    1.50
   3  10  -4    1.50    1.20
  -3  10   4    2.20    1.50
   2 -10  -4   10.80    2.00
  -2 -10   4   14.40    1.60
   2 -10  -4   17.40    2.20
  -2  10   4   12.20    1.70
   2  10  -4   16.00    1.70
  -2  10   4   14.80    1.90
   2  10  -4   13.60    1.70
  -2  10   4   11.40    1.80
  -1 -10   4    2.20    1.10
   1 -10  -4    2.80    1.20
  -1 -10   4    1.50    1.10
   1 -10  -4    3.10    1.30
  -1  10   4    2.20    0.90
   1  10  -4    3.00    1.10
   1  10  -4    1.90    1.00
  -1  10   4    2.90    1.10
  -1  10   4    4.80    1.30
   0 -10  -4   21.70    2.10
   0 -10   4   18.90    2.00
   0 -10   4   16.40    1.90
   0 -10  -4   21.10    2.00
   0  10   4   19.60    1.80
   0  10   4   17.40    1.60
   0  10  -4   17.00    1.90
   0  10   4   18.90    1.90
   0  10  -4   18.90    1.90
   1 -10   4   44.30    2.90
  -1 -10  -4   41.30    2.40
   1 -10   4   39.60    2.90
  -1  10  -4   38.50    2.70
   1  10   4   41.00    2.30
  -1  10  -4   44.30    2.80
  -1  10  -4   44.00    2.70
   1  10   4   39.50    2.30
   2 -10   4    4.70    1.50
  -2 -10  -4    5.70    1.20
   2 -10   4    2.90    1.60
  -2  10  -4    2.50    1.50
  -2  10  -4    4.00    1.40
   3 -10   4    0.70    1.50
  -3  10  -4   -0.30    1.30
  -3  10  -4    1.30    1.50
   3 -11  -4    1.90    1.80
  -3 -11   4    2.30    1.20
   3 -11  -4    1.70    1.60
   3  11  -4    2.60    1.30
  -3  11   4   -0.70    1.20
  -3  11   4    0.20    1.40
  -2 -11   4   16.30    1.90
   2 -11  -4   20.20    2.50
   2 -11  -4   18.20    2.50
  -2  11   4   16.90    2.20
   2  11  -4   16.80    2.00
  -2  11   4   18.60    2.30
   1 -11  -4    2.80    1.40
  -1 -11   4    6.60    1.40
   1 -11  -4    4.90    1.30
  -1 -11   4    6.10    1.40
   1  11  -4    4.00    1.30
  -1  11   4    7.40    1.40
  -1  11   4    6.20    1.40
   1  11  -4    6.30    1.40
   0 -11   4  123.59    5.30
   0 -11   4  120.09    5.20
   0 -11  -4  115.29    5.00
   0 -11  -4  118.09    5.10
   0  11   4  122.29    4.90
   0  11   4  121.09    5.00
   0  11  -4  127.69    5.20
   0  11  -4  120.39    5.20
   1 -11   4   19.10    2.30
  -1 -11  -4   20.40    2.00
   1 -11   4   20.00    2.40
  -1  11  -4   22.40    2.30
  -1  11  -4   21.50    2.30
  -1  11  -4   24.40    2.40
   1  11   4   22.10    1.90
  -2 -11  -4   13.20    1.60
   2 -11   4   15.40    2.40
   2 -11   4   10.20    2.10
  -2  11  -4   12.90    2.00
  -2  11  -4   14.10    2.10
   2  11   4   15.20    1.60
   3 -11   4    2.20    1.80
  -3  11  -4   -0.10    1.30
  -3  11  -4   -0.10    1.60
   3 -12  -4   -0.10    1.50
   3 -12  -4    1.70    1.60
  -3  12   4    0.50    1.50
   3  12  -4   -2.90    1.20
  -3  12   4    1.30    1.60
   2 -12  -4   66.99    4.10
   2 -12  -4   71.09    4.30
  -2 -12   4   63.09    3.50
  -2  12   4   64.49    3.90
  -2  12   4   68.09    4.00
   2  12  -4   63.19    3.60
   1 -12  -4   31.00    2.90
  -1 -12   4   24.50    2.50
   1 -12  -4   32.90    2.70
  -1 -12   4   32.00    2.50
   1  12  -4   26.80    2.40
  -1  12   4   34.20    2.70
   1  12  -4   29.80    2.50
  -1  12   4   27.40    2.40
   0 -12  -4   13.30    1.90
   0 -12   4    7.00    1.70
   0 -12   4    9.80    1.90
   0  12  -4    8.80    1.80
   0  12  -4   11.00    1.80
   0  12   4   11.00    1.70
   1 -12   4   34.20    3.10
  -1 -12  -4   31.70    2.40
   1 -12   4   35.40    3.00
  -1  12  -4   31.50    2.70
   1  12   4   31.00    2.40
  -1  12  -4   33.90    2.80
   2 -12   4   -0.10    1.60
   2 -12   4    2.10    1.70
  -2 -12  -4    1.90    1.20
  -2  12  -4   -1.00    1.10
  -2  12  -4    2.40    1.40
  -2  12  -4    2.20    1.40
   2  12   4    1.90    1.20
  -3 -12  -4    4.70    1.30
   3 -12   4    3.70    2.00
  -3  12  -4    1.80    1.60
   3 -13  -4    8.70    2.40
   3  13  -4    5.70    1.60
  -3  13   4    3.30    1.90
   2 -13  -4    4.20    1.70
   2 -13  -4    5.50    2.00
  -2 -13   4    1.20    1.40
  -2  13   4    3.20    1.60
  -2  13   4    5.10    1.70
   2  13  -4    2.00    1.40
   1 -13  -4    4.90    1.90
  -1 -13   4    4.30    1.50
   1 -13  -4    8.60    1.90
   1  13  -4    3.90    1.50
  -1  13   4    4.80    1.40
  -1  13   4    3.70    1.50
   0 -13  -4    0.60    1.20
   0 -13   4   -1.00    1.20
   0 -13   4    1.40    1.40
   0  13   4    1.10    1.10
   0  13  -4   -0.60    1.20
   0  13  -4    0.30    1.30
   0  13  -4    1.00    1.40
   1 -13   4    0.80    1.50
  -1 -13  -4    1.70    1.20
   1 -13   4    1.60    1.50
  -1  13  -4   -0.20    1.20
   1  13   4   -1.60    1.20
  -1  13  -4    0.10    1.30
   2 -13   4    2.30    1.80
   2 -13   4   -0.30    1.60
  -2 -13  -4    3.20    1.30
  -2  13  -4    2.80    1.80
  -2  13  -4   -0.30    1.50
   2  13   4    0.70    1.20
   2 -14  -4    0.80    1.50
  -2  14   4    4.30    1.80
   2  14  -4    3.60    1.70
  -2  14   4    0.60    1.50
   1 -14  -4   -0.90    1.40
  -1 -14   4    0.00    1.30
  -1  14   4    1.00    1.40
   1  14  -4    4.50    1.60
   0 -14   4   -0.60    1.50
   0 -14  -4   -1.40    1.10
   0 -14   4   -0.80    1.30
   0  14  -4   -0.40    1.30
   0  14  -4    0.10    1.40
   0  14   4    0.80    1.20
   0  14  -4   -0.70    1.30
  -1 -14  -4    3.80    1.40
   1 -14   4    4.40    1.90
   1 -14   4    3.70    1.80
  -1  14  -4    2.60    1.70
  -1  14  -4    3.20    1.60
   1  14   4    5.10    1.50
   2 -14   4   18.00    2.90
   2 -14   4   15.90    2.60
  -2  14  -4   14.70    2.40
   2  14   4   12.20    1.90
   1  15  -4    5.30    1.90
  -1  15   4    6.30    1.90
   0  15   4    6.80    1.80
   0  15  -4    1.60    1.60
   1 -15   4   -3.20    1.30
  -1  15  -4   -1.40    1.40
  -1  15  -4    1.90    1.80
   1  15   4    1.50    1.40
   5   0  -5   -1.50    1.60
   4   0  -5    0.90    1.10
  -4   0   5    0.70    1.10
  -4   0   5   -0.60    1.00
   3   0  -5    0.50    1.00
  -3   0   5   -1.10    0.80
  -3   0   5   -0.20    0.80
  -3   0   5    0.10    0.80
   2   0  -5    0.00    0.50
  -2   0   5    0.50    0.60
  -2   0   5    0.10    0.50
  -2   0   5   -0.10    0.50
   2   0  -5   -0.10    0.40
  -2   0   5    0.00    0.60
   2   0  -5    0.40    0.70
   1   0  -5   25.70    1.20
  -1   0   5   28.20    1.30
   1   0  -5   25.20    1.40
   1   0  -5   28.70    1.30
  -1   0   5   26.30    1.30
   1   0  -5   26.70    1.40
  -1   0   5   27.50    1.40
   1   0  -5   25.60    1.30
  -1   0   5   23.20    1.30
  -1   0   5   26.00    1.30
   0   0  -5   -0.10    0.30
   0   0   5    0.10    0.30
   0   0  -5    0.10    0.20
   0   0  -5    0.10    0.30
   0   0   5   -0.10    0.20
   0   0  -5    0.00    0.30
   0   0  -5   -0.20    0.20
   0   0   5   -0.20    0.20
  -4   0  -5    0.00    0.80
   5  -1  -5    2.10    1.70
   5   1  -5    1.00    1.40
   4  -1  -5   15.30    2.00
  -4  -1   5   18.70    2.10
  -4  -1   5   18.40    1.90
   4   1  -5   16.90    2.00
  -4   1   5   18.50    2.00
  -4   1   5   20.20    2.20
  -3  -1   5   13.80    1.40
  -3  -1   5   14.80    1.40
  -3  -1   5   16.10    1.60
   3  -1  -5   12.70    1.50
   3  -1  -5   13.20    1.60
  -3   1   5   15.50    1.60
  -3   1   5   13.10    1.50
  -2  -1   5  173.18    5.90
  -2   1   5  180.98    6.00
  -2   1   5  148.79    5.90
  -2   1   5  162.88    5.90
  -1  -1   5  103.59    3.80
   1  -1  -5  108.29    3.90
   1  -1  -5  107.09    3.80
  -1  -1   5  106.39    3.70
  -1  -1   5  106.19    3.90
  -1  -1   5  104.49    3.80
   1  -1  -5  102.79    3.70
   1  -1  -5  105.69    3.80
  -1   1   5  100.39    3.80
   1   1  -5  107.49    3.80
   1   1  -5  108.69    3.80
  -1   1   5  104.29    3.90
   1   1  -5  103.79    3.80
  -1   1   5  102.59    3.80
  -1   1   5  104.59    3.70
   1   1  -5  100.09    3.70
  -1   1   5  105.59    3.80
   1   1  -5  101.49    3.80
   0  -1  -5   18.80    0.90
   0  -1   5   20.40    1.10
   0  -1  -5   20.90    0.90
   0  -1  -5   19.80    0.90
   0  -1   5   21.30    1.00
   0  -1   5   19.70    0.90
   0  -1  -5   19.60    0.90
   0   1   5   21.10    1.00
   0   1   5   21.50    1.10
   0   1   5   19.30    0.90
   0   1  -5   18.20    1.00
   0   1   5   19.30    0.90
   0   1  -5   21.20    1.00
   0   1  -5   18.80    0.90
   1  -1   5  128.39    4.40
   1  -1   5  129.19    4.40
  -1   1  -5  125.69    4.40
  -1   1  -5  131.09    4.40
  -1   1  -5  132.99    4.40
  -2   1  -5   20.20    1.20
  -3   1  -5   46.40    2.30
  -4   1  -5   10.70    1.40
  -5   1  -5    2.70    1.40
   5  -2  -5   18.10    2.60
   5   2  -5   18.40    2.40
   4  -2  -5   15.00    1.90
  -4  -2   5   15.50    1.90
  -4  -2   5   16.70    1.80
   4   2  -5   16.10    1.90
  -4   2   5   16.30    2.00
  -4   2   5   16.80    2.00
   3  -2  -5   74.59    3.60
  -3  -2   5   76.69    3.40
  -3  -2   5   70.29    3.40
  -3  -2   5   66.99    3.20
   3  -2  -5   73.19    3.50
  -3  -2   5   75.59    3.20
  -3   2   5   74.69    3.50
  -3   2   5   79.49    3.40
   3   2  -5   63.19    3.90
   3   2  -5   64.99    3.60
  -3   2   5   79.69    3.40
   2  -2  -5  115.59    4.30
   2  -2  -5  119.49    4.50
  -2  -2   5  116.99    4.30
  -2  -2   5  115.39    4.50
   2  -2  -5  113.79    4.60
  -2  -2   5  118.29    4.40
  -2   2   5  114.99    4.50
  -2   2   5  112.69    4.50
  -2   2   5  113.49    4.40
  -2   2   5  117.79    4.40
   2   2  -5  119.59    4.40
   2   2  -5  113.09    4.30
   2   2  -5  116.39    4.40
  -1  -2   5  285.57    9.80
  -1  -2   5  294.67    9.70
  -1  -2   5  283.57    9.90
   1  -2  -5  305.47    9.90
   1  -2  -5  298.77    9.80
   1  -2  -5  289.97    9.80
   1   2  -5  299.37    9.70
   1   2  -5  301.07    9.80
   1   2  -5  281.37    9.80
  -1   2   5  295.17    9.80
   1   2  -5  292.97    9.90
  -1   2   5  297.17    9.90
  -1   2   5  294.67    9.80
  -1   2   5  299.87    9.90
  -1   2   5  304.37    9.80
   1   2  -5  300.87    9.90
   0  -2   5  826.22   26.40
   0  -2  -5  830.72   26.30
   0  -2  -5  827.92   26.40
   0  -2   5  813.62   26.40
   0  -2   5  855.11   26.50
   0  -2   5  805.82   26.40
   0  -2  -5  844.22   26.40
   0  -2  -5  810.72   26.40
   0   2   5  826.92   26.30
   0   2   5  828.82   26.40
   0   2  -5  820.92   26.50
   0   2   5  829.22   26.40
   0   2   5  791.32   26.60
   0   2  -5  853.31   26.40
   1  -2   5   25.90    1.20
   1  -2   5   23.30    1.30
   1  -2   5   24.50    1.30
   1  -2   5   23.90    1.20
  -1   2  -5   22.50    1.20
  -1   2  -5   22.80    1.20
  -1   2  -5   23.90    1.20
   2  -2   5  114.59    4.20
   2  -2   5  120.39    4.30
   2  -2   5  119.19    4.20
  -2   2  -5  112.69    4.20
  -2   2  -5  116.99    4.20
  -2   2  -5  115.89    4.20
   3  -2   5  164.48    5.80
   3  -2   5  136.79    5.70
  -3   2  -5  152.68    5.80
  -3   2  -5  180.48    5.90
  -4   2  -5   16.60    1.80
  -4   2  -5   17.40    1.70
   5  -3  -5    4.60    1.90
   5   3  -5    3.90    1.60
  -4  -3   5   58.29    3.10
   4  -3  -5   57.89    4.40
  -4  -3   5   65.79    3.30
   4  -3  -5   54.59    3.50
  -4   3   5   62.19    3.60
  -4   3   5   58.29    3.30
   4   3  -5   59.99    3.30
   3  -3  -5   68.49    3.50
  -3  -3   5   65.69    3.10
  -3  -3   5   63.79    3.30
  -3  -3   5   74.69    3.30
   3  -3  -5   66.59    3.40
  -3  -3   5   73.99    3.10
  -3   3   5   68.69    3.30
  -3   3   5   72.39    3.30
  -3   3   5   74.79    3.50
   3   3  -5   69.99    3.20
   3   3  -5   65.99    3.20
  -2  -3   5  743.63   24.20
  -2  -3   5  743.33   24.30
   2  -3  -5  775.82   24.40
  -2  -3   5  635.94   24.20
  -2  -3   5  753.52   24.50
   2  -3  -5  778.92   24.60
   2  -3  -5  739.43   24.60
  -2   3   5  762.42   24.50
   2   3  -5  796.02   24.40
  -2   3   5  759.12   24.50
  -2   3   5  750.42   24.40
   2   3  -5  773.62   24.40
   2   3  -5  736.83   24.30
  -2   3   5  752.52   24.50
   1  -3  -5   14.90    1.10
  -1  -3   5   15.50    1.20
   1  -3  -5   14.50    1.30
   1  -3  -5   16.20    1.20
   1  -3  -5   15.00    1.10
  -1  -3   5   14.80    1.10
  -1  -3   5   15.00    1.10
  -1   3   5   13.10    1.20
   1   3  -5   15.80    1.20
   1   3  -5   14.20    1.20
  -1   3   5   14.70    1.20
  -1   3   5   14.80    1.20
   1   3  -5   17.40    1.10
  -1   3   5   15.00    1.10
   1   3  -5   16.20    1.00
  -1   3   5   15.50    1.20
   1   3  -5   14.90    1.10
   0  -3   5 1844.42   60.69
   0  -3   5 1911.21   60.59
   0  -3  -5 1888.21   60.89
   0  -3   5 1931.41   60.69
   0  -3  -5 1940.61   60.59
   0  -3  -5 1887.31   60.49
   0  -3   5 1957.20   60.69
   0  -3  -5 1932.01   60.79
   0   3   5 1908.91   60.59
   0   3   5 1879.81   60.49
   0   3   5 1860.51   60.49
   0   3   5 1967.70   60.49
   0   3  -5 1900.81   60.69
   0   3  -5 1902.51   60.59
   1  -3   5  418.06   14.20
   1  -3   5  441.66   14.20
   1  -3   5  447.26   14.20
  -1   3  -5  448.06   14.20
  -1   3  -5  428.46   14.20
  -1   3  -5  432.26   14.20
   2  -3   5   49.99    2.30
   2  -3   5   50.49    2.20
   2  -3   5   48.50    2.30
  -2   3  -5   47.40    2.20
  -2   3  -5   46.10    2.20
  -2   3  -5   48.70    2.20
  -2   3  -5   50.39    2.30
   3  -3   5   99.99    4.30
  -3   3  -5  108.49    4.30
   4  -3   5    6.50    1.40
  -4   3  -5    4.10    1.20
  -4   3  -5    5.60    1.50
   5  -4  -5    6.10    1.80
   5   4  -5    3.80    1.70
   4  -4  -5   56.39    3.70
  -4  -4   5   56.79    3.20
   4  -4  -5   53.99    3.50
  -4  -4   5   50.09    2.90
  -4   4   5   56.19    3.30
   4   4  -5   57.99    3.20
  -4   4   5   59.49    3.50
  -3  -4   5   21.50    1.60
  -3  -4   5   21.00    1.70
   3  -4  -5   20.80    2.10
   3  -4  -5   22.80    2.30
  -3  -4   5   22.70    1.80
  -3  -4   5   20.50    2.00
   3   4  -5   22.20    1.80
  -3   4   5   21.80    2.00
  -3   4   5   22.80    2.20
  -3   4   5   19.90    1.90
   3   4  -5   23.00    1.80
  -2  -4   5    5.30    1.00
  -2  -4   5    5.30    1.10
  -2  -4   5    5.20    0.80
   2  -4  -5    7.70    1.20
   2  -4  -5    5.80    1.00
  -2  -4   5    6.90    1.00
  -2   4   5    4.60    0.80
  -2   4   5    5.90    1.00
   2   4  -5    6.20    1.00
  -2   4   5    5.30    1.00
   2   4  -5    4.80    0.80
   2   4  -5    3.70    0.90
   1  -4  -5  133.49    4.90
   1  -4  -5  131.39    5.00
  -1  -4   5  133.39    4.80
  -1  -4   5  130.89    4.80
   1  -4  -5  132.29    4.70
   1  -4  -5  130.49    4.80
  -1  -4   5  130.69    4.70
   1   4  -5  132.09    4.80
   1   4  -5  132.29    4.60
  -1   4   5  135.19    4.70
  -1   4   5  133.49    4.80
   1   4  -5  133.69    4.70
  -1   4   5  132.79    4.90
   0  -4  -5  317.67   10.40
   0  -4  -5  309.57   10.40
   0  -4  -5  325.87   10.50
   0  -4  -5  312.97   10.50
   0  -4   5  310.77   10.60
   0  -4   5  314.27   10.60
   0   4   5  312.67   10.50
   0   4   5  319.77   10.40
   0   4  -5  319.57   10.60
   0   4   5  320.67   10.40
   0   4  -5  314.47   10.50
   0   4  -5  327.67   10.50
   0   4   5  316.37   10.30
   0   4   5  318.77   10.40
   1  -4   5   74.19    3.10
   1  -4   5   74.19    3.00
   1  -4   5   75.59    3.00
   1  -4   5   76.19    3.00
  -1   4  -5   80.69    3.00
  -1   4  -5   75.89    3.00
   2  -4   5  120.69    4.60
   2  -4   5  119.59    4.50
   2  -4   5  127.19    4.70
  -2   4  -5  120.49    4.50
  -2   4  -5  112.79    4.50
  -2   4  -5  124.19    4.60
  -2   4  -5  121.49    4.50
   3  -4   5   86.19    3.90
   3  -4   5   87.09    3.90
  -3   4  -5  100.89    4.10
   4  -4   5   35.40    2.80
  -4   4  -5   37.00    2.60
  -4   4  -5   47.20    2.90
   4  -5  -5    2.80    1.60
  -4  -5   5    1.90    1.10
   4  -5  -5    3.70    1.60
  -4  -5   5    3.70    1.40
  -4   5   5    6.40    1.50
  -4   5   5    5.20    1.70
   4   5  -5    1.20    1.20
   3  -5  -5    8.00    1.50
  -3  -5   5    8.90    1.20
   3  -5  -5    4.90    1.40
  -3  -5   5    8.00    1.30
  -3  -5   5    8.00    1.20
  -3  -5   5    5.80    1.40
  -3   5   5    8.70    1.50
   3   5  -5    4.60    1.10
   3   5  -5    8.50    1.20
  -3   5   5    4.10    1.30
  -3   5   5    7.10    1.30
   2  -5  -5   75.09    3.40
  -2  -5   5   70.79    3.20
   2  -5  -5   74.59    3.50
  -2  -5   5   75.99    3.20
  -2   5   5   76.59    3.30
   2   5  -5   70.59    3.10
  -2   5   5   77.59    3.30
  -2   5   5   79.09    3.40
   1  -5  -5   12.50    1.10
   1  -5  -5   10.40    1.20
  -1  -5   5   13.10    1.10
   1  -5  -5   15.40    1.50
  -1  -5   5   13.40    1.20
  -1  -5   5   11.20    1.10
   1  -5  -5   11.70    1.10
  -1   5   5   12.20    1.20
   1   5  -5   13.80    1.20
   1   5  -5   13.20    1.20
  -1   5   5   14.80    1.60
  -1   5   5   14.50    1.20
   1   5  -5   12.20    0.90
  -1   5   5   13.50    1.20
   0  -5  -5   55.09    2.30
   0  -5   5   50.99    2.30
   0  -5   5   53.19    2.30
   0  -5  -5   55.79    2.20
   0  -5  -5   50.99    2.30
   0  -5   5   51.69    2.40
   0  -5  -5   56.09    2.20
   0   5   5   54.89    2.20
   0   5   5   54.49    2.20
   0   5   5   55.99    2.10
   0   5   5   54.39    2.20
   0   5   5   56.09    2.20
   0   5  -5   53.69    2.40
   0   5  -5   57.49    2.30
   0   5  -5   56.19    2.40
   1  -5   5  228.18    8.00
  -1   5  -5  231.98    7.80
  -1   5  -5  233.48    8.00
  -1   5  -5  225.78    7.90
   2  -5   5   31.50    1.80
   2  -5   5   30.80    2.00
  -2   5  -5   36.60    1.90
  -2   5  -5   27.20    2.10
  -2   5  -5   35.50    2.00
  -2   5  -5   28.80    2.00
   3  -5   5   17.00    1.80
   3  -5   5   17.00    1.80
  -3   5  -5   17.50    1.90
   4  -5   5    2.40    1.40
  -4   5  -5    3.90    1.30
  -4   5  -5    5.20    1.60
   4  -6  -5   16.80    2.70
  -4  -6   5   19.50    1.90
   4  -6  -5   20.80    2.60
  -4  -6   5   15.00    1.90
  -4   6   5   22.50    2.60
   4   6  -5   20.70    2.20
  -4   6   5   17.80    2.10
  -3  -6   5   13.80    1.50
   3  -6  -5   11.10    1.80
  -3  -6   5   11.20    1.30
   3  -6  -5   13.00    1.90
   3   6  -5   11.70    1.40
   3   6  -5   10.50    1.40
  -3   6   5    9.10    1.50
  -3   6   5   14.90    1.80
  -3   6   5   11.20    1.70
  -2  -6   5   40.00    2.30
   2  -6  -5   48.60    2.60
   2  -6  -5   46.60    2.70
  -2  -6   5   47.40    2.30
  -2   6   5   44.80    2.40
  -2   6   5   43.10    2.50
  -2   6   5   41.50    2.50
   1  -6  -5  269.47    9.60
   1  -6  -5  281.37    9.40
  -1  -6   5  301.87    9.60
  -1  -6   5  279.17    9.60
  -1  -6   5  259.07    9.30
   1  -6  -5  258.97    9.40
   1  -6  -5  262.77    9.60
   1   6  -5  271.37    9.50
  -1   6   5  269.77    9.50
  -1   6   5  274.67    9.50
   1   6  -5  305.77    9.50
  -1   6   5  286.27    9.40
   0  -6  -5   54.29    2.30
   0  -6  -5   60.29    2.50
   0  -6   5   53.59    2.50
   0  -6  -5   56.19    2.40
   0  -6   5   55.59    2.50
   0  -6   5   59.39    2.60
   0  -6  -5   55.49    2.40
   0  -6  -5   55.19    2.30
   0   6   5   56.89    2.40
   0   6   5   58.39    2.40
   0   6  -5   57.49    2.50
   0   6  -5   58.99    2.60
   0   6  -5   58.99    2.60
   0   6   5   57.69    2.40
   0   6   5   56.19    2.20
  -1  -6  -5    0.10    0.60
   1  -6   5    0.40    0.80
   1  -6   5    0.10    0.70
  -1  -6  -5   -0.40    0.40
  -1   6  -5    1.80    0.70
  -1   6  -5    1.30    0.70
  -1   6  -5    0.90    0.70
   2  -6   5    6.20    1.30
   2  -6   5    7.50    1.30
  -2   6  -5    7.00    1.20
  -2   6  -5    8.90    1.20
   3  -6   5    6.60    1.50
   3  -6   5    6.10    1.40
  -3   6  -5    8.60    1.60
   4  -6   5    8.50    1.80
  -4   6  -5   15.00    2.20
  -4   6  -5   10.00    1.80
   4  -7  -5    2.40    1.60
  -4  -7   5    2.50    1.40
   4   7  -5    1.30    1.30
  -4   7   5    2.50    1.50
  -4   7   5    0.40    1.20
   4   7  -5    2.30    1.20
  -3  -7   5   17.50    1.80
   3  -7  -5   15.60    2.10
   3  -7  -5   16.30    2.20
   3   7  -5   14.10    1.70
  -3   7   5   13.60    2.00
   3   7  -5   13.20    1.70
  -3   7   5   14.00    1.90
  -3   7   5   17.10    2.00
   2  -7  -5    7.10    1.30
  -2  -7   5    6.80    1.10
  -2  -7   5    4.40    1.00
  -2  -7   5    6.90    1.20
   2  -7  -5    7.30    1.50
  -2   7   5    8.80    1.50
   2   7  -5    7.60    1.10
  -2   7   5    7.80    1.40
  -2   7   5    6.30    1.10
   2   7  -5    6.00    1.10
   1  -7  -5   52.29    2.70
   1  -7  -5   51.39    2.50
  -1  -7   5   50.89    2.50
   1  -7  -5   52.49    2.60
  -1  -7   5   54.09    2.60
   1  -7  -5   53.59    2.50
  -1  -7   5   53.89    2.50
  -1   7   5   55.79    2.60
   1   7  -5   53.19    2.60
  -1   7   5   54.89    2.60
   1   7  -5   55.89    2.60
  -1   7   5   52.09    2.50
   0  -7  -5   24.10    1.50
   0  -7  -5   26.80    1.70
   0  -7   5   26.50    1.70
   0  -7   5   26.10    1.70
   0  -7  -5   22.50    1.50
   0   7   5   26.00    1.50
   0   7  -5   22.60    1.70
   0   7  -5   26.50    1.70
   0   7   5   24.90    1.50
   0   7   5   23.40    1.50
   0   7   5   26.80    1.30
   1  -7   5   39.20    2.30
  -1  -7  -5   36.20    1.70
   1  -7   5   39.20    2.30
  -1  -7  -5   35.50    1.70
  -1  -7  -5   37.40    1.80
   1   7   5   34.70    1.70
   1   7   5   37.10    1.70
  -1   7  -5   35.40    2.10
  -1   7  -5   35.20    2.20
   2  -7   5    3.50    1.30
   2  -7   5    2.30    1.20
  -2   7  -5    1.70    1.00
  -2   7  -5    3.60    1.10
  -2   7  -5    2.00    1.00
   3  -7   5    1.20    1.20
  -3   7  -5    0.80    1.20
   4  -7   5    5.80    1.70
  -4   7  -5    5.00    1.70
  -4   7  -5    5.50    1.60
  -4  -8   5    3.50    1.40
   4  -8  -5    2.60    1.70
  -4   8   5    6.40    1.90
   4   8  -5   10.10    1.70
  -4   8   5    4.40    1.60
   3  -8  -5   12.20    2.00
  -3  -8   5    9.00    1.50
   3  -8  -5    9.20    1.90
  -3   8   5   12.00    1.70
   3   8  -5    8.30    1.50
  -3   8   5   11.70    1.80
  -3   8   5    8.40    1.60
   2  -8  -5   63.29    3.60
   2  -8  -5   69.89    3.50
  -2  -8   5   67.49    3.10
  -2  -8   5   70.59    3.20
   2   8  -5   64.49    3.10
  -2   8   5   65.39    3.40
  -2   8   5   66.79    3.30
  -2   8   5   65.99    3.40
   2   8  -5   70.79    3.20
  -1  -8   5   53.09    2.70
   1  -8  -5   56.59    3.00
  -1  -8   5   59.19    2.80
   1  -8  -5   55.59    2.80
  -1   8   5   55.59    2.80
   1   8  -5   57.49    2.80
  -1   8   5   58.59    2.70
  -1   8   5   54.69    2.80
   1   8  -5   53.09    2.70
   0  -8  -5    9.20    1.10
   0  -8   5   10.70    1.40
   0  -8  -5    7.90    1.00
   0  -8   5   10.30    1.40
   0  -8  -5    8.10    1.20
   0   8   5   10.60    1.20
   0   8   5   10.90    1.00
   0   8  -5   11.70    1.40
   0   8   5   11.60    1.30
   0   8  -5   10.10    1.30
  -1  -8  -5   15.10    1.30
  -1  -8  -5   10.90    1.10
   1  -8   5   13.30    1.70
   1  -8   5   11.90    1.60
  -1  -8  -5   11.70    1.20
  -1   8  -5   12.70    1.50
   1   8   5   10.50    1.10
  -1   8  -5   12.70    1.60
   1   8   5   10.80    1.10
   2  -8   5  196.28    7.70
   2  -8   5  202.88    7.70
  -2   8  -5  200.18    7.50
  -2   8  -5  194.58    7.50
   3  -8   5    1.60    1.40
  -3   8  -5    0.50    1.30
   4  -8   5    3.40    1.80
  -4   8  -5    2.60    2.50
   4  -9  -5    1.80    2.00
  -4   9   5    2.10    2.00
   4   9  -5    5.30    1.60
   3  -9  -5    4.40    1.70
  -3  -9   5    1.90    1.10
   3  -9  -5    4.00    1.50
   3   9  -5   -0.30    1.10
  -3   9   5    1.40    1.20
  -3   9   5    3.10    1.50
  -3   9   5    3.00    1.40
  -2  -9   5   52.49    2.80
   2  -9  -5   51.19    3.30
   2  -9  -5   48.60    3.10
  -2  -9   5   52.29    2.90
  -2   9   5   49.20    2.80
  -2   9   5   55.09    3.20
  -2   9   5   50.69    3.10
   2   9  -5   54.29    2.80
   2   9  -5   51.19    2.80
  -1  -9   5   23.50    2.00
   1  -9  -5   32.30    2.60
  -1  -9   5   24.00    2.00
   1  -9  -5   21.20    1.90
   1   9  -5   26.80    2.00
  -1   9   5   27.30    2.10
  -1   9   5   25.90    2.00
  -1   9   5   25.50    1.80
   1   9  -5   22.50    1.90
   0  -9   5   31.00    2.20
   0  -9   5   34.50    2.30
   0  -9  -5   29.20    1.90
   0  -9  -5   29.50    2.10
   0  -9  -5   28.20    1.80
   0   9  -5   32.40    2.20
   0   9   5   25.10    1.80
   0   9  -5   31.60    2.10
   0   9   5   29.70    1.60
  -1  -9  -5  148.29    5.50
  -1  -9  -5  132.59    5.30
   1  -9   5  145.39    5.90
   1  -9   5  150.78    5.90
   1   9   5  140.99    5.30
  -1   9  -5  151.68    5.80
  -1   9  -5  143.19    5.80
   2  -9   5   27.10    2.60
   2  -9   5   20.40    2.30
  -2   9  -5   22.80    2.30
  -2   9  -5   26.10    2.40
   3  -9   5   11.50    2.10
  -3   9  -5   11.30    2.00
  -3   9  -5   10.90    1.90
   4  -9   5    0.50    1.50
   4 -10  -5    6.40    2.30
   4  10  -5    6.30    1.70
   3 -10  -5    4.40    1.80
  -3 -10   5    4.20    1.30
   3 -10  -5    4.30    1.90
   3  10  -5    4.60    1.40
  -3  10   5    2.80    1.40
  -3  10   5    3.40    1.50
   2 -10  -5    3.80    1.30
   2 -10  -5    5.90    1.70
  -2 -10   5    6.10    1.30
  -2  10   5    4.20    1.20
   2  10  -5    3.80    1.10
  -2  10   5    4.80    1.50
  -2  10   5    7.90    1.80
   2  10  -5    5.40    1.20
   1 -10  -5  210.38    8.00
  -1 -10   5  216.88    7.70
  -1 -10   5  208.48    7.80
   1 -10  -5  219.48    8.00
   1  10  -5  194.28    7.70
   1  10  -5  210.68    7.80
  -1  10   5  213.78    7.90
  -1  10   5  199.98    7.60
  -1  10   5  207.48    7.80
   0 -10  -5    1.00    0.80
   0 -10   5   -0.90    1.10
   0 -10  -5   -0.60    1.00
   0 -10  -5   -1.00    0.70
   0 -10   5   -0.30    1.00
   0  10   5   -0.70    0.80
   0  10  -5    0.30    1.10
   0  10   5   -1.90    0.70
   0  10  -5   -0.80    0.90
  -1 -10  -5   27.70    2.10
   1 -10   5   29.90    2.70
   1 -10   5   30.90    2.70
  -1  10  -5   31.30    2.70
  -1  10  -5   30.90    2.50
   1  10   5   27.30    1.90
   2 -10   5   23.40    2.60
  -2 -10  -5   22.40    1.90
   2 -10   5   22.10    2.60
  -2  10  -5   20.50    2.30
  -2  10  -5   23.10    2.40
   3 -10   5    3.00    1.70
  -3  10  -5    4.60    1.70
  -3  10  -5    4.00    1.70
  -3 -11   5    2.70    1.30
   3 -11  -5    2.80    1.80
   3 -11  -5    3.90    1.80
   3  11  -5    2.40    1.40
  -3  11   5    1.70    1.40
  -3  11   5    4.20    1.70
  -2 -11   5    2.80    1.20
   2 -11  -5    3.70    1.40
   2 -11  -5    5.10    1.70
   2  11  -5    5.50    1.40
  -2  11   5    5.30    1.60
  -2  11   5    3.70    1.50
  -1 -11   5   16.40    1.90
   1 -11  -5   14.20    1.90
   1 -11  -5   16.60    2.10
  -1 -11   5   11.80    1.70
   1  11  -5   15.10    1.80
  -1  11   5   12.90    1.80
  -1  11   5   15.90    2.10
   1  11  -5   14.30    1.80
   0 -11  -5   72.89    3.70
   0 -11   5   75.29    3.80
   0 -11   5   68.79    3.80
   0  11   5   74.69    3.50
   0  11  -5   68.69    3.70
   0  11   5   73.59    3.40
   0  11  -5   78.49    3.80
   1 -11   5   58.89    3.60
  -1 -11  -5   60.39    3.10
   1 -11   5   54.19    3.50
  -1  11  -5   58.49    3.40
  -1  11  -5   53.89    3.30
  -1  11  -5   60.19    3.50
   1  11   5   55.19    2.90
   2 -11   5    3.00    1.60
  -2 -11  -5    2.80    1.10
   2 -11   5    1.40    1.50
  -2  11  -5    3.20    1.50
  -2  11  -5    3.40    1.60
   3 -11   5    4.20    1.90
  -3  11  -5    1.40    1.40
   3 -12  -5   -1.50    1.50
   3 -12  -5    0.80    1.90
  -3  12   5    1.10    1.50
  -3  12   5    4.20    1.70
   3  12  -5    0.20    1.40
   2 -12  -5    7.10    1.90
   2 -12  -5    3.80    1.50
  -2 -12   5    3.40    1.40
  -2  12   5    4.80    1.70
  -2  12   5    5.80    1.70
   2  12  -5    5.80    1.50
   1 -12  -5   12.00    2.00
  -1 -12   5   11.20    1.90
  -1 -12   5   10.20    1.70
   1 -12  -5   11.50    1.90
  -1  12   5   10.90    1.90
   1  12  -5   11.80    1.80
   1  12  -5   11.10    1.70
  -1  12   5    9.20    1.60
   0 -12   5   39.40    3.00
   0 -12  -5   39.80    2.80
   0 -12   5   40.00    3.00
   0  12  -5   34.70    2.90
   0  12   5   41.00    2.70
   0  12  -5   38.00    2.90
   1 -12   5   -1.50    1.30
   1 -12   5    1.50    1.50
  -1 -12  -5    1.40    1.10
  -1  12  -5   -1.60    1.30
   1  12   5    0.70    1.10
  -1  12  -5    0.60    1.30
  -1  12  -5    0.80    1.30
   2 -12   5   11.50    2.30
   2 -12   5   15.80    2.60
  -2 -12  -5   13.30    1.70
  -2  12  -5    9.90    2.00
  -2  12  -5   11.00    2.10
   3 -12   5   13.40    2.60
  -3  12  -5   10.20    2.20
   2 -13  -5    3.20    1.60
   2 -13  -5    0.50    1.50
  -2 -13   5    0.30    1.40
   2  13  -5    1.50    1.30
  -2  13   5    0.60    1.40
  -2  13   5    0.10    1.30
  -1 -13   5    5.00    1.60
   1 -13  -5    4.90    1.70
   1  13  -5    2.40    1.30
  -1  13   5    4.70    1.60
   0 -13   5    1.20    1.50
   0 -13   5    2.70    1.40
   0 -13  -5    0.80    1.30
   0  13  -5    0.40    1.30
   0  13  -5   -0.60    1.30
   0  13   5   -0.30    1.10
   1 -13   5    4.50    1.80
  -1 -13  -5    3.20    1.40
   1 -13   5    3.10    1.70
  -1  13  -5    3.50    1.70
   1  13   5    4.60    1.30
  -1  13  -5    3.90    1.70
   2 -13   5    2.10    1.90
   2 -13   5    3.80    1.80
  -2 -13  -5    2.90    1.20
  -2  13  -5    3.40    1.70
   2  13   5    2.80    1.20
  -2  13  -5    2.40    1.70
  -2  14   5    4.50    1.80
   2  14  -5    3.60    1.60
   1 -14  -5   18.40    2.50
  -1 -14   5   25.40    2.80
   1  14  -5   20.50    2.60
  -1  14   5   23.70    2.70
   0 -14  -5    2.20    1.40
   0 -14   5    2.80    1.70
   0 -14   5    0.70    1.50
   0  14  -5    0.70    1.40
   0  14  -5    1.10    1.30
   0  14   5    2.60    1.40
   0  14  -5    1.80    1.60
   1 -14   5    2.30    1.80
   1 -14   5    1.00    1.70
  -1 -14  -5    1.50    1.30
  -1  14  -5    1.60    1.60
  -1  14  -5    2.20    1.60
   1  14   5    1.00    1.30
   2 -14   5    9.70    2.40
   2 -14   5    6.90    2.20
  -2  14  -5   16.60    2.60
   2  14   5   13.00    1.80
  -1  15   5   -0.10    1.50
   1  15  -5    0.50    1.50
   0  15  -5   11.20    2.20
   0  15   5   11.30    2.00
   1 -15   5    1.40    1.90
  -1  15  -5    0.40    1.70
   1  15   5   -1.40    1.20
  -1  15  -5    3.30    1.90
   5   0  -6   16.00    2.60
   4   0  -6   16.20    2.10
  -4   0   6   17.80    2.00
  -4   0   6   18.70    2.20
  -3   0   6   20.50    1.80
   3   0  -6   23.90    1.90
  -3   0   6   21.20    1.70
   3   0  -6   25.80    2.10
   2   0  -6  794.92   25.90
  -2   0   6  817.82   25.90
  -2   0   6  762.92   26.00
  -2   0   6  793.42   26.00
   2   0  -6  802.82   26.00
   2   0  -6  817.52   26.10
  -2   0   6  797.52   25.80
  -1   0   6 1772.42   55.39
  -1   0   6 1738.33   55.29
   1   0  -6 1765.62   55.29
   1   0  -6 1734.53   55.49
  -1   0   6 1698.23   55.39
   1   0  -6 1767.52   55.39
  -1   0   6 1702.33   55.49
   0   0  -6 2285.67   69.69
   0   0   6 2140.79   69.29
   0   0   6 2188.98   69.49
   0   0  -6 2142.09   69.19
   0   0  -6 2123.59   69.69
   0   0   6 2221.08   69.29
   0   0  -6 2187.18   69.39
   5  -1  -6   -1.10    1.50
   5   1  -6    2.80    1.70
   4  -1  -6   18.30    2.20
  -4  -1   6   19.00    2.10
  -4  -1   6   20.40    2.00
   4   1  -6   14.80    1.90
  -4   1   6   16.50    2.00
  -4   1   6   22.50    2.30
  -3  -1   6  105.29    5.50
  -3  -1   6   96.29    4.20
   3  -1  -6  100.49    4.50
  -3  -1   6  108.49    4.20
   3  -1  -6  108.09    4.50
  -3  -1   6   98.29    4.40
   3   1  -6  101.69    4.40
  -3   1   6  100.49    4.40
  -3   1   6  104.29    4.20
   3   1  -6  103.09    4.40
  -3   1   6  106.99    4.30
   2  -1  -6  409.46   13.20
   2  -1  -6  399.66   13.40
   2  -1  -6  417.06   13.50
  -2  -1   6  396.16   13.40
  -2  -1   6  411.36   13.30
  -2  -1   6  382.46   13.30
  -2  -1   6  387.06   13.20
  -2   1   6  410.86   13.30
  -2   1   6  392.56   13.20
   2   1  -6  400.36   13.40
  -2   1   6  383.46   13.40
   2   1  -6  388.86   13.40
  -2   1   6  394.26   13.40
  -1  -1   6   98.09    3.60
  -1  -1   6   93.89    3.70
   1  -1  -6   97.89    3.60
   1  -1  -6   97.99    3.50
   1  -1  -6   99.79    3.70
  -1  -1   6   98.19    3.50
  -1   1   6   96.69    3.60
   1   1  -6   90.79    3.50
  -1   1   6   96.39    3.50
   1   1  -6   98.89    3.70
   1   1  -6   95.69    3.60
  -1   1   6   99.39    3.60
  -1   1   6   97.99    3.60
  -1   1   6   99.29    3.70
   0  -1  -6   53.99    2.00
   0  -1   6   51.99    2.10
   0  -1  -6   48.10    2.10
   0  -1   6   49.90    2.00
   0  -1  -6   52.69    2.00
   0  -1  -6   54.49    1.90
   0  -1   6   52.59    2.10
   0   1   6   53.99    2.10
   0   1  -6   53.49    2.10
   0   1   6   54.79    2.00
   0   1  -6   53.99    2.30
   0   1  -6   52.09    2.00
   0   1   6   53.79    2.00
   1  -1   6   58.39    2.20
   1  -1   6   61.19    2.20
  -1   1  -6   55.89    2.20
  -1   1  -6   61.29    2.20
  -1   1  -6   53.89    2.20
  -2   1  -6   45.20    1.90
  -2   1  -6   45.10    1.90
   3   1   6    0.30    0.10
  -4   1  -6   20.00    1.80
   5  -2  -6    6.60    2.00
   5   2  -6    5.70    1.80
   4  -2  -6    6.60    1.70
  -4  -2   6    4.30    1.40
   4  -2  -6    2.90    1.40
  -4  -2   6    4.90    1.30
  -4   2   6    6.50    1.40
   4   2  -6    2.60    1.20
  -4   2   6    5.80    1.50
  -3  -2   6   24.00    1.70
  -3  -2   6   21.40    1.70
   3  -2  -6   23.80    2.10
  -3  -2   6   17.00    1.70
   3  -2  -6   16.10    1.80
  -3  -2   6   17.40    1.80
  -3   2   6   25.30    1.90
   3   2  -6   22.10    1.90
  -3   2   6   15.70    1.70
   3   2  -6   15.30    1.60
  -3   2   6   21.30    1.80
   2  -2  -6  292.27    9.80
   2  -2  -6  292.17   10.20
   2  -2  -6  290.87   10.10
  -2  -2   6  290.27    9.90
  -2  -2   6  295.17   10.10
  -2  -2   6  280.57    9.90
  -2  -2   6  286.77    9.80
   2   2  -6  289.57   10.00
  -2   2   6  300.67   10.00
  -2   2   6  296.17    9.90
  -2   2   6  284.97   10.00
  -2   2   6  283.27   10.10
   1  -2  -6  129.59    4.90
   1  -2  -6  133.99    4.80
  -1  -2   6  128.89    4.80
   1  -2  -6  135.59    4.80
   1  -2  -6  128.59    4.70
  -1  -2   6  129.89    4.70
  -1  -2   6  136.89    4.60
  -1  -2   6  129.09    4.80
  -1   2   6  132.49    4.70
   1   2  -6  135.59    4.80
  -1   2   6  132.99    4.80
   1   2  -6  134.89    4.80
   1   2  -6  129.89    4.70
  -1   2   6  137.39    4.80
  -1   2   6  140.49    4.80
  -1   2   6  136.49    4.90
   0  -2   6   46.80    1.80
   0  -2   6   43.70    1.90
   0  -2  -6   44.00    1.80
   0  -2   6   43.00    1.90
   0  -2  -6   41.70    1.90
   0  -2  -6   43.30    1.70
   0  -2   6   47.70    1.90
   0  -2  -6   45.30    1.80
   0   2   6   41.80    1.80
   0   2   6   44.40    1.80
   0   2   6   46.40    1.80
   0   2  -6   47.80    1.80
   0   2  -6   43.90    1.90
   1  -2   6  357.76   11.50
   1  -2   6  343.27   11.50
   1  -2   6  340.97   11.50
   1  -2   6  350.36   11.50
  -1   2  -6  351.46   11.50
  -1   2  -6  359.06   11.40
  -1   2  -6  355.86   11.50
   2  -2   6   13.50    1.00
   2  -2   6   14.00    1.10
  -2   2  -6   14.00    1.10
  -2   2  -6   13.90    1.10
  -2   2  -6   13.90    1.00
   3  -2   6  121.39    4.90
  -3   2  -6  142.39    5.00
  -4   2  -6    9.70    1.50
  -4   2  -6   16.40    1.70
   5  -3  -6    6.00    2.10
   5   3  -6    3.80    1.60
   4  -3  -6   12.50    2.00
  -4  -3   6    9.90    1.50
   4  -3  -6   15.60    2.20
  -4  -3   6   14.10    1.90
  -4   3   6   12.60    1.80
   4   3  -6   12.10    1.80
  -4   3   6   13.20    2.00
  -3  -3   6   21.50    1.70
  -3  -3   6   17.10    1.80
  -3  -3   6   21.70    1.60
   3  -3  -6   13.10    1.80
  -3  -3   6   22.70    1.90
  -3   3   6   18.70    1.80
  -3   3   6   20.20    1.90
   3   3  -6   16.30    1.60
  -3   3   6   14.50    1.80
   3   3  -6   23.30    1.90
  -2  -3   6   75.99    3.10
  -2  -3   6   70.89    3.10
  -2  -3   6   71.29    3.20
   2  -3  -6   79.19    3.40
   2  -3  -6   70.69    3.40
   2  -3  -6   75.69    3.30
  -2  -3   6   75.79    3.00
  -2   3   6   77.19    3.20
  -2   3   6   75.09    3.10
  -2   3   6   76.39    3.30
   2   3  -6   78.29    3.20
   1  -3  -6   68.99    2.90
  -1  -3   6   81.29    2.90
  -1  -3   6   64.79    2.80
   1  -3  -6   72.29    3.10
   1  -3  -6   66.39    2.80
  -1  -3   6   76.69    3.00
   1  -3  -6   70.19    2.90
  -1   3   6   76.39    3.00
  -1   3   6   66.09    2.90
   1   3  -6   70.29    2.90
  -1   3   6   74.69    2.90
  -1   3   6   72.89    2.80
   1   3  -6   72.69    2.70
   1   3  -6   71.79    2.90
   0  -3   6  164.88    5.90
   0  -3  -6  172.88    5.70
   0  -3  -6  170.18    5.80
   0  -3   6  163.58    5.90
   0  -3  -6  174.98    5.90
   0  -3   6  172.08    5.80
   0  -3  -6  162.88    5.80
   0  -3   6  168.68    5.90
   0   3   6  170.88    5.80
   0   3  -6  163.58    5.90
   0   3   6  171.48    5.70
   0   3   6  173.18    5.70
   0   3  -6  171.08    5.90
   0   3  -6  173.68    5.80
   0   3   6  170.88    5.70
   1  -3   6  225.78    7.70
   1  -3   6  228.78    7.80
   1  -3   6  232.68    7.80
   1  -3   6  230.38    7.80
  -1   3  -6  235.88    7.80
  -1   3  -6  228.88    7.80
  -1   3  -6  226.58    7.70
   2  -3   6   27.60    1.50
   2  -3   6   26.30    1.70
   2  -3   6   27.60    1.70
  -2   3  -6   29.30    1.60
  -2   3  -6   27.70    1.50
  -2   3  -6   30.20    1.70
   3  -3   6   91.39    4.00
  -3   3  -6  101.89    4.10
   4  -3   6    3.30    1.10
  -4   3  -6    3.20    1.20
  -4   3  -6    5.10    1.40
   5  -4  -6    2.90    1.80
   5   4  -6   -0.20    1.50
  -4  -4   6   48.60    2.80
   4  -4  -6   46.30    3.40
  -4  -4   6   51.19    3.10
   4  -4  -6   49.30    3.40
  -4   4   6   42.70    3.10
  -4   4   6   52.79    3.50
   4   4  -6   47.30    3.00
   3  -4  -6   26.40    2.30
  -3  -4   6   29.10    2.00
  -3  -4   6   28.00    2.10
   3  -4  -6   27.20    2.30
  -3  -4   6   28.80    1.90
  -3  -4   6   31.20    2.10
  -3   4   6   31.20    2.20
   3   4  -6   25.50    2.00
  -3   4   6   25.20    2.30
  -3   4   6   27.80    2.10
   3   4  -6   28.50    2.00
  -2  -4   6   27.50    1.60
   2  -4  -6   24.80    1.90
  -2  -4   6   27.00    1.50
   2  -4  -6   27.00    1.90
  -2  -4   6   23.60    1.70
   2   4  -6   24.70    1.70
  -2   4   6   25.70    1.70
   2   4  -6   29.50    1.80
  -2   4   6   26.90    1.80
  -2   4   6   29.10    1.80
   1  -4  -6   17.80    1.20
  -1  -4   6   18.50    1.30
  -1  -4   6   19.30    1.30
   1  -4  -6   16.80    1.30
  -1  -4   6   19.40    1.30
   1  -4  -6   18.20    1.50
   1  -4  -6   19.00    1.30
  -1   4   6   19.40    1.30
  -1   4   6   19.70    1.30
   1   4  -6   20.20    1.40
  -1   4   6   19.70    1.20
   1   4  -6   18.30    1.30
   1   4  -6   17.10    1.30
   1   4  -6   18.50    1.10
   0  -4  -6  250.87    8.50
   0  -4  -6  263.97    8.40
   0  -4   6  251.17    8.60
   0  -4   6  249.68    8.60
   0  -4  -6  250.37    8.40
   0  -4  -6  249.88    8.50
   0   4   6  262.77    8.40
   0   4   6  257.87    8.40
   0   4  -6  248.38    8.60
   0   4   6  253.57    8.40
   0   4   6  250.57    8.20
   0   4  -6  245.48    8.50
   0   4  -6  251.17    8.50
   0   4   6  247.98    8.40
   1  -4   6  180.88    6.40
   1  -4   6  175.88    6.40
   1  -4   6  185.18    6.50
  -1   4  -6  188.08    6.40
  -1   4  -6  192.38    6.40
  -1   4  -6  177.28    6.30
   2  -4   6   26.60    1.80
   2  -4   6   26.70    1.80
   2  -4   6   24.50    1.50
  -2   4  -6   23.70    1.60
  -2   4  -6   24.10    1.60
  -2   4  -6   22.90    1.70
   3  -4   6    8.20    1.30
  -3   4  -6    6.40    1.30
   4  -4   6   51.29    3.00
  -4   4  -6   50.89    3.10
  -4   4  -6   42.10    2.90
  -4  -5   6    0.00    1.20
  -4  -5   6   -0.90    1.00
   4  -5  -6    1.70    1.40
   4  -5  -6    1.30    1.40
  -4   5   6    2.10    1.30
  -4   5   6    1.20    1.40
   4   5  -6   -0.70    1.20
  -3  -5   6   10.50    2.10
  -3  -5   6   13.30    1.60
  -3  -5   6   14.30    1.60
   3  -5  -6   13.60    1.90
  -3  -5   6   16.60    1.60
   3  -5  -6   16.70    2.00
  -3   5   6   15.40    1.80
  -3   5   6   15.00    1.80
  -3   5   6   16.10    1.90
   3   5  -6   15.40    1.70
   3   5  -6   14.00    1.60
  -2  -5   6   60.79    2.70
  -2  -5   6   54.89    2.80
   2  -5  -6   59.79    3.10
   2  -5  -6   59.29    3.00
  -2   5   6   63.49    2.80
  -2   5   6   59.79    2.90
  -2   5   6   56.29    2.90
   2   5  -6   55.99    2.70
   2   5  -6   62.09    2.80
   1  -5  -6   87.79    3.50
   1  -5  -6   87.09    3.70
  -1  -5   6   85.39    3.40
   1  -5  -6   90.89    3.40
  -1  -5   6   90.29    3.50
  -1  -5   6   87.29    3.60
   1  -5  -6   84.29    3.60
   1   5  -6   93.19    3.60
   1   5  -6   84.49    3.50
   1   5  -6   94.49    3.30
   1   5  -6   83.09    3.50
  -1   5   6   90.69    3.50
  -1   5   6   87.69    3.50
  -1   5   6   89.89    3.40
   0  -5  -6  139.79    4.80
   0  -5  -6  140.19    4.90
   0  -5   6  131.99    5.00
   0  -5  -6  138.49    4.90
   0  -5   6  140.69    5.10
   0  -5   6  137.29    5.00
   0  -5  -6  135.59    5.00
   0   5   6  137.89    4.70
   0   5  -6  137.29    4.90
   0   5   6  140.99    4.90
   0   5  -6  137.29    5.00
   0   5  -6  139.69    5.10
   0   5   6  139.99    4.90
   0   5   6  136.29    4.80
   0   5   6  138.99    4.90
   1  -5   6  164.48    5.80
  -1   5  -6  163.78    5.60
  -1   5  -6  139.69    5.60
  -1   5  -6  160.78    5.70
   2  -5   6  149.19    5.50
   2  -5   6  136.29    5.30
  -2   5  -6  157.38    5.40
  -2   5  -6  140.59    5.30
  -2   5  -6  142.59    5.40
  -2   5  -6  135.09    5.30
   3  -5   6   31.60    2.30
  -3   5  -6   38.80    2.50
   4  -5   6    3.40    1.30
  -4   5  -6    5.70    1.60
  -4   5  -6    1.60    1.30
   4  -6  -6    8.50    1.90
   4  -6  -6    6.00    1.80
  -4  -6   6    5.60    1.50
  -4  -6   6    6.10    1.30
   4   6  -6    3.70    1.40
  -4   6   6    7.50    1.70
  -4   6   6    6.70    1.70
  -3  -6   6  111.39    4.60
  -3  -6   6  118.49    4.50
   3  -6  -6  107.69    5.20
   3  -6  -6  107.09    5.10
  -3   6   6  114.49    5.00
  -3   6   6  116.09    5.00
   3   6  -6  111.79    4.70
  -3   6   6  109.59    4.80
   3   6  -6  103.49    4.50
  -2  -6   6  203.68    7.20
   2  -6  -6  210.08    7.50
  -2  -6   6  187.78    7.30
   2  -6  -6  192.68    7.50
   2   6  -6  192.88    7.20
  -2   6   6  193.48    7.20
  -2   6   6  202.78    7.40
   2   6  -6  200.38    7.20
  -2   6   6  207.18    7.40
  -1  -6   6    0.20    0.60
  -1  -6   6    0.60    0.60
   1  -6  -6    0.50    0.50
  -1  -6   6    0.60    0.50
   1  -6  -6    0.50    0.60
   1  -6  -6   -0.10    0.70
   1  -6  -6    0.10    0.50
   1   6  -6   -0.70    0.60
  -1   6   6   -0.50    0.60
  -1   6   6    0.00    0.50
   1   6  -6    0.60    0.70
  -1   6   6    0.10    0.60
   0  -6  -6  238.98    8.10
   0  -6  -6  231.48    8.00
   0  -6  -6  242.08    8.00
   0  -6   6  227.28    8.10
   0  -6   6  229.08    8.20
   0  -6  -6  234.38    8.10
   0   6  -6  238.18    8.20
   0   6   6  228.68    7.80
   0   6   6  240.98    8.00
   0   6   6  241.98    8.00
   0   6  -6  229.48    8.20
   0   6   6  241.78    8.00
   1  -6   6   16.20    1.50
  -1  -6  -6   14.00    1.10
   1  -6   6   18.00    1.60
  -1   6  -6   15.60    1.30
  -1   6  -6   17.00    1.50
  -1   6  -6   17.30    1.40
   2  -6   6   15.30    1.70
   2  -6   6   16.90    1.80
  -2   6  -6   15.20    1.60
  -2   6  -6   14.80    1.50
  -2   6  -6   16.60    1.60
  -2   6  -6   15.20    1.60
   3  -6   6   68.69    3.60
  -3   6  -6   67.89    3.60
   4  -6   6    0.20    1.40
  -4   6  -6   -0.40    1.30
  -4   6  -6    2.80    1.50
  -4  -7   6    6.20    1.60
   4  -7  -6    8.10    2.00
   4  -7  -6    7.70    2.00
   4   7  -6    4.30    1.60
  -4   7   6   10.20    2.00
  -4   7   6   10.90    1.90
   3  -7  -6    8.00    1.70
   3  -7  -6    8.60    1.80
  -3  -7   6    9.10    1.50
  -3   7   6   10.10    1.70
   3   7  -6    6.10    1.30
  -3   7   6    5.70    1.50
  -3   7   6    6.80    1.50
   3   7  -6    9.10    1.40
  -2  -7   6   24.20    1.80
   2  -7  -6   25.90    2.30
   2  -7  -6   25.30    2.10
  -2  -7   6   29.50    2.00
  -2   7   6   25.80    2.10
  -2   7   6   26.40    2.10
   2   7  -6   29.40    2.00
   2   7  -6   26.90    1.90
  -2   7   6   28.50    1.90
   1  -7  -6   34.20    1.90
   1  -7  -6   33.20    2.10
  -1  -7   6   35.50    2.00
  -1  -7   6   38.90    2.10
   1  -7  -6   33.80    2.20
   1   7  -6   32.80    2.10
  -1   7   6   35.50    2.10
  -1   7   6   37.70    2.10
   1   7  -6   37.80    2.10
  -1   7   6   37.20    1.90
   0  -7  -6   24.90    1.50
   0  -7   6   23.40    1.70
   0  -7  -6   23.50    1.70
   0  -7   6   28.80    1.80
   0  -7  -6   23.40    1.40
   0  -7  -6   25.60    1.50
   0   7  -6   24.40    1.70
   0   7   6   29.20    1.60
   0   7   6   24.30    1.30
   0   7  -6   23.50    1.70
   0   7   6   27.50    1.50
   0   7   6   27.00    1.60
  -1  -7  -6    5.40    0.90
   1  -7   6    4.50    1.00
  -1  -7  -6    5.40    0.70
  -1  -7  -6    5.70    0.80
   1  -7   6    5.00    1.20
  -1   7  -6    4.60    1.00
  -1   7  -6    4.80    1.00
   1   7   6    4.80    0.70
   1   7   6    5.80    0.70
   2  -7   6  324.67   11.40
   2  -7   6  321.07   11.30
  -2   7  -6  322.47   11.20
  -2   7  -6  314.47   11.20
  -2   7  -6  325.47   11.20
   3  -7   6    8.10    1.70
  -3   7  -6    7.00    1.60
   4  -7   6    6.60    1.80
  -4   7  -6    2.60    1.60
   4  -8  -6    1.60    1.70
  -4  -8   6   -0.90    1.20
   4  -8  -6    5.00    2.20
   4   8  -6    0.60    1.30
  -4   8   6   -0.30    1.40
  -4   8   6    2.00    1.40
   3  -8  -6   14.40    2.30
   3  -8  -6   10.60    1.90
  -3  -8   6   13.80    1.70
   3   8  -6   12.90    1.70
  -3   8   6   11.50    1.70
  -3   8   6   17.00    2.20
  -3   8   6   13.90    2.00
   2  -8  -6    3.40    1.40
  -2  -8   6    2.00    1.00
   2  -8  -6    2.90    1.20
  -2  -8   6    5.10    1.20
  -2   8   6    3.20    1.20
   2   8  -6    1.20    1.00
  -2   8   6    3.60    1.20
   2   8  -6    3.30    1.10
  -2   8   6    4.10    1.10
   1  -8  -6   66.79    3.20
  -1  -8   6   69.99    3.20
  -1  -8   6   68.59    3.10
   1  -8  -6   66.09    3.30
   1   8  -6   60.39    3.10
  -1   8   6   64.79    3.10
   1   8  -6   64.69    3.10
  -1   8   6   64.49    2.90
  -1   8   6   70.79    3.20
   0  -8   6   29.20    2.00
   0  -8  -6   27.30    1.70
   0  -8  -6   27.60    1.90
   0  -8  -6   26.40    1.60
   0  -8   6   25.60    2.00
   0   8   6   28.10    1.70
   0   8  -6   24.90    1.90
   0   8  -6   30.30    2.00
   0   8   6   26.80    1.70
   0   8   6   24.20    1.90
   0   8   6   24.00    1.40
   1  -8   6   29.10    2.30
   1  -8   6   30.70    2.40
  -1  -8  -6   31.40    1.90
  -1  -8  -6   30.60    1.70
  -1  -8  -6   28.90    1.60
  -1   8  -6   34.40    2.20
  -1   8  -6   32.20    2.20
   1   8   6   32.30    1.60
   1   8   6   29.70    1.70
   2  -8   6   58.79    3.40
   2  -8   6   57.39    3.40
  -2   8  -6   60.09    3.30
  -2   8  -6   60.19    3.20
  -2   8  -6   61.59    3.20
   3  -8   6   33.10    2.80
  -3   8  -6   26.20    2.60
   4  -8   6    4.20    1.80
   4  -9  -6    4.20    2.00
   4   9  -6    4.00    1.60
   3  -9  -6   -1.10    1.30
   3  -9  -6    1.30    1.40
  -3  -9   6    0.90    1.20
  -3   9   6    2.40    1.40
  -3   9   6    0.50    1.10
  -3   9   6    0.10    1.20
   3   9  -6    1.00    1.20
  -2  -9   6   29.60    2.20
   2  -9  -6   35.30    2.80
  -2  -9   6   32.70    2.30
   2  -9  -6   31.80    2.60
  -2   9   6   29.00    2.20
   2   9  -6   31.60    2.20
  -2   9   6   31.20    2.50
  -2   9   6   29.80    2.50
   2   9  -6   30.80    2.30
  -1  -9   6   21.80    2.00
   1  -9  -6   21.80    2.10
  -1  -9   6   23.20    2.00
   1  -9  -6   26.10    2.30
   1   9  -6   24.10    2.00
  -1   9   6   22.20    1.70
   1   9  -6   27.10    2.00
  -1   9   6   23.10    2.00
  -1   9   6   21.70    2.00
   0  -9  -6   64.39    3.10
   0  -9  -6   63.09    2.80
   0  -9   6   64.29    3.20
   0  -9  -6   59.19    2.90
   0  -9   6   62.49    3.20
   0   9  -6   59.89    3.10
   0   9   6   63.59    2.90
   0   9   6   56.49    2.90
   0   9  -6   66.49    3.20
   0   9   6   59.69    2.60
   1  -9   6   46.70    3.00
  -1  -9  -6   43.20    2.40
   1  -9   6   44.40    2.80
  -1   9  -6   42.30    2.70
  -1   9  -6   43.00    2.70
   1   9   6   40.30    2.20
   2  -9   6   71.39    3.90
   2  -9   6   74.99    4.10
  -2   9  -6   77.09    3.90
  -2   9  -6   76.79    3.80
  -2   9  -6   68.59    3.80
   3  -9   6    8.00    1.80
  -3   9  -6    7.30    1.80
   4  -9   6    2.20    1.70
   4 -10  -6   -0.70    1.70
   4  10  -6    2.40    1.50
   3 -10  -6    4.40    1.70
  -3 -10   6    1.20    1.20
   3 -10  -6    1.40    1.50
  -3  10   6    2.30    1.40
   3  10  -6    2.60    1.40
  -3  10   6    4.60    1.60
  -2 -10   6    1.50    1.10
   2 -10  -6    0.80    1.20
   2 -10  -6    3.10    1.50
   2  10  -6    2.00    1.10
  -2  10   6   -0.10    1.10
  -2  10   6    1.60    1.20
   2  10  -6    1.10    1.00
   1 -10  -6  147.79    6.00
  -1 -10   6  148.09    5.90
  -1 -10   6  151.48    5.80
   1 -10  -6  141.29    6.10
  -1  10   6  148.89    6.00
   1  10  -6  144.59    5.90
  -1  10   6  143.29    5.90
   1  10  -6  148.59    5.90
   0 -10  -6    1.90    1.10
   0 -10  -6    1.60    0.90
   0 -10   6    0.60    1.10
   0 -10   6   -0.40    1.10
   0  10  -6    1.70    1.10
   0  10   6    1.80    0.90
   0  10  -6    1.20    1.20
   0  10   6    0.70    0.40
   1 -10   6  133.09    5.70
  -1 -10  -6  132.79    5.20
   1 -10   6  134.59    5.70
  -1  10  -6  129.99    5.50
  -1  10  -6  130.29    5.50
   1  10   6  124.69    5.00
   2 -10   6   26.40    2.80
   2 -10   6   26.20    2.80
  -2  10  -6   20.50    2.30
  -2  10  -6   22.40    2.40
   3 -10   6   10.10    2.20
  -3  10  -6   12.40    2.20
   3 -11  -6   -0.40    1.50
  -3 -11   6    0.70    1.30
   3 -11  -6    3.80    1.90
  -3  11   6    1.20    1.40
   3  11  -6    2.20    1.40
  -3  11   6   -1.20    1.30
   2 -11  -6    2.20    1.50
  -2 -11   6    3.70    1.30
   2 -11  -6    2.30    1.30
   2  11  -6    1.00    1.10
  -2  11   6    1.10    1.20
  -2  11   6    2.20    1.30
  -1 -11   6   25.70    2.50
   1 -11  -6   32.50    2.90
   1 -11  -6   26.90    2.30
  -1 -11   6   26.20    2.50
  -1  11   6   28.00    2.40
   1  11  -6   23.40    2.30
   1  11  -6   25.30    2.40
  -1  11   6   24.90    2.30
   0 -11  -6    3.40    1.30
   0 -11   6    5.20    1.50
   0 -11   6    2.70    1.30
   0  11  -6    4.00    1.40
   0  11   6    4.50    1.20
   0  11   6    2.40    1.10
   0  11  -6    3.10    1.30
   1 -11   6    4.50    1.60
   1 -11   6    4.10    1.70
  -1 -11  -6    4.30    1.20
  -1  11  -6    5.00    1.50
   1  11   6    6.00    1.30
  -1  11  -6    5.90    1.60
   2 -11   6    6.60    1.90
  -2 -11  -6    7.10    1.30
   2 -11   6    5.90    1.80
  -2  11  -6    7.00    1.70
  -2  11  -6    6.30    1.70
   3 -11   6    0.70    1.90
  -3  11  -6    0.60    1.50
   3 -12  -6    5.40    2.00
   3 -12  -6    7.70    2.20
  -3  12   6   10.20    2.20
  -3  12   6    4.10    1.60
   3  12  -6    6.70    1.90
   2 -12  -6    1.10    1.30
   2 -12  -6    3.50    1.70
  -2 -12   6   -0.20    1.20
  -2  12   6    2.70    1.40
  -2  12   6    0.10    1.30
   2  12  -6    0.40    1.30
  -1 -12   6    7.90    1.60
  -1 -12   6    7.60    1.70
   1 -12  -6   14.90    2.10
   1 -12  -6    9.70    2.00
   1  12  -6    8.50    1.70
  -1  12   6    8.40    1.80
  -1  12   6    7.20    1.60
   1  12  -6    8.40    1.70
   0 -12   6  104.59    5.10
   0 -12   6  112.99    5.10
   0 -12  -6  111.59    5.00
   0  12  -6  111.09    5.10
   0  12  -6  115.19    5.20
   0  12   6  110.59    4.90
   1 -12   6    4.60    1.70
  -1 -12  -6    1.30    1.10
   1 -12   6    1.20    1.60
  -1  12  -6   -0.10    1.30
  -1  12  -6    0.30    1.30
  -1  12  -6    0.80    1.40
   1  12   6   -0.50    1.00
   2 -12   6    4.90    2.00
  -2 -12  -6    2.60    1.10
   2 -12   6    4.60    1.80
  -2  12  -6    2.00    1.60
  -2  12  -6    3.30    1.70
   3 -12   6    3.40    2.00
  -3  12  -6    2.90    1.70
  -2 -13   6   -0.10    1.70
   2 -13  -6    0.30    1.60
   2 -13  -6    2.90    1.40
  -2  13   6    2.50    1.40
  -2  13   6   -1.30    1.30
   2  13  -6   -1.00    1.30
  -1 -13   6   21.80    2.50
   1 -13  -6   19.70    2.60
   1  13  -6   20.50    2.30
  -1  13   6   21.70    2.50
   0 -13   6    7.10    1.80
   0 -13   6   10.40    2.10
   0 -13  -6    6.30    1.70
   0  13  -6    5.80    1.70
   0  13  -6    8.80    1.80
   0  13   6    7.30    1.50
   1 -13   6    1.60    1.50
   1 -13   6    2.40    1.70
  -1 -13  -6    4.10    1.40
  -1  13  -6    1.50    1.40
  -1  13  -6    1.80    1.50
   1  13   6    2.10    1.20
  -1  13  -6    3.70    1.70
  -2 -13  -6    5.70    1.40
   2 -13   6    8.40    2.20
   2 -13   6    3.20    1.90
  -2  13  -6    5.10    1.80
  -2  13  -6    4.80    2.00
  -2  14   6    4.00    1.90
   2  14  -6   -0.40    1.30
  -1 -14   6    5.30    2.20
  -1  14   6    8.10    1.80
   1  14  -6    7.10    1.90
   0 -14   6    6.70    2.10
   0 -14  -6    6.90    1.80
   0 -14   6    3.10    1.70
   0  14   6    6.80    1.60
   0  14  -6    3.10    1.80
   0  14  -6    8.80    2.00
  -1 -14  -6    4.90    1.50
   1 -14   6    4.10    2.00
   1 -14   6    7.20    2.10
   1  14   6    4.50    1.50
  -1  14  -6    2.50    1.70
  -1  14  -6    4.60    1.80
   2 -14   6    0.30    1.70
  -1  15   6   10.80    2.10
   1  15  -6    4.50    1.90
   0  15   6    4.30    1.50
   0  15  -6   -0.60    1.40
   1 -15   6    0.00    1.70
   1  15   6    3.00    1.40
  -1  15  -6    2.40    1.80
  -1  15  -6    0.50    1.80
   5   0  -7   -1.70    1.60
   4   0  -7    0.10    1.20
  -4   0   7   -0.90    1.10
  -4   0   7    0.10    1.00
  -3   0   7   11.80    1.50
  -3   0   7   13.10    1.40
  -3   0   7   17.10    1.60
   2   0  -7   -0.60    0.80
  -2   0   7    0.10    0.70
   2   0  -7   -2.00    0.60
  -2   0   7   -0.10    0.50
  -2   0   7   -0.80    0.60
  -2   0   7   -1.10    0.60
   1   0  -7   35.10    1.80
   1   0  -7   33.50    1.80
   1   0  -7   35.10    1.70
  -1   0   7   37.90    1.90
   1   0  -7   42.20    2.00
  -1   0   7   37.20    1.70
  -1   0   7   39.30    1.80
   0   0   7    0.60    0.40
   0   0   7    0.20    0.40
   0   0  -7    0.30    0.30
   0   0  -7   -0.20    0.40
   0   0   7   -0.10    0.30
   0   0  -7    0.80    0.50
   0   0  -7    0.40    0.40
  -4   0  -7   -0.40    0.80
   5  -1  -7   -0.40    1.70
   5   1  -7    1.00    1.60
  -4  -1   7    1.70    1.10
  -4  -1   7    2.70    1.40
   4  -1  -7    0.90    1.30
   4  -1  -7   -0.10    1.20
  -4   1   7    3.50    1.40
  -4   1   7    2.80    1.20
   4   1  -7   -0.80    1.10
  -3  -1   7    6.90    1.20
   3  -1  -7    8.60    1.50
  -3  -1   7    7.30    1.20
  -3  -1   7    7.10    1.30
   3  -1  -7    8.30    1.40
  -3   1   7    6.60    1.20
  -3   1   7    7.70    1.30
   3   1  -7    6.40    1.40
  -3   1   7    9.50    1.40
   3   1  -7    7.30    1.40
  -2  -1   7  107.89    4.30
  -2  -1   7  106.09    4.20
   2  -1  -7  108.49    4.30
  -2  -1   7  109.49    4.20
   2  -1  -7  107.89    4.40
   2  -1  -7  103.09    4.20
  -2  -1   7  106.19    4.10
   2   1  -7  108.09    4.40
  -2   1   7  111.09    4.30
   2   1  -7  107.69    4.30
  -2   1   7  108.39    4.20
  -2   1   7  101.59    4.30
  -2   1   7  106.19    4.10
   1  -1  -7   10.30    1.00
   1  -1  -7   11.30    0.90
   1  -1  -7   11.20    1.00
  -1  -1   7   14.00    1.20
   1  -1  -7   14.20    1.30
  -1  -1   7   10.80    0.90
  -1  -1   7   13.80    1.20
   1   1  -7   11.10    1.10
   1   1  -7   11.40    0.90
  -1   1   7   12.40    1.20
   1   1  -7   11.50    1.00
  -1   1   7   11.50    1.10
  -1   1   7   11.70    1.00
  -1   1   7   10.90    0.90
   1   1  -7   12.10    1.20
   0  -1  -7  114.59    3.90
   0  -1  -7  108.19    4.00
   0  -1  -7  110.59    3.80
   0  -1   7  115.29    4.00
   0  -1  -7  109.29    3.90
   0  -1   7  109.79    4.00
   0  -1   7  112.39    3.90
   0   1   7  109.29    3.90
   0   1  -7  112.59    4.00
   0   1  -7  114.09    4.00
   0   1   7  114.39    4.00
   0   1   7  110.79    3.90
   0   1  -7  109.99    3.90
   1  -1   7  260.47    8.50
   1  -1   7  254.37    8.50
  -1   1  -7  259.57    8.50
  -1   1  -7  250.07    8.50
  -1   1  -7  257.67    8.40
  -4   1  -7    3.70    1.00
   5  -2  -7    0.00    1.60
   5   2  -7    0.00    1.60
  -4  -2   7   39.00    2.70
   4  -2  -7   35.10    2.90
  -4  -2   7   34.80    2.50
   4  -2  -7   28.40    2.80
  -4   2   7   31.50    2.60
  -4   2   7   35.30    2.80
   4   2  -7   32.10    2.60
   3  -2  -7   88.99    4.10
  -3  -2   7   83.09    3.70
   3  -2  -7   87.59    4.10
  -3  -2   7   87.49    3.80
  -3  -2   7   90.69    3.70
   3   2  -7   88.29    3.90
  -3   2   7   85.89    3.80
  -3   2   7   83.59    3.90
   3   2  -7   84.19    3.90
  -3   2   7   81.99    4.00
  -2  -2   7  106.99    4.20
  -2  -2   7  103.19    4.00
   2  -2  -7  107.89    4.10
   2  -2  -7  103.59    4.40
   2  -2  -7  108.09    4.30
  -2  -2   7  105.19    4.30
  -2  -2   7  100.79    4.10
  -2   2   7  107.19    4.30
  -2   2   7  106.29    4.20
   2   2  -7  102.99    4.20
  -2   2   7  110.99    4.10
   2   2  -7  108.49    4.30
   1  -2  -7  466.65   15.30
  -1  -2   7  475.85   15.20
  -1  -2   7  466.35   15.50
  -1  -2   7  473.25   15.40
   1  -2  -7  473.15   15.40
  -1  -2   7  452.45   15.30
   1  -2  -7  475.15   15.40
   1  -2  -7  466.25   15.50
  -1   2   7  486.55   15.50
   1   2  -7  458.75   15.30
  -1   2   7  471.95   15.20
  -1   2   7  448.46   15.30
   1   2  -7  468.45   15.20
   1   2  -7  475.25   15.40
  -1   2   7  460.45   15.50
  -1   2   7  459.35   15.30
   1   2  -7  463.35   15.40
   0  -2  -7  255.27    8.90
   0  -2   7  278.77    9.00
   0  -2   7  266.97    8.90
   0  -2   7  262.27    9.00
   0  -2  -7  271.77    8.80
   0  -2  -7  257.37    8.90
   0  -2   7  261.97    9.00
   0  -2  -7  276.17    9.00
   0   2  -7  274.87    8.90
   0   2   7  274.87    8.90
   0   2   7  268.07    8.80
   0   2   7  276.17    8.90
   0   2   7  273.47    8.90
   0   2  -7  261.87    9.00
   1  -2   7  747.73   23.80
   1  -2   7  731.03   23.80
   1  -2   7  716.53   23.70
   1  -2   7  747.63   23.80
  -1   2  -7  727.23   23.80
  -1   2  -7  746.63   23.80
  -1   2  -7  762.52   23.70
   2  -2   7  105.29    3.80
   2  -2   7   97.99    3.70
  -2   2  -7  103.29    3.80
  -2   2  -7  100.89    3.70
  -2   2  -7   99.29    3.70
  -3   2  -7   10.10    1.20
  -4   2  -7   23.60    2.10
  -4   2  -7   17.60    1.80
   5  -3  -7    0.10    1.60
   5   3  -7    0.30    1.40
  -4  -3   7    8.40    1.70
  -4  -3   7    9.00    1.50
   4  -3  -7    8.40    1.80
   4  -3  -7   10.90    1.90
  -4   3   7    9.00    1.60
  -4   3   7    7.30    1.80
   4   3  -7    8.50    1.60
  -3  -3   7  214.08    7.70
  -3  -3   7  210.48    7.80
  -3  -3   7  222.48    7.90
   3  -3  -7  213.08    8.20
   3  -3  -7  218.38    8.10
   3   3  -7  211.18    7.90
  -3   3   7  209.88    8.00
  -3   3   7  221.98    7.90
   3   3  -7  219.48    7.90
  -3   3   7  210.88    8.00
   2  -3  -7    6.90    1.20
   2  -3  -7    7.40    1.10
  -2  -3   7    7.60    1.10
  -2  -3   7    7.30    0.90
  -2  -3   7    5.70    0.90
  -2  -3   7    8.70    1.10
   2  -3  -7    6.00    1.00
   2   3  -7    8.90    1.20
  -2   3   7    9.80    1.20
   2   3  -7    6.00    1.00
  -2   3   7    9.10    1.10
  -2   3   7    6.90    1.10
  -1  -3   7  639.94   21.10
   1  -3  -7  643.94   21.00
   1  -3  -7  659.03   21.10
   1  -3  -7  654.03   21.20
   1  -3  -7  656.83   21.00
  -1  -3   7  632.84   21.00
  -1  -3   7  633.54   20.90
  -1   3   7  646.74   21.00
  -1   3   7  647.64   21.10
  -1   3   7  653.73   20.90
   1   3  -7  645.44   21.10
   1   3  -7  645.54   21.00
   1   3  -7  650.23   20.90
   1   3  -7  635.74   21.10
   0  -3  -7    2.10    0.50
   0  -3   7    2.80    0.70
   0  -3   7    2.40    0.60
   0  -3   7    2.10    0.60
   0  -3   7    3.20    0.70
   0  -3  -7    2.00    0.70
   0  -3  -7    1.70    0.50
   0  -3  -7    3.00    0.60
   0   3  -7    2.80    0.70
   0   3   7    1.70    0.50
   0   3  -7    1.80    0.60
   0   3   7    1.50    0.50
   0   3  -7    2.60    0.60
   0   3   7    1.30    0.50
   0   3   7    2.40    0.60
   0   3  -7    2.00    0.60
   1  -3   7   17.00    1.20
   1  -3   7   17.90    1.20
   1  -3   7   19.40    1.20
   1  -3   7   18.60    1.20
  -1   3  -7   19.10    1.30
  -1   3  -7   18.60    1.20
  -1   3  -7   19.70    1.20
   2  -3   7  114.99    4.30
   2  -3   7  108.69    4.10
   2  -3   7  111.19    4.20
  -2   3  -7  109.09    4.20
  -2   3  -7  115.19    4.20
  -2   3  -7  114.09    4.10
   3  -3   7    5.40    1.10
  -3   3  -7    6.00    1.20
  -4   3  -7   10.50    1.60
  -4   3  -7   16.20    1.90
   5  -4  -7    1.00    1.80
   5   4  -7   -0.90    1.50
  -4  -4   7   35.80    2.50
   4  -4  -7   29.80    3.00
   4  -4  -7   34.20    3.00
  -4  -4   7   34.50    2.70
   4   4  -7   31.10    2.60
  -4   4   7   32.70    3.10
  -4   4   7   31.10    3.40
  -4   4   7   26.20    2.60
  -3  -4   7    3.90    1.10
  -3  -4   7    4.90    1.20
   3  -4  -7    4.30    1.30
   3  -4  -7    7.20    1.40
  -3  -4   7    5.90    1.10
  -3   4   7    4.40    1.30
  -3   4   7    4.40    1.20
   3   4  -7    3.20    1.10
  -3   4   7    5.20    1.20
   3   4  -7    2.80    1.20
   2  -4  -7  127.09    5.10
  -2  -4   7  126.79    5.00
  -2  -4   7  129.19    4.90
   2  -4  -7  124.49    5.20
  -2  -4   7  123.89    4.70
  -2  -4   7  128.69    4.90
   2   4  -7  132.79    5.00
  -2   4   7  129.29    5.10
   2   4  -7  129.79    5.00
  -2   4   7  130.29    5.00
  -2   4   7  126.09    4.90
   1  -4  -7  861.21   28.40
   1  -4  -7  877.41   28.20
   1  -4  -7  878.81   28.30
   1  -4  -7  854.21   28.10
  -1  -4   7  865.91   28.10
  -1  -4   7  839.62   28.30
  -1  -4   7  859.21   28.20
  -1   4   7  881.71   28.20
   1   4  -7  880.01   28.30
   1   4  -7  896.71   28.20
   1   4  -7  887.01   28.10
   1   4  -7  853.21   28.30
  -1   4   7  902.71   28.10
   0  -4   7   27.10    1.60
   0  -4  -7   27.10    1.30
   0  -4  -7   28.20    1.40
   0  -4  -7   25.70    1.50
   0  -4  -7   26.50    1.40
   0  -4   7   30.30    1.60
   0   4  -7   28.90    1.50
   0   4  -7   28.60    1.60
   0   4   7   26.60    1.40
   0   4   7   28.80    1.40
   0   4  -7   27.10    1.50
   0   4   7   27.90    1.40
   0   4   7   27.90    1.40
   1  -4   7  154.58    5.70
   1  -4   7  158.18    5.70
   1  -4   7  161.48    5.70
  -1   4  -7  154.68    5.70
  -1   4  -7  162.48    5.70
  -1   4  -7  167.28    5.60
   2  -4   7   59.59    2.60
   2  -4   7   59.99    2.80
   2  -4   7   61.69    2.80
  -2   4  -7   57.49    2.70
  -2   4  -7   57.49    2.60
  -2   4  -7   55.49    2.60
   3  -4   7    7.90    1.30
  -3   4  -7   10.20    1.50
   4  -4   7   48.00    2.90
  -4   4  -7   44.70    2.90
  -4   4  -7   44.80    2.90
   4  -5  -7    6.60    1.80
  -4  -5   7    7.10    1.60
   4  -5  -7    9.60    1.90
  -4  -5   7    6.80    1.40
  -4   5   7    8.70    1.80
  -4   5   7    7.50    1.90
  -4   5   7    8.40    1.70
   4   5  -7    6.10    1.60
   3  -5  -7  148.19    6.10
  -3  -5   7  134.99    5.60
   3  -5  -7  139.89    6.20
  -3  -5   7  149.09    5.70
  -3  -5   7  147.09    5.50
  -3   5   7  144.39    5.80
  -3   5   7  152.78    6.10
   3   5  -7  140.79    5.70
  -3   5   7  143.09    5.90
   3   5  -7  143.79    5.70
   2  -5  -7   34.30    2.30
   2  -5  -7   34.70    2.40
  -2  -5   7   30.60    2.30
  -2  -5   7   36.70    2.10
  -2   5   7   37.80    2.30
   2   5  -7   34.40    2.20
  -2   5   7   34.80    2.00
  -2   5   7   40.50    2.30
   2   5  -7   32.40    2.00
  -1  -5   7   46.40    2.10
   1  -5  -7   42.50    2.20
  -1  -5   7   47.80    2.30
  -1  -5   7   49.80    2.30
   1  -5  -7   42.00    2.30
   1  -5  -7   41.20    2.10
   1  -5  -7   46.70    2.10
  -1   5   7   39.80    2.20
  -1   5   7   46.20    2.20
   1   5  -7   46.30    2.20
   1   5  -7   47.50    2.30
  -1   5   7   46.10    2.10
   1   5  -7   47.50    2.00
   0  -5  -7   99.59    3.70
   0  -5   7  104.99    4.00
   0  -5  -7   99.79    3.80
   0  -5  -7  100.79    3.90
   0  -5  -7   99.09    3.70
   0  -5   7  101.39    3.90
   0   5  -7  101.09    3.90
   0   5   7  101.89    3.70
   0   5  -7  101.89    3.90
   0   5   7  102.09    3.70
   0   5  -7   99.39    3.80
   0   5   7  101.59    3.70
   0   5   7  102.09    3.70
   1  -5   7  122.09    4.70
  -1   5  -7  123.89    4.60
  -1   5  -7  119.99    4.50
   2  -5   7    6.70    1.10
   2  -5   7    8.40    1.20
   2  -5   7    6.20    1.00
  -2   5  -7    6.40    1.00
  -2   5  -7    6.60    1.20
  -2   5  -7    5.90    1.00
   3  -5   7   54.09    3.00
  -3   5  -7   59.29    3.10
   4  -5   7   11.70    1.80
  -4   5  -7   15.20    2.10
  -4   5  -7   13.30    1.90
  -4  -6   7    1.10    1.40
   4  -6  -7    3.80    1.60
  -4  -6   7    3.70    1.30
   4  -6  -7    4.40    1.70
  -4   6   7    4.70    1.60
   4   6  -7    4.70    1.60
  -4   6   7    4.60    1.50
  -4   6   7    4.90    1.70
   3  -6  -7   24.40    2.50
  -3  -6   7   20.40    2.00
  -3  -6   7   23.80    2.00
   3  -6  -7   21.10    2.40
  -3   6   7   23.60    2.20
   3   6  -7   23.70    2.10
   3   6  -7   20.80    2.00
  -3   6   7   20.30    2.20
  -3   6   7   20.60    2.10
  -2  -6   7   16.50    1.70
  -2  -6   7   15.40    1.60
   2  -6  -7   14.50    1.90
   2  -6  -7   15.60    1.80
  -2   6   7   17.50    1.80
   2   6  -7   15.50    1.60
   2   6  -7   14.90    1.60
  -2   6   7   19.80    1.90
  -2   6   7   16.20    1.60
   1  -6  -7    3.80    0.90
   1  -6  -7    2.80    0.80
  -1  -6   7    3.00    0.80
   1  -6  -7    3.30    0.70
  -1  -6   7    3.30    0.90
   1  -6  -7    4.10    1.00
  -1   6   7    3.50    0.70
  -1   6   7    3.20    0.80
   1   6  -7    3.00    0.90
   1   6  -7    2.10    0.80
  -1   6   7    3.50    0.90
   0  -6   7   16.30    1.40
   0  -6  -7   14.90    1.10
   0  -6   7   17.90    1.50
   0  -6  -7   16.10    1.40
   0  -6  -7   16.10    1.10
   0  -6  -7   14.70    1.10
   0   6   7   13.20    1.10
   0   6  -7   14.10    1.40
   0   6   7   14.60    1.10
   0   6  -7   16.00    1.40
   0   6   7   15.60    1.10
   1  -6   7   53.39    2.60
   1  -6   7   49.70    2.60
  -1   6  -7   43.40    2.30
  -1   6  -7   56.09    2.60
  -1   6  -7   54.09    2.60
   2  -6   7   11.70    1.50
   2  -6   7   10.60    1.50
  -2   6  -7   12.10    1.40
  -2   6  -7   12.10    1.50
  -2   6  -7   12.70    1.40
   3  -6   7   13.90    1.80
  -3   6  -7   15.10    1.90
   4  -6   7   11.00    1.90
  -4   6  -7   17.00    2.30
  -4   6  -7   13.30    2.00
  -4  -7   7   -0.70    1.30
   4  -7  -7   -1.80    1.50
   4  -7  -7   -0.20    1.40
  -4   7   7   -0.20    1.20
  -4   7   7   -0.20    1.30
  -4   7   7    2.50    1.60
   4   7  -7    4.10    1.50
  -3  -7   7    6.00    1.40
   3  -7  -7    8.10    1.70
   3  -7  -7    5.80    1.70
  -3   7   7    7.00    1.50
   3   7  -7    6.00    1.40
  -3   7   7    7.50    1.60
   3   7  -7    4.30    1.50
  -3   7   7   10.60    1.90
  -2  -7   7   11.50    1.50
   2  -7  -7    8.40    1.60
  -2  -7   7    8.30    1.30
   2  -7  -7    9.70    1.60
  -2   7   7    9.90    1.40
   2   7  -7   10.60    1.40
   2   7  -7   10.70    1.50
  -2   7   7   11.20    1.50
  -2   7   7   12.90    1.70
   1  -7  -7    7.20    1.20
  -1  -7   7   10.30    1.30
   1  -7  -7    5.80    0.90
  -1  -7   7    7.40    1.10
   1  -7  -7    7.50    1.20
  -1   7   7    5.30    1.10
   1   7  -7    5.00    1.10
  -1   7   7    8.00    1.10
  -1   7   7    7.80    1.00
   1   7  -7    9.50    1.20
   0  -7   7   39.40    2.20
   0  -7  -7   38.50    2.00
   0  -7  -7   40.50    1.90
   0  -7   7   40.90    2.30
   0  -7  -7   38.20    1.90
   0  -7  -7   37.60    2.20
   0   7   7   36.70    1.90
   0   7   7   41.90    2.00
   0   7  -7   39.40    2.20
   0   7   7   38.80    2.00
   0   7  -7   40.50    2.20
  -1  -7  -7    0.60    0.50
  -1  -7  -7    1.00    0.70
   1  -7   7    1.10    1.00
   1  -7   7    1.90    0.90
  -1   7  -7    0.10    0.90
  -1   7  -7    0.30    0.70
   2  -7   7   16.00    1.80
   2  -7   7   15.00    1.80
  -2   7  -7   15.90    1.80
  -2   7  -7   16.40    1.70
   3  -7   7   15.90    2.10
  -3   7  -7   16.30    2.10
   4  -7   7    2.30    1.50
   4  -8  -7    4.40    1.80
  -4  -8   7    2.10    1.70
   4  -8  -7    1.90    1.50
  -4   8   7    2.00    1.60
  -4   8   7    2.80    1.50
  -4   8   7    2.30    1.90
   4   8  -7    2.80    1.40
  -3  -8   7    2.80    1.20
   3  -8  -7    3.50    1.60
   3  -8  -7    4.70    1.60
  -3   8   7    4.80    1.30
  -3   8   7    4.80    1.50
   3   8  -7    5.30    1.30
  -3   8   7    4.40    1.50
   2  -8  -7   73.79    4.10
  -2  -8   7   82.69    3.70
   2  -8  -7   76.89    3.90
  -2  -8   7   82.69    3.80
  -2   8   7   81.69    3.90
   2   8  -7   80.39    3.80
  -2   8   7   84.69    3.90
   2   8  -7   82.09    3.70
  -2   8   7   75.59    3.60
  -1  -8   7  129.89    5.20
  -1  -8   7  130.49    5.10
   1  -8  -7  125.89    5.30
   1  -8  -7  130.39    5.20
  -1   8   7  137.09    5.20
  -1   8   7  129.69    5.20
  -1   8   7  128.09    5.00
   1   8  -7  135.69    5.20
   1   8  -7  127.79    5.20
   0  -8   7   14.30    1.60
   0  -8  -7   14.60    1.40
   0  -8  -7   12.30    1.20
   0  -8   7   12.80    1.60
   0  -8  -7   18.10    1.70
   0   8  -7   15.10    1.70
   0   8  -7   11.30    1.50
   0   8   7   11.70    1.00
   0   8   7   13.50    1.30
   0   8   7   16.00    1.50
   0   8   7   15.60    1.40
   1  -8   7   26.40    2.30
   1  -8   7   31.30    2.30
  -1  -8  -7   27.30    1.60
  -1  -8  -7   26.10    1.80
  -1   8  -7   31.30    2.20
   1   8   7   29.00    1.50
   1   8   7   25.30    1.60
  -1   8  -7   29.60    2.10
   2  -8   7   46.80    3.10
   2  -8   7   47.30    3.10
  -2   8  -7   51.89    3.00
  -2   8  -7   48.50    2.90
  -2   8  -7   53.29    2.90
   3  -8   7   34.30    3.00
  -3   8  -7   41.50    3.00
   4  -8   7    4.70    1.90
   4  -9  -7   -1.40    1.50
   4  -9  -7    3.10    1.80
   4   9  -7    0.70    1.50
   3  -9  -7   56.09    3.60
  -3  -9   7   45.70    2.90
   3  -9  -7   49.80    3.70
   3   9  -7   47.30    3.00
  -3   9   7   57.09    4.10
  -3   9   7   51.99    3.40
  -3   9   7   47.80    3.40
   2  -9  -7    6.00    1.70
   2  -9  -7    5.40    1.50
  -2  -9   7    7.10    1.40
  -2  -9   7    6.30    1.30
   2   9  -7    5.80    1.40
  -2   9   7    5.70    1.20
  -2   9   7    7.40    1.50
   2   9  -7    5.90    1.30
  -2   9   7    7.50    1.50
  -1  -9   7   25.30    2.10
   1  -9  -7   27.00    2.10
  -1  -9   7   25.60    2.20
   1  -9  -7   28.60    2.30
  -1   9   7   28.30    1.80
  -1   9   7   28.50    2.20
   1   9  -7   26.50    2.20
  -1   9   7   28.20    2.20
   1   9  -7   26.40    2.10
   0  -9   7   87.19    4.00
   0  -9  -7   85.29    3.80
   0  -9  -7   85.09    3.70
   0  -9   7   90.39    4.00
   0  -9  -7   78.79    3.50
   0   9   7   84.49    3.70
   0   9   7   80.89    3.20
   0   9  -7   89.89    3.90
   0   9   7   80.99    3.60
   0   9  -7   87.79    3.90
   1  -9   7   15.80    1.90
   1  -9   7   17.10    2.00
  -1  -9  -7   16.00    1.60
   1   9   7   14.20    1.40
  -1   9  -7   16.10    1.80
  -1   9  -7   11.30    1.60
   2  -9   7    3.20    1.40
   2  -9   7    4.20    1.50
  -2   9  -7    4.30    1.40
  -2   9  -7    3.50    1.40
  -2   9  -7    1.10    1.20
   3  -9   7   29.30    3.00
  -3   9  -7   26.50    2.70
  -3 -10   7    0.10    1.20
   3 -10  -7   -0.30    1.40
   3 -10  -7    0.70    1.40
  -3  10   7    0.80    1.30
   3  10  -7   -0.80    1.20
  -3  10   7    0.80    1.50
  -2 -10   7    9.40    1.60
   2 -10  -7   11.50    1.90
  -2 -10   7   10.40    1.80
   2 -10  -7   12.40    2.10
   2  10  -7    8.30    1.50
  -2  10   7   11.70    1.90
  -2  10   7   13.10    2.00
   2  10  -7   10.90    1.70
   1 -10  -7   17.80    2.00
  -1 -10   7   27.00    2.30
  -1 -10   7   24.40    2.30
   1 -10  -7   23.10    2.50
  -1  10   7   26.50    2.40
   1  10  -7   21.40    2.10
  -1  10   7   23.80    2.20
   1  10  -7   25.50    2.20
   0 -10   7   49.00    3.00
   0 -10   7   54.99    3.10
   0 -10  -7   55.09    3.00
   0  10  -7   51.29    3.00
   0  10   7   39.70    2.40
   0  10   7   50.59    2.70
   0  10  -7   49.30    3.00
   1 -10   7    3.20    1.50
   1 -10   7    4.10    1.40
  -1 -10  -7    3.20    1.10
   1  10   7    3.20    1.00
  -1  10  -7    0.50    1.20
  -1  10  -7    4.30    1.40
   2 -10   7   18.70    2.40
   2 -10   7   19.50    2.40
  -2  10  -7   20.90    2.30
  -2  10  -7   14.50    2.10
  -2  10  -7   18.40    2.20
   3 -10   7    1.70    1.70
  -3  10  -7    0.00    1.50
  -3 -11   7    5.20    1.60
   3 -11  -7    5.80    1.90
   3 -11  -7    2.50    1.60
  -3  11   7    2.20    1.50
   3  11  -7    0.90    1.40
  -3  11   7    4.90    1.80
   2 -11  -7    7.10    1.80
   2 -11  -7    7.30    1.80
  -2 -11   7    5.00    1.50
  -2  11   7    2.40    1.40
   2  11  -7    8.90    1.70
  -2  11   7    7.30    1.60
  -1 -11   7    8.00    1.60
  -1 -11   7    9.10    1.70
   1 -11  -7    8.60    1.80
   1 -11  -7    8.70    1.60
   1  11  -7    7.20    1.60
  -1  11   7   10.40    1.60
  -1  11   7    9.20    1.70
   1  11  -7    7.70    1.60
   0 -11   7   93.69    4.50
   0 -11   7   91.09    4.40
   0 -11  -7   96.79    4.40
   0  11  -7   92.69    4.40
   0  11   7   86.89    4.10
   0  11  -7   91.99    4.40
   1 -11   7    4.90    1.70
   1 -11   7    6.00    1.70
  -1 -11  -7    7.30    1.30
   1  11   7    5.90    1.20
  -1  11  -7    3.10    1.40
  -1  11  -7    7.60    1.70
   2 -11   7    0.10    1.60
   2 -11   7    0.90    1.60
  -2  11  -7    2.80    1.50
  -2  11  -7    2.80    1.40
   3 -11   7   -0.10    1.70
   3 -12  -7    3.30    1.80
   3 -12  -7    1.50    1.70
   3  12  -7   -2.00    1.40
  -3  12   7    1.60    1.60
  -3  12   7   -0.60    1.40
   2 -12  -7    4.30    1.50
  -2 -12   7   -0.60    1.30
   2 -12  -7    2.60    1.60
   2  12  -7    0.70    1.30
  -2  12   7    2.40    1.40
  -2  12   7    4.00    1.60
  -1 -12   7    1.40    1.40
   1 -12  -7    3.10    1.40
  -1 -12   7    4.00    1.50
  -1  12   7    2.50    1.60
   1  12  -7    0.00    1.20
   1  12  -7    1.50    1.30
  -1  12   7    0.40    1.20
   0 -12   7    2.70    1.40
   0 -12  -7    2.80    1.30
   0 -12   7    2.50    1.40
   0  12  -7   -0.70    1.20
   0  12  -7    1.70    1.30
   0  12   7    0.10    1.10
  -1 -12  -7    8.60    1.60
   1 -12   7    2.80    1.60
   1 -12   7    8.00    1.90
  -1  12  -7    6.40    1.70
   1  12   7    7.30    1.40
  -1  12  -7    7.00    1.70
   2 -12   7    0.80    1.70
   2 -12   7    0.50    1.60
  -2 -12  -7    0.20    1.00
  -2  12  -7    0.60    1.50
  -2  12  -7    0.30    1.50
   2 -13  -7    9.90    2.20
  -2  13   7   10.30    2.00
   2  13  -7    9.50    2.00
  -2  13   7   12.70    3.00
   1 -13  -7    4.70    1.60
  -1 -13   7    6.50    1.80
   1  13  -7    5.90    1.70
  -1  13   7    5.90    1.60
   1  13  -7    6.10    1.70
   0 -13  -7   12.60    1.90
   0 -13   7   10.90    2.10
   0 -13   7   12.70    2.10
   0  13  -7   10.10    1.90
   0  13   7   12.10    1.80
   0  13  -7    9.70    2.00
  -1 -13  -7   10.40    1.70
   1 -13   7    9.30    2.10
   1 -13   7    7.30    2.00
   1  13   7    7.50    1.40
  -1  13  -7    5.40    1.90
  -1  13  -7    6.80    1.90
  -1  13  -7    6.10    1.80
  -2 -13  -7    0.80    1.10
   2 -13   7    3.10    1.90
   2 -13   7   -0.80    1.70
  -2  13  -7    0.10    2.10
   2  14  -7    1.10    1.60
  -2  14   7    7.40    2.10
   1  14  -7    6.40    1.90
  -1  14   7    5.00    1.70
   0 -14  -7    7.70    2.30
   0 -14   7    7.60    2.10
   0 -14   7    4.10    1.70
   0  14  -7    6.30    1.80
   0  14  -7    7.70    1.90
   0  14   7    6.80    1.60
   1 -14   7    2.50    1.80
   1 -14   7    5.90    2.10
   1  14   7    6.40    1.60
  -1  14  -7    4.60    1.80
  -1  14  -7    4.90    1.80
  -1  14  -7    6.40    1.90
  -1  15   7    8.40    2.10
   1  15  -7    6.10    2.00
   0  15  -7   12.70    2.30
   0  15   7   16.10    2.20
   5   0  -8    0.10    1.60
   4   0  -8   36.00    2.90
   4   0  -8   34.50    3.60
  -4   0   8   32.90    2.50
  -4   0   8   36.90    2.80
   3   0  -8   89.59    4.20
  -3   0   8   95.09    4.10
   3   0  -8   96.89    4.20
  -3   0   8   84.89    4.00
  -3   0   8   86.49    3.80
  -2   0   8  190.38    6.90
   2   0  -8  191.48    7.20
   2   0  -8  198.68    7.20
  -2   0   8  197.58    7.00
  -2   0   8  203.98    7.10
   1   0  -8 1182.68   39.00
   1   0  -8 1208.98   38.80
  -1   0   8 1202.28   38.90
   1   0  -8 1216.88   38.90
  -1   0   8 1191.78   39.00
  -1   0   8 1224.98   38.70
   1   0  -8 1261.37   39.00
   0   0  -8   78.89    2.80
   0   0   8   76.59    2.90
   0   0   8   77.99    3.00
   0   0  -8   78.79    2.90
   0   0  -8   78.39    2.90
   0   0  -8   79.39    3.00
   0   0   8   76.39    2.90
  -1   0  -8  215.98    7.10
   5  -1  -8    2.50    1.90
   5   1  -8    0.40    1.70
  -4  -1   8   15.90    2.10
   4  -1  -8   14.40    2.10
  -4  -1   8   12.70    1.70
   4  -1  -8    9.50    1.90
   4   1  -8   15.80    2.10
  -4   1   8   15.00    2.10
  -4   1   8   15.90    2.00
   3  -1  -8    8.40    1.50
  -3  -1   8    7.10    1.30
   3  -1  -8    8.00    1.50
  -3  -1   8   10.90    1.40
  -3  -1   8    8.60    1.30
   3   1  -8    8.50    1.40
  -3   1   8    9.50    1.50
  -3   1   8    9.30    1.50
  -3   1   8    8.60    1.40
   3   1  -8    8.70    1.40
   2  -1  -8   81.79    3.50
  -2  -1   8   79.89    3.20
  -2  -1   8   81.69    3.40
  -2  -1   8   81.89    3.40
   2  -1  -8   80.49    3.60
  -2   1   8   78.09    3.30
  -2   1   8   80.99    3.40
  -2   1   8   79.39    3.40
   2   1  -8   76.59    3.40
   2   1  -8   76.29    3.50
  -1  -1   8  352.86   11.70
  -1  -1   8  348.07   11.50
   1  -1  -8  346.97   11.60
  -1  -1   8  352.56   11.70
   1  -1  -8  359.16   11.80
   1  -1  -8  353.76   11.80
  -1  -1   8  343.27   11.80
   1  -1  -8  350.56   11.70
  -1   1   8  335.47   11.60
  -1   1   8  360.66   11.80
   1   1  -8  364.56   11.80
  -1   1   8  348.67   11.50
   1   1  -8  342.97   11.70
   1   1  -8  354.36   11.60
   1   1  -8  342.07   11.80
   0  -1   8  463.25   15.50
   0  -1  -8  463.15   15.40
   0  -1  -8  468.35   15.40
   0  -1   8  474.45   15.40
   0  -1  -8  473.15   15.50
   0  -1   8  491.95   15.50
   0  -1  -8  476.95   15.30
   0   1  -8  471.95   15.50
   0   1   8  474.15   15.40
   0   1   8  490.75   15.30
   0   1   8  464.05   15.40
   0   1  -8  458.55   15.40
   0   1  -8  481.25   15.40
   0   1   8  484.85   15.50
   1  -1   8   82.39    3.00
   1  -1   8   82.19    3.00
   1  -1   8   79.29    2.90
  -1   1  -8   80.69    3.00
  -1   1  -8   81.59    2.90
  -1   1  -8   78.69    3.00
  -2   1  -8   62.09    2.50
  -4   1  -8    4.90    1.10
   5  -2  -8    0.00    1.60
   5   2  -8   -0.80    1.60
  -4  -2   8    2.60    1.30
   4  -2  -8    4.00    1.50
  -4  -2   8    2.70    1.20
   4  -2  -8    6.10    1.80
  -4   2   8    2.50    2.20
   4   2  -8    3.70    1.30
  -4   2   8    4.10    1.60
  -4   2   8    7.50    1.50
  -3  -2   8   38.90    2.50
  -3  -2   8   41.80    2.30
   3  -2  -8   44.20    2.80
   3  -2  -8   44.70    2.80
  -3  -2   8   46.80    2.50
  -3   2   8   40.60    2.70
   3   2  -8   40.90    2.60
   3   2  -8   43.80    2.70
  -3   2   8   41.70    2.50
  -3   2   8   44.50    2.60
   2  -2  -8   72.59    3.60
  -2  -2   8   66.49    4.30
   2  -2  -8   90.09    3.70
  -2  -2   8   79.79    3.50
   2  -2  -8   79.69    3.70
  -2  -2   8   84.59    3.50
  -2  -2   8   82.39    3.30
   2   2  -8   85.39    3.60
  -2   2   8   85.09    3.50
   2   2  -8   84.69    3.60
  -2   2   8   92.69    3.50
  -2   2   8   86.39    3.60
   1  -2  -8  556.24   18.10
  -1  -2   8  565.04   18.20
  -1  -2   8  532.55   18.00
   1  -2  -8  568.74   18.20
   1  -2  -8  540.85   18.00
   1  -2  -8  542.55   17.90
  -1  -2   8  540.35   18.00
  -1   2   8  553.24   18.00
   1   2  -8  557.84   17.90
  -1   2   8  545.75   17.90
  -1   2   8  557.54   18.10
   1   2  -8  547.55   18.10
   1   2  -8  550.54   18.10
   1   2  -8  549.35   18.00
   0  -2   8  249.48    8.40
   0  -2  -8  261.27    8.20
   0  -2  -8  246.38    8.30
   0  -2   8  241.78    8.40
   0  -2   8  242.18    8.30
   0  -2  -8  248.18    8.40
   0  -2   8  248.58    8.40
   0  -2  -8  248.88    8.30
   0   2  -8  251.07    8.40
   0   2   8  244.18    8.30
   0   2   8  247.88    8.30
   0   2   8  250.27    8.20
   0   2  -8  250.17    8.30
   0   2   8  239.08    8.20
   1  -2   8   17.00    1.10
   1  -2   8   15.80    1.10
   1  -2   8   16.20    1.10
   1  -2   8   17.10    1.10
  -1   2  -8   17.80    1.20
  -1   2  -8   17.60    1.10
  -1   2  -8   18.10    1.10
   2  -2   8    9.30    1.00
   2  -2   8    8.40    0.90
  -2   2  -8    8.80    0.90
  -2   2  -8    9.30    0.90
  -2   2  -8    8.20    1.00
  -3   2  -8   13.90    1.50
  -4   2  -8    1.80    1.00
  -4   2  -8   -0.40    1.00
   5  -3  -8    1.60    1.90
   5   3  -8   -2.70    1.40
   4  -3  -8   17.80    2.30
  -4  -3   8   16.00    1.90
   4  -3  -8   12.30    2.20
  -4  -3   8   20.40    2.30
  -4   3   8   15.60    2.10
  -4   3   8   20.50    2.20
   4   3  -8   18.20    2.10
  -4   3   8   20.80    2.50
   3  -3  -8   48.90    3.00
  -3  -3   8   45.50    2.70
   3  -3  -8   47.10    3.10
  -3  -3   8   51.09    2.60
  -3  -3   8   46.80    2.70
  -3   3   8   49.60    2.70
  -3   3   8   50.29    2.90
   3   3  -8   49.70    2.80
   3   3  -8   51.69    2.90
  -3   3   8   47.40    2.90
  -2  -3   8    8.30    1.10
   2  -3  -8    8.90    1.30
  -2  -3   8   10.10    1.20
   2  -3  -8    8.90    1.30
  -2  -3   8    9.60    1.10
   2   3  -8    9.00    1.30
   2   3  -8    9.50    1.20
  -2   3   8    8.90    1.20
  -2   3   8    8.80    1.10
  -2   3   8    9.00    1.20
  -1  -3   8   68.69    2.90
   1  -3  -8   72.69    2.90
   1  -3  -8   66.39    3.00
   1  -3  -8   69.79    2.80
  -1  -3   8   69.49    2.90
  -1  -3   8   70.29    3.00
   1  -3  -8   70.89    3.00
   1   3  -8   65.49    3.00
  -1   3   8   70.49    2.80
   1   3  -8   73.99    3.00
   1   3  -8   70.09    2.90
  -1   3   8   70.19    2.90
   1   3  -8   68.49    2.80
   0  -3   8    2.30    0.60
   0  -3  -8    2.70    0.60
   0  -3   8    1.30    0.60
   0  -3  -8    1.70    0.50
   0  -3   8    1.70    0.50
   0  -3  -8    2.00    0.60
   0  -3  -8    2.00    0.50
   0  -3   8    1.30    0.60
   0   3  -8    1.20    0.60
   0   3  -8    2.70    0.60
   0   3   8    1.70    0.50
   0   3   8    1.80    0.50
   0   3   8    1.80    0.50
   0   3  -8    1.70    0.60
   0   3  -8    1.70    0.60
   0   3   8    2.20    0.60
   1  -3   8  156.68    5.50
   1  -3   8  148.69    5.50
   1  -3   8  155.18    5.50
  -1   3  -8  159.48    5.40
  -1   3  -8  159.78    5.50
  -1   3  -8  158.08    5.50
   2  -3   8   25.10    1.60
   2  -3   8   21.70    1.30
   2  -3   8   21.80    1.40
   2  -3   8   25.90    1.60
  -2   3  -8   21.40    1.40
  -2   3  -8   22.90    1.50
  -2   3  -8   22.80    1.60
   3  -3   8    1.00    0.80
  -3   3  -8   -1.00    0.90
  -4   3  -8   20.10    2.10
  -4   3  -8   28.50    2.30
  -4  -4   8   29.90    2.60
  -4  -4   8   27.10    2.30
   4  -4  -8   21.60    2.60
   4  -4  -8   27.00    2.90
  -4   4   8   24.60    2.70
   4   4  -8   25.80    2.60
  -4   4   8   24.00    2.50
  -4   4   8   21.80    2.40
  -3  -4   8   15.70    1.70
  -3  -4   8   17.60    1.80
  -3  -4   8   15.40    1.50
   3  -4  -8   13.30    1.90
   3  -4  -8   12.60    1.80
   3   4  -8   17.40    1.80
  -3   4   8   15.20    1.80
  -3   4   8   10.90    1.60
  -3   4   8    9.50    1.60
   3   4  -8   12.40    1.60
   2  -4  -8   44.20    2.70
   2  -4  -8   44.30    2.50
  -2  -4   8   45.80    2.30
  -2  -4   8   44.10    2.30
  -2  -4   8   46.10    2.20
  -2   4   8   43.90    2.30
   2   4  -8   44.50    2.40
   2   4  -8   41.50    2.40
  -2   4   8   46.40    2.50
  -2   4   8   46.40    2.50
  -1  -4   8   33.70    1.90
  -1  -4   8   32.60    1.80
   1  -4  -8   27.90    1.70
   1  -4  -8   30.50    1.60
   1  -4  -8   27.70    1.60
  -1  -4   8   27.00    1.70
   1  -4  -8   28.50    1.80
   1   4  -8   30.90    1.60
  -1   4   8   29.50    1.70
   1   4  -8   30.70    1.80
  -1   4   8   29.60    1.60
   1   4  -8   31.10    1.70
   0  -4  -8   69.49    2.80
   0  -4   8   67.39    3.00
   0  -4  -8   69.19    2.80
   0  -4  -8   74.39    2.90
   0  -4   8   72.29    2.90
   0  -4  -8   74.39    2.70
   0   4   8   72.99    2.80
   0   4  -8   74.29    3.00
   0   4  -8   69.89    3.00
   0   4   8   71.19    2.80
   0   4  -8   70.59    2.90
   0   4   8   73.89    2.80
   0   4   8   71.69    2.80
   1  -4   8   43.30    2.10
   1  -4   8   46.30    2.10
  -1   4  -8   47.00    2.20
  -1   4  -8   46.80    2.20
  -1   4  -8   42.40    2.10
   2  -4   8  106.89    4.30
   2  -4   8  116.89    4.50
   2  -4   8  113.59    4.40
  -2   4  -8  117.49    4.40
  -2   4  -8  107.49    4.30
  -2   4  -8  112.69    4.20
   3  -4   8   20.70    1.80
  -3   4  -8   19.30    1.90
   4  -4   8   15.30    1.80
  -4   4  -8   15.90    1.90
  -4   4  -8   14.10    1.90
   4  -5  -8   11.80    2.10
   4  -5  -8    8.40    2.00
  -4  -5   8   11.90    1.90
  -4  -5   8    9.30    1.60
  -4   5   8   11.80    1.90
  -4   5   8   13.50    2.00
   4   5  -8   11.60    1.90
  -4   5   8   11.60    2.20
  -3  -5   8   30.80    2.00
   3  -5  -8   25.40    2.60
  -3  -5   8   27.60    2.10
  -3  -5   8   32.90    2.30
   3  -5  -8   29.40    2.60
  -3   5   8   30.20    2.40
  -3   5   8   32.30    2.60
  -3   5   8   32.90    2.50
   3   5  -8   28.00    2.30
   3   5  -8   29.30    2.30
  -2  -5   8  176.78    6.50
  -2  -5   8  169.78    6.40
   2  -5  -8  177.48    6.70
   2  -5  -8  173.38    6.80
  -2   5   8  180.18    6.50
   2   5  -8  184.98    6.60
  -2   5   8  179.48    6.60
   2   5  -8  170.68    6.60
  -2   5   8  166.68    6.60
  -1  -5   8   33.20    1.90
   1  -5  -8   32.10    1.90
   1  -5  -8   33.00    1.80
   1  -5  -8   35.00    1.80
  -1  -5   8   31.30    1.80
   1  -5  -8   29.90    1.90
   1   5  -8   33.00    1.90
   1   5  -8   36.00    2.00
  -1   5   8   33.80    1.70
  -1   5   8   33.50    1.90
  -1   5   8   33.60    1.90
   0  -5  -8   50.79    2.20
   0  -5  -8   54.09    2.20
   0  -5   8   52.89    2.40
   0  -5  -8   52.29    2.30
   0  -5  -8   53.39    2.40
   0  -5   8   48.60    2.50
   0   5  -8   52.09    2.50
   0   5   8   53.29    2.20
   0   5   8   51.89    2.20
   0   5  -8   51.29    2.40
   0   5  -8   51.79    2.40
   0   5   8   50.79    2.20
   1  -5   8   61.09    3.10
   1  -5   8   70.99    3.10
  -1   5  -8   73.09    2.90
  -1   5  -8   71.59    3.00
   2  -5   8    8.70    1.30
   2  -5   8    9.40    1.40
  -2   5  -8    6.40    1.10
  -2   5  -8    7.30    1.10
  -2   5  -8    9.50    1.30
   3  -5   8    7.30    1.30
  -3   5  -8    8.20    1.50
   4  -5   8    2.30    1.30
  -4   5  -8    0.20    1.30
  -4   5  -8    3.70    1.40
   4  -6  -8   13.40    2.30
   4  -6  -8   16.20    2.40
  -4  -6   8   15.40    1.90
  -4  -6   8   12.30    2.00
  -4   6   8   11.00    1.90
  -4   6   8   12.00    2.10
   4   6  -8   13.20    2.00
  -4   6   8   15.20    2.40
   3  -6  -8   11.50    1.90
   3  -6  -8   16.30    2.10
  -3  -6   8   11.00    1.60
  -3  -6   8   17.00    1.90
   3   6  -8   12.00    1.70
  -3   6   8   13.90    1.80
   3   6  -8   13.20    1.80
  -3   6   8   16.30    2.10
  -3   6   8   13.90    1.80
  -2  -6   8    8.10    1.30
   2  -6  -8    9.20    1.40
  -2  -6   8    7.50    1.30
   2  -6  -8    9.90    1.60
  -2   6   8    8.20    1.40
  -2   6   8    9.80    1.50
  -2   6   8   10.80    1.30
   2   6  -8    8.80    1.30
   2   6  -8    9.60    1.40
   1  -6  -8  310.97   10.60
  -1  -6   8  305.37   10.60
   1  -6  -8  300.37   10.60
   1  -6  -8  323.87   10.90
  -1  -6   8  318.27   10.80
  -1   6   8  306.87   10.50
   1   6  -8  319.27   10.80
  -1   6   8  316.67   10.70
   1   6  -8  310.77   10.80
  -1   6   8  313.77   10.70
   0  -6  -8  139.59    5.10
   0  -6   8  145.29    5.40
   0  -6  -8  136.19    5.00
   0  -6   8  136.99    5.20
   0  -6  -8  143.79    5.20
   0  -6  -8  138.39    5.00
   0   6  -8  144.89    5.30
   0   6   8  138.19    5.10
   0   6   8  139.09    5.10
   0   6  -8  137.19    5.30
   0   6   8  147.19    5.10
   1  -6   8    3.70    1.00
   1  -6   8    4.40    1.10
  -1   6  -8    3.20    0.90
  -1   6  -8    5.70    1.00
   2  -6   8    8.00    1.30
   2  -6   8    9.90    1.50
  -2   6  -8    9.30    1.30
  -2   6  -8    7.10    1.40
  -2   6  -8    6.20    1.10
   3  -6   8   52.39    3.10
  -3   6  -8   51.79    3.10
   4  -6   8   19.50    2.30
  -4   6  -8   26.10    2.80
   4  -7  -8   48.50    3.70
   4  -7  -8   37.80    3.40
  -4  -7   8   38.30    3.00
  -4   7   8   38.70    3.20
  -4   7   8   35.40    3.30
   4   7  -8   36.70    3.00
  -4   7   8   42.60    3.40
   3  -7  -8   -0.80    1.10
   3  -7  -8    0.90    1.20
  -3  -7   8   -0.60    1.10
  -3   7   8    1.50    1.10
  -3   7   8    0.10    1.20
   3   7  -8   -2.20    1.00
  -3   7   8   -0.80    1.00
   3   7  -8   -0.90    1.00
   2  -7  -8  303.57   11.50
  -2  -7   8  322.77   11.20
  -2  -7   8  316.87   11.00
   2  -7  -8  319.57   11.40
  -2   7   8  313.17   11.30
  -2   7   8  325.27   11.10
  -2   7   8  323.87   11.30
   2   7  -8  312.37   11.10
   2   7  -8  317.77   11.20
   2   7  -8  327.37   11.20
   1  -7  -8    0.40    0.70
  -1  -7   8   -0.90    0.80
   1  -7  -8    0.50    0.60
  -1  -7   8    1.50    0.90
  -1   7   8    0.40    0.70
   1   7  -8    0.60    0.80
   1   7  -8   -0.20    0.80
  -1   7   8    0.30    0.70
  -1   7   8   -0.90    0.50
   0  -7  -8   97.19    3.80
   0  -7  -8  102.69    4.10
   0  -7  -8   98.39    3.80
   0  -7   8  101.49    4.20
   0  -7  -8   99.79    4.00
   0  -7   8  102.69    4.10
   0   7  -8   99.89    4.20
   0   7   8  107.69    3.90
   0   7   8  101.19    3.90
   0   7   8   95.49    3.90
   0   7  -8  101.09    4.20
  -1  -7  -8   26.60    1.40
  -1  -7  -8   27.40    1.40
   1  -7   8   26.30    2.00
   1  -7   8   29.20    2.20
  -1   7  -8   26.90    2.10
  -1   7  -8   28.20    2.00
   2  -7   8    9.20    1.60
   2  -7   8    6.70    1.50
  -2   7  -8    8.50    1.40
  -2   7  -8    9.20    1.50
   3  -7   8    0.40    1.20
  -3   7  -8    2.70    1.30
   4  -7   8   13.60    2.20
   4  -8  -8    7.70    2.10
   4  -8  -8    3.90    2.00
  -4   8   8    4.60    1.80
  -4   8   8    4.40    1.70
   4   8  -8    3.20    1.50
  -3  -8   8    0.10    1.10
   3  -8  -8   -0.20    1.20
   3  -8  -8   -1.10    1.20
  -3   8   8   -0.50    1.20
  -3   8   8    2.20    1.30
  -3   8   8    0.40    1.00
   3   8  -8    0.70    1.10
   2  -8  -8   13.40    1.80
   2  -8  -8   17.40    2.10
  -2  -8   8   13.20    1.60
  -2  -8   8   13.90    1.70
   2   8  -8   13.70    1.70
  -2   8   8   14.80    1.80
  -2   8   8   12.30    1.50
   2   8  -8   11.90    1.60
  -2   8   8   13.70    1.80
  -1  -8   8   29.50    2.20
  -1  -8   8   27.10    2.10
   1  -8  -8   27.80    2.20
   1  -8  -8   23.40    1.70
   1  -8  -8   27.90    2.00
  -1   8   8   28.70    2.00
  -1   8   8   26.40    2.00
   1   8  -8   24.20    2.00
   1   8  -8   26.80    2.10
  -1   8   8   27.90    1.70
   0  -8  -8    1.30    0.60
   0  -8   8    0.70    1.00
   0  -8  -8    2.60    1.00
   0  -8  -8    2.30    0.70
   0  -8  -8    1.80    0.70
   0  -8  -8    0.80    0.60
   0  -8   8    1.20    0.90
   0   8  -8    3.10    1.00
   0   8   8    1.30    0.70
   0   8   8    1.50    0.70
   0   8  -8    0.50    0.90
   0   8   8    2.00    0.70
   1  -8   8    7.00    1.50
   1  -8   8   11.60    1.70
  -1  -8  -8   13.10    1.30
  -1   8  -8    9.00    1.50
  -1   8  -8    6.70    1.40
   2  -8   8   11.50    1.80
   2  -8   8    9.80    1.70
  -2   8  -8    9.50    1.60
  -2   8  -8    9.80    1.60
   3  -8   8   80.09    4.30
  -3   8  -8   80.09    4.20
   4  -8   8    4.60    1.80
   4  -9  -8   -0.60    1.60
   4  -9  -8    2.60    1.80
   4   9  -8    1.70    1.60
  -4   9   8    0.40    1.50
   3  -9  -8    3.00    1.40
   3  -9  -8    2.50    1.60
  -3  -9   8    3.00    1.30
   3   9  -8    2.70    1.30
  -3   9   8    3.60    1.40
  -3   9   8    2.00    1.30
   2  -9  -8   36.00    2.70
  -2  -9   8   35.80    2.50
   2  -9  -8   34.90    3.00
  -2  -9   8   39.70    2.60
   2   9  -8   38.90    2.60
  -2   9   8   39.80    2.70
   2   9  -8   39.60    2.60
  -2   9   8   37.30    2.70
  -1  -9   8   11.80    1.70
   1  -9  -8   10.00    1.60
   1  -9  -8   10.80    1.70
  -1  -9   8   11.10    1.70
  -1   9   8   11.10    1.60
  -1   9   8   10.60    1.50
   1   9  -8    7.90    1.50
   1   9  -8    8.10    1.50
   0  -9   8   76.19    3.70
   0  -9   8   76.49    3.70
   0  -9  -8   72.49    3.50
   0  -9  -8   59.49    3.30
   0  -9  -8   69.89    3.30
   0   9   8   72.89    3.30
   0   9  -8   71.09    3.60
   0   9   8   72.79    3.20
   0   9  -8   75.89    3.60
   1  -9   8   34.20    2.80
  -1  -9  -8   39.50    2.30
   1  -9   8   39.00    2.80
   1   9   8   39.00    2.10
  -1   9  -8   44.80    2.70
  -1   9  -8   35.60    2.60
   2  -9   8   18.30    2.20
   2  -9   8   15.10    2.00
  -2   9  -8   12.80    1.90
  -2   9  -8   15.20    2.00
  -2   9  -8   12.90    1.90
   3  -9   8    2.20    1.50
  -3   9  -8    0.70    1.40
  -3 -10   8   21.30    2.20
   3 -10  -8   22.60    2.90
   3 -10  -8   24.10    3.00
  -3  10   8   22.20    2.60
  -3  10   8   25.00    2.90
   3  10  -8   23.70    2.60
  -2 -10   8    3.00    1.30
   2 -10  -8    4.40    1.50
  -2 -10   8    3.10    1.30
   2 -10  -8    4.80    1.60
   2  10  -8    4.20    1.40
  -2  10   8    5.80    1.50
  -2  10   8    4.60    1.30
   2  10  -8    3.80    1.30
  -1 -10   8   13.60    1.80
   1 -10  -8   11.30    1.60
   1 -10  -8   15.10    2.00
  -1 -10   8   12.20    1.80
   1  10  -8   11.70    1.70
   1  10  -8   10.60    1.60
  -1  10   8   10.10    1.60
  -1  10   8   14.50    1.80
   0 -10   8   82.59    4.00
   0 -10   8   77.29    4.00
   0 -10  -8   82.59    3.90
   0  10   8   78.89    4.00
   0  10  -8   77.99    3.90
   0  10   8   73.89    3.60
   0  10  -8   79.89    3.90
  -1 -10  -8    6.40    1.30
   1 -10   8    5.10    1.60
   1 -10   8    4.40    1.60
  -1  10  -8    5.40    1.50
   1  10   8    6.50    1.10
  -1  10  -8    7.80    1.60
   2 -10   8   24.90    2.70
   2 -10   8   25.00    2.80
  -2  10  -8   26.60    2.60
  -2  10  -8   21.00    2.30
  -2  10  -8   25.60    2.70
   3 -10   8    5.60    1.80
   3 -11  -8    3.20    1.70
   3 -11  -8    6.60    2.00
   3  11  -8    4.80    1.60
  -3  11   8    4.10    1.70
  -3  11   8    4.40    1.70
  -2 -11   8    9.30    1.70
   2 -11  -8    9.80    2.00
   2 -11  -8   17.90    2.60
  -2  11   8   14.40    2.10
   2  11  -8    8.90    1.80
  -2  11   8    9.60    1.80
   1 -11  -8    2.80    1.30
  -1 -11   8    2.70    1.30
   1 -11  -8    1.60    1.40
  -1 -11   8    1.00    1.20
   1  11  -8    1.90    1.30
   1  11  -8    1.40    1.20
  -1  11   8    0.50    1.10
  -1  11   8    3.20    1.10
   0 -11  -8    7.60    1.50
   0 -11   8    7.70    1.70
   0 -11   8    8.70    1.70
   0  11  -8    6.90    1.60
   0  11  -8    8.30    1.60
   0  11   8   13.40    1.70
   1 -11   8   59.09    3.70
   1 -11   8   58.89    3.70
  -1 -11  -8   60.69    3.20
  -1  11  -8   55.69    3.50
   1  11   8   58.29    2.90
  -1  11  -8   55.89    3.50
   2 -11   8    4.20    1.70
   2 -11   8    5.60    1.80
  -2  11  -8    3.70    1.90
  -2  11  -8    2.40    1.70
  -2  11  -8    7.20    1.80
   3 -11   8    1.50    1.80
   3 -12  -8   16.80    2.70
   3  12  -8   15.30    2.40
  -3  12   8   12.90    2.30
  -3  12   8   27.30    3.10
   2 -12  -8    0.10    1.40
   2 -12  -8    4.30    1.70
  -2 -12   8    1.30    1.40
   2  12  -8    1.00    1.40
  -2  12   8    0.40    1.30
  -2  12   8    2.90    1.50
   1 -12  -8    1.20    1.30
  -1 -12   8    1.80    1.40
  -1 -12   8    2.70    1.50
   1  12  -8    0.80    1.30
   1  12  -8    2.50    1.50
  -1  12   8    2.10    1.30
   0 -12  -8   -1.20    1.10
   0 -12   8    3.10    1.50
   0 -12   8   -0.70    1.20
   0  12  -8   -0.40    1.20
   0  12  -8    1.50    1.40
   0  12   8   -0.40    1.10
   1 -12   8   19.20    2.50
   1 -12   8   12.60    2.30
  -1 -12  -8   19.10    2.10
   1  12   8   18.10    1.90
  -1  12  -8   14.90    2.10
  -1  12  -8   20.60    2.50
   2 -12   8   -2.80    2.20
   2 -12   8    4.20    1.90
  -2  12  -8    3.10    1.80
  -2  13   8   14.90    2.40
   2  13  -8    7.20    1.90
  -1 -13   8    1.30    1.50
   1 -13  -8    0.50    1.30
  -1 -13   8    1.90    2.00
   1  13  -8   -1.10    1.30
   1  13  -8    1.40    1.40
  -1  13   8    1.70    1.30
   0 -13   8    1.50    1.40
   0 -13  -8    0.50    1.30
   0 -13   8    2.00    1.60
   0  13   8    0.70    1.20
   0  13  -8    0.10    1.40
   0  13  -8    3.20    1.50
   1 -13   8   59.69    4.10
  -1 -13  -8   61.49    3.50
   1 -13   8   65.39    4.20
  -1  13  -8   54.89    3.90
  -1  13  -8   64.19    3.90
   1  13   8   59.39    3.20
   2 -13   8    8.20    2.20
  -2 -13  -8    9.10    1.60
   1  14  -8   -0.90    1.40
  -1  14   8    2.20    1.40
   0 -14   8    6.50    2.00
   0 -14   8   10.80    2.30
   0  14  -8    8.60    2.10
   0  14  -8    7.90    2.00
   0  14   8   12.00    1.90
   1 -14   8    3.80    1.90
   1 -14   8    1.90    1.80
  -1  14  -8    2.90    1.70
   1  14   8    1.70    1.20
  -1  14  -8   -0.30    1.60
  -1  14  -8    4.20    1.80
   0 -15   8    5.10    2.00
   5   0  -9   -1.90    1.40
   4   0  -9   -0.80    1.30
   4   0  -9    0.40    1.30
  -4   0   9    0.80    1.20
  -4   0   9   -0.20    1.10
  -3   0   9    6.50    1.40
   3   0  -9    4.90    1.30
  -3   0   9    6.90    1.20
   3   0  -9    7.40    1.50
  -3   0   9    8.60    1.30
   2   0  -9   -0.30    0.60
   2   0  -9    0.90    0.90
  -2   0   9   -0.80    0.60
  -2   0   9   -0.90    0.50
  -2   0   9   -0.50    0.70
  -1   0   9   29.90    1.70
   1   0  -9   33.00    1.60
  -1   0   9   35.30    1.90
   1   0  -9   31.80    1.80
   1   0  -9   31.20    1.70
  -1   0   9   37.20    1.80
   1   0  -9   33.90    1.90
  -1   0   9   33.90    1.60
   0   0   9   -0.10    0.50
   0   0  -9    0.20    0.40
   0   0   9   -0.30    0.40
   0   0  -9   -0.40    0.40
   0   0   9   -0.20    0.40
   0   0  -9   -0.30    0.50
   0   0  -9   -0.60    0.40
   0   0   9   -0.70    0.30
  -1   0  -9   26.50    1.20
  -1   0  -9   23.10    1.20
   5  -1  -9    0.60    1.70
   5   1  -9    3.40    1.70
   4  -1  -9    1.00    1.40
   4  -1  -9    2.30    1.50
  -4  -1   9    1.20    1.30
  -4  -1   9    1.40    1.20
  -4   1   9    2.80    1.20
  -4   1   9    1.50    1.40
   4   1  -9    4.00    1.50
  -3  -1   9   14.60    1.70
  -3  -1   9   14.30    1.70
   3  -1  -9   15.50    1.90
  -3  -1   9   13.50    1.50
   3  -1  -9   13.40    1.90
  -3   1   9   14.80    1.80
   3   1  -9   16.30    2.00
   3   1  -9   13.40    1.70
  -3   1   9   14.80    1.60
  -3   1   9   11.70    1.70
   2  -1  -9   52.29    2.70
  -2  -1   9   49.80    2.40
  -2  -1   9   55.79    2.60
  -2  -1   9   51.99    2.60
   2  -1  -9   51.29    2.80
   2   1  -9   50.39    2.60
  -2   1   9   55.29    2.60
  -2   1   9   50.99    2.60
   2   1  -9   53.59    2.70
  -2   1   9   53.49    2.50
   1  -1  -9   86.49    3.50
   1  -1  -9   88.29    3.70
  -1  -1   9   89.09    3.30
  -1  -1   9   95.89    3.50
   1  -1  -9   86.59    3.40
  -1  -1   9   91.69    3.70
   1  -1  -9   92.69    3.60
  -1  -1   9   89.19    3.60
   1   1  -9   92.99    3.40
   1   1  -9   90.49    3.70
   1   1  -9   91.19    3.60
  -1   1   9   90.99    3.40
  -1   1   9   88.89    3.80
  -1   1   9   91.19    3.50
   1   1  -9   89.49    3.60
   0  -1   9  645.24   21.40
   0  -1  -9  654.53   21.30
   0  -1  -9  653.03   21.40
   0  -1   9  649.54   21.20
   0  -1  -9  656.33   21.30
   0  -1  -9  676.23   21.20
   0  -1   9  654.73   21.40
   0   1  -9  660.33   21.30
   0   1   9  666.23   21.30
   0   1   9  686.13   21.40
   0   1   9  663.33   21.20
   0   1   9  658.43   21.30
   0   1  -9  636.24   21.40
   0   1  -9  668.93   21.20
   0   1  -9  656.53   21.40
   1  -1   9   88.39    3.30
   1  -1   9   92.59    3.40
  -1   1  -9   93.89    3.30
  -1   1  -9   92.19    3.30
  -1   1  -9   91.89    3.40
  -4   1  -9    1.80    1.00
   5  -2  -9   12.90    2.50
   5   2  -9    9.50    2.10
   4  -2  -9    2.50    1.50
   4  -2  -9    1.50    1.50
  -4  -2   9    2.60    1.40
  -4  -2   9    1.70    1.20
  -4   2   9    2.80    1.50
  -4   2   9    2.50    1.30
  -4   2   9    2.00    1.40
   4   2  -9    1.40    1.20
  -3  -2   9   87.89    3.90
   3  -2  -9   93.59    4.30
  -3  -2   9   92.59    4.10
  -3  -2   9   90.29    4.10
   3  -2  -9   95.79    4.50
  -3   2   9   91.79    4.00
  -3   2   9   94.79    4.20
   3   2  -9   93.29    4.20
   3   2  -9   92.39    4.20
  -3   2   9   87.39    4.20
   2  -2  -9  175.58    6.80
  -2  -2   9  186.28    6.60
  -2  -2   9  171.38    6.50
  -2  -2   9  177.78    6.30
   2  -2  -9  184.48    6.70
  -2   2   9  179.58    6.60
  -2   2   9  179.28    6.60
  -2   2   9  173.48    6.40
   2   2  -9  176.58    6.60
   2   2  -9  179.08    6.60
   1  -2  -9   12.40    1.30
  -1  -2   9   12.30    1.10
   1  -2  -9   12.20    1.10
  -1  -2   9   14.40    1.30
   1  -2  -9   12.10    1.30
   1  -2  -9   12.20    1.10
  -1  -2   9   16.20    1.70
   1   2  -9   12.70    1.10
  -1   2   9   12.40    1.00
   1   2  -9   13.70    1.00
   1   2  -9   11.60    1.30
   1   2  -9   12.40    1.30
  -1   2   9   13.50    1.20
   0  -2   9  235.18    7.90
   0  -2  -9  234.58    7.90
   0  -2  -9  237.78    7.80
   0  -2  -9  234.88    7.90
   0  -2   9  236.48    8.00
   0  -2   9  232.38    8.10
   0  -2  -9  233.18    8.00
   0  -2   9  222.88    8.00
   0   2   9  238.38    7.80
   0   2   9  229.88    7.90
   0   2  -9  235.58    8.10
   0   2  -9  238.98    8.00
   0   2  -9  228.28    8.00
   0   2   9  246.98    8.00
   0   2   9  238.28    7.90
   1  -2   9   36.20    1.90
   1  -2   9   38.40    1.70
   1  -2   9   37.70    1.80
   1  -2   9   36.70    1.70
  -1   2  -9   38.40    1.70
  -1   2  -9   45.10    1.90
  -1   2  -9   38.20    1.80
   2  -2   9    1.00    0.60
  -2   2  -9    0.10    0.50
  -2   2  -9   -0.50    0.60
  -2   2  -9   -0.20    0.60
  -4   2  -9    1.10    1.10
   4  -3  -9    1.60    1.50
  -4  -3   9    0.40    1.20
   4  -3  -9   -0.40    1.40
  -4  -3   9    0.50    1.10
  -4   3   9    1.70    1.30
   4   3  -9   -1.60    1.10
  -4   3   9    2.90    1.40
  -4   3   9    0.80    1.30
  -3  -3   9  119.99    4.90
   3  -3  -9  113.09    5.10
  -3  -3   9  111.49    4.50
  -3  -3   9  112.89    4.70
   3  -3  -9  110.29    5.00
  -3   3   9  109.29    5.00
  -3   3   9  114.79    4.90
   3   3  -9  107.09    4.80
  -3   3   9  102.89    4.60
   3   3  -9  114.69    4.90
   2  -3  -9   30.50    2.10
  -2  -3   9   29.70    1.80
  -2  -3   9   33.00    2.00
  -2  -3   9   32.20    2.00
   2  -3  -9   28.80    2.20
   2   3  -9   35.70    2.20
  -2   3   9   32.00    2.00
  -2   3   9   28.50    1.80
   2   3  -9   31.00    2.00
  -2   3   9   28.50    2.00
   1  -3  -9  146.39    5.40
   1  -3  -9  143.29    5.50
  -1  -3   9  147.79    5.30
   1  -3  -9  142.69    5.30
   1  -3  -9  140.69    5.30
  -1  -3   9  150.58    5.40
  -1   3   9  147.19    5.40
  -1   3   9  150.08    5.20
   1   3  -9  149.49    5.40
   1   3  -9  147.59    5.40
   1   3  -9  143.79    5.20
   1   3  -9  147.39    5.50
   0  -3   9  170.48    6.40
   0  -3  -9  198.78    6.30
   0  -3  -9  193.18    6.50
   0  -3  -9  188.58    6.40
   0  -3  -9  187.68    6.40
   0  -3   9  180.78    6.50
   0  -3   9  187.68    6.60
   0   3   9  188.38    6.40
   0   3   9  190.08    6.40
   0   3   9  190.78    6.30
   0   3  -9  155.38    6.50
   0   3  -9  190.98    6.60
   0   3   9  184.58    6.40
   0   3  -9  193.48    6.50
   1  -3   9   88.79    3.60
   1  -3   9   89.49    3.50
   1  -3   9   94.09    3.50
  -1   3  -9   90.79    3.60
  -1   3  -9   92.79    3.60
  -1   3  -9   96.29    3.50
   2  -3   9  101.99    4.00
   2  -3   9  114.89    4.20
  -2   3  -9  102.09    4.10
  -2   3  -9  104.89    4.00
  -2   3  -9  113.09    4.20
   3  -3   9    2.20    0.90
  -3   3  -9    1.90    1.00
  -4   3  -9    2.80    1.20
  -4  -4   9    8.40    1.70
   4  -4  -9   10.90    2.00
  -4  -4   9    7.10    1.50
   4  -4  -9    8.40    1.90
   4   4  -9    9.90    1.70
  -4   4   9    7.60    1.60
  -4   4   9    4.10    1.70
  -4   4   9    9.00    1.70
   3  -4  -9   -0.50    1.20
   3  -4  -9    0.10    1.10
  -3  -4   9    1.60    1.00
  -3  -4   9   -0.50    0.90
  -3  -4   9    2.30    1.10
  -3   4   9    1.00    1.10
  -3   4   9    1.20    1.10
   3   4  -9    1.20    1.10
   3   4  -9   -0.10    1.10
  -3   4   9    0.90    1.00
  -2  -4   9  243.98    8.70
   2  -4  -9  249.97    9.10
   2  -4  -9  242.48    9.00
  -2  -4   9  245.78    8.80
   2   4  -9  257.87    8.90
  -2   4   9  253.67    8.90
   2   4  -9  252.57    8.90
  -2   4   9  245.68    8.90
  -2   4   9  238.38    8.70
  -1  -4   9  141.29    5.40
   1  -4  -9  147.09    5.30
   1  -4  -9  138.09    5.50
  -1  -4   9  157.18    5.40
   1  -4  -9  148.89    5.50
   1  -4  -9  142.19    5.30
  -1   4   9  133.39    5.30
  -1   4   9  146.39    5.20
   1   4  -9  148.29    5.50
  -1   4   9  144.69    5.40
   1   4  -9  143.19    5.40
   1   4  -9  145.79    5.20
   0  -4  -9  779.32   25.20
   0  -4   9  774.92   25.20
   0  -4  -9  771.72   25.30
   0  -4  -9  758.02   25.20
   0  -4   9  788.32   25.40
   0  -4  -9  774.72   25.10
   0   4  -9  787.12   25.40
   0   4   9  801.52   25.20
   0   4  -9  768.02   25.40
   0   4  -9  785.52   25.30
   0   4   9  791.52   25.20
   0   4   9  790.02   25.20
   0   4   9  783.52   25.20
   1  -4   9   15.90    1.30
   1  -4   9   15.60    1.20
  -1   4  -9   12.90    1.20
  -1   4  -9   16.30    1.40
  -1   4  -9   20.40    1.40
   2  -4   9   35.00    2.10
   2  -4   9   40.30    2.30
  -2   4  -9   37.80    2.00
  -2   4  -9   39.90    2.20
   3  -4   9    9.00    1.30
  -3   4  -9    8.40    1.40
  -4   4  -9    3.90    1.30
   4  -5  -9    6.60    1.90
  -4  -5   9    7.10    1.50
  -4  -5   9    5.90    1.60
   4  -5  -9   12.80    2.30
  -4   5   9   10.20    1.90
  -4   5   9    6.30    1.80
  -4   5   9    8.00    1.70
   4   5  -9    8.40    1.90
  -3  -5   9  117.39    4.90
   3  -5  -9  117.39    5.30
  -3  -5   9  108.39    4.80
  -3  -5   9  122.09    4.70
   3  -5  -9  116.29    5.30
  -3   5   9  114.29    4.90
  -3   5   9  116.29    5.20
   3   5  -9  119.39    5.00
  -3   5   9  110.69    5.10
   3   5  -9  106.99    4.90
   2  -5  -9   40.80    2.40
  -2  -5   9   37.20    2.20
   2  -5  -9   36.60    2.60
  -2  -5   9   35.40    2.30
  -2   5   9   37.40    2.10
  -2   5   9   36.10    2.40
   2   5  -9   35.60    2.40
  -2   5   9   35.50    2.30
   2   5  -9   39.40    2.30
  -1  -5   9   24.30    1.70
   1  -5  -9   21.80    1.60
  -1  -5   9   19.70    1.50
   1  -5  -9   18.80    1.40
   1  -5  -9   21.60    1.40
   1   5  -9   20.80    1.70
  -1   5   9   21.30    1.60
  -1   5   9   23.20    1.40
  -1   5   9   19.50    1.50
   1   5  -9   22.40    1.60
   0  -5  -9  148.69    5.30
   0  -5  -9  149.88    5.40
   0  -5   9  152.68    5.60
   0  -5  -9  158.58    5.60
   0  -5  -9  148.29    5.30
   0  -5   9  148.19    5.50
   0   5   9  147.49    5.40
   0   5  -9  155.38    5.60
   0   5   9  151.48    5.30
   0   5  -9  154.68    5.50
   0   5  -9  144.79    5.60
   0   5   9  150.18    5.30
   1  -5   9    0.70    0.60
   1  -5   9    0.10    0.40
  -1   5  -9   -0.30    0.60
  -1   5  -9   -1.30    0.60
   2  -5   9   27.10    2.10
   2  -5   9   30.00    2.00
  -2   5  -9   26.10    1.80
  -2   5  -9   28.50    1.90
  -2   5  -9   28.30    2.00
   3  -5   9    2.70    1.20
  -3   5  -9    2.40    1.20
   4  -5   9   -0.40    1.10
  -4   5  -9    1.20    1.40
   4  -6  -9    1.60    1.50
   4  -6  -9    1.70    1.50
  -4  -6   9    1.30    1.40
  -4  -6   9    1.00    1.20
  -4   6   9    1.00    1.40
  -4   6   9    0.40    1.50
   4   6  -9    3.00    1.50
  -4   6   9    0.80    1.20
   3  -6  -9   20.30    2.40
  -3  -6   9   24.50    2.10
  -3  -6   9   24.00    2.10
   3  -6  -9   18.50    2.20
  -3   6   9   23.80    2.50
   3   6  -9   14.60    1.90
  -3   6   9   18.20    2.00
  -3   6   9   18.90    2.20
   3   6  -9   26.40    2.30
  -2  -6   9   64.99    3.20
  -2  -6   9   64.09    3.10
   2  -6  -9   65.09    3.30
   2  -6  -9   63.79    3.50
   2   6  -9   61.09    3.20
  -2   6   9   60.29    3.20
  -2   6   9   58.99    3.20
   2   6  -9   60.99    3.20
  -2   6   9   53.69    2.90
   1  -6  -9   19.90    1.50
  -1  -6   9   21.00    1.70
  -1  -6   9   20.30    1.90
   1  -6  -9   19.40    1.40
   1  -6  -9   22.10    1.70
  -1   6   9   22.10    1.70
  -1   6   9   20.80    1.60
   1   6  -9   23.10    1.80
  -1   6   9   19.40    1.40
   1   6  -9   21.00    1.80
   1   6  -9   23.20    1.80
   0  -6   9    1.60    0.80
   0  -6   9    2.00    0.80
   0  -6  -9    1.80    0.80
   0  -6  -9    1.60    0.50
   0  -6  -9    1.10    0.50
   0  -6  -9    1.30    0.50
   0   6   9    0.80    0.50
   0   6  -9    0.80    0.80
   0   6   9    1.70    0.60
   0   6  -9    1.70    0.80
   0   6   9    2.00    0.60
   1  -6   9   68.89    3.30
   1  -6   9   66.39    3.20
  -1   6  -9   71.59    3.20
   2  -6   9   22.90    2.00
   2  -6   9   19.10    1.90
  -2   6  -9   20.20    1.80
  -2   6  -9   22.70    2.00
   3  -6   9    8.50    1.60
  -3   6  -9   10.70    1.70
   4  -6   9    1.50    1.40
   4  -7  -9   21.00    2.90
  -4  -7   9   17.80    2.60
   4  -7  -9   15.40    2.60
   4   7  -9   16.90    2.30
  -4   7   9   16.30    2.50
  -4   7   9   17.90    2.40
  -4   7   9   15.90    3.60
  -3  -7   9    0.20    1.10
   3  -7  -9    2.80    1.30
   3  -7  -9    2.00    1.50
   3   7  -9    0.70    1.20
   3   7  -9    0.80    1.10
  -3   7   9    2.20    1.20
  -3   7   9    0.40    1.10
  -3   7   9    1.20    1.20
   2  -7  -9   66.99    3.70
   2  -7  -9   64.09    3.50
  -2  -7   9   64.59    3.30
  -2  -7   9   66.79    3.20
  -2   7   9   68.89    3.50
   2   7  -9   61.79    3.30
   2   7  -9   64.49    3.30
   2   7  -9   61.09    3.30
  -2   7   9   61.29    3.40
   1  -7  -9   42.20    2.20
  -1  -7   9   44.90    2.60
  -1  -7   9   42.60    2.50
   1  -7  -9   45.20    2.50
  -1   7   9   41.40    2.10
   1   7  -9   41.50    2.50
  -1   7   9   42.60    2.40
   1   7  -9   45.60    2.60
  -1   7   9   47.50    2.50
   0  -7  -9   27.90    1.70
   0  -7   9   28.60    2.10
   0  -7   9   32.60    2.20
   0  -7  -9   29.70    1.70
   0  -7  -9   30.90    2.00
   0  -7  -9   28.20    1.70
   0   7   9   28.80    1.70
   0   7  -9   28.00    2.10
   0   7   9   31.20    1.70
   0   7  -9   30.60    2.10
   0   7   9   30.10    1.80
  -1  -7  -9   14.20    1.10
   1  -7   9   15.60    1.80
   1  -7   9   15.90    1.80
  -1   7  -9   14.90    1.60
  -1   7  -9   15.90    1.70
   2  -7   9    4.40    1.30
   2  -7   9    6.30    1.40
  -2   7  -9    2.20    1.10
  -2   7  -9    3.00    1.20
   3  -7   9   10.10    1.80
  -3   7  -9   15.10    2.00
   4  -7   9   13.10    2.00
   4  -8  -9    7.30    2.00
   4  -8  -9    6.10    2.20
   4   8  -9    8.80    1.80
  -4   8   9    6.20    1.90
  -4   8   9   11.60    3.60
   4   8  -9    4.30    1.70
   3  -8  -9    5.10    1.60
   3  -8  -9    1.80    1.50
  -3  -8   9    4.80    1.40
   3   8  -9    2.10    1.30
  -3   8   9    1.90    1.40
   3   8  -9    6.60    1.60
  -3   8   9    1.20    1.30
   2  -8  -9   29.20    2.60
  -2  -8   9   27.00    2.20
   2  -8  -9   30.40    2.40
  -2  -8   9   32.30    2.30
   2   8  -9   27.50    2.30
  -2   8   9   31.30    2.40
  -2   8   9   31.10    2.40
   2   8  -9   27.10    2.30
   1  -8  -9    2.80    0.80
   1  -8  -9    2.90    1.00
  -1  -8   9    4.60    1.30
  -1  -8   9    3.80    1.20
   1  -8  -9    4.30    1.20
  -1   8   9    3.60    0.80
  -1   8   9    2.40    0.90
  -1   8   9    4.30    1.10
   1   8  -9    2.60    1.10
   1   8  -9    3.30    1.20
   0  -8   9  142.39    5.60
   0  -8   9  140.19    5.50
   0  -8  -9  129.99    5.10
   0  -8  -9  132.69    5.10
   0  -8  -9  147.79    5.50
   0  -8  -9  137.89    5.30
   0   8   9  142.49    5.20
   0   8  -9  132.19    5.50
   0   8   9  138.59    5.20
   0   8  -9  131.09    5.50
   1  -8   9  108.29    4.70
   1  -8   9  103.09    4.60
  -1  -8  -9  108.69    4.20
  -1   8  -9  106.99    4.60
  -1   8  -9   99.09    4.60
   2  -8   9   22.40    2.40
   2  -8   9   21.60    2.40
  -2   8  -9   21.90    2.20
  -2   8  -9   22.40    2.20
   3  -8   9    4.30    1.50
  -3   8  -9    3.50    1.60
   4  -9  -9    3.00    1.90
   4  -9  -9    4.80    1.90
   4   9  -9    4.10    1.70
  -4   9   9    1.10    1.70
   3  -9  -9   15.60    2.40
   3  -9  -9   19.00    2.70
  -3  -9   9   18.80    2.20
  -3   9   9   22.40    2.60
  -3   9   9   16.10    2.30
   3   9  -9   17.40    2.10
   2  -9  -9   19.80    2.20
   2  -9  -9   20.00    2.40
  -2  -9   9   17.20    2.00
  -2  -9   9   17.00    2.00
  -2   9   9   18.30    2.10
   2   9  -9   20.60    2.10
   2   9  -9   18.50    2.00
  -2   9   9   16.50    2.10
  -1  -9   9  105.89    4.50
  -1  -9   9  103.69    4.40
   1  -9  -9   99.49    4.50
   1  -9  -9   94.79    4.50
  -1   9   9  103.59    4.40
   1   9  -9   98.69    4.40
  -1   9   9   94.59    4.30
   1   9  -9   96.39    4.40
   0  -9   9    1.10    1.20
   0  -9   9    0.60    1.30
   0  -9  -9    1.50    1.10
   0   9   9    0.70    0.80
   0   9  -9    1.50    1.20
   0   9  -9    1.90    1.10
   0   9   9    1.70    0.80
   1  -9   9   23.30    2.30
   1  -9   9   27.10    2.50
  -1  -9  -9   23.20    1.90
  -1   9  -9   21.60    2.20
  -1   9  -9   23.70    2.30
   2  -9   9    3.40    1.50
   2  -9   9    2.80    1.50
  -2   9  -9    1.90    1.30
   3  -9   9    1.50    1.40
  -3   9  -9    2.40    1.50
   3 -10  -9    6.90    2.00
   3 -10  -9    7.40    2.00
  -3 -10   9    3.90    1.50
  -3  10   9    7.60    1.90
  -3  10   9    9.20    1.90
   3  10  -9    7.10    1.80
  -2 -10   9   40.70    2.80
  -2 -10   9   35.90    2.80
   2 -10  -9   38.70    3.20
   2 -10  -9   37.70    2.90
  -2  10   9   38.30    2.90
  -2  10   9   41.10    2.90
   2  10  -9   32.80    2.70
   2  10  -9   37.80    2.70
  -1 -10   9    0.80    1.20
  -1 -10   9    0.20    1.20
   1 -10  -9    1.10    1.00
   1 -10  -9    1.20    1.20
   1  10  -9    2.00    1.20
  -1  10   9    1.40    1.00
   1  10  -9   -0.40    1.00
  -1  10   9    2.40    1.20
   0 -10   9    7.10    1.50
   0 -10   9    6.80    1.60
   0 -10  -9    4.90    1.30
   0  10   9    5.10    1.20
   0  10  -9    5.70    1.50
   0  10  -9    6.50    1.40
   1 -10   9    8.20    1.80
   1 -10   9    8.90    1.80
  -1 -10  -9    9.30    1.40
  -1  10  -9    7.20    1.60
  -1  10  -9   10.70    1.80
   1  10   9    8.80    1.20
   2 -10   9    1.10    1.60
   2 -10   9    3.80    1.70
  -2  10  -9    0.20    1.30
  -2  10  -9    0.60    1.50
   3 -10   9    0.40    1.50
   3 -11  -9    5.40    2.00
   3 -11  -9    4.30    1.80
  -3  11   9    6.70    2.00
  -3  11   9    5.40    1.80
   3  11  -9    6.10    1.80
  -2 -11   9    1.10    1.30
   2 -11  -9   -0.90    1.40
   2 -11  -9    1.00    1.10
   2  11  -9    1.50    1.30
  -2  11   9    0.90    1.30
  -2  11   9   -0.40    1.10
  -1 -11   9   25.80    2.60
   1 -11  -9   27.00    2.70
  -1 -11   9   32.70    2.80
   1  11  -9   27.10    2.50
   1  11  -9   26.90    2.60
  -1  11   9   29.80    2.40
   0 -11   9    3.70    1.40
   0 -11   9    5.20    1.60
   0 -11  -9    2.60    1.30
   0  11  -9    4.80    1.50
   0  11   9    6.60    1.40
   0  11  -9    3.60    1.50
  -1 -11  -9   29.40    2.30
   1 -11   9   23.70    2.70
   1 -11   9   26.60    2.90
  -1  11  -9   26.30    2.60
   1  11   9   27.60    2.00
  -1  11  -9   25.30    2.70
   2 -11   9    9.10    2.20
  -2  11  -9    7.00    1.90
  -2  11  -9    7.00    1.80
   3 -11   9    0.90    1.60
   3 -12  -9    0.70    1.90
  -3  12   9   -1.30    1.30
  -3  12   9    0.30    1.60
   3  12  -9    0.40    1.50
   2 -12  -9    2.20    1.60
  -2 -12   9   -0.90    1.30
  -2  12   9    1.60    1.90
  -2  12   9    1.40    1.40
   2  12  -9    3.00    1.60
  -1 -12   9    3.10    1.60
  -1 -12   9    4.00    1.70
   1 -12  -9    2.90    1.40
   1  12  -9    1.20    1.40
  -1  12   9    1.50    1.20
   1  12  -9    2.30    1.50
   0 -12   9    7.50    1.90
   0 -12  -9    9.30    1.70
   0 -12   9   10.40    1.90
   0  12   9   12.30    1.70
   0  12  -9   11.10    2.00
   0  12  -9    7.10    1.60
  -1 -12  -9    4.40    1.30
   1 -12   9    3.40    1.70
   1 -12   9    4.20    1.70
  -1  12  -9    3.90    1.60
   1  12   9    6.00    1.30
  -1  12  -9    0.00    1.30
   2 -12   9    1.00    1.60
  -2 -12  -9    3.30    1.10
  -2  13   9    0.30    1.50
   2  13  -9    1.10    1.60
  -1 -13   9   11.80    2.20
   1 -13  -9   11.00    2.00
  -1 -13   9    8.70    2.00
  -1  13   9   10.80    2.00
   1  13  -9   10.50    2.00
   1  13  -9    7.30    1.90
   0 -13   9    7.40    1.90
   0 -13  -9    8.80    1.80
   0 -13   9    6.10    1.90
   0  13  -9   10.70    2.00
   0  13   9   12.90    2.00
   0  13  -9    7.50    1.90
   1 -13   9    5.60    2.00
  -1 -13  -9    2.50    1.30
   1 -13   9    3.40    1.80
   1  13   9    7.30    1.50
  -1  13  -9    3.00    1.80
  -1  13  -9    5.90    1.70
   2 -13   9    9.10    2.30
  -2 -13  -9    8.80    1.60
  -1  14   9    4.40    1.60
   1  14  -9    2.40    1.60
   0 -14   9    2.20    1.80
   0 -14   9    0.60    1.70
   0  14  -9   -0.50    1.50
   0  14  -9   -0.90    1.50
   0  14   9    0.30    1.30
   1 -14   9    8.50    2.30
   1 -14   9    6.30    2.00
  -1  14  -9    7.20    1.90
   1  14   9    4.70    1.40
   5   0 -10   -1.20    1.60
  -4   0  10   48.40    3.00
  -4   0  10   46.60    3.30
   4   0 -10   50.09    3.50
   4   0 -10   43.40    3.20
   3   0 -10    6.10    1.40
   3   0 -10    7.10    1.70
  -3   0  10    7.50    1.40
  -3   0  10    8.80    1.50
  -3   0  10    7.40    1.40
  -2   0  10  311.57   10.90
  -2   0  10  311.87   10.60
  -2   0  10  307.97   10.80
   2   0 -10  318.07   11.00
   2   0 -10  315.47   11.00
   1   0 -10  174.98    6.20
  -1   0  10  162.48    6.00
   1   0 -10  165.98    5.90
   1   0 -10  166.88    6.10
  -1   0  10  171.98    5.80
   1   0 -10  164.28    6.20
  -1   0  10  173.08    6.10
   0   0  10    0.30    0.50
   0   0  10    0.30    0.50
   0   0  10    0.20    0.40
   0   0 -10    0.60    0.50
   0   0 -10    0.30    0.50
   0   0  10    0.20    0.50
   0   0 -10    0.90    0.60
   0   0 -10    0.10    0.50
  -1   0 -10   42.10    1.70
   1   0  10   42.10    1.80
  -1   0 -10   41.80    1.70
   1   0  10   38.30    1.70
   5  -1 -10    1.40    2.00
   5   1 -10    1.00    1.70
   4  -1 -10    3.30    1.50
  -4  -1  10    4.20    1.40
  -4  -1  10    2.70    1.40
   4  -1 -10    3.40    1.60
  -4   1  10    4.80    1.60
  -4   1  10    4.30    1.40
   4   1 -10    3.90    2.10
  -4   1  10    4.40    1.60
   4   1 -10    5.30    1.60
  -3  -1  10   30.90    2.30
   3  -1 -10   26.70    2.60
   3  -1 -10   26.00    2.50
  -3  -1  10   26.80    2.00
  -3  -1  10   30.50    2.30
  -3   1  10   27.50    2.40
   3   1 -10   28.60    2.30
  -3   1  10   27.90    2.20
  -3   1  10   26.90    2.10
   3   1 -10   29.90    2.40
   2  -1 -10   64.29    3.20
   2  -1 -10   62.89    3.30
  -2  -1  10   67.69    3.10
  -2  -1  10   64.39    3.10
  -2  -1  10   67.69    2.90
  -2   1  10   63.89    2.90
   2   1 -10   64.49    3.20
   2   1 -10   64.89    3.20
  -2   1  10   67.99    3.10
  -2   1  10   71.19    3.20
   1  -1 -10   80.19    3.20
   1  -1 -10   77.49    3.40
  -1  -1  10   86.19    3.30
   1  -1 -10   80.79    3.40
  -1  -1  10   81.49    3.30
   1  -1 -10   79.39    3.30
  -1   1  10   78.19    3.30
  -1   1  10   79.99    3.10
   1   1 -10   79.89    3.40
  -1   1  10   75.69    3.20
   1   1 -10   82.79    3.40
   1   1 -10   81.49    3.20
   1   1 -10   81.39    3.30
   0  -1 -10  873.81   28.30
   0  -1  10  890.51   28.30
   0  -1 -10  903.21   28.40
   0  -1 -10  889.71   28.20
   0  -1  10  846.92   28.40
   0  -1 -10  876.01   28.40
   0   1 -10  899.01   28.50
   0   1  10  880.01   28.20
   0   1  10  871.81   28.40
   0   1 -10  864.01   28.30
   0   1  10  863.61   28.30
   0   1 -10  908.11   28.20
   0   1 -10  860.11   28.40
   0   1  10  895.61   28.40
   1  -1  10   10.80    0.90
   1  -1  10   13.20    1.00
  -1   1 -10   16.80    1.10
  -1   1 -10   12.00    0.90
  -1   1 -10   12.20    0.90
  -4  -2  10   14.70    2.10
  -4  -2  10   11.60    1.80
   4  -2 -10    9.40    2.00
   4  -2 -10   10.60    2.10
  -4   2  10   11.80    1.80
   4   2 -10   12.00    2.00
  -4   2  10   12.10    2.10
  -4   2  10    8.60    1.70
   3  -2 -10   29.00    2.70
   3  -2 -10   33.90    2.60
  -3  -2  10   32.80    2.40
  -3  -2  10   31.30    2.40
  -3  -2  10   32.70    2.20
  -3   2  10   32.70    2.20
   3   2 -10   34.10    2.50
   3   2 -10   34.60    2.50
  -3   2  10   31.80    2.50
  -3   2  10   31.30    2.50
   2  -2 -10    9.50    1.50
  -2  -2  10    8.90    1.30
   2  -2 -10   11.00    1.40
  -2  -2  10   10.20    1.30
  -2  -2  10    9.00    1.10
  -2   2  10   10.10    1.30
   2   2 -10    8.10    1.30
   2   2 -10   11.10    1.40
  -2   2  10   10.70    1.40
  -2   2  10    8.10    1.30
   1  -2 -10  153.98    5.50
  -1  -2  10  152.78    5.60
   1  -2 -10  160.98    5.70
   1  -2 -10  151.08    5.60
  -1  -2  10  160.08    5.60
   1  -2 -10  154.08    5.80
  -1   2  10  155.38    5.40
   1   2 -10  150.68    5.70
  -1   2  10  150.48    5.60
   1   2 -10  147.69    5.60
   1   2 -10  148.09    5.50
  -1   2  10  154.78    5.60
   1   2 -10  156.88    5.70
   0  -2  10   36.80    1.80
   0  -2  10   36.30    1.80
   0  -2  10   36.50    1.80
   0  -2 -10   37.60    1.90
   0  -2 -10   38.10    1.70
   0  -2 -10   38.10    1.80
   0  -2 -10   36.50    1.80
   0   2  10   39.80    1.80
   0   2  10   37.80    1.70
   0   2  10   38.40    1.80
   0   2 -10   38.60    1.90
   0   2 -10   37.60    1.80
   0   2 -10   39.20    1.90
   0   2  10   37.50    1.80
   1  -2  10  168.78    5.90
   1  -2  10  176.78    6.10
   1  -2  10  165.58    6.00
  -1   2 -10  174.08    6.10
  -1   2 -10  175.98    6.00
  -1   2 -10  170.58    6.00
   2  -2  10    1.70    0.50
   2  -2  10    2.60    0.80
  -2   2 -10    3.20    0.90
  -2   2 -10    2.10    0.60
  -2   2 -10    2.40    0.70
  -4  -3  10   10.60    1.70
   4  -3 -10    9.60    2.00
  -4  -3  10    6.30    1.70
   4  -3 -10    9.80    2.10
  -4   3  10    9.60    2.00
  -4   3  10   10.90    1.80
   4   3 -10    7.10    1.70
  -4   3  10    9.80    1.90
  -3  -3  10   18.60    1.80
  -3  -3  10   16.60    1.90
   3  -3 -10   15.90    2.00
   3  -3 -10   14.20    2.10
  -3  -3  10   14.90    1.80
   3   3 -10   12.00    1.80
  -3   3  10   15.10    1.70
  -3   3  10   17.00    2.10
  -3   3  10   14.80    1.90
   3   3 -10   11.20    1.80
  -2  -3  10   15.80    1.60
   2  -3 -10   11.80    1.60
   2  -3 -10   13.40    1.80
  -2  -3  10   15.00    1.30
  -2  -3  10   12.60    1.50
  -2   3  10   13.40    1.60
  -2   3  10   11.80    1.50
   2   3 -10   14.10    1.70
   2   3 -10   13.30    1.50
  -2   3  10   12.90    1.40
  -1  -3  10   20.70    1.40
   1  -3 -10   15.90    1.20
   1  -3 -10   15.30    1.30
   1  -3 -10   18.50    1.50
  -1  -3  10   15.50    1.30
   1  -3 -10   16.90    1.40
  -1   3  10   15.50    1.30
   1   3 -10   17.50    1.50
   1   3 -10   18.10    1.20
   1   3 -10   16.40    1.40
  -1   3  10   18.30    1.30
  -1   3  10   18.30    1.20
   0  -3 -10   47.30    2.00
   0  -3 -10   44.00    2.00
   0  -3  10   45.40    2.20
   0  -3  10   45.30    2.30
   0  -3 -10   45.60    2.20
   0  -3 -10   45.90    2.10
   0   3 -10   47.40    2.20
   0   3  10   46.60    2.00
   0   3  10   43.90    2.00
   0   3  10   44.10    2.00
   0   3 -10   48.90    2.10
   1  -3  10    7.70    1.00
   1  -3  10    6.90    0.90
   1  -3  10    7.80    0.90
  -1   3 -10    8.40    1.10
  -1   3 -10    8.10    1.00
  -1   3 -10    7.10    0.90
   2  -3  10    7.70    1.10
   2  -3  10    6.50    0.90
  -2   3 -10    6.70    0.90
  -2   3 -10    6.10    1.00
  -2   3 -10    8.20    1.10
   3  -3  10    5.50    1.00
  -3   3 -10    5.10    1.20
  -4   3 -10    4.00    1.20
   4  -4 -10    5.50    1.80
  -4  -4  10    8.50    1.80
   4  -4 -10    8.20    1.90
  -4  -4  10    8.00    1.50
   4   4 -10    8.40    1.80
  -4   4  10    4.50    1.60
  -4   4  10    7.00    1.80
  -4   4  10    3.90    1.40
  -3  -4  10    7.00    1.40
   3  -4 -10    5.40    1.60
  -3  -4  10    7.40    1.40
  -3  -4  10    8.40    1.30
   3  -4 -10    5.10    1.50
  -3   4  10    8.90    1.70
   3   4 -10    5.20    1.40
  -3   4  10    7.10    1.50
   3   4 -10    5.80    1.50
  -3   4  10    6.30    1.30
  -2  -4  10   23.00    1.80
   2  -4 -10   15.30    1.70
   2  -4 -10   17.80    1.90
  -2  -4  10   15.70    1.60
  -2   4  10   17.00    1.70
   2   4 -10   16.10    1.70
  -2   4  10   17.00    1.80
  -2   4  10   16.40    1.40
   2   4 -10   21.60    1.90
  -1  -4  10   98.49    4.10
   1  -4 -10  101.79    4.00
   1  -4 -10  100.69    3.90
  -1  -4  10  106.39    4.00
   1  -4 -10  105.79    4.10
   1   4 -10   97.69    3.90
   1   4 -10  100.79    4.10
   1   4 -10   95.39    4.10
  -1   4  10  102.19    3.80
  -1   4  10  103.99    4.00
  -1   4  10   95.29    4.00
   0  -4  10   81.29    3.40
   0  -4 -10   81.19    3.10
   0  -4 -10   82.89    3.40
   0  -4 -10   82.09    3.20
   0  -4  10   82.49    3.30
   0  -4 -10   82.19    3.20
   0   4  10   82.79    3.20
   0   4  10   82.59    3.10
   0   4 -10   82.79    3.30
   0   4  10   77.59    3.20
   0   4 -10   82.89    3.40
   0   4 -10   80.69    3.40
   1  -4  10   44.80    2.20
   1  -4  10   42.30    2.10
  -1   4 -10   47.40    2.30
  -1   4 -10   43.90    2.20
  -1   4 -10   42.50    2.10
   2  -4  10   46.10    2.50
   2  -4  10   45.30    2.30
  -2   4 -10   48.30    2.40
  -2   4 -10   35.50    2.50
  -2   4 -10   36.10    2.20
   3  -4  10   10.70    1.50
  -3   4 -10   14.00    1.70
  -4   4 -10    8.20    1.60
   4  -5 -10    3.30    1.60
   4  -5 -10    4.20    1.70
  -4  -5  10    2.50    1.50
  -4  -5  10    2.90    1.30
  -4   5  10    3.50    1.60
  -4   5  10    4.10    1.80
   4   5 -10    4.00    1.60
  -4   5  10    3.80    1.40
  -3  -5  10  107.19    4.40
   3  -5 -10  110.99    5.00
  -3  -5  10   99.89    4.60
  -3  -5  10  105.89    4.60
   3  -5 -10   99.69    5.00
  -3   5  10  104.39    4.60
  -3   5  10  112.09    4.90
   3   5 -10  105.69    4.80
  -3   5  10  104.69    4.80
   3   5 -10   98.39    4.70
  -2  -5  10   13.60    1.60
  -2  -5  10   11.20    1.50
   2  -5 -10   15.60    2.00
   2  -5 -10   14.40    1.80
   2   5 -10   14.30    1.70
   2   5 -10   11.80    1.50
  -2   5  10   12.80    1.70
  -2   5  10   14.90    1.70
   1  -5 -10    0.50    0.60
  -1  -5  10    0.80    0.80
  -1  -5  10    1.00    0.80
   1  -5 -10    0.70    0.60
   1  -5 -10    1.50    0.70
  -1   5  10    1.50    0.60
   1   5 -10    1.50    0.80
  -1   5  10    0.60    0.70
  -1   5  10    0.50    0.70
   1   5 -10    1.00    0.70
   0  -5  10   79.99    3.30
   0  -5 -10   80.09    3.30
   0  -5 -10   77.59    3.20
   0  -5 -10   76.99    3.10
   0  -5 -10   81.49    3.20
   0  -5  10   81.79    3.50
   0   5  10   76.59    3.10
   0   5  10   79.59    3.10
   0   5 -10   79.39    3.40
   0   5  10   79.49    3.20
   0   5 -10   83.39    3.40
  -1   5 -10   52.59    2.60
  -1   5 -10   61.19    2.80
   2  -5  10    6.30    1.30
   2  -5  10    7.40    1.20
  -2   5 -10    3.90    1.20
   3  -5  10    8.50    1.50
  -3   5 -10   11.80    1.70
   4  -5  10    7.00    1.50
  -4   5 -10   15.10    2.10
  -4  -6  10    2.60    1.40
   4  -6 -10    1.90    1.60
   4  -6 -10    3.40    1.80
  -4   6  10    1.40    1.50
  -4   6  10    1.50    1.30
  -4   6  10    3.40    1.80
   4   6 -10    0.40    1.40
   3  -6 -10   35.50    2.80
  -3  -6  10   28.30    2.40
  -3  -6  10   32.10    2.50
   3  -6 -10   31.60    2.80
   3   6 -10   31.70    2.50
  -3   6  10   29.60    2.30
  -3   6  10   29.40    2.60
  -3   6  10   35.10    2.90
   3   6 -10   30.30    2.60
  -2  -6  10    1.30    1.00
   2  -6 -10    2.70    1.10
  -2  -6  10    2.90    1.10
   2  -6 -10    0.50    1.10
   2   6 -10    2.20    1.10
   2   6 -10    2.00    1.10
  -2   6  10    2.20    1.10
  -2   6  10    1.80    1.10
  -1  -6  10  294.67    9.90
   1  -6 -10  268.57    9.90
  -1  -6  10  298.77   10.10
   1  -6 -10  281.87    9.90
   1  -6 -10  299.87   10.10
  -1   6  10  276.07    9.90
  -1   6  10  282.77    9.70
   1   6 -10  289.47   10.10
  -1   6  10  285.27   10.00
   1   6 -10  275.77   10.00
   1   6 -10  294.17   10.10
   0  -6 -10  192.28    7.10
   0  -6  10  203.48    7.40
   0  -6 -10  191.78    7.10
   0  -6  10  207.78    7.30
   0  -6 -10  211.48    7.40
   0  -6 -10  202.18    7.20
   0   6  10  196.08    7.10
   0   6  10  210.18    7.10
   0   6 -10  203.48    7.40
   0   6 -10  217.58    7.50
   0   6  10  205.28    7.10
   1  -6  10  189.58    7.10
   1  -6  10  186.08    7.00
  -1   6 -10  194.78    7.10
  -1   6 -10  192.68    7.00
   2  -6  10   20.00    2.00
  -2   6 -10   24.20    2.10
   3  -6  10    8.60    1.70
  -3   6 -10   10.00    1.70
   4  -6  10    1.00    1.30
   4  -7 -10    0.00    1.70
   4  -7 -10   -0.40    1.50
  -4   7  10    1.10    1.50
   4   7 -10    2.80    1.50
  -4   7  10    1.20    1.70
   3  -7 -10   36.90    3.00
   3  -7 -10   38.90    3.20
  -3  -7  10   35.00    2.70
   3   7 -10   32.80    2.70
   3   7 -10   36.80    2.80
  -3   7  10   32.70    2.50
  -3   7  10   39.70    3.00
  -3   7  10   34.20    2.80
   2  -7 -10    4.60    1.30
  -2  -7  10    4.30    1.20
   2  -7 -10    7.20    1.50
  -2  -7  10    3.40    1.20
   2   7 -10    6.50    1.40
   2   7 -10    5.70    1.40
   2   7 -10    4.30    1.20
  -2   7  10    6.10    1.30
  -2   7  10    5.50    1.40
  -1  -7  10   45.60    2.80
   1  -7 -10   46.10    2.40
  -1  -7  10   49.30    2.60
   1  -7 -10   45.70    2.60
   1  -7 -10   48.40    2.80
  -1   7  10   45.90    2.60
   1   7 -10   48.10    2.70
  -1   7  10   45.70    2.50
   1   7 -10   48.10    2.70
  -1   7  10   44.40    2.20
   0  -7 -10   21.20    1.50
   0  -7 -10   21.80    1.90
   0  -7  10   22.10    2.00
   0  -7 -10   19.80    1.50
   0  -7 -10   21.40    1.50
   0  -7  10   19.40    1.90
   0   7 -10   24.20    1.90
   0   7  10   21.30    1.50
   0   7  10   20.90    1.60
   0   7 -10   23.60    2.00
   0   7  10   23.10    1.50
   1  -7  10    8.90    1.50
   1  -7  10    3.10    1.30
  -1   7 -10    8.30    1.50
  -1   7 -10    8.40    1.40
   2  -7  10   -0.60    1.10
   2  -7  10   -0.30    1.00
  -2   7 -10    3.30    1.20
   3  -7  10    1.70    1.30
  -3   7 -10    2.40    1.50
   4  -8 -10   -1.70    1.50
   4  -8 -10    0.80    1.50
   4   8 -10    2.20    1.60
  -4   8  10    1.00    1.50
   4   8 -10   -0.90    1.40
   3  -8 -10   18.30    2.60
  -3  -8  10   18.50    2.20
   3  -8 -10   22.40    2.70
   3   8 -10   21.00    2.30
   3   8 -10   21.10    2.40
  -3   8  10   16.50    2.30
  -3   8  10   21.60    2.50
   2  -8 -10    4.20    1.40
  -2  -8  10    5.60    1.40
   2  -8 -10    7.80    1.80
  -2  -8  10    5.50    1.40
  -2   8  10    4.40    1.30
   2   8 -10    6.00    1.40
   2   8 -10    3.80    1.30
  -2   8  10    6.60    1.40
  -1  -8  10  328.67   11.50
   1  -8 -10  328.27   11.60
  -1  -8  10  320.37   11.30
   1  -8 -10  328.37   11.50
  -1   8  10  333.17   11.40
   1   8 -10  297.87   11.30
  -1   8  10  329.57   11.40
   1   8 -10  319.87   11.40
   0  -8  10    1.30    1.10
   0  -8 -10    1.40    1.00
   0  -8  10    0.20    1.10
   0   8  10    1.30    0.80
   0   8  10    2.60    0.90
   0   8 -10    1.00    1.00
   0   8 -10    0.10    1.00
   1  -8  10   20.80    2.10
   1  -8  10   21.50    2.10
  -1   8 -10   19.30    2.10
  -1   8 -10   20.60    2.00
   2  -8  10   11.20    2.10
   2  -8  10   10.80    1.80
  -2   8 -10   10.80    1.70
   3  -8  10    3.50    1.60
  -3   8 -10    5.40    1.70
  -3  -9  10    2.10    1.40
   3  -9 -10    6.30    1.70
   3  -9 -10    5.40    1.90
   3   9 -10    1.60    1.40
  -3   9  10    4.90    1.60
  -3   9  10    5.70    1.70
   2  -9 -10   11.20    1.90
   2  -9 -10    8.80    1.60
  -2  -9  10   11.80    1.70
  -2  -9  10   12.50    1.90
  -2   9  10   11.40    1.90
   2   9 -10    9.00    1.60
   2   9 -10   10.50    1.70
  -2   9  10   12.90    1.80
   1  -9 -10    8.60    1.40
  -1  -9  10   10.40    1.60
  -1  -9  10   10.80    1.70
   1  -9 -10   10.50    1.80
  -1   9  10    7.40    1.30
   1   9 -10    5.50    1.40
  -1   9  10    9.50    1.50
   1   9 -10    8.40    1.50
   0  -9 -10    4.90    1.30
   0  -9  10    2.90    1.40
   0  -9  10    6.30    1.50
   0   9 -10    3.60    1.30
   0   9 -10    5.90    1.50
   0   9  10    5.80    1.10
   1  -9  10   22.00    2.30
  -1  -9 -10   24.80    1.90
   1  -9  10   20.50    2.30
  -1   9 -10   19.20    2.10
  -1   9 -10   20.30    2.20
   2  -9  10   -1.00    1.30
  -2   9 -10    0.40    1.20
   3  -9  10    5.10    1.80
   3 -10 -10   11.50    2.20
   3 -10 -10    8.40    2.10
  -3 -10  10   10.90    2.00
  -3  10  10    9.90    2.20
  -3  10  10    9.20    2.00
   3  10 -10   12.40    2.10
  -2 -10  10    8.90    1.80
   2 -10 -10    7.30    1.60
   2 -10 -10    7.90    1.80
  -2 -10  10    8.20    1.70
  -2  10  10    7.00    1.70
   2  10 -10    8.90    1.70
   2  10 -10    5.30    1.40
  -2  10  10    6.20    1.40
  -1 -10  10    0.90    1.20
  -1 -10  10   -0.10    1.20
   1 -10 -10    2.40    1.20
   1  10 -10    2.30    1.30
  -1  10  10    2.10    1.10
  -1  10  10    3.50    1.10
   1  10 -10    0.50    1.10
   0 -10  10    1.50    1.40
   0 -10  10   -0.20    1.20
   0 -10 -10    0.60    1.00
   0  10 -10   -0.90    1.10
   0  10 -10   -0.10    1.20
   0  10  10    0.70    0.90
   1 -10  10    5.00    1.50
  -1 -10 -10    5.00    1.10
   1 -10  10    3.50    1.50
  -1  10 -10    5.30    1.50
  -1  10 -10    5.50    1.60
   2 -10  10    2.30    1.60
  -2  10 -10    2.60    1.50
   3 -10  10    3.40    1.80
   3 -11 -10   -0.30    1.70
   3 -11 -10    3.70    2.50
  -3  11  10    0.70    1.60
   3  11 -10   -1.10    1.40
  -3  11  10    0.50    1.50
  -2 -11  10   26.50    2.60
   2 -11 -10   29.10    3.00
   2 -11 -10   30.90    3.20
  -2  11  10   36.20    2.90
   2  11 -10   29.60    2.90
   2  11 -10   17.00    2.70
  -2  11  10   28.60    2.80
  -1 -11  10   15.90    2.20
   1 -11 -10   15.80    2.20
  -1 -11  10   16.40    2.10
  -1  11  10   16.40    2.00
   1  11 -10   14.60    2.00
   1  11 -10   13.40    2.10
   0 -11  10   15.50    2.20
   0 -11 -10   17.50    2.10
   0 -11  10   18.30    2.30
   0  11  10   15.60    1.90
   0  11 -10   15.20    2.10
   0  11 -10   15.30    2.10
  -1 -11 -10    9.60    1.60
   1 -11  10    6.80    1.90
   1 -11  10    6.00    1.90
  -1  11 -10    9.40    1.90
  -1  11 -10   10.20    1.90
   1  11  10   10.20    1.40
   2 -11  10   29.40    3.10
  -2  11 -10   25.10    2.70
  -2  11 -10   27.70    2.90
   2 -12 -10   19.60    2.70
  -2 -12  10   15.80    2.30
   2  12 -10   23.30    2.60
  -2  12  10   22.50    2.60
  -1 -12  10    7.80    1.90
   1 -12 -10    8.80    1.80
  -1 -12  10    9.00    2.00
   1  12 -10    6.40    1.70
   1  12 -10    6.70    1.70
  -1  12  10    8.70    1.70
   0 -12  10    1.70    1.40
   0 -12 -10    1.60    1.20
   0 -12  10   -1.10    1.30
   0  12 -10   -1.60    1.40
   0  12 -10    1.40    1.40
   0  12  10   -0.20    1.10
  -1 -12 -10    8.30    1.60
   1 -12  10    2.60    1.80
   1 -12  10    7.30    2.00
  -1  12 -10    6.80    1.80
  -1  12 -10    7.20    1.90
   1  12  10    7.30    1.40
   2 -12  10   21.00    2.90
  -2 -12 -10   18.60    1.90
  -2  13  10    1.80    1.50
   2  13 -10    2.80    1.70
  -1 -13  10    0.50    1.50
  -1 -13  10    1.90    1.60
  -1  13  10    3.60    1.50
   1  13 -10    0.50    1.50
   1  13 -10    2.20    1.60
   0 -13  10   -0.50    1.50
   0 -13  10   -0.80    1.30
   0 -13 -10    3.10    1.30
   0  13  10    2.60    1.30
   0  13 -10    0.20    1.50
   0  13 -10    2.10    1.50
   1 -13  10    7.60    2.20
  -1 -13 -10    5.40    1.50
   1 -13  10    5.00    2.00
   1  13  10    3.60    1.20
  -1  13 -10    5.20    1.80
  -1  13 -10    4.10    1.60
  -1  14  10    5.10    1.70
   1  14 -10    5.20    1.80
   0 -14  10    3.40    3.40
   0 -14  10    4.00    2.00
   0  14 -10    1.50    1.60
   0  14  10    1.20    1.40
   0  14 -10    0.10    1.60
   4   0 -11    0.80    1.40
  -4   0  11   -0.30    2.00
   4   0 -11   -0.30    1.40
  -4   0  11    0.50    1.20
  -4   0  11   -0.50    1.30
   3   0 -11    2.30    1.30
  -3   0  11    5.40    1.30
   3   0 -11    3.00    1.30
  -3   0  11    1.50    1.00
  -3   0  11    1.90    1.10
  -2   0  11   -0.10    0.70
   2   0 -11   -1.10    0.70
  -2   0  11    0.50    0.80
  -2   0  11   -0.40    0.70
   2   0 -11   -0.30    0.80
   1   0 -11    7.40    0.90
   1   0 -11    7.60    1.10
  -1   0  11    8.30    0.90
   1   0 -11    7.60    1.20
  -1   0  11    7.80    1.10
   1   0 -11    7.60    1.00
  -1   0  11   10.00    1.20
   0   0  11    0.30    0.50
   0   0 -11    0.70    0.40
   0   0 -11    0.00    0.50
   0   0  11    0.10    0.40
   0   0 -11    0.50    0.50
   0   0 -11    0.90    0.60
   0   0  11    1.10    0.50
  -1   0 -11    2.80    0.70
  -1   0 -11    4.10    0.60
   1   0  11    2.90    0.50
   4  -1 -11   21.30    2.80
  -4  -1  11   20.00    2.20
  -4  -1  11   21.70    2.50
   4  -1 -11   18.40    2.40
  -4   1  11   21.70    2.60
  -4   1  11   19.10    2.30
   4   1 -11   17.90    2.40
  -4   1  11   19.80    2.20
   4   1 -11   24.60    2.80
  -3  -1  11   17.90    1.80
  -3  -1  11   19.00    2.00
   3  -1 -11   16.50    2.00
  -3  -1  11   18.60    2.00
   3  -1 -11   17.00    2.10
   3   1 -11   17.50    2.10
  -3   1  11   16.50    1.80
  -3   1  11   17.20    2.00
  -3   1  11   18.90    2.10
   3   1 -11   23.10    2.40
  -2  -1  11  138.59    5.20
   2  -1 -11  139.09    5.70
   2  -1 -11  138.09    5.60
  -2  -1  11  139.99    5.50
  -2  -1  11  147.79    5.50
   2   1 -11  140.59    5.60
  -2   1  11  136.59    5.20
  -2   1  11  141.99    5.50
   2   1 -11  145.19    5.60
  -2   1  11  134.19    5.40
   1  -1 -11   62.69    2.70
   1  -1 -11   61.79    2.90
  -1  -1  11   66.89    2.90
   1  -1 -11   62.49    2.90
   1  -1 -11   62.79    3.00
  -1  -1  11   67.69    2.90
  -1   1  11   68.69    2.70
   1   1 -11   65.99    2.90
   1   1 -11   67.29    3.00
  -1   1  11   63.59    2.90
   1   1 -11   64.09    2.90
   1   1 -11   68.49    2.80
  -1   1  11   67.89    2.90
   0  -1 -11    3.00    0.70
   0  -1  11    3.10    0.70
   0  -1 -11    2.80    0.60
   0  -1  11    1.70    0.50
   0  -1  11    2.80    0.70
   0  -1 -11    2.80    0.60
   0  -1 -11    2.30    0.60
   0   1  11    1.90    0.60
   0   1 -11    2.90    0.80
   0   1 -11    2.20    0.60
   0   1  11    2.80    0.60
   0   1  11    2.20    0.60
   0   1 -11    3.20    0.60
   0   1 -11    2.20    0.60
   1  -1  11  189.08    6.60
   1  -1  11  186.18    6.60
  -1   1 -11  198.88    6.60
  -1   1 -11  193.68    6.50
  -1   1 -11  182.88    6.50
  -4  -2  11    3.40    1.40
   4  -2 -11    5.50    1.80
   4  -2 -11    4.60    1.60
  -4  -2  11    1.40    1.40
   4   2 -11    3.80    1.50
  -4   2  11    6.10    1.50
  -4   2  11    3.20    1.50
  -4   2  11    2.30    1.20
  -3  -2  11    2.10    1.20
  -3  -2  11    1.80    1.20
   3  -2 -11    3.60    1.30
  -3  -2  11    1.90    1.00
   3  -2 -11    2.00    1.30
   3   2 -11    1.90    1.20
  -3   2  11    2.90    1.30
  -3   2  11    1.00    1.00
  -3   2  11    1.50    1.20
   3   2 -11    3.50    1.30
  -2  -2  11    1.30    0.70
   2  -2 -11    1.80    1.00
  -2  -2  11    0.80    0.90
   2  -2 -11    1.20    0.90
  -2  -2  11    2.30    1.00
  -2   2  11    0.40    0.70
  -2   2  11   -0.50    0.80
   2   2 -11    0.90    0.90
   2   2 -11    0.10    0.80
  -2   2  11    0.60    0.80
   1  -2 -11  106.49    4.20
   1  -2 -11  110.09    4.40
  -1  -2  11  110.29    4.30
  -1  -2  11  116.59    4.40
   1  -2 -11  106.89    4.40
   1   2 -11  117.39    4.60
  -1   2  11  112.59    4.40
  -1   2  11  111.29    4.10
   1   2 -11  118.09    4.30
  -1   2  11  113.59    4.40
   1   2 -11  118.69    4.50
   0  -2  11   55.09    2.50
   0  -2 -11   57.09    2.30
   0  -2 -11   56.19    2.40
   0  -2  11   57.19    2.40
   0  -2  11   55.39    2.50
   0  -2 -11   57.49    2.60
   0  -2 -11   57.19    2.40
   0   2  11   57.79    2.40
   0   2 -11   56.29    2.60
   0   2  11   55.29    2.30
   0   2 -11   55.99    2.50
   0   2  11   54.39    2.40
   0   2 -11   58.89    2.30
   0   2 -11   57.49    2.50
   1  -2  11  115.29    4.30
   1  -2  11  115.79    4.20
   1  -2  11  119.19    4.40
  -1   2 -11  113.29    4.20
  -1   2 -11  117.39    4.40
  -1   2 -11  119.09    4.30
   2  -2  11   29.50    1.70
  -2   2 -11   25.90    1.70
  -2   2 -11   22.80    1.70
   4  -3 -11   30.60    3.20
  -4  -3  11   27.80    2.80
  -4  -3  11   22.00    2.40
   4  -3 -11   23.70    2.80
  -4   3  11   30.80    2.70
  -4   3  11   26.20    2.80
   4   3 -11   26.50    2.80
  -4   3  11   25.20    2.80
  -3  -3  11   -2.30    0.90
  -3  -3  11   -2.10    0.80
   3  -3 -11    1.10    1.20
   3  -3 -11   -1.60    1.00
  -3  -3  11    1.10    1.10
  -3   3  11   -0.60    0.90
   3   3 -11    0.10    1.10
  -3   3  11   -1.80    1.00
  -3   3  11    1.70    1.20
   3   3 -11   -1.40    1.10
   2  -3 -11  291.07   10.60
   2  -3 -11  297.67   10.40
  -2  -3  11  281.47   10.20
  -2  -3  11  293.47   10.00
  -2  -3  11  290.97   10.20
  -2   3  11  294.07   10.30
   2   3 -11  281.27   10.40
   2   3 -11  302.77   10.40
  -2   3  11  286.07   10.30
   1  -3 -11   28.00    1.60
  -1  -3  11   30.40    1.80
   1  -3 -11   30.80    1.80
   1  -3 -11   28.40    1.80
  -1  -3  11   30.00    1.90
  -1   3  11   30.50    1.60
   1   3 -11   28.60    1.90
  -1   3  11   31.30    1.80
   1   3 -11   27.20    1.90
  -1   3  11   29.00    1.80
   1   3 -11   29.00    1.60
   0  -3 -11   62.99    2.70
   0  -3 -11   70.89    3.00
   0  -3 -11   66.69    2.80
   0  -3 -11   68.09    2.70
   0  -3  11   67.49    2.90
   0   3  11   69.19    2.70
   0   3 -11   64.59    2.80
   0   3 -11   72.89    3.00
   0   3  11   65.49    2.80
   0   3  11   69.29    2.80
   1  -3  11  225.48    7.70
   1  -3  11  216.58    7.80
   1  -3  11  220.88    7.80
  -1   3 -11  229.18    7.80
  -1   3 -11  228.58    7.90
  -1   3 -11  229.48    7.80
   2  -3  11   22.70    1.80
  -2   3 -11   21.40    1.80
  -3   3 -11    2.10    1.10
  -4   3 -11    4.80    1.30
   4  -4 -11   13.60    2.30
  -4  -4  11   14.50    1.90
  -4  -4  11   14.90    2.20
   4  -4 -11   13.40    2.40
  -4   4  11   11.80    2.10
   4   4 -11   13.00    2.10
  -4   4  11   14.40    2.00
  -4   4  11   14.70    2.20
  -3  -4  11    2.60    1.10
   3  -4 -11    3.20    1.30
  -3  -4  11    3.80    1.20
  -3  -4  11    3.80    1.20
   3  -4 -11    2.70    1.40
   3   4 -11    1.80    1.20
   3   4 -11    3.80    1.40
  -3   4  11    3.80    1.30
  -3   4  11    1.40    1.20
  -3   4  11    1.20    1.00
   2  -4 -11  232.28    8.50
   2  -4 -11  229.68    8.70
  -2  -4  11  230.28    8.30
  -2  -4  11  225.88    8.30
   2   4 -11  230.58    8.40
  -2   4  11  226.48    8.40
  -2   4  11  225.88    8.40
   2   4 -11  228.38    8.50
   1  -4 -11   97.99    4.00
   1  -4 -11   98.99    4.00
   1  -4 -11   99.29    3.90
  -1  -4  11   97.89    4.10
  -1  -4  11   93.79    3.90
   1   4 -11   98.59    4.10
   1   4 -11   97.99    3.80
  -1   4  11   82.39    3.80
   1   4 -11   92.89    4.10
  -1   4  11  104.19    3.70
  -1   4  11  102.69    4.00
   0  -4 -11   25.40    1.70
   0  -4 -11   26.30    1.50
   0  -4  11   28.60    1.70
   0  -4 -11   26.00    1.40
   0  -4 -11   25.60    1.50
   0  -4  11   26.20    1.70
   0   4  11   26.40    1.50
   0   4  11   26.10    1.50
   0   4  11   26.10    1.40
   0   4 -11   26.80    1.60
   0   4 -11   24.50    1.70
   0   4 -11   25.00    1.70
   1  -4  11    4.00    1.30
   1  -4  11    4.90    0.90
   1  -4  11    7.30    1.10
  -1   4 -11    5.20    0.90
  -1   4 -11    6.00    1.10
  -1   4 -11    6.30    1.00
   2  -4  11   47.10    2.60
   2  -4  11   49.50    2.70
  -2   4 -11   46.70    2.60
   3  -4  11    7.10    1.40
  -3   4 -11    7.20    1.40
  -4   4 -11    1.70    1.30
  -4  -5  11   -2.00    1.20
  -4  -5  11   -0.20    1.20
   4  -5 -11   -0.20    1.50
   4  -5 -11   -0.20    1.60
  -4   5  11    3.20    1.70
   4   5 -11    3.00    1.70
  -4   5  11    0.80    1.40
  -4   5  11    0.60    1.20
   3  -5 -11    1.70    1.20
  -3  -5  11    2.50    1.20
  -3  -5  11    2.00    1.20
   3  -5 -11   -0.10    1.20
  -3   5  11    2.90    1.30
  -3   5  11    2.20    1.30
   3   5 -11   -0.60    1.10
  -3   5  11    1.70    1.00
   3   5 -11    1.10    1.10
   2  -5 -11    9.40    1.50
  -2  -5  11    9.90    1.50
  -2  -5  11   10.00    1.50
   2  -5 -11    7.60    1.50
  -2   5  11   10.80    1.60
   2   5 -11    7.90    1.30
  -2   5  11   11.00    1.60
   2   5 -11    7.50    1.40
   1  -5 -11  108.49    4.40
   1  -5 -11  105.29    4.30
  -1  -5  11  108.69    4.50
   1  -5 -11  111.29    4.50
  -1  -5  11  111.49    4.40
   1   5 -11  108.89    4.50
  -1   5  11  110.09    4.10
   1   5 -11  108.59    4.60
  -1   5  11  113.39    4.40
   0  -5 -11   36.00    2.00
   0  -5  11   36.30    2.20
   0  -5 -11   34.20    1.80
   0  -5  11   35.60    2.00
   0  -5 -11   33.80    1.70
   0  -5 -11   34.50    1.80
   0   5 -11   34.70    2.10
   0   5  11   31.50    1.80
   0   5 -11   32.60    2.10
   0   5  11   32.20    1.70
   0   5  11   32.90    1.70
   1  -5  11  115.29    4.70
  -1   5 -11  118.59    4.60
  -1   5 -11  121.29    4.60
  -1   5 -11  108.69    4.40
   2  -5  11    6.60    1.80
   2  -5  11    5.90    1.30
  -2   5 -11    7.20    1.30
   3  -5  11    0.30    1.10
  -3   5 -11   -1.20    1.10
   4  -5  11    2.60    1.30
   4  -6 -11   11.00    2.40
  -4  -6  11    6.50    2.50
   4  -6 -11    4.20    1.90
   4   6 -11    5.30    1.80
  -4   6  11    6.80    2.00
  -4   6  11    9.80    2.10
  -3  -6  11   34.10    2.60
   3  -6 -11   32.20    2.80
  -3  -6  11   36.10    2.70
   3  -6 -11   33.00    3.00
  -3   6  11   37.80    2.90
  -3   6  11   32.50    2.40
   3   6 -11   40.20    2.80
  -3   6  11   34.70    2.80
   3   6 -11   39.10    2.80
   2  -6 -11   99.09    4.70
  -2  -6  11  105.69    4.60
  -2  -6  11  102.39    4.40
   2  -6 -11  100.59    4.80
   2   6 -11  105.49    4.60
  -2   6  11  105.19    4.60
   2   6 -11  107.39    4.70
  -2   6  11  103.39    4.60
  -1  -6  11  107.29    4.30
   1  -6 -11  109.09    4.60
   1  -6 -11  101.79    4.20
   1  -6 -11  101.19    4.40
  -1  -6  11  108.49    4.50
   1  -6 -11   96.19    4.50
   1   6 -11  107.89    4.50
  -1   6  11  106.19    4.30
   1   6 -11  108.39    4.50
  -1   6  11  100.99    4.00
  -1   6  11  105.19    4.30
   1   6 -11  105.69    4.50
   0  -6  11    0.30    0.90
   0  -6  11    0.50    0.90
   0  -6 -11    1.40    0.80
   0  -6 -11    1.00    0.70
   0  -6 -11    1.10    0.60
   0  -6 -11    0.40    0.60
   0   6  11    1.60    0.60
   0   6  11    0.40    0.50
   0   6 -11    1.60    1.00
   0   6 -11    0.60    0.90
   0   6  11    1.10    0.70
   1  -6  11    5.80    1.20
   1  -6  11    3.00    1.10
  -1   6 -11    5.50    1.20
  -1   6 -11    4.90    1.20
   2  -6  11    2.80    1.20
  -2   6 -11    3.10    1.20
   3  -6  11    7.30    1.60
  -3   6 -11    4.90    1.50
   4  -7 -11    5.00    1.90
   4  -7 -11    1.80    1.60
  -4   7  11    1.50    1.60
   4   7 -11    3.40    1.70
  -4   7  11    5.10    1.70
  -3  -7  11    1.00    1.20
   3  -7 -11    0.00    1.30
   3  -7 -11    0.30    1.30
  -3  -7  11    0.20    1.50
   3   7 -11    1.00    1.30
   3   7 -11    2.80    1.40
  -3   7  11   -0.90    1.20
  -3   7  11    1.10    1.40
  -2  -7  11   15.00    1.90
  -2  -7  11   17.50    1.90
   2  -7 -11   18.70    2.20
   2  -7 -11   20.20    2.40
   2   7 -11   15.80    2.00
   2   7 -11   18.40    2.00
  -2   7  11   19.00    2.10
   2   7 -11   20.00    2.10
  -2   7  11   18.40    2.10
  -1  -7  11   17.90    1.90
  -1  -7  11   16.50    1.80
   1  -7 -11   19.50    1.90
   1  -7 -11   17.80    2.00
   1   7 -11   18.30    2.00
   1   7 -11   18.50    1.90
  -1   7  11   18.70    1.60
  -1   7  11   18.70    1.80
  -1   7  11   16.90    1.80
   0  -7  11    3.70    1.20
   0  -7 -11    5.90    1.20
   0  -7 -11    3.00    0.80
   0  -7 -11    3.40    0.80
   0  -7  11    2.80    1.20
   0  -7 -11    4.60    0.90
   0   7  11    3.50    0.90
   0   7  11    4.00    0.80
   0   7 -11    3.90    1.10
   0   7 -11    4.50    1.30
   1  -7  11   56.29    3.10
   1  -7  11   55.09    3.10
  -1   7 -11   60.89    3.10
  -1   7 -11   55.99    3.10
   2  -7  11   33.80    2.70
  -2   7 -11   35.10    2.50
   3  -7  11    6.60    1.70
  -3   7 -11    7.00    1.80
   4  -8 -11    1.00    1.60
   4  -8 -11    0.20    1.80
   4   8 -11   -1.70    1.50
   4   8 -11    0.60    1.50
  -4   8  11   -0.70    1.50
   3  -8 -11   38.10    3.20
   3  -8 -11   35.00    3.20
  -3  -8  11   32.60    2.80
  -3   8  11   36.40    3.10
   3   8 -11   38.70    2.90
  -3   8  11   38.20    3.10
   3   8 -11   37.60    3.00
  -2  -8  11   15.20    1.90
  -2  -8  11   18.50    2.10
   2  -8 -11   17.20    2.30
   2  -8 -11   16.60    2.10
   2   8 -11   19.90    2.10
  -2   8  11   20.00    2.10
   2   8 -11   17.90    2.00
  -2   8  11   20.10    2.20
  -1  -8  11    4.90    1.30
  -1  -8  11    7.90    1.50
   1  -8 -11    3.60    1.20
   1  -8 -11    4.70    1.20
  -1   8  11    2.50    1.10
  -1   8  11    5.30    1.20
   1   8 -11    4.10    1.20
   1   8 -11    4.30    1.30
   0  -8 -11  106.19    4.60
   0  -8  11  106.19    4.80
   0  -8  11  110.69    4.60
   0   8  11  105.09    4.40
   0   8 -11  110.19    4.70
   0   8  11  108.59    4.30
   0   8 -11  102.29    4.60
   1  -8  11   43.70    2.90
   1  -8  11   40.30    2.80
  -1   8 -11   41.20    2.70
  -1   8 -11   39.20    2.70
   2  -8  11   14.20    2.10
  -2   8 -11   18.50    2.20
   3  -8  11    2.00    1.50
  -3   8 -11   -1.60    1.30
  -3  -9  11   -0.50    1.30
   3  -9 -11    2.50    1.70
   3  -9 -11    0.60    1.50
   3   9 -11    1.00    1.40
  -3   9  11   -1.40    1.30
  -3   9  11   -0.20    1.40
  -2  -9  11    7.80    1.60
   2  -9 -11    7.80    1.70
  -2  -9  11    5.60    1.60
   2  -9 -11    7.60    1.70
  -2   9  11    9.70    1.80
  -2   9  11   10.80    1.80
   2   9 -11    8.30    1.70
   2   9 -11    6.50    1.50
   1  -9 -11    9.10    1.80
  -1  -9  11   10.40    1.60
   1  -9 -11   10.30    1.80
  -1  -9  11   11.60    1.80
  -1   9  11   11.70    1.60
  -1   9  11    9.20    1.50
   1   9 -11    7.90    1.50
   1   9 -11   10.10    1.70
   0  -9 -11   46.10    2.80
   0  -9  11   43.20    2.90
   0  -9  11   43.60    2.90
   0   9  11   42.00    2.40
   0   9 -11   41.00    2.80
   0   9 -11   41.40    2.80
   1  -9  11    4.40    1.60
   1  -9  11    3.30    1.40
  -1  -9 -11    2.80    1.00
  -1   9 -11    3.00    1.30
  -1   9 -11    3.70    1.40
   2  -9  11    2.70    1.50
  -2   9 -11    3.20    1.40
   3  -9  11    1.30    1.60
   3 -10 -11    4.10    1.80
   3 -10 -11    3.00    1.80
  -3  10  11   -1.60    1.20
  -3  10  11    0.00    1.40
   3  10 -11    1.90    1.60
   2 -10 -11    5.60    1.70
  -2 -10  11    6.70    1.70
  -2 -10  11    3.10    1.40
   2 -10 -11    7.20    1.70
   2  10 -11    4.40    1.50
  -2  10  11    9.10    1.80
  -2  10  11    7.30    1.60
   2  10 -11    3.70    1.50
  -1 -10  11   16.40    2.10
  -1 -10  11   18.40    2.20
   1 -10 -11   18.30    2.20
   1  10 -11   19.90    2.30
  -1  10  11   22.40    2.30
   1  10 -11   21.90    2.30
   0 -10  11  101.19    4.70
   0 -10 -11  104.59    4.60
   0 -10  11   94.39    4.70
   0  10  11   99.09    4.30
   0  10 -11   91.49    4.60
   0  10 -11  103.09    4.70
   1 -10  11    2.30    1.60
   1 -10  11    5.80    1.60
  -1 -10 -11    1.60    1.00
  -1  10 -11    5.40    1.60
  -1  10 -11    3.00    1.40
   2 -10  11    4.80    1.90
  -2  10 -11    0.20    1.30
   3 -10  11    4.10    1.90
   3 -11 -11    0.70    1.60
  -3  11  11    3.70    1.70
  -3  11  11    0.90    1.40
   3  11 -11    1.20    1.60
  -2 -11  11   13.00    2.10
   2 -11 -11   12.30    2.30
  -2  11  11   12.10    2.20
   2  11 -11   15.70    2.30
   2  11 -11   12.60    2.10
   1 -11 -11    4.90    1.60
  -1 -11  11    4.70    1.60
  -1 -11  11    3.40    1.50
   1  11 -11    4.90    1.50
   1  11 -11    5.90    1.60
  -1  11  11    6.10    1.50
   0 -11 -11   10.40    1.70
   0 -11  11    9.40    2.00
   0 -11  11    5.70    1.80
   0  11 -11    5.50    1.60
   0  11 -11    5.00    1.60
   0  11  11    7.40    1.40
   1 -11  11    6.50    1.90
   1 -11  11    7.60    2.00
  -1 -11 -11    4.70    1.20
  -1  11 -11    7.80    1.90
  -1  11 -11    4.00    1.60
   2 -11  11    1.90    1.70
  -2  12  11    2.50    1.50
   2  12 -11    3.10    1.60
   1 -12 -11    0.80    1.30
  -1 -12  11    2.10    1.50
  -1 -12  11   -0.80    1.40
  -1  12  11    3.10    1.40
   1  12 -11    2.30    1.50
   1  12 -11   -0.70    1.40
   0 -12  11    3.20    1.60
   0 -12 -11    2.80    1.30
   0 -12  11    2.00    1.60
   0  12 -11    3.70    1.50
   0  12 -11   -1.10    1.40
   0  12  11    4.60    1.30
  -1 -12 -11   -0.60    1.10
   1 -12  11    2.50    1.70
   1 -12  11    0.80    1.60
  -1  12 -11    0.50    1.40
  -1  12 -11    1.20    1.40
   1  12  11    0.40    1.00
   2 -12  11    4.00    2.00
  -2  13  11    1.60    1.50
   2  13 -11    0.00    1.60
  -1 -13  11   17.20    2.50
  -1 -13  11   17.50    2.80
  -1  13  11   26.80    2.80
   1  13 -11   16.10    2.50
   1  13 -11   11.60    2.20
   0 -13  11    2.70    1.70
   0 -13  11    2.00    1.70
   0 -13 -11    3.00    1.70
   0  13 -11   -1.90    1.40
   0  13 -11    0.40    1.50
   0  13  11    3.50    1.40
   1 -13  11    2.60    1.90
   1 -13  11    5.20    2.10
  -1 -13 -11    8.40    1.60
  -1  13 -11    2.70    1.60
   1  13  11    7.30    1.40
   0 -14  11    5.40    2.10
   0  14  11    3.40    1.40
   0  14 -11    2.70    1.70
   0  14 -11    0.50    1.70
  -4   0  12    1.70    1.40
   4   0 -12    4.40    1.80
  -4   0  12    2.20    1.40
  -4   0  12    0.50    1.20
   4   0 -12    0.10    1.40
  -3   0  12    7.70    1.60
  -3   0  12    9.70    1.40
   3   0 -12   11.80    1.80
   3   0 -12    9.50    1.70
  -3   0  12    8.20    1.50
   2   0 -12    0.70    1.00
   2   0 -12    0.70    0.90
  -2   0  12    0.20    0.90
  -2   0  12    0.20    0.80
  -2   0  12    0.40    0.70
  -1   0  12   18.90    1.60
   1   0 -12   21.60    1.70
   1   0 -12   19.70    1.70
  -1   0  12   22.50    1.60
   1   0 -12   20.90    1.40
   1   0 -12   19.10    1.60
   0   0 -12    4.40    0.90
   0   0  12    3.70    0.70
   0   0  12    3.00    0.70
   0   0 -12    3.90    0.70
   0   0 -12    3.50    0.70
   0   0  12    4.80    0.80
   0   0 -12    2.90    0.60
  -1   0 -12  116.09    4.30
  -1   0 -12  119.79    4.30
  -1   0 -12  116.69    4.30
   1   0  12  122.59    4.40
   1   0  12  121.39    4.30
  -1   0 -12  125.89    4.40
  -4  -1  12    0.40    1.10
  -4  -1  12    1.10    1.50
   4  -1 -12    0.60    1.50
   4  -1 -12   -1.20    1.40
   4   1 -12   -0.20    1.40
  -4   1  12    1.60    1.40
   4   1 -12    1.30    1.50
  -4   1  12   -1.90    1.20
  -4   1  12   -1.70    1.10
  -3  -1  12  144.59    5.80
  -3  -1  12  127.49    5.60
  -3  -1  12  136.19    5.40
   3  -1 -12  138.19    5.90
   3  -1 -12  137.49    6.00
  -3   1  12  133.29    5.70
  -3   1  12  132.49    5.70
  -3   1  12  123.39    5.30
   3   1 -12  133.09    5.80
   3   1 -12  136.49    5.80
  -2  -1  12    7.40    1.00
   2  -1 -12    5.30    1.40
   2  -1 -12    3.90    1.10
  -2  -1  12    6.40    1.20
  -2  -1  12    4.60    1.10
  -2   1  12    2.80    1.00
   2   1 -12    6.70    1.30
   2   1 -12    3.60    1.10
  -2   1  12    4.60    1.20
  -2   1  12    4.40    1.00
   1  -1 -12  393.66   13.70
   1  -1 -12  415.06   13.80
  -1  -1  12  395.36   13.60
  -1  -1  12  407.26   13.60
   1  -1 -12  406.96   13.50
   1   1 -12  412.06   13.80
  -1   1  12  400.86   13.60
  -1   1  12  408.56   13.60
  -1   1  12  407.36   13.30
   1   1 -12  395.36   13.50
   1   1 -12  409.86   13.70
   0  -1 -12   92.49    3.50
   0  -1 -12   84.09    3.40
   0  -1  12   84.79    3.50
   0  -1  12   89.19    3.40
   0  -1 -12   90.89    3.60
   0  -1 -12   90.49    3.30
   0   1 -12   85.49    3.50
   0   1 -12   89.99    3.60
   0   1 -12   84.19    3.30
   0   1  12   86.29    3.40
   0   1  12   94.29    3.40
   0   1  12   87.69    3.50
   0   1 -12   90.19    3.50
  -1  -1 -12  107.79    4.00
  -1  -1 -12  114.89    4.10
   1  -1  12  111.19    4.10
   1  -1  12  114.99    4.20
  -1   1 -12  111.89    4.10
  -1   1 -12  108.89    4.10
  -1   1 -12  112.09    4.20
  -4  -2  12   -0.30    1.30
   4  -2 -12    0.10    1.40
   4  -2 -12    0.60    1.50
  -4  -2  12   -0.10    1.20
  -4   2  12    1.40    1.20
  -4   2  12   -1.40    1.20
   4   2 -12    0.30    1.50
  -4   2  12   -2.00    1.20
  -3  -2  12   25.00    2.20
  -3  -2  12   22.50    2.20
   3  -2 -12   20.20    2.30
  -3  -2  12   22.90    2.30
   3  -2 -12   27.50    2.60
  -3   2  12   18.80    2.00
  -3   2  12   23.80    2.40
   3   2 -12   18.50    2.20
   3   2 -12   22.40    2.30
  -3   2  12   19.90    2.20
  -2  -2  12    8.60    1.10
  -2  -2  12    8.00    1.30
  -2  -2  12    8.70    1.40
   2  -2 -12    8.10    1.40
   2  -2 -12   11.30    1.90
  -2   2  12    6.20    1.30
  -2   2  12    7.50    1.40
  -2   2  12    8.50    1.20
   2   2 -12    8.80    1.40
   2   2 -12    8.60    1.50
   1  -2 -12  126.79    5.00
   1  -2 -12  124.09    4.80
  -1  -2  12  134.59    5.00
   1  -2 -12  134.89    5.10
  -1  -2  12  129.49    5.00
   1   2 -12  126.39    4.80
  -1   2  12  129.69    5.00
   1   2 -12  133.29    5.10
   1   2 -12  131.59    5.20
  -1   2  12  132.89    4.90
  -1   2  12  126.59    4.70
   0  -2 -12    5.80    0.90
   0  -2 -12    5.60    0.80
   0  -2  12    5.30    0.80
   0  -2  12    5.80    0.90
   0  -2 -12    7.00    0.80
   0  -2 -12    6.40    1.00
   0   2  12    4.60    0.80
   0   2 -12    6.70    0.80
   0   2 -12    5.60    0.90
   0   2  12    6.60    0.80
   0   2  12    7.10    0.90
   0   2 -12    5.70    0.90
   1  -2  12  111.69    4.40
   1  -2  12  117.09    4.30
   1  -2  12  121.89    4.50
  -1   2 -12  126.99    4.50
  -1   2 -12  115.29    4.40
  -1   2 -12  112.49    4.30
  -2   2 -12   15.50    1.50
  -4  -3  12    4.90    1.60
   4  -3 -12    6.50    1.90
   4  -3 -12    4.30    1.70
  -4  -3  12    6.00    1.50
  -4   3  12    6.60    1.70
   4   3 -12    5.50    1.80
  -4   3  12    6.20    1.50
  -4   3  12    3.40    1.70
  -3  -3  12    3.70    1.40
   3  -3 -12    4.70    1.40
  -3  -3  12    4.30    1.30
   3  -3 -12    6.30    1.60
  -3  -3  12    5.00    1.20
  -3   3  12    5.30    1.40
   3   3 -12    3.30    1.40
  -3   3  12    3.80    1.30
   3   3 -12    4.20    1.40
  -3   3  12    3.00    1.10
   2  -3 -12    4.20    1.20
  -2  -3  12    3.80    1.10
  -2  -3  12    4.80    1.20
   2  -3 -12    4.00    1.30
   2   3 -12    6.40    1.40
  -2   3  12    6.60    1.30
   2   3 -12    6.70    1.30
  -2   3  12    5.20    1.30
   1  -3 -12   33.70    2.00
  -1  -3  12   40.90    2.20
   1  -3 -12   37.00    2.10
   1  -3 -12   40.30    2.30
  -1  -3  12   44.20    2.30
   1   3 -12   45.00    2.50
  -1   3  12   41.10    2.20
   1   3 -12   45.00    2.10
   1   3 -12   40.30    2.30
  -1   3  12   40.90    2.20
  -1   3  12   42.10    1.90
   0  -3 -12   24.90    1.40
   0  -3  12   22.20    1.50
   0  -3 -12   24.90    1.50
   0  -3 -12   26.10    1.70
   0  -3 -12   25.40    1.50
   0   3 -12   22.90    1.60
   0   3  12   24.10    1.40
   0   3  12   24.80    1.50
   0   3  12   24.30    1.40
   0   3 -12   23.80    1.50
   1  -3  12   24.30    1.60
   1  -3  12   22.90    1.70
   1  -3  12   20.90    1.40
  -1   3 -12   23.60    1.50
  -1   3 -12   26.10    1.70
  -1   3 -12   25.40    1.60
   2  -3  12    5.40    1.10
  -2   3 -12    5.20    1.10
  -3   3 -12    3.90    1.20
  -4  -4  12    4.30    1.40
   4  -4 -12    3.20    1.70
  -4  -4  12    5.60    1.70
   4  -4 -12    1.50    1.60
   4   4 -12    5.70    1.80
  -4   4  12    4.20    1.50
  -4   4  12    5.90    1.90
  -4   4  12    6.10    1.90
  -3  -4  12   24.10    2.40
   3  -4 -12   21.30    2.60
  -3  -4  12   21.80    2.00
  -3  -4  12   23.50    2.30
   3  -4 -12   28.30    2.80
  -3   4  12   20.20    2.10
   3   4 -12   25.90    2.50
   3   4 -12   22.00    2.30
  -3   4  12   24.90    2.50
  -3   4  12   27.10    2.60
  -2  -4  12  108.29    4.60
   2  -4 -12  106.29    4.70
  -2  -4  12  107.49    4.50
   2  -4 -12  102.09    4.80
  -2   4  12  106.29    4.60
   2   4 -12  102.19    4.60
  -2   4  12  108.89    4.60
   2   4 -12  105.79    4.60
   1  -4 -12   10.30    1.30
   1  -4 -12   13.60    1.30
  -1  -4  12   11.40    1.40
  -1  -4  12    9.50    1.40
   1  -4 -12   12.40    1.40
   1   4 -12   11.20    1.40
  -1   4  12    7.30    1.20
   1   4 -12   10.30    1.80
  -1   4  12   11.60    1.10
  -1   4  12   13.30    1.40
   1   4 -12   10.00    1.40
   0  -4  12   17.40    1.60
   0  -4 -12   16.40    1.30
   0  -4 -12   15.40    1.20
   0  -4  12   19.40    1.50
   0  -4 -12   15.70    1.20
   0  -4 -12   20.30    1.70
   0   4  12   15.40    1.20
   0   4 -12   17.20    1.60
   0   4  12   16.10    1.20
   0   4 -12   18.00    1.60
   0   4  12   16.60    1.30
   0   4 -12   15.50    1.60
   1  -4  12   53.59    2.60
   1  -4  12   51.79    2.60
  -1   4 -12   46.50    2.50
  -1   4 -12   55.79    2.60
  -1   4 -12   59.59    2.70
   2  -4  12   13.80    1.60
  -2   4 -12   18.50    1.80
   3  -4  12    7.00    1.40
  -3   4 -12    8.10    1.50
  -4   4 -12    2.80    1.50
  -4  -5  12    4.70    1.50
   4  -5 -12    2.90    1.70
  -4  -5  12    1.50    1.60
   4  -5 -12   10.20    2.10
  -4   5  12    7.90    2.10
  -4   5  12    5.30    1.80
   4   5 -12    9.00    2.10
   3  -5 -12   14.70    2.20
  -3  -5  12    9.20    1.80
   3  -5 -12   15.20    2.30
  -3  -5  12   10.80    1.80
  -3   5  12   13.10    2.00
  -3   5  12   14.10    1.70
   3   5 -12   11.00    1.80
   3   5 -12   11.10    1.90
  -3   5  12   13.30    2.10
   2  -5 -12    7.70    1.60
  -2  -5  12    7.40    1.40
  -2  -5  12    9.30    1.50
   2  -5 -12    9.60    1.60
  -2   5  12    7.80    1.20
   2   5 -12    7.50    1.50
  -2   5  12    8.10    1.50
  -2   5  12    8.40    1.50
   2   5 -12    6.20    1.40
   1  -5 -12   49.40    2.60
  -1  -5  12   52.59    2.80
  -1  -5  12   53.69    2.90
   1  -5 -12   57.29    3.00
   1  -5 -12   48.40    2.70
   1  -5 -12   50.19    2.50
   1   5 -12   54.49    3.00
   1   5 -12   57.29    2.90
  -1   5  12   52.79    2.40
  -1   5  12   52.59    2.70
  -1   5  12   55.69    2.70
   0  -5  12  113.89    4.70
   0  -5 -12  112.89    4.40
   0  -5 -12  117.19    4.40
   0  -5  12  119.49    4.60
   0  -5 -12  116.79    4.60
   0  -5 -12  109.19    4.40
   0   5  12  117.29    4.40
   0   5  12  115.59    4.40
   0   5  12  112.99    4.30
   0   5 -12  123.49    4.70
   0   5 -12  119.59    4.70
   1  -5  12   49.30    2.70
   1  -5  12   45.30    2.50
  -1   5 -12   49.99    2.60
  -1   5 -12   48.70    2.50
  -1   5 -12   53.69    2.70
   2  -5  12   72.39    3.50
  -2   5 -12   71.69    3.50
   3  -5  12    3.10    1.20
  -3   5 -12   -0.90    1.20
   4  -6 -12    1.80    1.60
   4  -6 -12   -1.30    1.50
  -4   6  12    3.90    1.80
   4   6 -12    1.80    1.60
  -4   6  12    1.70    1.70
  -3  -6  12    5.70    1.50
  -3  -6  12    6.50    1.60
   3  -6 -12    5.40    1.70
   3  -6 -12    5.00    1.60
  -3   6  12    5.00    1.60
   3   6 -12    6.10    1.50
  -3   6  12    4.20    1.50
   3   6 -12    5.60    1.50
  -2  -6  12  125.79    5.40
  -2  -6  12  132.09    5.20
   2  -6 -12  131.89    5.50
   2  -6 -12  127.79    5.60
   2   6 -12  122.39    5.40
   2   6 -12  128.39    5.40
  -2   6  12  120.89    5.30
  -2   6  12  128.79    5.40
  -2   6  12  122.39    5.00
   1  -6 -12    7.70    1.30
   1  -6 -12    7.70    1.20
  -1  -6  12    8.10    1.40
  -1  -6  12    6.80    1.30
   1  -6 -12    7.50    1.50
   1   6 -12    7.70    1.40
  -1   6  12    8.40    1.10
  -1   6  12    6.50    1.20
   1   6 -12    7.50    1.40
   1   6 -12    5.30    1.30
  -1   6  12    5.70    1.20
   0  -6  12   55.29    2.80
   0  -6  12   51.29    2.90
   0  -6 -12   44.10    2.30
   0  -6 -12   50.59    2.40
   0  -6 -12   49.10    2.40
   0  -6 -12   54.19    2.70
   0   6 -12   50.19    2.80
   0   6 -12   50.49    2.80
   0   6  12   47.80    2.30
   0   6  12   50.49    2.40
   1  -6  12    1.70    1.10
   1  -6  12    2.20    1.00
  -1   6 -12    1.60    0.90
  -1   6 -12    0.90    1.00
   2  -6  12    2.10    1.20
  -2   6 -12    2.10    1.10
   3  -6  12    2.80    1.30
  -3   6 -12    2.50    1.40
   4  -7 -12    5.50    2.00
   4  -7 -12    3.60    1.90
   4   7 -12    3.30    1.80
  -4   7  12    5.10    1.80
  -3  -7  12    3.70    1.50
   3  -7 -12    1.30    1.40
  -3  -7  12    0.90    1.30
   3  -7 -12    0.40    1.40
  -3   7  12    2.30    1.40
  -3   7  12    0.50    1.40
   3   7 -12    0.70    1.30
   3   7 -12    2.30    1.40
  -2  -7  12    0.00    1.10
   2  -7 -12    2.00    1.30
  -2  -7  12    1.00    1.10
   2  -7 -12    0.90    1.10
  -2   7  12   -0.30    1.00
   2   7 -12   -0.20    1.00
  -2   7  12    0.80    1.00
   2   7 -12    0.20    1.00
   2   7 -12   -0.20    1.00
   1  -7 -12   18.70    2.10
   1  -7 -12   17.40    1.90
  -1  -7  12   18.90    2.00
  -1  -7  12   18.90    1.90
   1   7 -12   18.40    1.90
  -1   7  12   16.10    1.80
  -1   7  12   17.60    1.90
   1   7 -12   17.80    2.10
   0  -7  12  260.27    9.20
   0  -7  12  267.37    9.40
   0  -7 -12  258.17    9.20
   0   7 -12  257.07    9.30
   0   7  12  255.47    8.90
   0   7  12  259.57    9.00
   0   7 -12  246.28    9.30
   1  -7  12   60.29    3.30
   1  -7  12   60.49    3.30
  -1   7 -12   58.79    3.20
  -1   7 -12   64.69    3.30
   2  -7  12   31.10    2.70
  -2   7 -12   33.10    2.50
   3  -7  12    2.40    1.50
  -3   7 -12   -1.30    1.40
   4  -8 -12    3.00    1.90
   3  -8 -12    2.30    1.60
   3  -8 -12    3.70    1.60
  -3  -8  12   -1.20    1.20
  -3   8  12    1.30    1.40
  -3   8  12    2.10    1.40
   3   8 -12    0.00    1.20
   3   8 -12   -0.60    1.40
  -2  -8  12    9.80    1.70
   2  -8 -12   12.60    2.10
   2  -8 -12   11.50    1.80
  -2  -8  12    9.70    1.70
   2   8 -12    9.50    1.70
  -2   8  12   12.60    1.90
   2   8 -12   10.90    1.70
  -2   8  12    6.60    1.50
  -1  -8  12   15.80    1.90
   1  -8 -12   12.80    1.70
   1  -8 -12   13.60    1.90
  -1  -8  12   15.10    1.80
  -1   8  12   15.50    1.80
   1   8 -12   13.90    1.80
  -1   8  12   13.20    1.70
   1   8 -12   15.20    1.80
   0  -8  12  118.39    4.90
   0  -8 -12  115.89    4.90
   0  -8  12  114.69    5.10
   0   8 -12  115.09    5.00
   0   8  12  112.29    4.60
   0   8 -12  120.49    5.00
   1  -8  12   11.00    1.70
   1  -8  12   14.40    1.90
  -1   8 -12   11.90    1.80
  -1   8 -12   17.70    2.00
   2  -8  12    2.00    1.40
  -2   8 -12    1.90    1.30
   3  -8  12    3.30    1.60
   3  -9 -12    0.60    1.50
  -3  -9  12    3.20    1.50
   3  -9 -12    2.00    1.60
  -3   9  12   -1.20    1.20
   3   9 -12    0.70    1.60
  -3   9  12    1.30    1.40
  -2  -9  12   -0.40    1.20
   2  -9 -12    0.50    1.20
  -2  -9  12   -1.10    1.20
   2  -9 -12   -0.30    1.10
   2   9 -12   -1.90    1.10
  -2   9  12    0.40    1.10
   2   9 -12    2.10    1.40
  -2   9  12   -1.60    1.10
  -1  -9  12    9.80    1.70
   1  -9 -12   12.60    1.90
  -1  -9  12   11.70    1.90
   1   9 -12    9.30    1.70
   1   9 -12    7.90    1.60
  -1   9  12   13.80    1.80
   0  -9  12   62.69    3.50
   0  -9 -12   64.09    3.40
   0  -9  12   66.19    3.60
   0   9 -12   62.49    3.50
   0   9 -12   62.79    3.50
   0   9  12   60.49    3.10
   1  -9  12    7.50    1.70
   1  -9  12   10.10    1.80
  -1   9 -12    5.50    1.50
  -1   9 -12    8.90    1.60
   2  -9  12    5.70    1.70
  -2   9 -12    3.20    1.40
   3  -9  12    2.20    1.60
   3 -10 -12    0.50    3.30
   3 -10 -12   -0.50    1.40
   3  10 -12    2.30    1.60
  -3  10  12   -1.20    1.30
  -3  10  12   -0.50    1.40
   2 -10 -12    4.60    1.70
  -2 -10  12    2.20    1.40
  -2 -10  12    5.80    1.80
   2  10 -12    0.10    1.30
  -2  10  12    2.80    1.40
  -2  10  12    2.20    1.40
   2  10 -12    2.60    1.50
  -1 -10  12   17.50    2.20
  -1 -10  12   16.50    2.10
   1 -10 -12   25.00    2.60
   1  10 -12   17.90    2.20
   1  10 -12   18.20    2.20
  -1  10  12   21.50    2.30
   0 -10 -12    1.80    1.20
   0 -10  12    2.30    1.40
   0 -10  12    2.30    1.40
   0  10 -12    0.20    1.20
   0  10  12    1.00    1.00
   0  10 -12    1.70    1.30
  -1 -10 -12   14.80    1.70
   1 -10  12   13.80    2.10
   1 -10  12   16.80    2.30
  -1  10 -12   13.30    2.10
  -1  10 -12   17.80    2.10
   2 -10  12   -0.20    1.60
  -2  10 -12   -2.30    1.20
   3  11 -12    3.30    1.80
  -3  11  12    0.80    1.50
  -2 -11  12   10.00    1.90
   2 -11 -12    6.60    1.90
   2  11 -12    7.10    1.70
   2  11 -12    7.80    1.80
  -2  11  12    8.80    1.90
  -1 -11  12   19.00    2.50
   1 -11 -12   21.70    2.50
  -1 -11  12   16.50    2.30
   1  11 -12   14.70    2.20
   1  11 -12   16.40    2.30
  -1  11  12   20.60    2.30
   0 -11 -12    0.60    1.10
   0 -11  12    2.10    1.50
   0 -11  12   -0.60    1.40
   0  11 -12    1.10    1.40
   0  11 -12   -0.50    1.20
   0  11  12   -0.60    1.00
  -1 -11 -12    4.80    1.20
   1 -11  12    4.20    1.70
   1 -11  12    4.80    1.80
  -1  11 -12    5.30    1.80
  -1  11 -12    2.40    1.50
   2 -11  12    0.70    1.70
   2  12 -12    2.40    1.50
  -2  12  12    3.00    1.70
   1 -12 -12    1.30    1.30
  -1 -12  12   -0.10    1.50
  -1 -12  12    1.70    1.50
  -1  12  12    1.00    1.30
   1  12 -12    1.20    1.50
   1  12 -12   -0.10    1.30
   0 -12 -12   11.60    2.00
   0 -12  12   12.10    2.20
   0 -12  12    6.70    1.90
   0  12 -12    8.60    2.00
   0  12  12   10.00    1.70
   0  12 -12    6.30    2.00
  -1 -12 -12    6.30    1.40
   1 -12  12    7.40    2.10
   1 -12  12    6.50    2.10
  -1  12 -12    3.00    1.70
  -1  12 -12    9.30    2.50
  -1 -13  12    8.70    2.10
   1  13 -12    9.70    2.10
  -1  13  12   12.90    2.20
   1  13 -12    9.30    2.20
   0 -13  12    2.30    1.70
   0 -13  12   -0.60    1.60
   0  13 -12    1.20    1.60
   0  13  12   -1.00    1.10
   0  13 -12   -1.90    1.40
   1 -13  12    1.50    1.90
  -4   0  13    0.10    1.10
   4   0 -13   -0.80    1.30
  -4   0  13   -0.80    1.10
   4   0 -13    0.30    1.40
  -4   0  13   -0.80    1.30
   3   0 -13    0.10    1.20
  -3   0  13    0.70    1.10
  -3   0  13    0.80    1.00
  -3   0  13    0.70    1.20
   3   0 -13    0.30    1.20
  -2   0  13   -0.50    0.90
  -2   0  13    0.20    0.70
   2   0 -13   -0.40    1.00
   2   0 -13   -1.10    0.80
  -2   0  13   -1.70    0.70
  -1   0  13   18.10    1.60
   1   0 -13   19.60    1.60
  -1   0  13   21.80    1.70
   1   0 -13   20.20    1.50
   1   0 -13   27.20    2.60
   0   0 -13    0.30    0.50
   0   0 -13   -0.40    0.60
   0   0 -13    0.00    0.70
   0   0  13    0.40    0.50
   0   0  13    0.30    0.60
   0   0 -13   -0.40    0.40
   0   0  13    0.80    0.70
  -1   0 -13    2.30    0.60
  -1   0 -13    0.80    0.50
   1   0  13    1.80    0.70
  -1   0 -13    2.20    0.70
   1   0  13    1.90    0.50
  -1   0 -13    1.40    0.60
  -4  -1  13    0.30    1.20
   4  -1 -13   -1.40    1.50
  -4  -1  13   -0.70    1.40
   4  -1 -13    3.10    1.60
   4   1 -13   -1.20    1.30
  -4   1  13   -1.10    1.20
  -4   1  13   -1.40    1.10
  -4   1  13   -1.00    1.20
   4   1 -13    1.00    1.50
  -3  -1  13   17.00    2.10
   3  -1 -13   16.70    2.10
   3  -1 -13   19.30    2.40
  -3  -1  13   15.90    1.80
  -3  -1  13   16.10    2.00
  -3   1  13   16.00    2.20
  -3   1  13   18.70    1.90
   3   1 -13   15.30    2.10
  -3   1  13   19.80    2.20
   3   1 -13   13.80    2.10
  -2  -1  13   57.39    2.60
   2  -1 -13   55.29    3.00
   2  -1 -13   50.79    3.10
  -2  -1  13   60.09    3.00
  -2  -1  13   53.39    3.00
   2   1 -13   54.99    3.00
   2   1 -13   53.99    3.10
  -2   1  13   53.29    2.90
  -2   1  13   50.19    2.80
  -2   1  13   49.00    2.60
  -1  -1  13   29.30    1.90
  -1  -1  13   24.20    1.80
   1  -1 -13   27.10    1.90
   1  -1 -13   26.70    1.70
   1  -1 -13   22.20    1.70
  -1   1  13   24.20    1.80
   1   1 -13   26.30    1.90
   1   1 -13   30.00    1.90
   1   1 -13   27.70    1.60
  -1   1  13   29.20    1.90
   0  -1  13  177.98    6.10
   0  -1 -13  170.88    6.30
   0  -1 -13  174.28    6.20
   0  -1  13  168.78    6.20
   0  -1 -13  173.28    6.20
   0  -1 -13  169.98    6.00
   0   1 -13  174.18    6.20
   0   1 -13  172.58    6.20
   0   1  13  170.08    6.00
   0   1 -13  174.48    6.30
   0   1  13  169.18    6.20
   0   1  13  168.68    6.10
   0   1 -13  171.98    6.00
  -1  -1 -13    1.50    0.60
   1  -1  13    1.30    0.70
   1  -1  13    1.40    0.50
  -1  -1 -13    0.90    0.50
  -1   1 -13    0.30    0.60
  -1   1 -13    1.90    0.70
  -1   1 -13    1.20    0.60
  -4  -2  13    5.40    1.50
   4  -2 -13    7.50    2.00
   4  -2 -13    9.90    2.20
  -4  -2  13    7.40    1.90
  -4   2  13    7.70    1.90
   4   2 -13    7.20    1.90
  -4   2  13    6.80    1.90
  -4   2  13    5.90    1.70
   3  -2 -13   27.10    2.60
  -3  -2  13   27.00    2.50
   3  -2 -13   28.90    2.90
  -3  -2  13   25.30    2.20
  -3  -2  13   29.00    2.50
  -3   2  13   27.80    2.50
  -3   2  13   25.20    2.10
   3   2 -13   23.90    2.60
  -3   2  13   27.30    2.60
   3   2 -13   29.10    2.70
   2  -2 -13   23.90    2.40
  -2  -2  13   21.30    2.00
  -2  -2  13   18.70    1.70
   2  -2 -13   22.70    2.20
  -2  -2  13   24.80    2.10
  -2   2  13   23.70    2.10
   2   2 -13   23.40    2.20
   2   2 -13   22.10    2.10
  -2   2  13   19.90    2.00
   1  -2 -13  250.07    8.70
  -1  -2  13  254.17    8.90
  -1  -2  13  249.28    8.80
   1  -2 -13  266.87    9.00
   1  -2 -13  242.08    8.90
   1   2 -13  245.48    8.70
  -1   2  13  246.48    8.90
   1   2 -13  258.87    9.00
  -1   2  13  253.17    8.80
  -1   2  13  253.37    8.50
   1   2 -13  246.18    9.00
   0  -2 -13   16.80    1.30
   0  -2 -13   16.60    1.50
   0  -2 -13   16.20    1.20
   0  -2  13   16.30    1.30
   0  -2 -13   17.40    1.30
   0   2 -13   16.70    1.20
   0   2 -13   14.70    1.40
   0   2  13   15.00    1.20
   0   2 -13   15.80    1.40
   0   2  13   16.50    1.20
   0   2  13   15.00    1.30
   1  -2  13   24.80    1.50
   1  -2  13   21.80    1.50
   1  -2  13   25.30    1.70
  -1   2 -13   24.70    1.50
  -1   2 -13   24.90    1.70
  -1   2 -13   22.20    1.50
  -2   2 -13   79.49    3.40
  -4  -3  13   -0.10    1.40
   4  -3 -13    0.60    1.60
   4  -3 -13    0.90    1.50
  -4  -3  13   -2.40    1.10
  -4   3  13   -1.40    1.30
  -4   3  13    0.40    1.40
   4   3 -13    1.10    1.50
  -4   3  13    2.00    1.50
  -3  -3  13   27.50    2.50
   3  -3 -13   27.00    2.80
  -3  -3  13   27.10    2.60
   3  -3 -13   27.50    2.80
  -3  -3  13   24.50    2.20
  -3   3  13   29.50    2.70
   3   3 -13   25.30    2.60
  -3   3  13   27.80    2.10
  -3   3  13   27.20    2.50
   3   3 -13   28.10    2.70
   2  -3 -13    3.60    1.20
   2  -3 -13    2.40    1.20
  -2  -3  13    5.00    1.20
  -2  -3  13    5.20    1.30
  -2   3  13    7.10    1.40
   2   3 -13    4.20    1.30
  -2   3  13    4.40    1.20
   2   3 -13    4.90    1.20
  -1  -3  13    6.80    1.30
   1  -3 -13    3.60    0.80
   1  -3 -13    4.70    1.00
  -1  -3  13    5.30    1.10
   1  -3 -13    4.10    1.00
   1   3 -13    3.90    1.10
   1   3 -13    5.70    1.20
  -1   3  13    4.90    1.00
  -1   3  13    3.50    0.70
   1   3 -13    4.20    0.90
  -1   3  13    5.70    1.10
   0  -3 -13  149.88    5.20
   0  -3  13  142.49    5.30
   0  -3 -13  144.79    5.30
   0  -3 -13  140.99    5.30
   0  -3 -13  144.69    5.40
   0   3  13  144.69    5.20
   0   3 -13  138.29    5.40
   0   3 -13  134.29    5.10
   0   3  13  148.09    5.10
   0   3 -13  137.49    5.40
   0   3  13  141.69    5.30
   1  -3  13   10.30    1.30
   1  -3  13    8.80    1.10
  -1   3 -13    7.00    1.10
  -1   3 -13    6.70    1.00
  -1   3 -13   11.00    1.30
   2  -3  13    4.10    1.10
  -2   3 -13    3.60    1.10
  -3   3 -13    8.70    1.50
  -3   3 -13    9.90    1.50
  -4  -4  13   11.80    2.20
  -4  -4  13   10.20    1.80
   4  -4 -13    4.80    2.00
   4  -4 -13   12.80    2.50
  -4   4  13   16.70    2.40
  -4   4  13   10.00    2.10
   4   4 -13    9.70    2.10
   3  -4 -13    2.20    1.30
  -3  -4  13    3.40    1.40
   3  -4 -13    0.90    1.40
  -3  -4  13    2.90    1.30
  -3   4  13    1.60    1.00
   3   4 -13    0.40    1.30
   3   4 -13    2.90    1.30
  -3   4  13    2.10    1.30
  -3   4  13    2.30    1.40
   2  -4 -13   18.00    2.00
   2  -4 -13   17.00    2.10
  -2  -4  13   18.80    1.90
  -2  -4  13   19.30    1.90
  -2   4  13   20.80    2.10
  -2   4  13   17.30    1.70
   2   4 -13   18.30    2.00
  -2   4  13   17.10    1.90
   2   4 -13   18.20    2.00
  -1  -4  13  290.07   10.40
   1  -4 -13  284.97   10.20
  -1  -4  13  306.17   10.30
   1  -4 -13  288.37   10.30
   1  -4 -13  311.07   10.60
   1  -4 -13  289.77   10.40
  -1   4  13  305.07   10.30
   1   4 -13  286.17   10.40
  -1   4  13  284.97   10.30
  -1   4  13  291.87    9.90
   1   4 -13  301.67   10.50
   0  -4 -13    1.50    0.80
   0  -4 -13    2.00    0.70
   0  -4  13    2.00    0.90
   0  -4  13    0.50    0.80
   0  -4 -13    0.60    0.50
   0  -4 -13    1.10    0.60
   0   4 -13    2.20    1.00
   0   4  13    1.10    0.60
   0   4  13    1.20    0.80
   0   4 -13    0.90    0.80
   0   4  13    1.40    0.60
   0   4 -13    1.50    0.80
   1  -4  13   15.60    1.60
   1  -4  13   14.10    1.40
  -1   4 -13   14.10    1.50
  -1   4 -13   11.20    1.30
  -1   4 -13   13.50    1.60
   2  -4  13   32.20    2.30
  -2   4 -13   35.80    2.30
   3  -4  13   15.50    1.70
  -3   4 -13   12.90    1.80
  -3   4 -13   14.00    1.70
   4  -5 -13   -1.50    1.50
   4  -5 -13    0.00    1.60
   4   5 -13   -2.60    1.40
  -4   5  13   -0.70    1.50
  -4   5  13   -0.10    1.50
   3  -5 -13    9.90    1.90
  -3  -5  13    9.30    1.70
  -3  -5  13    8.20    1.70
   3  -5 -13    9.00    1.90
   3   5 -13    6.60    1.70
   3   5 -13    5.30    1.60
  -3   5  13   10.70    1.90
  -3   5  13    9.50    1.80
  -2  -5  13   11.90    1.70
   2  -5 -13   11.50    1.90
  -2  -5  13    8.70    1.50
   2  -5 -13    7.80    1.50
   2   5 -13    7.80    1.50
   2   5 -13    8.90    1.60
  -2   5  13    7.00    1.40
  -2   5  13    7.80    1.20
  -2   5  13    8.60    1.60
   1  -5 -13  135.39    5.30
  -1  -5  13  138.29    5.20
   1  -5 -13  131.39    5.50
   1  -5 -13  124.39    5.10
  -1  -5  13  127.19    5.30
  -1   5  13  129.59    5.20
  -1   5  13  133.69    5.20
  -1   5  13  129.29    4.80
   1   5 -13  133.09    5.40
   1   5 -13  137.59    5.50
   0  -5 -13   67.59    2.90
   0  -5 -13   66.29    3.00
   0  -5  13   71.99    3.40
   0  -5 -13   72.29    3.30
   0  -5 -13   67.79    3.00
   0  -5  13   69.89    3.20
   0   5 -13   69.99    3.30
   0   5  13   68.19    2.80
   0   5 -13   66.79    3.30
   0   5  13   67.69    2.90
   1  -5  13   41.50    2.50
   1  -5  13   42.20    2.40
  -1   5 -13   44.30    2.60
  -1   5 -13   45.00    2.50
   2  -5  13   11.20    1.60
  -2   5 -13   10.90    1.60
   3  -5  13    6.60    1.50
  -3   5 -13    6.10    1.60
  -3   5 -13    7.90    1.50
   4  -6 -13    1.90    1.90
   4  -6 -13   -0.30    1.50
   4   6 -13    1.50    1.50
  -4   6  13    0.90    1.80
  -4   6  13   -1.10    1.40
  -3  -6  13    7.80    1.70
   3  -6 -13    8.20    1.80
   3  -6 -13   10.50    2.00
  -3  -6  13    4.20    1.60
  -3   6  13   10.80    2.00
   3   6 -13    7.40    1.70
   3   6 -13    6.90    1.70
  -3   6  13    7.10    1.70
   2  -6 -13   -0.40    0.80
  -2  -6  13    2.20    1.20
  -2  -6  13   -1.30    1.00
   2  -6 -13    0.80    1.10
  -2   6  13    0.00    0.90
   2   6 -13    1.20    1.10
  -2   6  13    0.00    1.00
   2   6 -13   -1.10    0.90
  -1  -6  13    1.00    1.10
   1  -6 -13    0.10    1.00
  -1  -6  13   -0.10    1.00
   1  -6 -13    1.10    0.80
   1   6 -13    0.70    1.10
   1   6 -13    0.70    1.00
  -1   6  13    0.00    0.80
   1   6 -13    0.90    1.10
  -1   6  13    1.40    0.90
   0  -6  13    0.80    1.00
   0  -6 -13   -0.20    0.80
   0  -6  13   -0.40    1.00
   0   6 -13   -0.20    0.90
   0   6 -13    1.00    0.90
   0   6  13    0.40    0.70
   0   6  13    0.50    0.60
   1  -6  13   16.60    1.80
   1  -6  13   16.50    1.80
  -1   6 -13   20.20    2.00
  -1   6 -13   17.70    1.80
   2  -6  13    1.20    1.20
  -2   6 -13    2.60    1.30
   3  -6  13   13.80    1.90
  -3   6 -13   13.90    1.90
  -3   6 -13   13.80    2.10
   4  -7 -13    2.80    1.80
   4  -7 -13   -0.90    1.50
  -4   7  13    0.50    1.60
   4   7 -13    0.20    1.60
  -3  -7  13   -0.50    1.30
   3  -7 -13    1.10    1.20
  -3  -7  13    0.80    1.30
   3  -7 -13   -1.20    1.20
  -3   7  13   -0.10    1.30
   3   7 -13    0.70    1.30
   3   7 -13    2.00    1.40
  -3   7  13    0.40    1.30
  -2  -7  13   30.70    2.50
   2  -7 -13   27.10    2.80
  -2  -7  13   26.70    2.30
   2  -7 -13   26.20    2.40
  -2   7  13   25.20    2.30
   2   7 -13   33.20    2.50
   2   7 -13   30.10    2.50
  -2   7  13   29.20    2.40
   2   7 -13   29.80    2.50
  -1  -7  13   21.90    2.10
   1  -7 -13   30.30    2.30
   1  -7 -13   26.20    2.00
  -1  -7  13   26.70    2.30
  -1   7  13   24.40    2.00
   1   7 -13   26.30    2.40
  -1   7  13   26.40    2.00
   1   7 -13   27.90    2.30
   0  -7  13    1.70    1.10
   0  -7 -13   -0.10    0.90
   0  -7  13    0.40    1.00
   0   7  13    0.20    0.80
   0   7 -13    0.90    1.00
   0   7 -13   -0.60    0.90
   1  -7  13   15.70    1.80
   1  -7  13   14.70    1.90
  -1   7 -13   13.60    1.80
  -1   7 -13   16.40    1.90
   2  -7  13   22.40    2.40
  -2   7 -13   20.60    2.20
   3  -7  13    8.10    1.70
  -3   7 -13    6.90    3.10
  -3   7 -13    3.70    2.00
   3  -8 -13    4.00    1.70
  -3  -8  13    3.60    1.60
   3  -8 -13    6.20    1.90
   3   8 -13    3.50    1.60
  -3   8  13    8.60    1.90
   3   8 -13    5.60    1.80
  -3   8  13    6.90    1.90
   2  -8 -13   32.40    2.70
  -2  -8  13   30.40    2.70
  -2  -8  13   32.90    2.70
   2  -8 -13   37.70    3.00
  -2   8  13   35.10    2.70
  -2   8  13   31.00    2.50
   2   8 -13   35.80    2.70
   2   8 -13   22.60    2.40
  -1  -8  13   35.10    2.50
  -1  -8  13   35.00    2.70
   1  -8 -13   34.10    2.60
  -1   8  13   30.60    2.40
   1   8 -13   31.90    2.50
  -1   8  13   35.20    2.40
   1   8 -13   33.30    2.60
   0  -8  13    8.10    1.50
   0  -8  13    9.30    1.60
   0  -8 -13   12.90    1.70
   0   8 -13    7.40    1.50
   0   8 -13    9.20    1.50
   0   8  13    9.90    1.40
   1  -8  13   18.80    2.20
   1  -8  13   24.60    2.30
  -1   8 -13   20.00    2.20
  -1   8 -13   16.20    2.10
   2  -8  13    1.20    1.40
  -2   8 -13    5.40    1.50
   3  -8  13    2.00    1.50
   3  -9 -13    9.00    2.00
   3  -9 -13    7.00    2.10
  -3   9  13    9.90    2.10
  -3   9  13    7.30    1.90
   3   9 -13    9.60    2.00
   2  -9 -13    3.40    1.50
  -2  -9  13    0.20    1.30
  -2  -9  13   -0.40    1.20
   2   9 -13    1.50    1.40
  -2   9  13    1.60    1.40
  -2   9  13    1.10    1.20
   2   9 -13    1.10    1.40
  -1  -9  13    2.70    1.40
  -1  -9  13    4.50    1.50
   1  -9 -13    3.60    1.30
  -1   9  13    4.50    1.20
   1   9 -13    1.40    1.20
   1   9 -13    2.40    1.30
   0  -9  13    0.70    1.20
   0  -9 -13   -1.00    0.90
   0  -9  13   -0.60    1.10
   0   9  13   -0.60    0.90
   0   9 -13    0.00    1.10
   0   9 -13   -2.30    0.90
   1  -9  13   51.39    3.40
   1  -9  13   51.49    3.30
  -1   9 -13   53.49    3.30
  -1   9 -13   46.70    3.40
   2  -9  13   15.40    2.30
  -2   9 -13   13.90    2.10
   3 -10 -13   -0.20    1.50
  -3  10  13   -0.10    1.50
  -3  10  13    0.20    1.50
   3  10 -13   -2.40    1.40
   2 -10 -13    1.60    1.50
  -2 -10  13    3.50    1.50
  -2 -10  13    0.60    1.40
  -2  10  13    3.60    1.50
   2  10 -13    1.60    1.40
   2  10 -13   -0.20    1.40
   1 -10 -13    8.10    1.70
  -1 -10  13    8.70    1.80
  -1 -10  13    2.50    1.50
  -1  10  13    8.00    1.60
   1  10 -13    6.00    1.60
   1  10 -13    7.90    1.80
   0 -10  13   -0.10    1.40
   0 -10  13    1.70    1.50
   0 -10 -13    2.40    1.10
   0  10 -13   -1.10    1.10
   0  10 -13   -0.80    1.10
   0  10  13   -0.10    1.00
   1 -10  13   41.80    3.20
   1 -10  13   40.10    3.20
  -1 -10 -13   38.50    2.50
  -1  10 -13   38.10    3.00
   2 -10  13    0.70    1.60
  -2 -11  13    3.10    1.60
  -2 -11  13    4.40    1.70
   2  11 -13    5.40    1.70
  -2  11  13    3.10    1.50
   2  11 -13    0.70    1.40
  -1 -11  13    3.00    1.60
   1 -11 -13    2.80    1.40
  -1 -11  13    4.90    1.70
   1  11 -13    1.70    1.40
  -1  11  13    3.20    1.50
   1  11 -13    4.00    1.50
   0 -11  13    8.40    2.00
   0 -11  13    6.00    1.90
   0 -11 -13    9.40    1.70
   0  11  13   10.70    1.70
   0  11 -13   10.70    2.10
   0  11 -13    9.00    1.90
  -1 -11 -13   15.70    1.80
   1 -11  13   15.20    2.40
  -1  11 -13   15.80    2.40
   2 -11  13    4.70    2.00
  -2  12  13    6.20    1.80
   2  12 -13    0.40    1.60
  -1 -12  13   14.50    2.50
  -1 -12  13   13.00    2.30
   1  12 -13   11.00    2.10
  -1  12  13   14.20    2.20
   1  12 -13   10.10    2.00
   0 -12  13    9.60    2.20
   0 -12  13   11.40    2.20
   0 -12 -13    9.70    1.90
   0  12 -13    7.50    2.00
   0  12  13   12.00    1.80
   0  12 -13   10.10    2.10
  -1 -12 -13    0.20    1.10
   1 -12  13   -0.10    1.70
  -1 -13  13    3.50    1.80
  -1  13  13    3.10    1.50
   1  13 -13    0.70    1.70
   1  13 -13   -0.10    1.60
   0 -13  13    4.70    2.00
   0 -13  13    5.40    2.00
   0  13 -13    3.10    1.60
   0  13  13    3.20    1.40
  -4   0  14    7.70    1.70
  -4   0  14   11.60    1.90
  -4   0  14    6.70    1.90
   4   0 -14    7.00    1.90
   4   0 -14    8.90    2.10
   3   0 -14    1.60    1.30
  -3   0  14    0.40    1.30
  -3   0  14    2.10    1.30
   3   0 -14    1.80    1.40
  -3   0  14    0.70    1.00
  -2   0  14  178.78    7.00
  -2   0  14  176.78    6.60
   2   0 -14  186.08    7.10
  -2   0  14  184.78    7.00
   2   0 -14  178.08    7.20
  -1   0  14    9.70    1.30
   1   0 -14    9.10    1.20
   1   0 -14    9.20    1.40
   1   0 -14   12.00    1.40
  -1   0  14    7.70    1.20
   0   0  14  332.27   11.60
   0   0  14  350.56   11.40
   0   0 -14  342.17   11.60
   0   0  14  336.97   11.60
   0   0 -14  350.26   11.70
   0   0 -14  341.87   11.40
   0   0 -14  336.77   11.60
   1   0  14   -0.20    0.60
   1   0  14   -0.20    0.40
  -1   0 -14   -0.10    0.50
  -1   0 -14   -0.10    0.60
  -4  -1  14    9.40    2.90
   4  -1 -14   12.40    2.50
   4  -1 -14   10.70    2.20
  -4  -1  14    7.70    1.90
  -4  -1  14   11.40    1.90
  -4   1  14    7.30    1.70
  -4   1  14    8.90    2.00
   4   1 -14    9.90    2.10
   4   1 -14    8.50    2.00
  -4   1  14    6.60    2.00
   3  -1 -14    0.40    1.20
  -3  -1  14    2.00    1.20
   3  -1 -14    0.90    1.40
  -3  -1  14    1.00    1.00
  -3  -1  14    1.80    1.30
  -3   1  14    2.00    1.30
   3   1 -14    0.70    1.20
  -3   1  14    0.90    0.90
  -3   1  14    0.90    1.20
   3   1 -14    1.70    1.20
  -2  -1  14  108.89    4.70
   2  -1 -14  110.69    5.00
  -2  -1  14  109.79    4.80
  -2  -1  14  109.09    4.40
   2  -1 -14  127.49    5.00
   2   1 -14  101.49    4.90
  -2   1  14   96.99    4.30
  -2   1  14  120.99    4.90
   2   1 -14  113.39    4.90
  -2   1  14  115.69    4.80
   1  -1 -14    2.30    0.80
   1  -1 -14    3.00    1.00
  -1  -1  14    2.70    0.90
  -1  -1  14    3.00    0.90
   1  -1 -14    3.00    1.10
   1   1 -14    3.70    0.80
   1   1 -14    4.70    1.10
   1   1 -14    1.80    0.90
  -1   1  14    2.10    0.90
  -1   1  14    1.30    0.90
   0  -1  14    2.90    0.90
   0  -1  14    2.40    0.70
   0  -1 -14    2.70    0.80
   0  -1 -14    2.60    0.70
   0  -1 -14    1.80    0.80
   0  -1 -14    3.20    1.00
   0  -1  14    2.80    0.80
   0   1  14    2.80    0.70
   0   1 -14    3.70    1.00
   0   1 -14    3.00    0.80
   0   1 -14    2.90    0.90
   0   1  14    3.60    0.90
   0   1 -14    2.90    0.70
   0   1  14    3.10    0.80
  -1  -1 -14   47.90    2.00
  -1  -1 -14   49.99    2.30
   1  -1  14   46.70    2.30
  -1  -1 -14   46.10    2.40
  -1   1 -14   50.69    2.40
  -1   1 -14   44.30    2.30
  -4  -2  14    1.00    1.20
   4  -2 -14    1.70    1.60
   4  -2 -14    1.00    1.60
  -4  -2  14   -0.30    1.50
  -4   2  14    0.30    1.50
  -4   2  14    1.30    1.50
   4   2 -14    0.90    1.40
   3  -2 -14    1.30    1.30
  -3  -2  14    2.40    1.30
  -3  -2  14    1.90    1.30
   3  -2 -14    2.20    1.40
  -3  -2  14    1.40    1.00
  -3   2  14    2.40    1.30
  -3   2  14    1.70    1.00
   3   2 -14    0.90    1.30
  -3   2  14    1.30    1.20
   3   2 -14    4.20    1.40
  -2  -2  14   33.10    2.40
   2  -2 -14   32.50    2.30
   2  -2 -14   26.90    2.40
  -2  -2  14   28.70    2.30
   2   2 -14   25.90    2.40
  -2   2  14   29.10    2.20
  -2   2  14   30.90    2.30
   2   2 -14   28.70    2.40
  -1  -2  14   21.20    1.70
  -1  -2  14   21.70    1.80
   1  -2 -14   20.40    1.90
   1  -2 -14   20.90    1.90
   1  -2 -14   16.20    1.40
  -1   2  14   22.60    2.00
   1   2 -14   18.80    1.50
  -1   2  14   16.50    1.30
   1   2 -14   22.30    2.10
   1   2 -14   20.60    1.80
  -1   2  14   19.70    1.80
   0  -2 -14  199.08    6.80
   0  -2  14  198.08    7.50
   0  -2 -14  191.38    6.90
   0  -2 -14  201.98    7.10
   0  -2 -14  203.48    7.00
   0   2 -14  199.18    7.20
   0   2 -14  197.48    7.10
   0   2 -14  181.18    7.00
   0   2 -14  186.08    6.80
   0   2  14  188.78    6.90
   0   2  14  192.58    6.70
   0   2  14  191.58    6.90
   1  -2  14   15.20    1.30
  -1  -2 -14   17.60    1.10
   1  -2  14   18.00    1.60
  -1   2 -14   17.00    1.60
  -2   2 -14   34.30    2.10
  -4  -3  14   -0.40    1.60
   4  -3 -14   -1.50    1.50
  -4  -3  14    0.20    1.20
   4  -3 -14    3.00    1.80
  -4   3  14    0.30    1.50
  -4   3  14   -1.10    1.30
   4   3 -14   -0.50    1.40
  -3  -3  14   -0.70    1.10
  -3  -3  14   -0.10    1.10
  -3  -3  14   -0.80    0.90
   3  -3 -14   -1.30    1.30
   3  -3 -14    0.60    1.20
   3   3 -14    1.10    1.20
  -3   3  14   -0.30    1.10
  -3   3  14   -0.70    1.10
   3   3 -14    1.20    1.20
  -3   3  14    0.50    1.00
  -2  -3  14   14.70    1.90
   2  -3 -14   15.70    2.10
  -2  -3  14   12.20    1.70
   2  -3 -14   15.30    1.90
   2   3 -14   12.80    1.70
   2   3 -14   12.20    1.80
  -2   3  14   15.70    1.90
  -2   3  14   17.80    2.00
  -2   3  14   14.00    1.50
  -1  -3  14   56.89    2.90
   1  -3 -14   55.59    2.90
  -1  -3  14   56.89    2.80
   1  -3 -14   49.90    2.60
   1  -3 -14   52.79    2.90
  -1   3  14   50.29    2.30
   1   3 -14   51.49    2.90
  -1   3  14   54.39    2.70
   1   3 -14   63.09    3.00
  -1   3  14   52.59    2.80
   1   3 -14   53.59    2.60
   0  -3  14  110.59    4.20
   0  -3 -14  108.99    4.10
   0  -3 -14  110.39    4.40
   0  -3  14  103.99    4.30
   0  -3 -14  102.39    4.10
   0  -3 -14  108.69    4.20
   0   3  14  106.59    4.00
   0   3  14  112.49    4.20
   0   3  14   83.89    4.40
   0   3 -14  110.59    4.40
   0   3 -14  100.69    4.00
   0   3 -14  107.89    4.40
   0   3 -14  100.29    4.40
   1  -3  14   -0.90    0.70
   1  -3  14    0.70    0.90
  -1   3 -14    0.50    0.90
   2  -3  14    7.20    1.20
  -2   3 -14    7.10    1.30
  -3   3 -14    2.80    1.20
  -3   3 -14    6.80    1.30
   4  -4 -14    2.90    1.90
  -4  -4  14    1.30    1.30
   4  -4 -14   -0.20    1.50
  -4   4  14    0.20    1.50
   4   4 -14    1.30    1.70
  -4   4  14    0.00    1.40
  -3  -4  14   17.50    2.10
  -3  -4  14   15.60    2.00
   3  -4 -14   15.40    2.20
   3  -4 -14   12.70    2.10
   3   4 -14   17.90    2.40
  -3   4  14   13.70    2.10
   3   4 -14    9.60    1.90
  -3   4  14   17.30    2.20
  -2  -4  14   43.90    2.80
   2  -4 -14   40.10    2.70
  -2  -4  14   41.80    2.60
   2  -4 -14   39.20    2.90
  -2   4  14   46.70    2.80
  -2   4  14   39.40    2.70
   2   4 -14   44.70    2.80
   2   4 -14   41.20    2.90
  -1  -4  14    4.70    1.20
   1  -4 -14    4.60    1.10
   1  -4 -14    6.30    1.30
  -1  -4  14    6.40    1.40
   1   4 -14    5.40    1.30
  -1   4  14    6.00    1.20
  -1   4  14    4.20    0.80
   1   4 -14    3.70    1.20
  -1   4  14    6.80    1.20
   0  -4 -14   62.69    3.00
   0  -4  14   65.79    3.20
   0  -4 -14   55.59    3.30
   0  -4 -14   61.49    2.70
   0  -4 -14   61.49    2.80
   0  -4  14   60.79    2.90
   0   4 -14   51.09    2.70
   0   4 -14   66.39    3.10
   0   4 -14   65.29    3.10
   0   4 -14   61.49    3.00
   0   4  14   64.19    2.80
   1  -4  14    0.40    0.90
   1  -4  14   -0.20    0.80
  -1   4 -14    1.00    0.90
   2  -4  14    6.20    1.30
  -2   4 -14    5.80    1.30
  -3   4 -14   11.00    1.60
  -3   4 -14    9.90    1.70
   4  -5 -14    9.90    2.40
   4  -5 -14   10.70    2.20
  -4   5  14    6.80    2.10
  -4   5  14    9.40    2.30
   4   5 -14   12.10    2.40
  -3  -5  14    0.30    1.20
   3  -5 -14    0.00    1.30
   3  -5 -14    0.20    1.30
  -3  -5  14   -1.30    1.10
  -3   5  14    0.10    1.20
   3   5 -14   -0.60    1.20
   3   5 -14   -1.90    1.20
  -3   5  14    0.90    1.30
  -2  -5  14   11.60    1.70
  -2  -5  14   16.90    2.00
   2  -5 -14    9.70    1.80
   2  -5 -14    9.90    1.70
   2   5 -14    8.90    1.60
   2   5 -14   10.30    1.70
  -2   5  14    9.10    1.60
  -2   5  14   12.60    1.80
  -1  -5  14   72.79    3.50
  -1  -5  14   76.29    3.70
   1  -5 -14   81.69    3.60
   1  -5 -14   78.99    3.80
  -1   5  14   69.69    3.40
   1   5 -14   77.09    3.80
  -1   5  14   70.59    3.50
   1   5 -14   82.29    3.70
   0  -5 -14   20.90    1.90
   0  -5  14   21.90    1.90
   0  -5  14   22.70    2.10
   0   5 -14   17.80    1.90
   0   5  14   16.50    1.40
   0   5 -14   22.00    2.00
   0   5  14   17.30    1.60
   1  -5  14   43.10    2.50
   1  -5  14   39.30    2.40
  -1   5 -14   41.00    2.50
   2  -5  14    7.70    1.50
  -2   5 -14    8.90    1.50
   3  -5  14   -0.10    1.10
  -3   5 -14    0.20    1.30
  -3   5 -14    3.80    1.30
   4  -6 -14    1.40    1.60
   4  -6 -14    3.30    1.80
  -4   6  14    1.10    1.70
   4   6 -14    1.00    1.70
   3  -6 -14   16.50    2.30
  -3  -6  14   13.20    2.00
  -3  -6  14   17.40    2.30
   3  -6 -14   19.90    2.70
  -3   6  14   20.50    2.50
   3   6 -14   21.30    2.50
   3   6 -14   15.10    2.20
  -3   6  14   16.40    2.40
  -2  -6  14    1.60    1.20
   2  -6 -14   -0.70    1.10
  -2  -6  14    0.10    1.00
   2  -6 -14    0.90    1.00
  -2   6  14    0.10    1.00
   2   6 -14   -0.50    1.10
   2   6 -14    0.10    1.00
  -2   6  14   -0.40    0.90
   1  -6 -14   71.89    3.60
   1  -6 -14   70.09    3.40
  -1  -6  14   68.89    3.40
  -1  -6  14   68.99    3.60
  -1   6  14   65.29    3.30
   1   6 -14   74.09    3.60
   1   6 -14   76.29    3.70
  -1   6  14   65.69    3.30
   1   6 -14   63.39    3.50
   0  -6  14    5.50    1.30
   0  -6 -14    5.70    1.20
   0  -6  14    5.50    1.30
   0   6 -14    8.80    1.50
   0   6  14    5.90    1.10
   0   6 -14    4.40    1.20
   1  -6  14   37.60    2.60
   1  -6  14   40.40    2.60
  -1   6 -14   41.90    2.60
   2  -6  14   12.30    1.90
  -2   6 -14   14.00    1.80
   3  -6  14    7.20    1.60
  -3   6 -14    6.10    1.70
  -3   6 -14    7.30    1.60
  -3  -7  14    0.80    1.40
   3  -7 -14    2.30    1.60
  -3  -7  14    1.80    1.50
   3  -7 -14    0.80    1.40
   3   7 -14    1.20    1.50
  -3   7  14    2.20    1.50
  -3   7  14    0.60    1.30
   3   7 -14    0.40    1.30
   2  -7 -14   23.80    2.60
  -2  -7  14   23.60    2.40
  -2  -7  14   22.10    2.40
   2  -7 -14   27.00    2.40
   2   7 -14   30.20    2.60
   2   7 -14   26.40    2.50
   2   7 -14   24.50    2.60
  -2   7  14   28.30    2.70
  -2   7  14   24.40    2.50
  -1  -7  14    7.90    1.60
  -1  -7  14    8.90    1.50
   1  -7 -14    9.20    1.60
   1   7 -14    9.10    1.70
  -1   7  14   12.90    1.60
  -1   7  14    8.10    1.40
   1   7 -14   12.50    1.90
   0  -7 -14   22.30    2.00
   0  -7  14   19.40    2.00
   0  -7  14   21.80    2.30
   0   7 -14   26.30    2.40
   0   7  14   23.70    1.80
   0   7 -14   23.50    2.20
   1  -7  14   66.99    3.50
   1  -7  14   69.09    3.60
  -1   7 -14   67.79    3.50
   2  -7  14    0.20    1.30
  -2   7 -14    1.90    1.30
   3  -7  14    5.70    1.60
   3  -8 -14    2.90    1.80
   3  -8 -14    3.00    1.60
  -3  -8  14   -0.50    1.50
   3   8 -14    0.40    1.40
  -3   8  14    2.00    1.60
   3   8 -14    4.90    1.70
  -3   8  14    2.90    1.60
  -2  -8  14    6.40    1.60
   2  -8 -14    3.20    1.50
   2  -8 -14    7.70    1.70
  -2  -8  14    4.60    1.60
   2   8 -14    2.50    1.30
  -2   8  14    4.60    1.50
  -2   8  14    4.60    1.30
   2   8 -14    1.70    1.30
   1  -8 -14    8.90    1.60
  -1  -8  14    7.30    1.60
  -1  -8  14    7.20    1.60
   1   8 -14    8.60    1.70
   1   8 -14    6.00    1.60
  -1   8  14    6.40    1.40
   0  -8 -14    7.30    1.50
   0  -8  14    7.90    1.70
   0  -8  14    6.10    1.40
   0   8 -14    5.30    1.40
   0   8  14    6.00    1.20
   0   8 -14    4.10    1.40
   1  -8  14   35.40    2.80
   1  -8  14   37.60    3.20
  -1   8 -14   29.20    2.60
   2  -8  14   27.80    2.80
  -2   8 -14   34.40    2.70
   3  -8  14    0.00    1.40
   3  -9 -14    2.00    1.60
  -3   9  14    2.20    1.60
   3   9 -14    1.00    1.50
  -3   9  14    2.20    1.60
   2  -9 -14    3.70    1.60
  -2  -9  14    2.70    1.50
  -2  -9  14    4.10    1.50
  -2   9  14    6.80    1.70
   2   9 -14    4.10    1.60
   2   9 -14    3.60    1.60
   1  -9 -14    8.50    1.70
  -1  -9  14    9.80    1.90
  -1  -9  14    9.10    1.80
   1   9 -14   10.00    1.80
   1   9 -14    6.50    1.60
  -1   9  14    7.90    1.60
   0  -9  14   -1.00    1.10
   0  -9 -14    1.90    1.10
   0  -9  14    1.50    1.40
   0   9 -14    1.10    1.20
   0   9 -14    0.10    1.30
   0   9  14    1.80    1.00
   1  -9  14   26.30    2.80
  -1   9 -14   31.20    2.70
   2  -9  14    0.50    1.40
  -3  10  14   12.20    2.30
   3  10 -14    8.20    2.10
  -2 -10  14    1.40    1.50
  -2 -10  14    0.20    1.50
   2 -10 -14    1.30    1.40
  -2  10  14    1.40    1.50
   2  10 -14   -0.60    1.30
   2  10 -14    0.90    1.40
   1 -10 -14   11.60    2.00
  -1 -10  14   12.40    2.10
  -1 -10  14    9.80    1.90
  -1  10  14   15.70    2.10
   1  10 -14    9.90    1.90
   1  10 -14    8.20    1.80
   0 -10 -14   21.60    2.20
   0 -10  14   19.10    2.50
   0 -10  14   18.60    2.40
   0  10 -14   12.20    2.00
   0  10  14   20.00    2.10
   0  10 -14   17.40    2.30
  -1 -10 -14    3.60    1.10
   1 -10  14    6.90    1.90
  -1  10 -14    2.40    1.60
   2 -10  14   -0.10    1.60
  -2 -11  14    7.50    2.10
   2  11 -14    6.30    1.80
  -2  11  14   14.60    2.30
   2  11 -14    8.90    2.10
  -1 -11  14    6.00    1.90
  -1 -11  14    4.70    1.80
   1 -11 -14    8.70    1.80
  -1  11  14    3.70    1.50
   1  11 -14    5.40    1.80
   1  11 -14    5.50    1.70
   0 -11 -14    0.40    1.20
   0 -11  14    0.00    1.50
   0 -11  14    3.70    1.70
   0  11  14    1.50    1.20
   0  11 -14    3.00    1.60
   0  11 -14    0.20    1.40
   1 -11  14   -0.90    1.60
  -1 -11 -14    1.10    1.10
  -1 -12  14   -0.70    1.60
  -1 -12  14    0.00    1.60
   1  12 -14   -2.10    1.40
   1  12 -14    0.90    1.70
  -1  12  14   -0.30    1.20
   0 -12  14    1.50    1.90
   0 -12  14    2.00    1.80
   0  12  14    2.10    1.30
   0  12 -14    0.80    1.60
   0  12 -14    1.10    1.70
   1 -12  14    0.30    1.70
  -1 -12 -14    1.10    1.00
   4   0 -15   -0.40    1.50
  -4   0  15    2.10    1.60
   4   0 -15    0.80    1.70
  -4   0  15    1.40    1.50
  -3   0  15    0.70    1.20
  -3   0  15    1.30    1.20
   3   0 -15   -0.80    1.10
   3   0 -15   -1.80    1.00
  -3   0  15    1.60    1.00
  -2   0  15    0.00    0.70
  -2   0  15    1.20    1.00
   2   0 -15    0.20    1.00
  -2   0  15   -0.40    0.90
   2   0 -15   -0.40    0.80
  -1   0  15   -0.60    0.80
   1   0 -15    0.90    0.80
  -1   0  15   -0.80    0.70
   1   0 -15   -0.60    0.60
   1   0 -15    0.00    0.80
   0   0  15    0.70    0.70
   0   0 -15    0.50    0.60
   0   0 -15    0.70    0.70
   0   0 -15    1.50    0.70
   0   0  15    0.50    0.80
   0   0 -15    1.80    0.90
   1   0  15   29.00    1.80
  -1   0 -15   29.80    1.90
   4  -1 -15   -0.40    1.60
  -4  -1  15    2.90    1.60
  -4  -1  15    1.70    1.80
   4  -1 -15   -0.20    1.50
  -4  -1  15    0.40    1.50
  -4   1  15    3.60    1.60
  -4   1  15    2.90    1.60
   4   1 -15   -0.40    1.60
   4   1 -15   -0.10    1.40
   3  -1 -15    8.50    1.80
  -3  -1  15   10.00    1.50
  -3  -1  15    8.10    1.70
   3  -1 -15   10.20    1.90
  -3  -1  15    9.20    1.80
  -3   1  15   11.80    1.90
  -3   1  15    6.40    1.30
   3   1 -15   11.00    1.90
   3   1 -15    8.50    1.80
  -3   1  15   10.30    1.80
   2  -1 -15    0.20    1.10
   2  -1 -15    0.60    1.00
  -2  -1  15   -0.90    0.90
  -2  -1  15    0.60    1.00
   2   1 -15    0.90    1.00
  -2   1  15   -0.80    0.80
  -2   1  15    0.70    1.00
  -2   1  15   -0.20    0.50
   2   1 -15   -0.10    0.90
   1  -1 -15   15.90    1.80
   1  -1 -15   14.50    1.50
   1  -1 -15   16.40    1.70
  -1  -1  15   15.00    1.60
  -1  -1  15   17.50    1.80
   1   1 -15   14.70    1.50
   1   1 -15   13.60    1.60
   1   1 -15   13.20    1.70
  -1   1  15   11.80    1.50
  -1   1  15   14.70    1.60
   0  -1 -15   49.30    2.50
   0  -1  15   53.39    2.40
   0  -1 -15   51.39    2.60
   0  -1 -15   46.90    2.40
   0  -1 -15   50.09    2.30
   0  -1  15   48.40    2.50
   0   1 -15   48.50    2.60
   0   1 -15   49.30    2.50
   0   1  15   49.60    2.30
   0   1 -15   49.20    2.30
   0   1  15   46.70    2.50
   0   1 -15   52.09    2.60
  -1  -1 -15   43.50    2.20
   1  -1  15   43.00    2.30
  -1   1 -15   44.10    2.30
   4  -2 -15    3.60    1.90
   4  -2 -15    2.20    1.70
  -4  -2  15    2.70    1.50
  -4   2  15    2.50    1.60
  -4   2  15    0.80    1.50
   4   2 -15   -0.60    1.60
  -3  -2  15   12.90    1.90
   3  -2 -15   12.50    2.10
  -3  -2  15   10.10    1.80
   3  -2 -15   12.20    2.20
  -3  -2  15   10.70    1.60
  -3   2  15   10.60    1.80
  -3   2  15   11.10    2.00
   3   2 -15   13.20    2.10
   3   2 -15   13.10    2.10
   2  -2 -15   46.60    3.10
  -2  -2  15   48.30    2.80
   2  -2 -15   49.70    3.00
  -2  -2  15   51.79    3.00
   2   2 -15   51.49    3.00
   2   2 -15   56.19    3.10
  -2   2  15   50.99    3.00
  -2   2  15   42.50    3.10
  -2   2  15   49.50    2.90
  -1  -2  15   81.39    3.60
   1  -2 -15   84.19    3.70
   1  -2 -15   82.19    3.80
  -1  -2  15   80.29    3.70
  -1   2  15   82.99    3.60
   1   2 -15   81.89    3.70
   1   2 -15   71.99    3.40
   1   2 -15   76.89    3.80
  -1   2  15   76.99    3.60
   0  -2  15    8.40    1.10
   0  -2 -15    9.40    1.30
   0  -2  15   11.30    1.30
   0  -2 -15   15.20    1.60
   0  -2 -15   10.30    1.30
   0  -2 -15   10.40    1.20
   0   2 -15   10.10    1.30
   0   2  15   10.00    1.10
   0   2 -15   10.10    1.40
   0   2  15    9.00    1.20
   0   2 -15   13.40    1.50
   0   2 -15   11.40    1.50
   1  -2  15  112.49    4.50
  -1  -2 -15  112.09    4.30
  -1   2 -15  110.79    4.50
  -2   2 -15    8.20    1.30
   4  -3 -15    8.60    2.30
  -4  -3  15    6.20    1.60
   4  -3 -15    6.20    2.00
  -4   3  15    6.40    1.90
   4   3 -15    5.70    1.90
  -4   3  15    4.90    1.70
  -3  -3  15   20.60    2.30
   3  -3 -15   18.10    2.40
  -3  -3  15   21.80    2.40
   3  -3 -15   15.50    2.40
  -3   3  15   20.90    2.40
   3   3 -15   21.80    2.50
   3   3 -15   22.90    2.60
  -3   3  15   23.00    2.50
   2  -3 -15    1.80    1.30
   2  -3 -15    2.70    1.10
  -2  -3  15    0.80    1.00
  -2  -3  15    1.80    1.10
  -2   3  15    1.40    1.00
   2   3 -15    1.40    1.20
   2   3 -15    1.30    1.10
  -2   3  15    0.60    0.90
  -1  -3  15   -1.60    0.90
   1  -3 -15   -1.30    0.70
   1  -3 -15   -0.20    0.90
  -1  -3  15   -0.20    0.80
  -1   3  15   -0.60    0.70
   1   3 -15   -0.60    0.90
  -1   3  15   -0.20    0.70
   1   3 -15   -0.50    0.90
   0  -3  15  141.19    5.60
   0  -3 -15  144.69    5.60
   0  -3  15  144.39    5.40
   0   3 -15  142.49    5.60
   0   3 -15  149.69    5.70
   0   3  15  144.99    5.40
   0   3  15  138.09    5.20
   1  -3  15   31.50    2.10
  -1   3 -15   28.00    2.10
   2  -3  15    7.20    1.30
  -2   3 -15    9.30    1.40
   4  -4 -15    7.20    2.10
   4  -4 -15    9.00    2.40
  -4  -4  15    4.60    1.60
   4   4 -15    5.20    1.90
  -4   4  15    7.10    2.50
  -4   4  15    5.40    1.90
   3  -4 -15    8.30    1.90
  -3  -4  15    7.30    1.70
  -3  -4  15    8.60    1.70
   3  -4 -15    4.20    1.60
   3   4 -15    8.10    1.80
  -3   4  15    9.40    1.80
   3   4 -15    5.60    1.70
  -3   4  15    7.20    1.80
  -2  -4  15   22.40    2.20
   2  -4 -15   21.90    2.20
  -2  -4  15   22.60    2.30
   2  -4 -15   23.10    2.40
  -2   4  15   20.20    2.10
   2   4 -15   20.60    2.30
   2   4 -15   22.30    2.30
  -2   4  15   21.80    2.20
  -1  -4  15    5.30    1.20
   1  -4 -15    6.90    1.30
   1  -4 -15    4.60    1.30
  -1  -4  15    5.20    1.20
   1   4 -15    6.20    1.30
  -1   4  15    6.70    1.20
  -1   4  15    6.10    1.20
   1   4 -15    5.20    1.30
   0  -4 -15   14.50    1.70
   0  -4  15   13.50    1.50
   0  -4  15   12.80    1.60
   0   4  15   12.40    1.40
   0   4 -15   14.30    1.70
   0   4 -15   13.60    1.60
   0   4 -15   13.60    1.70
   1  -4  15   27.80    2.10
  -1   4 -15   26.40    2.10
   2  -4  15    7.90    1.40
  -2   4 -15    9.00    1.50
  -3   4 -15    7.50    1.50
   4  -5 -15    7.50    2.40
   4  -5 -15    3.70    2.00
  -4   5  15    6.10    1.90
   4   5 -15    8.90    2.40
   3  -5 -15    9.90    2.00
  -3  -5  15   11.30    1.80
   3  -5 -15    8.90    1.80
  -3  -5  15    9.20    1.80
  -3   5  15   12.00    2.00
   3   5 -15    8.40    1.90
  -3   5  15    7.50    1.90
   3   5 -15    8.60    1.90
  -2  -5  15    1.00    1.20
   2  -5 -15    0.50    1.20
   2  -5 -15    0.90    0.90
  -2  -5  15    2.80    1.20
  -2   5  15    0.90    1.00
  -2   5  15    2.10    1.20
   2   5 -15    1.80    1.20
   2   5 -15    2.60    1.30
  -1  -5  15   25.40    2.20
   1  -5 -15   23.60    1.90
  -1  -5  15   21.40    2.00
   1  -5 -15   23.80    2.30
  -1   5  15   22.00    1.80
   1   5 -15   21.40    2.20
  -1   5  15   21.50    2.00
   1   5 -15   23.10    2.40
   0  -5  15   80.39    3.50
   0  -5  15   72.49    3.70
   0  -5 -15   76.69    3.60
   0   5 -15   73.99    3.60
   0   5 -15   77.09    3.70
   0   5  15   77.19    3.30
   1  -5  15    3.80    1.20
  -1   5 -15    6.50    1.40
   2  -5  15   11.40    1.70
  -2   5 -15   11.90    1.70
   3  -5  15    4.20    1.40
  -3   5 -15    2.10    1.50
  -3   5 -15    4.90    1.50
   3  -6 -15    0.40    1.30
  -3  -6  15   -1.10    1.30
   3  -6 -15    3.00    1.60
  -3  -6  15    0.00    1.30
  -3   6  15    1.00    1.40
   3   6 -15   -2.40    1.30
   3   6 -15    0.20    1.40
  -3   6  15    0.60    1.30
   2  -6 -15    1.90    1.30
   2  -6 -15   -0.20    1.00
  -2  -6  15    1.10    1.20
  -2  -6  15    0.90    1.20
  -2   6  15   -0.80    1.00
   2   6 -15    0.60    1.20
  -2   6  15    1.70    1.10
   2   6 -15    0.30    1.20
   1  -6 -15   16.60    2.00
  -1  -6  15   16.10    1.90
  -1  -6  15   15.00    1.90
  -1   6  15   14.90    1.70
   1   6 -15   17.10    2.00
   1   6 -15   15.30    2.00
   1   6 -15   16.40    2.00
  -1   6  15   16.80    1.80
   0  -6  15   14.40    1.80
   0  -6  15   17.30    2.00
   0  -6 -15   23.10    2.10
   0   6 -15   17.30    1.90
   0   6  15   18.20    1.60
   0   6 -15   16.00    1.90
   1  -6  15    4.10    1.30
  -1   6 -15    3.90    1.30
   2  -6  15    6.20    1.60
  -2   6 -15    2.50    1.30
   3  -6  15    2.10    1.30
  -3  -7  15    3.70    1.60
   3  -7 -15    6.50    2.00
   3  -7 -15    9.80    2.00
  -3  -7  15    7.90    1.90
  -3   7  15    6.90    1.90
  -3   7  15   12.30    2.20
   3   7 -15    7.30    1.90
   3   7 -15    9.40    2.10
  -2  -7  15    7.10    1.60
   2  -7 -15    8.60    1.80
  -2  -7  15   11.20    1.90
   2  -7 -15    7.10    1.50
   2   7 -15   10.00    1.80
  -2   7  15   10.60    1.90
   2   7 -15    8.70    1.70
  -2   7  15    7.40    1.60
   2   7 -15    9.00    1.80
   1  -7 -15   25.50    2.30
  -1  -7  15   24.80    2.30
  -1  -7  15   21.80    2.30
   1   7 -15   20.80    2.30
  -1   7  15   25.70    2.30
   1   7 -15   21.30    2.30
   0  -7  15    6.10    1.50
   0  -7  15    3.90    1.30
   0  -7 -15    6.50    1.40
   0   7 -15    5.70    1.40
   0   7 -15    7.50    1.60
   0   7  15    6.80    1.20
   1  -7  15   -1.00    1.10
  -1   7 -15   -1.10    1.00
   2  -7  15    6.60    1.70
  -2   7 -15    5.00    1.50
   3  -7  15    5.70    1.70
   3  -8 -15    2.30    2.20
   3  -8 -15    2.00    1.40
  -3   8  15    0.70    1.60
   3   8 -15   -2.30    1.40
   3   8 -15    0.50    1.40
  -3   8  15    1.10    1.50
   2  -8 -15   17.50    2.40
  -2  -8  15   16.50    2.30
  -2  -8  15   15.80    2.10
   2   8 -15   14.90    2.30
  -2   8  15   28.50    2.70
   2   8 -15   19.20    2.40
   1  -8 -15   10.30    1.80
  -1  -8  15    6.90    1.60
  -1  -8  15   10.30    1.80
   1   8 -15    6.70    1.60
  -1   8  15    9.20    1.60
   1   8 -15    7.90    1.60
   0  -8  15   24.70    2.40
   0  -8  15   25.50    2.60
   0  -8 -15   30.80    2.30
   0   8 -15   25.40    2.40
   0   8  15   23.00    2.00
   0   8 -15   26.70    2.40
   1  -8  15    5.00    1.60
  -1   8 -15    6.80    1.60
   2  -8  15    7.70    1.80
  -2   8 -15    9.40    1.90
   3   9 -15   12.30    2.30
  -3   9  15   13.80    2.40
   2  -9 -15    1.50    1.30
  -2  -9  15    1.10    1.40
  -2  -9  15    1.30    1.50
   2   9 -15    1.80    1.60
  -2   9  15    2.10    1.50
   2   9 -15    2.40    1.60
  -1  -9  15   28.40    2.80
   1  -9 -15   28.10    2.80
  -1  -9  15   24.50    2.50
   1   9 -15   27.00    2.70
  -1   9  15   29.90    2.50
   1   9 -15   26.60    2.70
   0  -9 -15    7.30    1.50
   0  -9  15    4.60    1.60
   0  -9  15    4.70    1.70
   0   9 -15    8.20    1.70
   0   9  15    9.90    1.40
   0   9 -15    8.20    1.70
   1  -9  15   -0.80    1.30
  -1   9 -15    0.00    1.30
   2  -9  15   16.00    2.30
  -2 -10  15    1.50    1.60
  -2 -10  15    2.10    1.60
  -2  10  15    0.90    1.50
   2  10 -15    1.50    1.50
   2  10 -15    1.90    1.50
  -1 -10  15    2.80    1.60
  -1 -10  15    2.00    1.60
   1 -10 -15    1.70    1.40
   1  10 -15    2.20    1.50
  -1  10  15    4.70    1.50
   1  10 -15    6.10    1.70
   0 -10  15    0.70    1.50
   0 -10  15   -0.90    1.50
   0 -10 -15   -1.30    1.00
   0  10 -15    0.00    1.30
   0  10  15   -1.70    1.00
   0  10 -15   -0.40    1.40
   1 -10  15    0.00    1.60
  -1  10 -15    1.20    1.50
   2 -10  15    8.20    2.10
  -2 -11  15    0.30    1.40
  -2  11  15    0.80    1.50
   2  11 -15   -2.60    1.50
   2  11 -15    0.70    1.60
  -1 -11  15    0.00    1.50
  -1 -11  15    1.70    1.70
   1  11 -15    4.30    1.70
  -1  11  15    3.80    1.50
   1  11 -15    0.40    1.60
   0 -11  15    5.40    1.90
   0 -11 -15    9.80    1.80
   0 -11  15   13.50    2.40
   0  11  15   11.80    1.70
   0  11 -15    9.70    2.10
   0  11 -15    7.10    1.90
   1 -11  15    6.80    2.10
  -1 -11 -15   11.20    1.70
  -1 -12  15    2.40    1.90
  -1  12  15   -1.50    1.30
   1  12 -15    1.20    1.70
   1  12 -15    2.60    1.80
   0 -12  15    2.10    1.80
   0 -12  15   -0.10    1.70
   0  12 -15    1.20    1.70
   0  12  15    0.30    1.20
  -4   0  16   13.30    2.30
   4   0 -16   14.40    2.40
   4   0 -16   11.20    2.40
  -3   0  16    7.30    1.90
  -3   0  16    7.80    1.80
   3   0 -16    4.70    1.60
   3   0 -16    7.50    1.90
   2   0 -16   37.20    2.80
  -2   0  16   44.10    2.80
   2   0 -16   39.70    2.70
  -2   0  16   42.10    2.60
  -1   0  16  174.98    6.70
   1   0 -16  173.58    6.80
  -1   0  16  183.88    6.60
   1   0 -16  173.48    6.90
   0   0 -16    3.50    1.00
   0   0 -16    2.50    1.00
   0   0  16    2.00    0.90
   0   0  16    1.00    0.70
   1   0  16    3.60    1.00
  -1   0 -16    4.00    1.00
  -4  -1  16    2.50    1.50
   4  -1 -16   -0.10    1.50
   4  -1 -16    2.00    1.60
   4   1 -16   -1.40    1.50
   4   1 -16    2.60    1.80
  -4   1  16    5.00    1.80
  -3  -1  16   10.80    2.00
  -3  -1  16    7.00    1.60
   3  -1 -16   14.20    2.30
   3  -1 -16    8.30    1.80
  -3   1  16   10.00    1.90
  -3   1  16   11.20    1.90
   3   1 -16   11.70    2.10
   3   1 -16    9.70    2.00
  -2  -1  16    1.10    1.00
  -2  -1  16    2.00    1.20
   2  -1 -16    1.60    1.20
   2  -1 -16    2.20    1.10
  -2   1  16    0.80    1.10
   2   1 -16    1.40    1.20
   2   1 -16    2.90    1.10
  -2   1  16    1.80    1.20
  -1  -1  16   23.10    2.10
   1  -1 -16   24.10    2.00
   1  -1 -16   22.80    2.00
  -1  -1  16   22.30    2.00
  -1   1  16   21.60    1.80
   1   1 -16   24.30    2.40
   1   1 -16   19.70    2.00
  -1   1  16   22.30    1.90
   0  -1  16    1.00    0.70
   0  -1 -16    0.80    0.80
   0  -1  16    2.00    0.90
   0   1  16   -0.70    0.70
   0   1 -16    1.10    0.80
   0   1  16    0.60    0.80
   0   1 -16    2.80    1.00
  -1  -1 -16  128.19    5.10
   1  -1  16  142.19    5.10
  -1   1 -16  129.99    5.10
   4  -2 -16    8.20    2.20
   4  -2 -16   13.80    2.60
  -4   2  16   10.20    2.20
   4   2 -16   11.20    2.40
   3  -2 -16    8.00    1.90
   3  -2 -16   11.50    2.00
  -3  -2  16    9.20    1.90
  -3  -2  16    7.70    2.00
  -3  -2  16    6.70    1.70
  -3   2  16   11.40    2.00
  -3   2  16   10.00    1.90
   3   2 -16   11.60    1.90
   3   2 -16    8.50    2.00
  -2  -2  16    9.90    1.60
   2  -2 -16    9.30    1.60
   2  -2 -16    8.50    1.70
  -2  -2  16    9.80    1.70
   2   2 -16    8.10    1.60
  -2   2  16   13.40    1.80
  -2   2  16    9.90    1.50
   2   2 -16   10.20    1.70
  -1  -2  16   93.89    4.20
   1  -2 -16  100.69    4.40
   1  -2 -16   99.39    4.30
  -1  -2  16   93.49    4.10
   1   2 -16   99.59    4.30
   1   2 -16   90.39    4.30
  -1   2  16   86.59    3.90
  -1   2  16   97.99    4.20
   0  -2  16   68.29    3.10
   0  -2 -16   68.99    3.40
   0  -2  16   75.19    3.30
   0   2  16   69.99    3.10
   0   2 -16   74.49    3.40
   0   2 -16   73.09    3.50
   0   2  16   70.59    3.20
  -1  -2 -16    7.60    1.10
   1  -2  16    7.90    1.20
  -1   2 -16    7.70    1.30
  -2   2 -16   10.00    1.40
   4  -3 -16    2.10    1.70
   4  -3 -16   -1.80    1.60
   4   3 -16    0.80    1.70
  -4   3  16    0.10    1.70
  -3  -3  16    2.20    1.40
   3  -3 -16   -1.50    1.10
   3  -3 -16    0.80    1.40
  -3  -3  16    0.10    1.30
  -3   3  16   -0.70    1.10
   3   3 -16    2.00    1.60
   3   3 -16    1.80    1.40
  -3   3  16    1.10    1.40
  -2  -3  16    2.80    1.30
   2  -3 -16    2.30    1.10
  -2  -3  16    0.20    1.00
   2  -3 -16    0.70    1.10
  -2   3  16    1.30    1.00
   2   3 -16    2.50    1.10
  -2   3  16   -0.30    1.00
   2   3 -16    2.80    1.30
  -1  -3  16    6.40    1.40
  -1  -3  16    3.90    1.20
   1  -3 -16    2.30    1.10
   1  -3 -16    4.10    1.10
  -1   3  16    4.40    1.10
   1   3 -16    4.60    1.20
  -1   3  16    5.20    1.20
   1   3 -16    3.10    1.20
   0  -3 -16    1.20    1.00
   0  -3  16    2.20    1.00
   0  -3  16    1.50    0.90
   0   3 -16    1.20    0.80
   0   3 -16    0.90    0.90
   0   3  16    2.20    0.90
   1  -3  16   14.30    1.60
  -1   3 -16   13.80    1.60
   2  -3  16    1.20    1.00
  -2   3 -16    0.00    1.00
  -3   3 -16    1.80    1.10
   4  -4 -16   -0.30    1.70
   4  -4 -16    0.40    1.70
   4   4 -16    1.80    1.80
  -4   4  16    2.80    1.60
  -3  -4  16    5.80    1.70
  -3  -4  16    7.20    1.70
   3  -4 -16    4.00    1.70
   3  -4 -16    3.20    1.60
   3   4 -16    4.30    1.60
  -3   4  16    5.50    1.50
  -3   4  16    4.60    1.70
   3   4 -16    3.00    1.50
   2  -4 -16   12.10    1.90
   2  -4 -16   14.60    2.00
  -2  -4  16   14.80    2.10
  -2  -4  16   13.50    1.80
  -2   4  16   15.70    1.90
  -2   4  16   15.20    2.00
   2   4 -16   15.30    2.00
   2   4 -16   11.90    1.90
   1  -4 -16    9.10    1.90
   1  -4 -16    9.90    1.60
  -1  -4  16    8.60    1.40
  -1  -4  16    9.60    1.70
   1   4 -16    8.80    1.50
  -1   4  16    9.50    1.50
  -1   4  16    7.60    1.30
   1   4 -16    9.50    1.60
   0  -4 -16   57.89    3.10
   0  -4  16   58.79    3.20
   0  -4  16   62.79    3.00
   0   4  16   65.49    3.00
   0   4 -16   61.99    3.20
   0   4 -16   60.99    3.10
   0   4 -16   61.39    3.20
   1  -4  16   52.29    2.90
  -1   4 -16   53.69    2.90
   2  -4  16    8.60    1.50
  -2   4 -16   11.60    1.70
  -3   4 -16   10.70    1.70
   3  -5 -16    5.10    1.80
   3  -5 -16    5.40    1.70
  -3  -5  16    5.20    1.60
  -3  -5  16    5.80    1.80
  -3   5  16    4.10    1.70
   3   5 -16    5.60    1.70
   3   5 -16    3.90    1.70
  -3   5  16    7.00    1.70
   2  -5 -16   28.50    2.60
   2  -5 -16   31.20    2.50
  -2  -5  16   27.60    2.70
  -2  -5  16   24.00    2.40
  -2   5  16   26.90    2.40
   2   5 -16   29.40    2.90
   2   5 -16   30.30    2.90
  -2   5  16   27.60    2.30
  -1  -5  16    4.20    1.30
   1  -5 -16    4.90    1.30
  -1  -5  16    4.90    1.30
  -1   5  16    5.30    1.40
   1   5 -16    5.10    1.30
   1   5 -16    4.90    1.40
  -1   5  16    3.10    1.10
   0  -5  16   39.00    2.50
   0  -5 -16   27.60    2.10
   0  -5  16   31.20    2.30
   0   5  16   31.90    2.00
   0   5 -16   29.40    2.30
   0   5 -16   27.70    2.30
   1  -5  16    7.30    1.50
  -1   5 -16    8.80    1.50
   2  -5  16   -0.70    1.10
  -2   5 -16    0.20    1.20
   3  -5  16    5.20    1.40
   3  -6 -16   10.80    2.20
  -3  -6  16   13.60    2.30
   3  -6 -16    9.40    1.90
  -3  -6  16    9.90    2.10
   3   6 -16    7.30    1.90
   3   6 -16   10.90    2.20
  -3   6  16   10.60    2.10
  -3   6  16   12.50    2.10
  -2  -6  16   10.80    1.90
   2  -6 -16   10.10    1.80
   2  -6 -16   11.70    2.20
  -2  -6  16   10.60    1.80
  -2   6  16   11.70    1.90
   2   6 -16    9.60    1.90
  -2   6  16   11.60    1.80
   2   6 -16    8.90    1.80
  -1  -6  16    3.40    1.30
  -1  -6  16    6.80    1.50
   1  -6 -16    5.70    1.40
  -1   6  16    6.40    1.30
   1   6 -16    4.50    1.50
   1   6 -16    6.60    1.40
   1   6 -16    4.40    1.40
   0  -6 -16    3.30    1.20
   0  -6  16    5.90    1.50
   0  -6  16    3.90    1.30
   0   6 -16    4.10    1.30
   0   6  16    5.30    1.20
   0   6 -16    3.80    1.20
   1  -6  16   -1.00    1.00
  -1   6 -16   -0.60    1.00
   2  -6  16   14.60    2.00
  -2   6 -16   14.70    2.00
  -3  -7  16    5.40    1.80
  -3  -7  16    4.10    1.70
   3  -7 -16    6.50    1.70
   3  -7 -16    3.90    1.80
  -3   7  16    5.10    1.70
  -3   7  16    6.50    1.90
   3   7 -16    7.90    2.00
   3   7 -16    3.00    1.60
   2  -7 -16   13.70    2.20
  -2  -7  16    8.90    1.90
  -2  -7  16   13.40    2.00
   2   7 -16   11.20    1.90
   2   7 -16   16.60    2.20
   2   7 -16   12.00    2.00
  -2   7  16   17.70    2.40
   1  -7 -16   -0.10    0.90
  -1  -7  16    2.20    1.40
  -1  -7  16   -0.20    1.20
   1   7 -16    0.90    1.20
  -1   7  16    0.60    1.00
   1   7 -16    1.50    1.20
   0  -7 -16   56.19    3.10
   0  -7  16   58.99    3.40
   0  -7  16   56.39    3.20
   0   7 -16   51.59    3.20
   0   7 -16   52.99    3.20
   0   7  16   55.59    2.80
   1  -7  16    1.80    1.30
  -1   7 -16    3.10    1.40
   2  -7  16    0.30    1.40
  -2   7 -16    4.20    1.60
   3   8 -16   -2.20    1.50
   3   8 -16    1.70    1.70
  -3   8  16   -1.30    1.60
   2  -8 -16    5.00    1.70
  -2  -8  16    4.80    1.70
  -2  -8  16    6.40    1.70
  -2   8  16    5.00    1.60
   2   8 -16    6.50    1.70
   2   8 -16    2.60    1.60
   1  -8 -16   20.60    2.40
  -1  -8  16   20.90    2.30
  -1  -8  16   19.60    2.50
  -1   8  16   29.60    2.60
   1   8 -16   22.90    2.50
   1   8 -16   17.90    2.30
   0  -8 -16    0.40    1.00
   0  -8  16    0.50    1.40
   0  -8  16    1.30    1.40
   0   8  16    3.40    1.10
   0   8 -16    3.30    1.40
   0   8 -16   -1.00    1.30
   1  -8  16    8.20    1.80
  -1   8 -16    3.20    1.40
   2  -8  16   16.10    2.50
  -2  -9  16    3.40    1.70
  -2  -9  16    2.20    1.60
   2   9 -16   -2.20    1.20
  -2   9  16    3.10    1.50
   2   9 -16    0.00    1.50
   1  -9 -16   -0.30    1.10
  -1  -9  16   -1.30    1.20
  -1  -9  16   -0.10    1.40
  -1   9  16    2.20    1.30
   1   9 -16    2.10    1.40
   1   9 -16    1.10    1.40
   0  -9 -16   -0.40    1.00
   0  -9  16    0.20    1.40
   0  -9  16   -0.10    1.40
   0   9  16    0.50    1.10
   0   9 -16    0.80    1.40
   0   9 -16    0.60    1.30
   1  -9  16    1.40    1.50
  -1   9 -16    1.60    1.50
   2  -9  16    1.80    1.60
  -2 -10  16    1.40    1.70
  -2 -10  16    5.10    3.40
   2  10 -16    1.70    1.60
   2  10 -16    1.30    1.60
  -2  10  16    3.60    1.70
   1 -10 -16    5.30    1.90
  -1 -10  16    5.90    1.80
  -1 -10  16    5.80    1.90
   1  10 -16    8.30    2.00
   1  10 -16    3.30    1.60
  -1  10  16    6.20    1.70
   0 -10  16    3.50    1.80
   0 -10 -16    0.50    1.10
   0 -10  16    1.10    1.60
   0  10 -16    0.00    1.50
   0  10  16    3.50    1.30
   0  10 -16    2.20    1.60
   1 -10  16    9.40    2.10
  -1 -11  16    1.30    1.70
  -1 -11  16   -0.50    1.70
   1  11 -16    1.70    1.60
   1  11 -16    1.40    1.70
  -1  11  16    2.50    1.60
   0 -11  16   11.90    2.80
   0 -11  16   18.50    2.80
   0  11  16   22.90    2.20
   1 -11  16    2.50    1.80
  -1 -11 -16    3.40    1.30
   4   0 -17    2.00    1.70
  -4   0  17    0.30    1.60
   4   0 -17   -0.20    1.50
   3   0 -17    0.40    1.40
  -3   0  17    1.30    1.40
   3   0 -17    0.60    1.30
  -3   0  17    0.60    1.30
  -2   0  17   -2.90    0.90
  -2   0  17   -0.30    1.00
   2   0 -17   -0.10    1.10
   2   0 -17   -0.80    0.90
  -1   0  17    0.00    0.90
   1   0 -17    0.10    0.70
   1   0 -17    0.60    0.90
  -1   0  17   -0.90    0.70
   0   0  17    3.50    1.00
   0   0 -17    5.90    1.10
  -1   0 -17    0.10    0.80
   1   0  17    0.80    0.80
   4  -1 -17    4.90    2.00
  -4  -1  17    3.90    1.70
   4  -1 -17    7.40    2.20
   4   1 -17    7.90    2.30
  -4   1  17    5.80    2.00
   4   1 -17    2.00    1.90
   3  -1 -17    2.20    1.50
  -3  -1  17    0.80    1.30
  -3  -1  17   -0.90    1.20
   3  -1 -17    0.40    1.40
   3   1 -17   -0.30    1.40
  -3   1  17    1.90    1.40
   3   1 -17    0.00    1.30
  -3   1  17    0.20    1.20
   2  -1 -17   15.30    2.10
  -2  -1  17   15.80    2.00
   2  -1 -17   20.60    2.30
  -2  -1  17   15.20    1.90
   2   1 -17   13.50    2.10
  -2   1  17   19.50    2.10
  -2   1  17   16.70    2.10
   2   1 -17   20.60    2.30
  -1  -1  17   23.30    1.90
   1  -1 -17   22.50    2.00
  -1  -1  17   23.30    2.00
   1  -1 -17   25.30    2.10
   1   1 -17   26.50    2.00
  -1   1  17   20.60    1.80
  -1   1  17   25.80    2.00
   1   1 -17   22.90    2.10
   0  -1  17    2.30    1.00
   0  -1 -17    2.70    1.00
   0   1 -17    3.40    1.10
   0   1  17    4.30    1.10
   1  -1  17    7.60    1.20
  -1  -1 -17    9.20    1.30
  -1   1 -17    7.80    1.20
  -2   1 -17    8.80    1.30
   4  -2 -17   -1.60    1.70
   4  -2 -17   -0.20    1.80
  -4   2  17    0.60    1.60
   4   2 -17   -0.60    1.60
  -3  -2  17   11.60    2.10
  -3  -2  17    7.60    1.80
   3  -2 -17   10.40    2.10
   3  -2 -17   14.00    2.40
  -3   2  17    8.90    1.80
  -3   2  17   11.20    2.20
   3   2 -17   14.30    2.30
   3   2 -17   10.10    2.10
   2  -2 -17    6.80    1.70
  -2  -2  17    6.70    1.70
  -2  -2  17    8.20    1.60
   2  -2 -17    8.00    1.70
  -2   2  17   10.30    1.70
  -2   2  17    7.60    1.50
   2   2 -17    7.70    1.50
   2   2 -17    8.00    1.70
   1  -2 -17   39.00    2.60
  -1  -2  17   42.80    2.60
  -1  -2  17   38.40    2.40
   1  -2 -17   40.70    2.50
  -1   2  17   40.40    2.50
  -1   2  17   35.20    2.30
   1   2 -17   39.30    2.70
   1   2 -17   39.40    2.50
   0  -2  17   22.20    1.90
   0  -2  17   19.80    1.70
   0  -2 -17   21.20    1.90
   0   2 -17   19.80    2.10
   0   2  17   20.60    1.80
  -1  -2 -17   23.80    1.80
   1  -2  17   26.30    2.00
  -1   2 -17   25.50    2.00
  -2   2 -17   34.30    2.30
   3  -3 -17    2.40    1.50
   3  -3 -17    1.90    1.40
  -3  -3  17    2.40    1.40
  -3  -3  17    0.00    1.40
  -3   3  17    1.50    1.20
   3   3 -17    4.20    1.60
  -3   3  17   -0.50    1.20
   3   3 -17    0.60    1.50
  -2  -3  17   25.70    2.30
   2  -3 -17   29.90    3.00
  -2  -3  17   30.10    2.60
   2  -3 -17   27.60    2.40
   2   3 -17   27.50    2.40
   2   3 -17   25.50    2.60
  -2   3  17   27.10    2.30
  -2   3  17   26.80    2.60
  -1  -3  17    6.10    1.30
   1  -3 -17   10.10    1.60
  -1  -3  17    8.10    1.50
  -1   3  17    9.90    1.40
   1   3 -17    7.60    1.50
  -1   3  17   11.00    1.60
   1   3 -17    8.70    1.70
   0  -3  17   10.10    1.40
   0  -3  17   11.70    1.60
   0  -3 -17   12.30    1.60
   0   3  17   12.50    1.50
   0   3 -17   12.20    1.70
   1  -3  17    8.40    1.40
  -1   3 -17    8.90    1.40
   2  -3  17   22.00    2.00
  -2   3 -17   22.70    2.20
   3  -4 -17   36.70    3.20
  -3  -4  17   33.90    3.00
   3  -4 -17   33.90    3.40
  -3  -4  17   35.00    3.00
  -3   4  17   35.00    3.10
   3   4 -17   28.70    3.00
  -3   4  17   35.00    2.90
   3   4 -17   36.50    3.20
   2  -4 -17   11.70    2.00
  -2  -4  17   16.50    2.20
   2  -4 -17   15.60    2.00
  -2  -4  17   16.00    2.20
  -2   4  17   15.00    2.00
  -2   4  17   12.80    1.80
   2   4 -17   12.40    2.00
   2   4 -17   16.10    2.10
   1  -4 -17   17.90    2.10
  -1  -4  17   15.50    1.80
  -1  -4  17   16.00    2.00
   1   4 -17   16.20    2.10
  -1   4  17   21.40    2.10
   1   4 -17   15.20    2.00
   0  -4  17    3.80    1.20
   0  -4 -17    4.30    1.20
   0  -4  17    1.50    1.00
   0   4 -17    4.60    1.20
   0   4  17    5.30    1.10
   1  -4  17    5.00    1.40
  -1   4 -17    3.90    1.20
   2  -4  17   13.20    1.70
  -2   4 -17   11.60    1.80
  -3  -5  17    3.00    1.60
   3  -5 -17    0.10    1.30
   3  -5 -17    0.90    1.50
  -3  -5  17    0.00    1.60
   3   5 -17   -1.10    1.60
   3   5 -17   -0.20    1.40
  -3   5  17   -0.60    1.30
  -3   5  17    0.00    1.30
   2  -5 -17   12.50    2.10
  -2  -5  17   10.20    1.80
  -2  -5  17   10.60    1.90
  -2   5  17   11.80    1.80
  -2   5  17   12.50    2.00
   2   5 -17   10.70    1.90
   2   5 -17    9.50    2.00
  -1  -5  17    3.60    1.30
  -1  -5  17    2.60    1.30
   1  -5 -17    5.20    1.40
   1   5 -17    5.90    1.40
   1   5 -17    3.90    1.30
  -1   5  17    6.30    1.40
   0  -5  17    5.50    1.40
   0  -5 -17    3.40    1.20
   0  -5  17    6.60    1.40
   0   5 -17    7.00    1.40
   0   5  17    5.50    1.20
   1  -5  17   30.20    2.40
  -1   5 -17   25.90    2.30
   2  -5  17    5.10    1.50
  -2   5 -17    4.60    1.40
   3  -6 -17    9.60    2.20
  -3  -6  17    4.90    1.80
   3  -6 -17    8.10    2.00
  -3  -6  17    7.90    2.00
  -3   6  17    9.90    2.10
   3   6 -17    8.70    2.00
  -3   6  17    8.60    1.90
   3   6 -17    5.50    1.90
  -2  -6  17    3.80    1.50
  -2  -6  17   -2.30    1.20
   2  -6 -17    2.90    1.40
   2   6 -17   -0.60    1.30
   2   6 -17    0.50    1.20
  -2   6  17    0.10    1.20
  -1  -6  17   -0.90    1.10
  -1  -6  17    1.10    1.20
   1  -6 -17    1.50    1.00
   1   6 -17    0.10    1.10
   1   6 -17    1.20    1.20
  -1   6  17    0.90    1.00
   1   6 -17    0.30    1.20
   0  -6  17    5.60    1.40
   0  -6 -17    2.10    1.10
   0  -6  17    3.40    1.30
   0   6 -17    1.80    1.20
   0   6  17    3.00    1.10
   1  -6  17    3.40    1.40
  -1   6 -17    2.70    1.30
   2  -6  17    2.10    1.40
  -2   6 -17    1.60    1.40
  -3  -7  17    5.30    1.90
   3   7 -17    3.90    1.80
   3   7 -17    3.70    1.80
  -3   7  17    7.70    2.10
   2  -7 -17    3.00    1.40
  -2  -7  17    2.70    1.50
  -2  -7  17    5.40    1.90
  -2   7  17    3.90    1.50
   2   7 -17    1.90    1.50
   2   7 -17    5.60    1.80
   2   7 -17    3.40    1.50
   1  -7 -17   27.40    2.80
  -1  -7  17   22.10    2.60
  -1  -7  17   17.60    2.20
   1   7 -17   20.90    2.40
   1   7 -17   18.40    2.40
  -1   7  17   23.00    2.30
   0  -7  17    1.60    1.30
   0  -7 -17    3.20    1.20
   0  -7  17    1.40    1.30
   0   7  17    1.50    1.00
   0   7 -17    2.40    1.30
   1  -7  17    9.60    1.90
  -1   7 -17    9.30    1.80
   2  -7  17   -1.20    1.30
   3   8 -17    2.70    1.70
   2  -8 -17   17.60    2.60
  -2  -8  17   15.20    2.40
  -2  -8  17   18.20    2.50
   2   8 -17   14.20    2.30
   2   8 -17   22.20    2.70
  -2   8  17   27.10    2.90
  -1  -8  17    5.30    1.70
  -1  -8  17    6.50    1.70
   1  -8 -17    6.40    1.60
   1   8 -17    3.80    1.50
  -1   8  17    5.60    1.40
   1   8 -17    2.40    1.50
   0  -8  17    3.60    1.60
   0  -8  17    6.10    2.00
   0  -8 -17    6.10    1.40
   0   8 -17    6.90    1.80
   0   8  17    6.50    1.40
   1  -8  17    1.40    1.50
  -1   8 -17    1.70    1.30
   2  -8  17    4.40    1.80
  -2  -9  17    5.90    1.80
  -2  -9  17    3.70    1.70
   2   9 -17    7.60    2.00
   2   9 -17    6.80    2.00
  -2   9  17    7.30    1.90
  -1  -9  17    5.30    1.80
  -1  -9  17    2.50    1.60
   1  -9 -17    6.00    1.70
   1   9 -17    2.80    1.60
   1   9 -17    5.30    1.70
  -1   9  17    2.40    1.40
   0  -9 -17    0.20    1.20
   0  -9  17   -0.30    1.50
   0   9  17    0.30    1.00
   0   9 -17    0.20    1.30
   1  -9  17   11.00    2.10
  -2 -10  17    6.80    2.00
   2  10 -17   12.10    2.30
   2  10 -17    8.00    2.10
  -2  10  17   15.30    2.50
  -1 -10  17    2.90    1.60
  -1 -10  17    3.00    1.70
   1  10 -17    3.10    1.60
  -1  10  17    5.40    1.60
   1  10 -17    2.10    1.60
   0 -10  17   16.90    2.60
   0 -10 -17   22.20    2.40
   0  10  17   26.80    2.30
   1 -10  17    0.60    1.60
  -1 -11  17    2.70    1.90
  -1 -11  17    8.90    2.20
   1  11 -17    2.70    1.90
  -1  11  17    8.30    1.90
   0 -11  17   -0.30    1.70
   0  11  17    2.30    1.30
  -3   0  18    2.70    1.50
   3   0 -18    9.30    2.00
  -3   0  18    7.00    1.90
   3   0 -18    4.00    1.60
  -2   0  18   17.10    2.10
  -2   0  18   16.10    2.10
   2   0 -18   16.50    2.30
   2   0 -18   21.20    2.40
  -1   0  18    1.20    1.00
   1   0 -18    0.50    0.90
   1   0 -18    1.30    1.00
  -1   0  18    1.10    1.00
   0   0 -18   23.20    2.00
   0   0  18   16.00    1.80
   1   0  18    3.80    1.00
  -1   0 -18    2.60    1.10
   3  -1 -18   31.30    3.20
  -3  -1  18   29.70    3.00
  -3  -1  18   31.00    3.00
   3  -1 -18   32.50    3.30
   3   1 -18   25.40    2.90
  -3   1  18   34.30    3.00
  -3   1  18   28.70    3.00
   3   1 -18   34.10    3.20
   2  -1 -18    3.20    1.30
  -2  -1  18    4.60    1.50
  -2  -1  18    1.60    1.20
   2  -1 -18    2.00    1.30
  -2   1  18    3.50    1.30
   2   1 -18    1.40    1.30
   2   1 -18    1.30    1.10
  -2   1  18    2.30    1.30
   1  -1 -18   35.30    2.60
  -1  -1  18   40.80    2.70
  -1  -1  18   39.00    2.50
  -1   1  18   38.00    2.50
   1   1 -18   39.90    2.70
  -1   1  18   38.30    2.40
   1   1 -18   35.80    2.50
   0  -1  18   61.69    3.10
   0  -1 -18   60.39    3.20
   0   1  18   61.19    3.10
   0   1 -18   59.49    3.20
  -1  -1 -18    9.30    1.40
   1  -1  18    9.90    1.40
  -1   1 -18    8.70    1.30
  -2   1 -18    0.30    1.00
  -3  -2  18    2.40    1.50
   3  -2 -18    3.40    1.70
   3  -2 -18    3.20    1.80
  -3  -2  18    5.30    1.80
  -3   2  18    4.80    1.70
  -3   2  18    3.10    1.70
   3   2 -18    1.00    1.60
   3   2 -18    2.40    1.60
   2  -2 -18   15.10    2.10
  -2  -2  18   17.80    2.30
   2  -2 -18   15.40    2.30
  -2  -2  18   14.80    2.00
  -2   2  18   17.10    2.10
  -2   2  18   14.20    2.00
   2   2 -18   15.00    2.10
   2   2 -18   15.90    2.20
  -1  -2  18    2.30    1.20
  -1  -2  18    3.70    1.30
   1  -2 -18    1.50    1.00
   1   2 -18    3.60    1.20
  -1   2  18    3.90    1.10
   1   2 -18    4.90    1.40
   0  -2 -18    2.20    1.00
   0  -2  18    1.60    1.00
   0   2 -18    1.90    1.10
   0   2  18    0.50    0.90
  -1  -2 -18    6.00    1.10
   1  -2  18    6.40    1.30
  -1   2 -18    6.90    1.30
  -2   2 -18   19.20    1.90
  -3  -3  18   -1.00    1.20
   3  -3 -18    0.70    1.40
   3  -3 -18   -1.40    1.40
  -3  -3  18   -2.50    1.30
  -3   3  18    2.30    1.40
  -3   3  18    0.10    1.50
   3   3 -18    0.10    1.50
   3   3 -18    1.50    1.60
  -2  -3  18   -1.60    1.10
  -2  -3  18   -0.10    1.20
   2  -3 -18   -0.40    1.00
   2  -3 -18   -0.20    1.20
  -2   3  18   -0.30    1.00
   2   3 -18    1.10    1.30
  -2   3  18   -1.20    1.10
   2   3 -18   -0.60    1.00
  -1  -3  18    3.60    1.30
   1  -3 -18    1.20    1.00
  -1  -3  18    0.00    1.10
   1   3 -18    0.80    1.00
  -1   3  18    3.20    1.10
   1   3 -18    3.10    1.20
   0  -3 -18   17.50    2.00
   0  -3  18   13.30    1.70
   0   3 -18   14.70    1.80
   0   3  18   16.20    1.70
  -1  -3 -18   35.80    2.20
   1  -3  18   38.20    2.60
  -1   3 -18   34.90    2.50
   2  -3  18    1.30    1.10
  -2   3 -18    0.30    1.10
   3  -4 -18    2.80    1.70
  -3  -4  18    1.50    1.60
  -3  -4  18    4.30    1.70
   3  -4 -18    2.40    1.50
  -3   4  18   -1.70    1.40
  -3   4  18    0.00    1.30
   3   4 -18   -0.60    1.40
   3   4 -18    1.80    1.50
   2  -4 -18    4.30    1.50
  -2  -4  18    5.10    1.60
  -2  -4  18    3.50    1.50
  -2   4  18    4.30    1.50
   2   4 -18    3.00    1.40
   2   4 -18    5.20    1.70
  -2   4  18    6.20    1.60
   1  -4 -18    5.10    1.40
  -1  -4  18    5.60    1.50
  -1  -4  18    3.60    1.30
   1   4 -18    5.10    1.50
  -1   4  18    3.40    1.20
   1   4 -18    1.70    1.20
   0  -4  18   18.00    2.00
   0  -4 -18   14.10    1.80
   0   4  18   16.60    1.70
   0   4 -18   15.00    1.90
   1  -4  18    6.90    1.50
  -1   4 -18    4.70    1.40
   2  -4  18    2.10    1.30
  -2   4 -18    1.40    1.20
  -3  -5  18    4.70    1.90
  -3  -5  18    9.60    2.10
   3  -5 -18   12.10    2.20
  -3   5  18   12.00    2.10
   3   5 -18    8.50    2.10
  -3   5  18   11.50    2.30
   3   5 -18    8.40    2.10
  -2  -5  18    0.40    1.40
   2  -5 -18    0.70    1.20
  -2  -5  18    0.10    1.30
  -2   5  18    2.50    1.40
   2   5 -18   -0.20    1.40
   2   5 -18    0.60    1.30
  -1  -5  18   35.50    2.60
   1  -5 -18   29.20    2.50
  -1  -5  18   35.70    2.80
  -1   5  18   30.20    2.40
   1   5 -18   32.20    2.70
   1   5 -18   30.40    2.60
   0  -5 -18    7.00    1.40
   0  -5  18    3.80    1.30
   0   5  18    6.10    1.30
   0   5 -18    6.60    1.50
   1  -5  18   -1.00    1.20
  -1   5 -18   -0.80    1.20
   2  -5  18    6.50    1.50
  -2   5 -18    6.80    1.60
  -3  -6  18    3.10    1.70
   3   6 -18   -0.10    1.60
  -3   6  18   -1.60    1.30
   3   6 -18    1.40    1.70
  -2  -6  18   12.90    2.20
  -2  -6  18   14.50    2.20
   2  -6 -18   13.50    2.10
  -2   6  18   15.70    2.30
   2   6 -18   12.40    2.20
   2   6 -18   16.30    2.30
  -1  -6  18   18.00    2.30
  -1  -6  18   14.30    2.00
   1  -6 -18   16.30    2.10
   1   6 -18   16.10    2.10
   1   6 -18   17.00    2.30
   1   6 -18   16.00    2.30
  -1   6  18   18.40    2.10
   0  -6  18   -0.20    1.20
   0  -6 -18    0.20    1.00
   0   6 -18    1.50    1.10
   0   6  18    0.30    1.00
   1  -6  18   10.10    1.70
  -1   6 -18    4.90    1.50
   2  -6  18    2.00    1.60
  -3  -7  18    8.00    2.20
  -3   7  18   12.70    2.40
   3   7 -18   11.80    2.40
  -2  -7  18    3.60    1.60
   2  -7 -18    2.40    1.50
  -2  -7  18   -2.70    1.30
   2   7 -18   -1.70    1.30
   2   7 -18   -0.30    1.30
   2   7 -18   -1.80    1.30
  -2   7  18   -0.40    1.20
   1  -7 -18   10.90    2.00
  -1  -7  18    9.20    2.00
  -1  -7  18    8.60    1.80
   1   7 -18    6.80    1.70
  -1   7  18   11.30    1.80
   1   7 -18   10.00    1.80
   0  -7 -18    6.70    1.40
   0  -7  18    9.40    1.90
   0   7 -18    8.50    1.90
   0   7  18   14.50    1.70
   1  -7  18   10.90    1.90
  -1   7 -18    8.30    1.70
   2  -7  18    0.50    1.40
  -2  -8  18    6.40    2.00
  -2  -8  18    6.80    1.90
   2   8 -18    3.50    1.70
   2   8 -18    6.50    1.90
  -2   8  18    8.20    2.00
  -1  -8  18    0.80    1.40
   1  -8 -18    2.00    1.20
  -1  -8  18    0.60    1.40
   1   8 -18    2.40    1.50
  -1   8  18    3.90    1.40
   1   8 -18    2.70    1.50
   0  -8  18    4.40    1.70
   0  -8 -18    6.40    1.50
   0   8  18    5.20    1.30
   0   8 -18    1.50    1.40
   1  -8  18   10.50    2.10
  -2  -9  18   11.40    3.30
  -2  -9  18    8.90    2.20
   2   9 -18    5.90    2.10
  -2   9  18    8.90    2.00
   2   9 -18   11.40    2.30
  -1  -9  18    3.80    1.80
  -1  -9  18   -0.10    1.50
   1   9 -18    4.00    1.70
   1   9 -18    2.80    1.60
  -1   9  18    2.30    1.40
   0  -9 -18    3.80    1.40
   0  -9  18    0.50    1.50
   0   9  18    2.60    1.30
   1  -9  18    2.40    1.60
  -1 -10  18    0.30    1.70
  -1 -10  18    3.70    1.80
   1  10 -18    0.70    1.60
  -1  10  18   -0.10    1.30
   0 -10  18   -1.70    1.50
   0  10  18   -1.10    1.00
   3   0 -19    0.70    1.50
  -3   0  19    0.00    1.40
   3   0 -19    0.10    1.50
  -3   0  19   -1.10    1.30
  -2   0  19    0.10    1.20
   2   0 -19    2.10    1.20
   2   0 -19   -0.10    1.20
  -2   0  19    0.30    1.20
   1   0 -19    0.60    1.00
  -1   0  19    0.60    1.00
   0   0  19    2.60    1.20
   0   0 -19    4.80    1.20
   1   0  19   -1.30    0.80
  -1   0 -19   -1.10    0.80
  -3  -1  19    2.70    1.70
   3  -1 -19    6.70    1.80
   3  -1 -19    4.80    1.80
  -3  -1  19    5.90    1.80
  -3   1  19    6.10    1.90
   3   1 -19    3.40    1.80
   3   1 -19    7.20    2.10
  -3   1  19    7.20    1.90
   2  -1 -19   11.60    1.90
  -2  -1  19    9.10    1.70
   2  -1 -19    7.50    1.80
  -2  -1  19   11.60    2.10
   2   1 -19    9.40    1.80
   2   1 -19    8.90    1.80
  -2   1  19   12.30    2.00
  -2   1  19    8.70    1.60
   1  -1 -19    2.80    1.20
  -1  -1  19    2.70    1.50
  -1  -1  19    2.00    1.20
   1   1 -19    0.80    1.00
  -1   1  19    2.40    1.10
   0  -1 -19   18.80    2.10
   0  -1  19   17.40    1.90
   0   1 -19   17.50    2.00
   0   1  19   20.90    2.00
  -1  -1 -19    2.50    1.10
   1  -1  19    4.00    1.20
  -1   1 -19    2.50    1.10
  -2   1 -19    1.70    1.00
   3  -2 -19   16.40    2.50
  -3  -2  19   13.50    2.20
   3  -2 -19   23.50    3.00
  -3  -2  19   17.30    2.40
  -3   2  19   24.40    2.90
  -3   2  19   13.80    2.30
   3   2 -19   20.70    2.80
   3   2 -19   21.20    2.60
  -2  -2  19    7.90    1.80
   2  -2 -19    3.80    1.50
  -2  -2  19    4.70    1.50
   2   2 -19    7.00    1.80
  -2   2  19    6.20    1.60
  -2   2  19    6.60    1.70
   2   2 -19    5.90    1.60
   1  -2 -19   19.00    2.30
  -1  -2  19   17.00    1.90
  -1  -2  19   21.40    2.30
   1   2 -19   18.80    2.20
  -1   2  19   17.40    2.00
   0  -2 -19    3.50    1.10
   0  -2  19    2.10    1.10
   0   2  19    3.70    1.20
   0   2 -19    4.40    1.30
  -1  -2 -19    0.30    0.90
   1  -2  19    1.10    1.10
  -1   2 -19    4.30    1.20
  -2   2 -19    2.70    1.20
  -3  -3  19    3.60    1.80
   3  -3 -19    3.60    1.80
   3  -3 -19    2.40    2.00
  -3  -3  19    2.80    1.60
   3   3 -19    1.70    1.80
  -3   3  19    2.00    1.50
   3   3 -19    0.70    1.50
  -3   3  19    2.10    1.80
   2  -3 -19   32.20    2.90
  -2  -3  19   31.50    3.00
  -2  -3  19   29.60    2.90
  -2   3  19   32.90    2.90
   2   3 -19   31.20    3.10
   2   3 -19   36.60    2.90
  -1  -3  19    6.80    1.50
   1  -3 -19    8.20    1.60
  -1  -3  19    7.10    1.60
  -1   3  19   10.70    1.70
   1   3 -19    6.20    1.60
   0  -3  19   32.50    2.50
   0  -3 -19   29.80    2.30
   0   3  19   31.40    2.20
   0   3 -19   28.30    2.40
  -1  -3 -19    8.70    1.30
   1  -3  19    9.30    1.60
  -1   3 -19    7.50    1.60
  -2   3 -19    0.00    1.10
  -3  -4  19    6.20    1.80
  -3  -4  19    4.70    1.80
   3   4 -19    4.80    2.00
   3   4 -19    5.30    2.00
  -3   4  19    6.60    2.00
  -3   4  19    9.30    3.00
  -2  -4  19   13.50    2.20
   2  -4 -19   13.00    2.20
  -2  -4  19   14.80    2.10
  -2   4  19   15.20    2.20
   2   4 -19   12.50    2.10
   2   4 -19   16.60    2.30
  -1  -4  19   17.10    2.00
   1  -4 -19   13.50    2.00
  -1  -4  19   17.90    2.20
   1   4 -19   14.10    2.00
  -1   4  19   18.90    2.10
   0  -4 -19   -0.10    0.80
   0  -4  19    2.70    1.30
   0   4 -19   -1.60    0.90
   0   4  19    0.70    1.00
   1  -4  19    1.80    1.30
  -1   4 -19    0.60    1.10
   2  -4  19    9.10    1.60
  -2   4 -19    6.20    1.60
  -3  -5  19   -0.10    1.60
  -3  -5  19   -2.50    2.50
   3   5 -19    0.90    1.60
  -3   5  19    0.30    1.60
   3   5 -19   -2.20    1.50
  -2  -5  19   24.10    2.60
   2  -5 -19   24.10    2.80
  -2  -5  19   27.10    2.90
   2   5 -19   24.60    2.90
  -2   5  19   29.30    2.90
   2   5 -19   22.90    2.80
   1  -5 -19   -0.20    1.10
  -1  -5  19    1.70    1.30
  -1  -5  19   -1.10    1.20
   1   5 -19   -0.80    1.20
  -1   5  19   -0.30    1.10
   1   5 -19    0.60    1.20
   0  -5  19    1.90    1.30
   0  -5 -19    3.20    1.20
   0   5 -19    0.50    1.20
   0   5  19    0.70    1.00
   1  -5  19    5.60    1.60
  -1   5 -19    2.50    1.40
   2  -5  19    3.60    1.50
  -2  -6  19    3.30    1.70
  -2  -6  19    5.80    1.80
  -2   6  19    9.60    2.00
   2   6 -19    2.10    1.60
   2   6 -19    3.20    1.60
  -1  -6  19    1.90    1.40
   1  -6 -19   -1.10    1.00
  -1  -6  19    0.00    1.40
  -1   6  19    0.40    1.20
   1   6 -19    0.20    1.40
   1   6 -19   -0.60    1.30
   1   6 -19    0.20    1.30
   0  -6  19    0.10    1.30
   0  -6 -19   -0.70    0.90
   0   6 -19    2.20    1.30
   0   6  19    1.80    1.10
   1  -6  19   -0.30    1.30
  -1   6 -19   -0.20    1.30
   2  -6  19    0.30    1.30
  -2  -7  19    0.00    1.40
  -2  -7  19   -1.10    1.40
   2   7 -19   -0.20    1.30
  -2   7  19   -1.40    1.30
   2   7 -19    1.40    1.70
   2   7 -19    1.10    1.60
  -1  -7  19    4.10    1.60
   1  -7 -19    5.30    1.60
  -1  -7  19    8.00    2.00
   1   7 -19    4.00    1.80
  -1   7  19    4.90    1.60
   1   7 -19    5.00    1.80
   0  -7  19   17.60    2.30
   0  -7 -19   19.20    2.20
   0   7  19   22.40    2.10
   0   7 -19   15.80    2.30
   1  -7  19    0.60    1.40
  -2  -8  19    1.90    1.80
  -2  -8  19   -2.00    1.50
  -2   8  19   -0.60    1.30
   2   8 -19   -1.30    1.40
  -1  -8  19   10.20    2.10
  -1  -8  19    8.70    2.10
   1   8 -19    8.00    2.70
   1   8 -19    6.40    2.30
  -1   8  19   11.50    1.90
   0  -8  19    5.50    1.90
   0  -8 -19    2.20    1.20
   0   8  19    3.70    1.30
   1  -8  19    0.70    1.50
  -1  -9  19    3.90    1.80
  -1  -9  19    7.80    3.40
  -1   9  19    7.90    1.90
   0  -9  19    1.00    1.60
   0   9  19    4.60    1.40
   3   0 -20    6.30    2.10
  -3   0  20    6.30    1.90
  -3   0  20    6.30    2.00
  -2   0  20   65.29    3.90
   2   0 -20   59.49    3.90
  -2   0  20   65.29    3.90
  -1   0  20    0.20    1.10
   1   0 -20    0.60    1.00
   0   0 -20   34.50    2.50
   0   0  20   31.30    2.40
  -1   0 -20    2.00    1.10
   1   0  20    1.20    1.00
  -3  -1  20    0.00    1.50
  -3  -1  20    1.50    1.60
   3  -1 -20   -0.30    1.40
   3   1 -20    0.30    1.60
  -3   1  20    0.10    1.40
  -3   1  20   -0.20    1.50
  -2  -1  20   11.90    2.10
   2  -1 -20   11.00    2.10
  -2  -1  20    9.70    1.90
   2   1 -20   10.60    2.20
  -2   1  20   10.30    2.00
   2   1 -20   13.00    2.20
  -1  -1  20   12.20    1.90
   1  -1 -20   11.70    1.80
  -1   1  20   12.70    1.80
   1   1 -20   10.50    1.90
   0  -1 -20    3.40    1.20
   0  -1  20    4.60    1.40
   0   1 -20    2.20    1.20
   0   1  20    6.10    1.40
   1  -1  20   14.30    1.70
  -1  -1 -20   14.50    1.70
  -1   1 -20   11.40    1.60
  -3  -2  20   -0.20    1.50
   3  -2 -20    1.30    1.70
  -3  -2  20   -0.70    1.40
  -3   2  20   -0.70    1.60
   3   2 -20    2.50    1.60
  -3   2  20    0.60    1.70
  -2  -2  20   14.50    2.30
  -2  -2  20   10.10    1.90
   2  -2 -20    7.60    1.80
  -2   2  20   10.90    2.00
   2   2 -20   10.10    1.90
   2   2 -20    5.80    1.80
  -1  -2  20    4.80    1.50
   1  -2 -20    5.00    1.40
  -1   2  20    6.50    1.40
   1   2 -20    5.30    1.60
   0  -2 -20    7.70    1.50
   0  -2  20    7.20    1.50
   0   2 -20    5.00    1.40
   0   2  20    9.80    1.50
  -1  -2 -20    6.70    1.30
   1  -2  20    8.60    1.50
  -1   2 -20    7.10    1.50
  -2   2 -20    5.50    1.40
  -3  -3  20   -1.00    1.40
  -3  -3  20   -1.40    1.40
   3   3 -20    0.80    1.60
  -3   3  20    2.70    1.70
   2  -3 -20    1.50    1.40
  -2  -3  20    0.00    1.40
  -2  -3  20   -1.10    1.20
   2   3 -20    1.40    1.50
  -2   3  20    1.60    1.50
   2   3 -20   -0.20    1.20
  -1  -3  20    2.00    1.30
   1  -3 -20    3.30    1.30
  -1   3  20    3.50    1.30
   1   3 -20   -0.10    1.20
   0  -3 -20    0.90    0.90
   0  -3  20    1.50    1.20
   0   3 -20    0.50    1.10
   0   3  20    1.20    1.10
   1  -3  20    4.00    1.40
  -1   3 -20    2.80    1.30
  -3  -4  20    4.50    1.90
  -3  -4  20    2.90    2.80
  -3   4  20    5.30    2.00
   3   4 -20    6.20    2.10
  -2  -4  20    3.80    1.60
  -2  -4  20    3.70    1.70
   2  -4 -20    3.30    1.60
   2   4 -20    5.20    1.70
  -2   4  20    2.80    1.50
   2   4 -20    3.60    1.70
   1  -4 -20    0.30    1.00
  -1  -4  20   -0.20    1.30
  -1   4  20    0.90    1.20
   1   4 -20   -0.90    1.30
   0  -4  20    6.70    1.60
   0  -4 -20    6.10    1.40
   0   4  20   10.10    1.50
   0   4 -20    6.10    1.60
   1  -4  20    4.00    1.40
  -1   4 -20    4.40    1.50
   2  -4  20    0.30    1.20
  -2  -5  20    5.50    1.80
  -2  -5  20    4.30    1.80
  -2   5  20    4.40    1.70
   2   5 -20    7.50    2.00
   2   5 -20    3.70    1.70
  -1  -5  20    6.30    1.70
   1  -5 -20    7.40    1.70
   1   5 -20    4.30    1.60
  -1   5  20    8.80    1.70
   0  -5  20    1.20    1.30
   0  -5 -20   -0.20    1.00
   0   5 -20    0.30    1.30
   0   5  20   -0.90    1.00
   1  -5  20   10.20    1.80
  -2  -6  20    5.80    1.80
  -2  -6  20    5.60    1.70
  -2   6  20    4.30    1.70
   2   6 -20    1.50    1.60
  -1  -6  20    3.40    1.70
   1  -6 -20    0.90    1.20
  -1   6  20    2.20    1.40
   1   6 -20    2.10    1.50
   0  -6 -20   14.50    2.00
   0  -6  20   17.10    2.30
   0   6 -20   13.10    2.50
   0   6  20   13.70    1.80
   1  -6  20    3.20    1.60
  -2  -7  20   -1.20    1.60
  -2  -7  20    0.30    1.60
  -2   7  20    0.30    1.50
   2   7 -20    0.30    1.60
   2   7 -20   -1.00    1.40
  -1  -7  20    4.30    1.70
  -1   7  20    8.40    1.80
   0  -7 -20    0.70    1.10
   0  -7  20    1.40    1.50
   0   7  20    2.60    1.30
   1  -7  20    1.80    1.50
  -1  -8  20    9.00    2.00
  -1   8  20   12.80    2.10
   0  -8  20    4.20    1.80
   0   8  20    3.60    1.30
  -3   0  21    0.90    2.50
  -3   0  21    1.00    1.60
   3   0 -21    3.20    2.10
   2   0 -21   -1.30    1.30
  -2   0  21   -1.10    1.30
  -1   0  21    1.40    1.30
   1   0 -21   -0.20    1.10
   0   0  21    3.10    1.30
   0   0 -21    2.10    1.20
   1   0  21    4.70    1.20
  -1   0 -21    4.80    1.20
   3   1 -21    4.60    1.90
   2  -1 -21   -0.70    1.30
  -2  -1  21   -0.10    1.50
   2   1 -21    1.30    1.40
  -2   1  21   -2.40    1.30
  -1  -1  21    6.60    1.70
   1  -1 -21    6.60    1.60
  -1   1  21    9.80    1.80
   1   1 -21    8.50    1.80
   0  -1  21    1.20    1.20
   0  -1 -21    2.40    1.20
   0   1  21    0.00    1.10
   0   1 -21   -0.90    1.00
  -1  -1 -21    5.10    1.30
   1  -1  21    1.30    1.10
  -1   1 -21    2.40    1.10
  -2  -2  21   25.10    2.80
  -2   2  21   26.80    2.80
   2   2 -21   20.30    2.90
   1  -2 -21   18.50    2.30
  -1  -2  21   18.70    2.30
  -1   2  21   20.90    2.40
   1   2 -21   15.60    2.30
   0  -2 -21    0.80    1.10
   0  -2  21    1.00    1.30
   0   2 -21    0.60    1.30
   0   2  21    3.10    1.30
   1  -2  21    6.90    1.50
  -1  -2 -21    5.70    1.30
  -1   2 -21    9.10    1.70
  -2  -3  21    2.80    1.60
  -2   3  21    6.90    1.80
   2   3 -21    3.70    2.20
   1  -3 -21   18.70    2.40
  -1  -3  21   23.20    2.60
  -1   3  21   21.60    2.40
   1   3 -21   15.90    2.20
   0  -3 -21    5.60    1.40
   0  -3  21    4.40    1.50
   0   3 -21    4.70    1.50
   0   3  21    6.20    1.40
   1  -3  21    2.50    1.30
  -1  -3 -21    1.20    1.10
  -1   3 -21    2.70    1.60
  -2  -4  21    4.00    1.80
  -2   4  21    3.20    1.70
  -1  -4  21   12.10    2.00
   1  -4 -21    9.40    1.90
   1   4 -21    8.10    1.90
  -1   4  21   11.10    1.90
   0  -4  21    3.30    1.50
   0  -4 -21    1.90    1.20
   0   4 -21    1.30    1.30
   0   4  21    3.80    1.20
   1  -4  21    6.80    1.60
  -2  -5  21   -0.70    2.00
  -2  -5  21   -0.60    1.40
  -2   5  21    2.00    1.50
  -1  -5  21   15.10    2.40
  -1   5  21   22.90    2.50
   0  -5 -21    1.30    1.20
   0  -5  21   -0.60    1.30
   0   5  21   -0.30    1.10
   1  -5  21    1.60    1.50
  -2  -6  21   -0.30    2.60
  -2  -6  21    0.90    1.60
  -2   6  21    0.60    1.50
   2   6 -21   -1.80    2.50
  -1  -6  21    3.70    1.80
  -1   6  21    2.30    1.50
   0  -6  21    2.00    1.50
   0  -6 -21    2.50    1.40
   0   6  21    4.20    1.40
   1  -6  21    1.90    1.40
  -1  -7  21    0.90    1.60
  -1   7  21   -2.10    1.30
   0  -7  21    2.00    1.60
   0   7  21    2.20    1.20
  -2   0  22   -1.10    1.40
  -1   0  22   34.20    2.90
   0   0  22    8.90    1.70
   0   0 -22    7.30    1.70
   1   0  22    5.50    1.30
  -1   0 -22    3.20    1.30
  -2  -1  22    2.20    1.60
  -2   1  22    2.50    1.50
  -1  -1  22   14.40    2.20
  -1   1  22   11.90    1.90
   0  -1  22   12.90    2.00
   0  -1 -22    8.20    1.60
   0   1  22   11.90    1.80
   0   1 -22    9.80    1.80
   1  -1  22    2.60    1.30
  -1  -1 -22    1.20    1.10
  -2  -2  22    3.40    1.70
  -2   2  22    1.40    1.50
  -1  -2  22    3.20    1.50
  -1   2  22    2.90    1.50
   0  -2 -22    0.20    1.00
   0  -2  22    0.40    1.30
   0   2  22    1.30    1.30
   1  -2  22    1.90    1.30
  -1  -2 -22    0.10    1.00
  -2  -3  22   -3.10    1.30
  -2   3  22    0.70    1.40
  -1  -3  22    0.60    1.40
  -1   3  22    0.30    1.30
   0  -3 -22    1.30    1.10
   0  -3  22   -0.10    1.40
   0   3  22    1.60    1.20
   1  -3  22    2.60    1.40
  -1  -3 -22    0.50    1.00
  -2  -4  22    1.80    1.80
  -2   4  22    1.40    1.60
  -1  -4  22    8.30    2.00
  -1   4  22    9.00    1.80
   0  -4  22    1.00    1.40
   0   4  22    0.00    1.10
   1  -4  22    1.80    1.40
  -1  -5  22   -0.50    1.50
  -1   5  22    3.60    1.60
   0  -5  22    4.60    1.70
   0   5  22    7.80    1.50
  -1  -6  22    1.20    1.70
  -1   6  22    1.30    1.40
   0  -6  22    1.00    1.50
   0   6  22   -0.80    1.10
  -1   0  23    2.00    1.50
   0   0  23   -0.30    1.30
  -1  -1  23    3.20    1.70
  -1   1  23    5.90    1.70
   0  -1  23    1.20    1.40
   0   1  23    0.70    1.20
  -1  -2  23    3.00    1.50
  -1   2  23   -0.10    1.30
   0  -2  23   19.00    2.30
   0   2  23   25.40    2.40
  -1  -3  23    7.40    1.90
  -1   3  23   14.40    2.10
   0  -3  23    4.10    1.70
   0   3  23    6.30    1.60
  -1  -4  23    0.60    1.70
  -1   4  23    2.60    1.50
   0  -4  23   13.60    2.10
   0   4  23   16.70    2.00
_computing_structure_solution     'SHELXT 2014/4 (Sheldrick, 2014)'
;
_shelx_hkl_checksum              88356
_shelx_res_file
;
    tzc1.res created by SHELXL-2014/7
TITL p21_a.res in P2(1)/c
REM Old TITL P21 in P21 #4
REM SHELXT solution in P2(1)/c
REM R1 0.238, Rweak 0.042, Alpha 0.101, Orientation as input
REM Formula found by SHELXT: C9 N O2 Cl
CELL 0.71073 3.9766 11.9503 17.9471 90 96.163 90
ZERR 4 0.0004 0.0013 0.002 0 0.003 0
LATT 1
SYMM -X,0.5+Y,0.5-Z
SFAC C H Cl N O
UNIT 36 24 4 4 8
L.S. 4
PLAN  20 0 0
TEMP 26.54
BOND $H
LIST 4
MORE -1
CONF
fmap 2
acta 52
TWIN -1 0 0 0 -1 0 1 0 1 2
REM <olex2.extras>
REM <HklSrc "%.\\TZC1.hkl">
REM </olex2.extras>
WGHT    0.044900    0.264000
BASF   0.13875
FVAR       0.67380
CL1   3    0.190458    0.833131    0.574293    11.00000    0.06283    0.06498 =
         0.05443   -0.00020    0.01384    0.00639
N1    4    0.703088    0.741506    0.285145    11.00000    0.05033    0.03346 =
         0.04924   -0.00525    0.00364   -0.00353
O2    5    0.952417    0.581551    0.244993    11.00000    0.08830    0.05052 =
         0.07400   -0.01681    0.01988    0.00772
C1    1    0.563998    0.774755    0.350496    11.00000    0.03630    0.03246 =
         0.04476   -0.00430   -0.00270   -0.00522
O1    5    0.770838    0.496958    0.389973    11.00000    0.10584    0.03028 =
         0.08674    0.00369    0.01457    0.00988
C2    1    0.442082    0.879311    0.366683    11.00000    0.04939    0.03171 =
         0.04755    0.00225   -0.00412    0.00284
AFIX  43
H2    2    0.439336    0.937740    0.332394    11.00000   -1.20000
AFIX   0
C6    1    0.564912    0.686797    0.401903    11.00000    0.04178    0.02867 =
         0.05317   -0.00092   -0.00129   -0.00315
C3    1    0.323759    0.893791    0.436155    11.00000    0.04408    0.03545 =
         0.05380   -0.00532   -0.00138    0.00668
AFIX  43
H3    2    0.238786    0.963089    0.448474    11.00000   -1.20000
AFIX   0
C4    1    0.330061    0.806891    0.487398    11.00000    0.03889    0.04511 =
         0.04707   -0.00172    0.00210   -0.00086
C8    1    0.809888    0.633661    0.290431    11.00000    0.05498    0.03624 =
         0.06046   -0.01218    0.00194   -0.00355
C5    1    0.448303    0.701382    0.471022    11.00000    0.04763    0.03583 =
         0.05317    0.00641    0.00053   -0.00236
AFIX  43
H5    2    0.448979    0.642879    0.505209    11.00000   -1.20000
AFIX   0
C9    1    0.742510    0.815204    0.222152    11.00000    0.06884    0.04948 =
         0.04776    0.00004    0.00902   -0.00509
AFIX 137
H9A   2    0.523792    0.839001    0.199959    11.00000   -1.50000
H9B   2    0.856184    0.775831    0.185526    11.00000   -1.50000
H9C   2    0.873569    0.879414    0.239402    11.00000   -1.50000
AFIX   0
C7    1    0.716709    0.590259    0.367342    11.00000    0.05766    0.03128 =
         0.06188   -0.00373    0.00039   -0.00230
HKLF 4
REM  p21_a.res in P2(1)/c
REM R1 =  0.0405 for    1705 Fo > 4sig(Fo)  and  0.0538 for all    2080 data
REM    120 parameters refined using      0 restraints
END
WGHT      0.0449      0.2640
REM Highest difference peak  0.254,  deepest hole -0.225,  1-sigma level  0.041
Q1    1   0.1176  0.7699  0.5722  11.00000  0.05    0.25
Q2    1   0.2830  0.8240  0.5268  11.00000  0.05    0.20
Q3    1   0.5405  0.8223  0.3626  11.00000  0.05    0.20
Q4    1   0.2382  0.8403  0.4490  11.00000  0.05    0.20
Q5    1  -0.0712  0.8626  0.5559  11.00000  0.05    0.19
Q6    1   0.6698  0.6368  0.3928  11.00000  0.05    0.18
Q7    1   0.3259  0.7581  0.4719  11.00000  0.05    0.17
Q8    1   0.5246  0.7328  0.3780  11.00000  0.05    0.16
Q9    1   0.4068  0.7924  0.5816  11.00000  0.05    0.16
Q10   1   0.7238  0.7703  0.2567  11.00000  0.05    0.16
Q11   1   1.1077  0.5375  0.2662  11.00000  0.05    0.15
Q12   1   0.7801  0.6106  0.3289  11.00000  0.05    0.15
Q13   1  -0.0606  0.8028  0.5540  11.00000  0.05    0.15
Q14   1   0.6588  0.7251  0.3943  11.00000  0.05    0.15
Q15   1   0.8243  0.6952  0.2930  11.00000  0.05    0.14
Q16   1   0.3195  0.9240  0.5783  11.00000  0.05    0.13
Q17   1   0.8834  0.5494  0.3776  11.00000  0.05    0.13
Q18   1   0.3317  0.8692  0.4020  11.00000  0.05    0.13
Q19   1   1.0507  0.8028  0.2271  11.00000  0.05    0.13
Q20   1   1.0215  0.8517  0.2270  11.00000  0.05    0.13
;
_shelx_res_checksum              51313
loop_
_space_group_symop_operation_xyz
'x, y, z'
'-x, y+1/2, -z+1/2'
'-x, -y, -z'
'x, -y-1/2, z-1/2'
loop_
_atom_site_type_symbol
_atom_site_label
_atom_site_fract_x
_atom_site_fract_y
_atom_site_fract_z
_atom_site_U_iso_or_equiv
_atom_site_adp_type
_atom_site_calc_flag
_atom_site_occupancy
Cl Cl1 0.19046(16) 0.83313(5) 0.57429(3) 0.06020(19) Uani d 1
N N1 0.7031(5) 0.74151(13) 0.28515(9) 0.0445(4) Uani d 1
O O2 0.9524(5) 0.58155(13) 0.24499(10) 0.0701(5) Uani d 1
C C1 0.5640(5) 0.77475(14) 0.35050(10) 0.0384(4) Uani d 1
O O1 0.7708(6) 0.49696(13) 0.38997(10) 0.0740(5) Uani d 1
C C2 0.4421(5) 0.87931(15) 0.36668(11) 0.0436(4) Uani d 1
H H2 0.4393 0.9377 0.3324 0.052 Uiso calc 1
C C6 0.5649(5) 0.68680(14) 0.40190(11) 0.0417(4) Uani d 1
C C3 0.3238(5) 0.89379(16) 0.43616(11) 0.0449(5) Uani d 1
H H3 0.2388 0.9631 0.4485 0.054 Uiso calc 1
C C4 0.3301(5) 0.80689(16) 0.48740(11) 0.0439(4) Uani d 1
C C8 0.8099(6) 0.63366(16) 0.29043(12) 0.0509(5) Uani d 1
C C5 0.4483(5) 0.70138(16) 0.47102(12) 0.0459(5) Uani d 1
H H5 0.4490 0.6429 0.5052 0.055 Uiso calc 1
C C9 0.7425(7) 0.81520(18) 0.22215(12) 0.0552(5) Uani d 1
H H9A 0.5238 0.8390 0.2000 0.083 Uiso calc 1
H H9B 0.8562 0.7758 0.1855 0.083 Uiso calc 1
H H9C 0.8736 0.8794 0.2394 0.083 Uiso calc 1
C C7 0.7167(6) 0.59026(15) 0.36734(13) 0.0507(5) Uani d 1
loop_
_atom_site_aniso_label
_atom_site_aniso_U_11
_atom_site_aniso_U_22
_atom_site_aniso_U_33
_atom_site_aniso_U_12
_atom_site_aniso_U_13
_atom_site_aniso_U_23
Cl1 0.0628(4) 0.0650(4) 0.0544(3) 0.0064(3) 0.0138(3) -0.0002(2)
N1 0.0503(10) 0.0335(7) 0.0492(9) -0.0035(7) 0.0036(8) -0.0052(7)
O2 0.0883(13) 0.0505(9) 0.0740(10) 0.0077(9) 0.0199(11) -0.0168(8)
C1 0.0363(9) 0.0325(8) 0.0448(9) -0.0052(7) -0.0027(8) -0.0043(7)
O1 0.1058(15) 0.0303(7) 0.0867(12) 0.0099(8) 0.0146(12) 0.0037(7)
C2 0.0494(11) 0.0317(8) 0.0475(10) 0.0028(8) -0.0041(9) 0.0022(8)
C6 0.0418(10) 0.0287(8) 0.0532(11) -0.0032(7) -0.0013(9) -0.0009(7)
C3 0.0441(10) 0.0355(9) 0.0538(11) 0.0067(8) -0.0014(10) -0.0053(8)
C4 0.0389(10) 0.0451(10) 0.0471(10) -0.0009(8) 0.0021(9) -0.0017(8)
C8 0.0550(12) 0.0362(9) 0.0605(12) -0.0035(9) 0.0019(11) -0.0122(9)
C5 0.0476(11) 0.0358(9) 0.0532(12) -0.0024(8) 0.0005(10) 0.0064(8)
C9 0.0688(15) 0.0495(11) 0.0478(11) -0.0051(11) 0.0090(11) 0.0000(9)
C7 0.0577(13) 0.0313(9) 0.0619(12) -0.0023(9) 0.0004(11) -0.0037(9)
loop_
_atom_type_symbol
_atom_type_description
_atom_type_scat_dispersion_real
_atom_type_scat_dispersion_imag
_atom_type_scat_source
C C 0.0033 0.0016 'International Tables Vol C Tables 4.2.6.8 and 6.1.1.4'
H H 0.0000 0.0000 'International Tables Vol C Tables 4.2.6.8 and 6.1.1.4'
Cl Cl 0.1484 0.1585 'International Tables Vol C Tables 4.2.6.8 and 6.1.1.4'
N N 0.0061 0.0033 'International Tables Vol C Tables 4.2.6.8 and 6.1.1.4'
O O 0.0106 0.0060 'International Tables Vol C Tables 4.2.6.8 and 6.1.1.4'
loop_
_geom_angle_atom_site_label_1
_geom_angle_atom_site_label_2
_geom_angle_atom_site_label_3
_geom_angle
C1 N1 C9 124.18(16)
C8 N1 C1 110.98(17)
C8 N1 C9 124.77(18)
C2 C1 N1 127.50(17)
C2 C1 C6 121.13(18)
C6 C1 N1 111.37(16)
C1 C2 H2 121.3
C1 C2 C3 117.46(17)
C3 C2 H2 121.3
C1 C6 C7 106.48(17)
C5 C6 C1 121.36(17)
C5 C6 C7 132.12(18)
C2 C3 H3 119.4
C4 C3 C2 121.22(17)
C4 C3 H3 119.4
C3 C4 Cl1 118.38(15)
C3 C4 C5 121.51(19)
C5 C4 Cl1 120.11(16)
N1 C8 C7 106.02(17)
O2 C8 N1 127.3(2)
O2 C8 C7 126.71(19)
C6 C5 C4 117.31(18)
C6 C5 H5 121.3
C4 C5 H5 121.3
N1 C9 H9A 109.5
N1 C9 H9B 109.5
N1 C9 H9C 109.5
H9A C9 H9B 109.5
H9A C9 H9C 109.5
H9B C9 H9C 109.5
O1 C7 C6 130.9(2)
O1 C7 C8 124.0(2)
C6 C7 C8 105.09(15)
loop_
_geom_bond_atom_site_label_1
_geom_bond_atom_site_label_2
_geom_bond_distance
Cl1 C4 1.739(2)
N1 C1 1.407(3)
N1 C8 1.357(3)
N1 C9 1.455(3)
O2 C8 1.214(3)
C1 C2 1.382(3)
C1 C6 1.398(3)
O1 C7 1.198(2)
C2 H2 0.9300
C2 C3 1.390(3)
C6 C5 1.381(3)
C6 C7 1.470(3)
C3 H3 0.9300
C3 C4 1.386(3)
C4 C5 1.388(3)
C8 C7 1.556(3)
C5 H5 0.9300
C9 H9A 0.9600
C9 H9B 0.9600
C9 H9C 0.9600
loop_
_geom_hbond_atom_site_label_D
_geom_hbond_atom_site_label_H
_geom_hbond_atom_site_label_A
_geom_hbond_site_symmetry_A
_geom_hbond_distance_DH
_geom_hbond_distance_HA
_geom_hbond_distance_DA
_geom_hbond_angle_DHA
_geom_hbond_publ_flag
C9 H9C O2 2_755 0.96 2.52 3.435(3) 159 yes
loop_
_geom_torsion_atom_site_label_1
_geom_torsion_atom_site_label_2
_geom_torsion_atom_site_label_3
_geom_torsion_atom_site_label_4
_geom_torsion
Cl1 C4 C5 C6 -178.13(16)
N1 C1 C2 C3 -178.3(2)
N1 C1 C6 C5 178.22(19)
N1 C1 C6 C7 0.3(2)
N1 C8 C7 O1 179.0(2)
N1 C8 C7 C6 -2.1(2)
O2 C8 C7 O1 -1.8(4)
O2 C8 C7 C6 177.2(2)
C1 N1 C8 O2 -177.0(2)
C1 N1 C8 C7 2.3(2)
C1 C2 C3 C4 0.4(3)
C1 C6 C5 C4 0.0(3)
C1 C6 C7 O1 179.9(3)
C1 C6 C7 C8 1.1(2)
C2 C1 C6 C5 -0.8(3)
C2 C1 C6 C7 -178.79(18)
C2 C3 C4 Cl1 177.88(16)
C2 C3 C4 C5 -1.3(3)
C6 C1 C2 C3 0.6(3)
C3 C4 C5 C6 1.0(3)
C8 N1 C1 C2 177.2(2)
C8 N1 C1 C6 -1.7(2)
C5 C6 C7 O1 2.3(4)
C5 C6 C7 C8 -176.6(2)
C9 N1 C1 C2 0.2(3)
C9 N1 C1 C6 -178.75(19)
C9 N1 C8 O2 0.0(4)
C9 N1 C8 C7 179.3(2)
C7 C6 C5 C4 177.4(2)

_cod_database_fobs_code 1543423
