#------------------------------------------------------------------------------
#$Date: 2016-08-10 04:12:06 +0300 (Wed, 10 Aug 2016) $
#$Revision: 185715 $
#$URL: file:///home/coder/svn-repositories/cod/cif/1/54/38/1543863.cif $
#------------------------------------------------------------------------------
#
# This file is available in the Crystallography Open Database (COD),
# http://www.crystallography.net/. The original data for this entry
# were provided by IUCr Journals, http://journals.iucr.org/.
#
# The file may be used within the scientific community so long as
# proper attribution is given to the journal article from which the
# data were obtained.
#
data_1543863
loop_
_publ_author_name
'G\"orbitz, Carl Henrik'
'Karen, Pavel'
'Du\<sek, Michal'
'Pet\<r\'i\<cek, V\'aclav'
_publ_section_title
;
 An exceptional series of phase transitions in hydrophobic amino acids
 with linear side chains
;
_journal_issue                   5
_journal_name_full               IUCrJ
_journal_page_first
;
;
_journal_paper_doi               10.1107/S2052252516010472
_journal_volume                  3
_journal_year                    2016
_chemical_absolute_configuration rm
_chemical_formula_moiety         'C5 H11 N O2'
_chemical_formula_sum            'C5 H11 N O2'
_chemical_formula_weight         117.15
_chemical_name_common            L-norvaline
_chemical_name_systematic
;
 S-2-aminopentanoic acid
;
_space_group_crystal_system      monoclinic
_space_group_IT_number           4
_space_group_name_Hall           'P 2yb'
_space_group_name_H-M_alt        'P 1 21 1'
_symmetry_space_group_name_Hall  'P 2yb'
_symmetry_space_group_name_H-M   'P 1 21 1'
_atom_sites_solution_hydrogens   geom
_atom_sites_solution_primary     direct
_atom_sites_solution_secondary   difmap
_audit_creation_method           SHELXL-2013
_cell_angle_alpha                90
_cell_angle_beta                 97.137(7)
_cell_angle_gamma                90
_cell_formula_units_Z            4
_cell_length_a                   9.604(3)
_cell_length_b                   5.1222(16)
_cell_length_c                   13.352(4)
_cell_measurement_reflns_used    2883
_cell_measurement_temperature    190(2)
_cell_measurement_theta_max      25.67
_cell_measurement_theta_min      2.97
_cell_volume                     651.7(3)
_computing_cell_refinement       'APEX2 (Bruker, 2014)'
_computing_data_collection       'APEX2 (Bruker, 2014)'
_computing_data_reduction        'APEX2 (Bruker, 2014)'
_computing_molecular_graphics    'MERCURY (Macrae et al., 2008)'
_computing_publication_material  'SHELXL (Sheldrick, 2015b)'
_computing_structure_refinement  'SHELXL (Sheldrick, 2015b)'
_computing_structure_solution    'SHELXT (Sheldrick, 2015a)'
_diffrn_ambient_temperature      190(2)
_diffrn_detector_area_resol_mean 8.3
_diffrn_measured_fraction_theta_full 0.995
_diffrn_measured_fraction_theta_max 0.996
_diffrn_measurement_device_type  'Bruker Apex II CCD diffractometer'
_diffrn_measurement_method
'Sets of exposures each taken over 0.5\% \w rotation'
_diffrn_radiation_monochromator  graphite
_diffrn_radiation_type           MoK\a
_diffrn_radiation_wavelength     0.71073
_diffrn_reflns_av_R_equivalents  0.0505
_diffrn_reflns_av_unetI/netI     0.0909
_diffrn_reflns_Laue_measured_fraction_full 0.995
_diffrn_reflns_Laue_measured_fraction_max 0.996
_diffrn_reflns_limit_h_max       11
_diffrn_reflns_limit_h_min       -11
_diffrn_reflns_limit_k_max       6
_diffrn_reflns_limit_k_min       -6
_diffrn_reflns_limit_l_max       16
_diffrn_reflns_limit_l_min       -15
_diffrn_reflns_number            4679
_diffrn_reflns_point_group_measured_fraction_full 0.978
_diffrn_reflns_point_group_measured_fraction_max 0.977
_diffrn_reflns_theta_full        25.242
_diffrn_reflns_theta_max         25.679
_diffrn_reflns_theta_min         2.137
_exptl_absorpt_coefficient_mu    0.091
_exptl_absorpt_correction_T_max  1.000
_exptl_absorpt_correction_T_min  0.802
_exptl_absorpt_correction_type   multi-scan
_exptl_absorpt_process_details   'SADABS (Bruker, 2014)'
_exptl_crystal_colour            colourless
_exptl_crystal_density_diffrn    1.194
_exptl_crystal_density_method    'not measured'
_exptl_crystal_description       plate
_exptl_crystal_F_000             256
_exptl_crystal_size_max          0.90
_exptl_crystal_size_mid          0.41
_exptl_crystal_size_min          0.04
_refine_diff_density_max         0.231
_refine_diff_density_min         -0.205
_refine_diff_density_rms         0.049
_refine_ls_extinction_method     none
_refine_ls_goodness_of_fit_ref   1.044
_refine_ls_hydrogen_treatment    constr
_refine_ls_matrix_type           full
_refine_ls_number_parameters     147
_refine_ls_number_reflns         2424
_refine_ls_number_restraints     1
_refine_ls_restrained_S_all      1.044
_refine_ls_R_factor_all          0.0978
_refine_ls_R_factor_gt           0.0521
_refine_ls_shift/su_max          0.000
_refine_ls_shift/su_mean         0.000
_refine_ls_structure_factor_coef Fsqd
_refine_ls_weighting_details
;
 w=1/[\s^2^(Fo^2^)+(0.0377P)^2^+0.0987P]
 where P=(Fo^2^+2Fc^2^)/3
;
_refine_ls_weighting_scheme      calc
_refine_ls_wR_factor_gt          0.1014
_refine_ls_wR_factor_ref         0.1167
_reflns_Friedel_coverage         0.754
_reflns_Friedel_fraction_full    0.956
_reflns_Friedel_fraction_max     0.954
_reflns_number_gt                1699
_reflns_number_total             2424
_reflns_threshold_expression     'I > 2\s(I)'
_cod_data_source_file            ed5010.cif
_cod_data_source_block           Nva190
_cod_original_cell_volume        651.7(4)
_cod_database_code               1543863
_shelx_space_group_comment
;
The symmetry employed for this shelxl refinement is uniquely defined
by the following loop, which should always be used as a source of
symmetry information in preference to the above space-group names.
They are only intended as comments.
;
_shelxl_version_number           2013-2
_shelx_res_file
;
TITL nva190_a.res in P2(1)
REM Old TITL nva190 in P2(1)
REM SHELXT solution in P2(1)
REM R1 0.174,  Rweak 0.037,  Alpha 0.009,  Orientation as input
REM Flack x = -0.022 ( 1.104 ) from Parsons' quotients
REM Formula found by SHELXT:  C9 N O6
CELL  0.71073   9.6036   5.1222  13.3525   90.000   97.137   90.000
ZERR    4.000   0.0030   0.0016   0.0042    0.000    0.007    0.000
LATT -1
SYMM -X, 1/2+Y, -Z
SFAC C H N O
UNIT 20 44 4 8
TEMP -83.140

SHEL 999 0.820

L.S. 5

ACTA
BOND $H
CONF

LIST 4
FMAP 2
PLAN 5

EQIV $1 X,-1+Y, Z
EQIV $2 1-X, 0.5+Y, 1-Z
EQIV $3 1-X, -0.5+Y, 1-Z
EQIV $4 1+X,-1+Y, Z
EQIV $5 1+X, Y, Z

HTAB N1A O1B
HTAB N1A O2A_$1
HTAB N1A O1B_$2

HTAB N1B O1A_$3
HTAB N1B O2A_$4
HTAB N1B O1A_$4
HTAB N1B O2B_$1
HTAB C2B O1A_$5

WGHT    0.037700    0.098700
FVAR       1.24110
O1A   4    0.107638    0.619850    0.409270    11.00000    0.01292    0.02792 =
         0.04166    0.00103    0.00638   -0.00095
O2A   4    0.173587    0.999994    0.349214    11.00000    0.01598    0.02475 =
         0.05492    0.00350    0.00500    0.00742
N1A   3    0.360603    0.408329    0.421499    11.00000    0.00989    0.02297 =
         0.04032    0.00139    0.00325    0.00208
AFIX  37
H1A   2    0.449639    0.349449    0.419613    11.00000   -1.50000
H2A   2    0.298374    0.284741    0.395330    11.00000   -1.50000
H3A   2    0.347218    0.441707    0.486557    11.00000   -1.50000
AFIX   0
C1A   1    0.194346    0.767131    0.374848    11.00000    0.01184    0.02545 =
         0.02603   -0.00315   -0.00046    0.00102
C2A   1    0.338798    0.650489    0.361399    11.00000    0.00955    0.01769 =
         0.03801    0.00063    0.00185    0.00153
AFIX  13
H21A  2    0.412666    0.778928    0.388053    11.00000   -1.20000
AFIX   0
C3A   1    0.356045    0.592996    0.252067    11.00000    0.02265    0.03822 =
         0.03564    0.00029    0.00557    0.00793
AFIX  23
H31A  2    0.442542    0.488991    0.250055    11.00000   -1.20000
H32A  2    0.275772    0.485497    0.222206    11.00000   -1.20000
AFIX   0
C4A   1    0.364416    0.835186    0.188282    11.00000    0.06449    0.06322 =
         0.05151    0.01290    0.02339    0.02079
AFIX  23
H41A  2    0.272296    0.924520    0.180885    11.00000   -1.20000
H42A  2    0.434606    0.956035    0.223516    11.00000   -1.20000
AFIX   0
C5A   1    0.403832    0.776515    0.085632    11.00000    0.12794    0.13159 =
         0.05707    0.02646    0.03958    0.02858
AFIX  33
H51A  2    0.411396    0.940059    0.048603    11.00000   -1.50000
H52A  2    0.331673    0.665722    0.048714    11.00000   -1.50000
H53A  2    0.494232    0.685357    0.092381    11.00000   -1.50000
AFIX   0
O1B   4    0.631479    0.248545    0.411991    11.00000    0.01446    0.02646 =
         0.04933    0.00815    0.01233    0.00377
O2B   4    0.691754    0.647974    0.369076    11.00000    0.01909    0.01961 =
         0.06595   -0.00167    0.00852    0.00336
N1B   3    0.887806    0.061374    0.381966    11.00000    0.01275    0.03001 =
         0.03744   -0.00347    0.00411    0.00684
AFIX  37
H1B   2    0.894091    0.095009    0.449297    11.00000   -1.50000
H2B   2    0.974618    0.024470    0.365110    11.00000   -1.50000
H3B   2    0.830081   -0.077676    0.366695    11.00000   -1.50000
AFIX   0
C1B   1    0.708854    0.407909    0.373665    11.00000    0.01130    0.02467 =
         0.03106   -0.00025   -0.00088    0.00353
C2B   1    0.830126    0.293442    0.324563    11.00000    0.01252    0.01886 =
         0.04066    0.00243    0.00449    0.00167
AFIX  13
H21B  2    0.905502    0.427855    0.323783    11.00000   -1.20000
AFIX   0
C3B   1    0.776781    0.213151    0.216113    11.00000    0.03263    0.04867 =
         0.03987   -0.00011    0.00486    0.01117
AFIX  23
H31B  2    0.728326    0.364202    0.181062    11.00000   -1.20000
H32B  2    0.706733    0.072037    0.218085    11.00000   -1.20000
AFIX   0
C4B   1    0.891853    0.118325    0.154217    11.00000    0.05139    0.08292 =
         0.04213   -0.01731   -0.00027    0.02251
AFIX  23
H41B  2    0.950413   -0.013265    0.194127    11.00000   -1.20000
H42B  2    0.846957    0.031695    0.092186    11.00000   -1.20000
AFIX   0
C5B   1    0.983772    0.331278    0.125382    11.00000    0.05846    0.14089 =
         0.08940   -0.01317    0.03955   -0.01944
AFIX  33
H51B  2    1.054349    0.258739    0.086132    11.00000   -1.50000
H52B  2    1.030734    0.415070    0.186414    11.00000   -1.50000
H53B  2    0.926940    0.460671    0.084555    11.00000   -1.50000
AFIX   0
HKLF 4

REM  nva190_a.res in P2(1)
REM R1 =  0.0521 for    1699 Fo > 4sig(Fo)  and  0.0978 for all    2424 data
REM    147 parameters refined using      1 restraints

END

WGHT      0.0381      0.1161

REM Highest difference peak  0.231,  deepest hole -0.205,  1-sigma level  0.049
Q1    1   0.4419  0.9048  0.1592  11.00000  0.05    0.23
Q2    1   0.3683  0.3674  0.2420  11.00000  0.05    0.20
Q3    1   0.2296  1.1175  0.0153  11.00000  0.05    0.18
Q4    1   0.2912  0.0566  0.4025  11.00000  0.05    0.18
Q5    1   0.3282  0.5502  0.3037  11.00000  0.05    0.18
;
_shelx_res_checksum              89875
_shelx_hkl_file
;
   1   0   0   18.10    3.00
   2   0   0 2232.28  113.89
  -2   0   0 2317.97  113.99
  -2   0   0 2343.67  113.89
   2   0   0 2142.39  112.59
   3   0   0  880.01   43.90
  -3   0   0  884.21   44.00
   3   0   0  861.31   45.90
  -3   0   0  875.21   46.00
  -4   0   0 4092.09  199.28
   4   0   0 3884.21  199.48
   4   0   0 3868.11  196.78
  -4   0   0 3863.11  196.98
  -4   0   0 4021.50  199.68
   5   0   0   10.90    4.90
  -5   0   0   18.20    3.00
   5   0   0   15.70    2.30
  -5   0   0    6.80   11.00
  -5   0   0   14.80    4.90
  -6   0   0  542.25   31.90
   6   0   0  565.94   32.00
   6   0   0  515.35   27.50
   7   0   0  111.09    6.80
   7   0   0  106.09   15.10
  -7   0   0  115.09   13.80
   8   0   0   25.00    2.90
  -8   0   0   24.80    9.90
  -9   0   0   37.50   15.10
 -10   0   0   39.70   17.90
 -11   0   0  194.68   30.90
 -12   0   0   36.30   22.40
   0  -1   0   -0.90    1.70
   0   1   0   -1.50    1.70
   0   1   0    0.60    2.70
  -1  -1   0 5954.00  279.37
   1  -1   0 5622.44  278.87
  -1  -1   0 5564.34  278.97
   1  -1   0 5478.05  279.87
   1   1   0 5592.84  279.87
  -1   1   0 5548.54  278.87
   1   1   0 5421.56  278.97
  -1   1   0 5552.44  279.87
  -2  -1   0  104.39    7.70
  -2  -1   0  101.19    6.40
   2  -1   0  106.39    5.70
   2  -1   0   94.59    8.20
  -2  -1   0   98.49    7.60
   2   1   0  107.99    7.60
  -2   1   0  101.89    6.00
  -2   1   0  107.29    5.80
  -2   1   0   91.99    8.40
   2   1   0   93.39    6.30
   3  -1   0 2219.78  109.29
  -3  -1   0 2133.19  109.89
  -3  -1   0 2209.78  109.89
   3  -1   0 2147.79  107.89
  -3  -1   0 2158.58  108.29
  -3   1   0 1941.91  108.09
  -3   1   0 2310.97  109.09
   3   1   0 2075.59  107.99
  -3   1   0 2193.88  107.89
  -4  -1   0  448.36   26.00
   4  -1   0  451.15   22.90
  -4  -1   0  426.06   25.70
   4  -1   0  446.86   25.80
  -4  -1   0  416.96   23.40
  -4   1   0  448.46   25.00
  -4   1   0  430.76   22.40
  -4   1   0  461.45   22.90
   4   1   0  427.86   23.20
  -5  -1   0  399.56   24.40
   5  -1   0  408.56   20.90
  -5  -1   0  375.16   21.80
   5  -1   0  390.96   24.20
  -5   1   0  408.96   24.30
  -5   1   0  414.96   20.60
   5   1   0  393.06   20.90
  -5   1   0  393.26   24.10
  -6  -1   0  205.28   16.60
   6  -1   0  215.28   16.30
   6  -1   0  222.88   12.20
  -6   1   0  213.68   12.20
   6   1   0  220.08   12.10
  -6   1   0  225.58   16.30
   7  -1   0  515.55   26.70
  -7  -1   0  530.15   32.30
   7  -1   0  492.65   31.70
   7   1   0  500.55   26.60
  -7   1   0  513.45   31.60
  -8  -1   0  520.25   35.00
   8  -1   0  522.55   35.30
   8  -1   0  544.75   28.10
   8   1   0  535.55   27.60
  -8   1   0  509.15   34.50
  -9  -1   0  167.58   22.50
   9  -1   0  145.19   10.30
   9   1   0  149.79    9.50
  -9   1   0  166.78   20.40
 -10  -1   0   73.69   16.90
  10   1   0   81.49    7.40
 -10   1   0   68.89   11.50
 -10   1   0   94.99   17.90
 -11  -1   0   32.50   17.70
  11   1   0   18.00    4.80
 -11   1   0    6.20   16.70
 -12  -1   0  116.59   27.60
  12   1   0  138.89   10.50
 -12   1   0  149.88   25.90
   0  -2   0  400.46   22.20
   0  -2   0  416.06   24.30
   0   2   0  404.66   23.70
   1  -2   0  542.25   26.60
  -1  -2   0  512.25   26.70
   1   2   0  455.25   27.70
  -1   2   0  505.55   28.70
   2  -2   0   83.39    5.90
  -2  -2   0   76.29    7.90
   2  -2   0   59.29    9.80
  -2  -2   0   66.49    6.60
  -2   2   0   60.79   10.30
   2   2   0   78.39    9.70
  -2   2   0   71.79    6.60
   2   2   0   68.79    6.40
  -3  -2   0  164.18   10.90
   3  -2   0  142.29   13.20
   3  -2   0  162.38    9.40
  -3  -2   0  154.68   13.90
  -3   2   0  155.88   10.20
   3   2   0  182.28   13.10
  -3   2   0  159.38    9.50
  -3   2   0  150.38   14.40
   3   2   0  152.68   10.20
   4  -2   0  257.97   18.40
  -4  -2   0  266.67   17.10
  -4  -2   0  251.67   16.20
  -4   2   0  263.77   14.80
  -4   2   0  262.67   14.00
   4   2   0  260.87   14.90
  -4   2   0  217.38   19.80
  -5  -2   0  934.91   50.69
   5  -2   0  890.61   49.90
  -5   2   0  932.51   47.80
   5   2   0  917.21   47.60
  -5   2   0  869.61   47.50
  -5   2   0  935.41   49.10
  -5   2   0  997.50   50.19
  -6  -2   0   29.60    8.00
   6  -2   0   19.40    8.10
   6   2   0   35.00    4.40
  -6   2   0   27.90    4.60
  -6   2   0   29.20    7.60
   7  -2   0  104.19   12.10
  -7  -2   0   93.09   13.20
   7   2   0  107.79    8.60
  -7   2   0   90.09   14.60
  -7   2   0   93.09    9.30
  -8  -2   0   -1.60   11.60
   8  -2   0    0.10   11.80
   8   2   0   14.40    4.50
  -8   2   0    0.70    5.90
  -8   2   0    4.10   10.60
  -9  -2   0  316.77   28.80
   9   2   0  263.07   16.70
  -9   2   0  277.47   26.90
 -10  -2   0   26.20   17.10
  10   2   0   23.10    5.70
 -10   2   0   45.20   16.20
 -11  -2   0   39.60   20.80
 -11   2   0   43.40   19.10
  11   2   0   29.70    5.70
   0  -3   0    1.90    7.00
   0   3   0    5.40    3.80
  -1   3   0   33.20    5.30
   1   3   0   30.50    4.70
   2  -3   0  412.86   27.30
   2   3   0  454.95   24.30
  -2   3   0  440.16   24.30
  -3  -3   0   94.49   14.00
  -3  -3   0  121.19   11.50
   3  -3   0  101.49   13.90
   3   3   0   95.69    9.30
  -3   3   0  111.29    9.30
  -4  -3   0  295.67   19.10
   4  -3   0  266.57   22.10
  -4   3   0  269.17   17.10
   4   3   0  283.97   17.10
   5  -3   0   27.70   11.40
  -5  -3   0   33.80    8.40
  -5   3   0   39.20    6.30
   5   3   0   42.40    6.60
  -6  -3   0  534.05   34.20
   6  -3   0  523.55   37.00
   6   3   0  532.35   30.00
  -6   3   0  574.64   30.70
  -7  -3   0  129.29   19.70
  -7   3   0   89.59   13.10
   7   3   0   87.89   11.20
  -8  -3   0   57.09   14.90
  -8   3   0   43.90    9.90
   8   3   0   63.19    9.50
  -8   3   0   38.00   11.70
  -9  -3   0   12.20   16.40
  -9   3   0   11.40   13.60
   9   3   0   12.30    7.30
 -10  -3   0   59.49   20.70
  10   3   0   30.70    7.90
 -10   3   0   46.30   12.80
 -10   3   0   53.59   17.10
 -11  -3   0   21.20   25.70
 -11   3   0    4.80   20.00
  11   3   0   18.30    7.80
   0   4   0   28.20    6.70
   1  -4   0   78.69   19.50
   1   4   0   80.19   10.80
  -1   4   0   74.59   10.80
   2  -4   0   33.20   12.20
   2   4   0   33.30    7.50
  -2   4   0   44.50    7.80
   3  -4   0  381.36   30.30
  -3   4   0  375.86   23.90
   3   4   0  399.66   24.00
   4  -4   0   76.69   16.70
  -4  -4   0   74.99   10.40
  -4   4   0   82.09   10.50
   4   4   0   71.09   11.50
  -5  -4   0  462.75   28.10
  -5   4   0  401.06   26.80
   5   4   0  395.26   27.60
   6  -4   0   -5.90   19.20
  -6  -4   0   24.30   11.40
  -6   4   0   26.60   10.90
   6   4   0   35.70   10.70
   7   4   0    1.00    9.60
  -7   4   0   16.30   11.90
  -8  -4   0   38.20   17.10
  -8   4   0   16.30   13.70
   8   4   0   18.50   10.20
  -9  -4   0  100.79   21.90
   9   4   0   91.99   12.70
  -9   4   0  111.59   23.80
 -10  -4   0   15.20   23.80
 -10   4   0  -12.10   16.40
  10   4   0   -2.80   10.80
   0   5   0   -1.30   10.80
   1  -5   0  118.79   23.90
  -1   5   0  148.09   18.70
   1   5   0  156.18   19.60
   2  -5   0   36.70   20.60
  -2   5   0   40.40   11.60
   2   5   0   24.30   12.00
   3  -5   0   58.29   24.10
  -3   5   0   92.09   13.60
   3   5   0   70.09   13.10
   4  -5   0   35.60   22.40
  -4   5   0   18.30   12.20
   4   5   0   23.80   12.80
   5  -5   0  129.79   25.50
   5   5   0  129.99   20.60
  -5   5   0  107.79   15.40
  -6  -5   0   23.90   14.10
   6   5   0   16.70   14.50
  -6   5   0   42.40   14.70
  -7  -5   0    9.20   15.60
   7  -5   0   43.40   29.70
  -7   5   0   48.40   16.60
   7   5   0   12.50   14.90
  -8  -5   0  -23.00   18.40
   8  -5   0   21.10   33.30
   8   5   0  -11.00   14.90
  -8   5   0   -1.80   18.40
  -8   5   0   57.59   28.60
   0   6   0   43.70   17.70
   1  -6   0  -14.30   28.50
  -1   6   0   -2.50   16.60
   1   6   0   21.30   16.90
  -2   6   0   -7.10   16.80
   2   6   0   23.60   16.30
   3  -6   0   37.10   31.70
  -3   6   0    3.30   16.90
   3   6   0    3.80   17.30
   4  -6   0   68.79   32.30
   4   6   0   15.20   18.40
  -4   6   0   23.40   18.90
   5  -6   0   10.30   42.00
  -5   6   0   18.40   20.40
   5   6   0   13.70   21.40
  12   0  -1  143.59   12.10
 -12   0   1  160.88   26.50
  11   0  -1  275.57   16.40
 -11   0   1  264.77   31.80
  10   0  -1   64.89    6.90
 -10   0   1   84.29   16.50
  -9   0   1    9.70   11.60
   9   0  -1   11.50    2.90
   8   0  -1   51.79    4.80
  -8   0   1   71.59   11.60
   7   0  -1  124.89    7.40
  -7   0   1  114.49   15.00
   6   0  -1    4.40    1.50
  -6   0   1    3.70    5.70
  -6   0   1   -1.10    4.40
  -5   0   1   12.80    2.90
   5   0  -1    9.70    1.60
  -5   0   1   11.20    5.10
  -4   0   1  515.35   29.20
  -4   0   1  529.35   26.60
  -4   0   1  484.05   30.30
   4   0  -1  540.45   26.50
   3   0  -1  241.28   17.20
  -3   0   1  236.08   17.10
   3   0  -1  224.48   11.80
  -3   0   1  217.88   13.90
   2   0  -1   22.80    3.70
  -2   0   1   27.30    2.00
  -2   0   1   24.40    3.30
   2   0  -1   25.90    1.80
  -1   0   1   15.80    1.10
   1   0  -1   14.20    2.10
  -1   0   1   14.60    2.00
   1   0  -1   15.20    1.00
   1   0   1   13.40    2.10
   1   0   1    9.60    1.40
  -1   0  -1   11.70    1.30
  -1   0  -1   15.60    2.00
   2   0   1 6467.35  326.17
  -2   0  -1 6576.54  325.97
   3   0   1  423.66   24.10
  -3   0  -1  431.66   23.70
  -4   0  -1 2841.22  142.79
   4   0   1 2782.02  143.29
  -5   0  -1  850.41   47.90
  -5   0  -1  894.71   48.30
   5   0   1  894.31   48.20
  -6   0  -1  878.61   50.59
   6   0   1  948.61   50.79
   7   0   1    9.70    7.70
  -7   0  -1   -7.50    7.10
  -8   0  -1   90.79   13.10
   8   0   1   79.79   13.70
  -9   0  -1   44.40   23.50
 -10   0  -1   -4.60   15.10
 -11   0  -1  -37.10   17.70
 -12   0  -1   -3.90   22.40
  12  -1  -1   54.29    8.00
 -12  -1   1   70.19   24.70
 -12   1   1   33.30   22.20
 -12   1   1   62.49   11.40
  12   1  -1   59.39    8.20
 -11  -1   1   24.50   18.50
  11  -1  -1    1.90    5.80
 -11   1   1   14.10   17.20
 -11   1   1   -2.60    8.10
  10  -1  -1   21.50    5.10
 -10  -1   1   20.80   15.20
 -10   1   1    8.60   13.40
  10   1  -1   24.20    6.70
  -9  -1   1  148.09   20.60
   9  -1  -1  124.69    9.40
  -9   1   1  126.69   16.70
   9   1  -1  128.09    8.70
  -8  -1   1  270.57   22.50
   8  -1  -1  261.07   14.70
   8   1  -1  251.07   14.30
  -8   1   1  252.37   21.60
  -7  -1   1  241.18   20.20
   7  -1  -1  273.77   14.80
   7   1  -1  276.87   14.60
  -7   1   1  260.97   20.00
  -6  -1   1   99.79   11.50
   6  -1  -1  105.39    6.80
  -6   1   1   96.69   11.10
   6   1  -1  102.79    6.70
   5  -1  -1  562.34   28.80
  -5  -1   1  533.65   31.90
  -5   1   1  559.84   31.80
  -5   1   1  562.74   28.60
  -5   1   1  567.54   31.90
   5   1  -1  560.04   28.80
  -4  -1   1  353.96   19.60
   4  -1  -1  366.06   19.10
  -4  -1   1  391.96   22.70
  -4  -1   1  353.16   21.80
   4  -1  -1  366.76   22.00
  -4   1   1  355.76   21.50
  -4   1   1  366.86   21.70
   4   1  -1  362.56   19.10
   4   1  -1  365.16   22.40
  -4   1   1  357.06   18.70
  -3  -1   1 4992.30  248.18
   3  -1  -1 4928.31  247.38
   3  -1  -1 4815.42  246.28
  -3  -1   1 5318.67  248.58
  -3  -1   1 4853.11  246.58
  -3   1   1 4723.43  245.98
  -3   1   1 4917.31  247.28
   3   1  -1 4663.43  246.38
  -3   1   1 4894.81  247.48
  -3   1   1 4933.51  246.28
   3   1  -1 5252.67  248.38
  -2  -1   1  386.76   20.20
   2  -1  -1  389.86   18.70
   2  -1  -1  316.67   20.30
  -2   1   1  327.47   20.20
   2   1  -1  353.06   19.00
   2   1  -1  388.46   20.40
  -2   1   1  375.16   18.70
  -2   1   1  364.66   18.80
  -1  -1   1  687.33   35.10
   1  -1  -1  640.74   36.00
  -1  -1   1  724.43   36.00
   1  -1  -1  707.43   35.00
  -1   1   1  644.34   36.00
   1   1  -1  677.13   35.10
   1   1  -1  759.62   35.70
  -1   1   1  683.13   35.10
   0  -1  -1   84.69    5.30
   0  -1  -1   75.19    6.30
   0  -1   1   82.59    5.30
   0   1   1   82.99    5.10
   0   1   1   77.49    6.50
   0   1  -1   84.79    4.80
  -1  -1  -1 1901.71   96.69
   1  -1   1 1915.61   96.49
   1  -1   1 2041.10   96.59
   1  -1   1 1994.20   97.79
  -1   1  -1 1830.62   97.59
   1   1   1 1886.81   96.69
   2  -1   1  526.35   26.80
  -2  -1  -1  524.05   27.30
   2  -1   1  513.15   27.80
  -2  -1  -1  478.75   26.20
  -2  -1  -1  499.15   27.40
   2   1   1  479.35   26.10
   2   1   1  512.75   27.50
  -2   1  -1  529.35   26.40
  -3  -1  -1  105.89    9.50
   3  -1   1  121.39    9.60
  -3  -1  -1  111.39   10.10
   3   1   1  109.89    7.20
   3   1   1  130.39   10.40
  -4  -1  -1   54.49    8.30
  -4  -1  -1   45.60    6.00
  -4  -1  -1   49.60    7.40
   4  -1   1   50.69    8.20
   4   1   1   52.59    8.70
   4   1   1   39.10    5.00
  -4   1  -1   60.79    8.20
  -5  -1  -1   35.10    6.00
  -5  -1  -1   41.30    5.20
   5  -1   1   40.90    7.10
   5   1   1   34.10    6.50
   5   1   1   34.00    4.30
  -6  -1  -1    3.80    5.90
   6  -1   1    3.30    6.80
  -6  -1  -1    1.60    6.00
   6   1   1    0.80    6.50
  -7  -1  -1   87.99   15.00
   7  -1   1   94.99   15.70
   7   1   1  110.39   16.30
  -7   1  -1  110.79   14.60
   7   1   1  115.39    7.30
   8  -1   1  125.39   16.60
  -8  -1  -1  133.49   19.40
  -8   1  -1  134.39   17.80
  -9  -1  -1   51.89   14.60
   9  -1   1   54.29   19.50
  -9   1  -1   44.60   15.30
 -10  -1  -1   72.99   17.60
 -10   1  -1   72.19   17.30
 -11  -1  -1   11.70   18.60
 -11   1  -1   28.70   18.30
 -12  -1  -1   52.19   26.00
 -12   1  -1   49.90   24.00
  12   2  -1    6.00    5.90
 -12   2   1    3.50   21.70
 -12   2   1   10.80   13.10
 -11  -2   1  -14.90   19.90
 -11   2   1   10.50   17.50
 -11   2   1   35.70   10.80
  11   2  -1    8.50    5.30
 -10  -2   1   92.09   19.80
 -10   2   1   80.49   17.60
  10   2  -1   74.29    9.60
 -10   2   1  101.49   11.80
  -9  -2   1   69.39   15.40
  -9   2   1   60.09    8.70
  -9   2   1   31.10   12.70
  -8  -2   1   -9.80   11.60
  -8   2   1  -11.20    9.00
   8   2  -1    1.90    4.30
  -8   2   1    4.10    5.80
  -7  -2   1   -7.20    8.70
   7   2  -1   -0.70    4.20
  -7   2   1   -1.10    4.70
  -7   2   1    6.20    7.80
  -6  -2   1   97.09   13.70
  -6   2   1  108.59   16.70
  -6   2   1  126.59   12.90
   6   2  -1  120.69    8.60
  -6   2   1  126.69    9.10
  -5  -2   1   80.49   11.20
   5   2  -1  101.09    7.40
  -5   2   1   82.09   11.70
  -5   2   1   92.69    7.40
  -4  -2   1  170.48   13.00
  -4  -2   1  221.38   23.20
  -4   2   1  164.68   10.10
  -4   2   1  160.48   10.40
   4   2  -1  157.38   10.50
   3  -2  -1   26.10    3.90
  -3  -2   1   24.60    5.60
  -3  -2   1   20.60    6.60
  -3  -2   1   26.10    4.90
   3  -2  -1   24.50    6.20
  -3   2   1   29.20    4.20
  -3   2   1   35.70    5.10
   3   2  -1   27.40    6.60
  -3   2   1   29.00    7.80
   3   2  -1   31.60    4.10
   2  -2  -1   42.40    7.40
  -2  -2   1   52.39    6.80
   2  -2  -1   46.80    4.80
  -2  -2   1   52.19    6.10
  -2   2   1   31.70    5.40
   2   2  -1   48.50    5.60
  -2   2   1   44.30    7.30
   2   2  -1   50.49    7.70
   1  -2  -1  260.17   18.30
  -1  -2   1  282.67   15.60
   1  -2  -1  284.57   15.30
   1   2  -1  274.27   16.10
  -1   2   1  265.87   17.70
  -1   2   1  279.67   16.00
   0  -2   1  253.07   13.20
   0  -2  -1  230.78   12.80
   0  -2  -1  195.68   16.90
   0   2   1  216.88   14.60
   0   2  -1  203.78   14.80
   0   2  -1  205.18   13.50
   1  -2   1  603.64   37.10
  -1  -2  -1  678.73   34.30
   1  -2   1  682.73   34.20
  -1   2  -1  698.63   34.60
  -1   2  -1  609.14   36.10
   1   2   1  671.63   35.00
   2  -2   1  129.89    8.10
  -2  -2  -1  127.49    9.70
   2  -2   1  135.09   11.90
  -2  -2  -1  113.79    8.80
   2   2   1  120.79    8.60
  -2   2  -1  105.59   12.10
  -3  -2  -1  108.69    9.00
  -3  -2  -1  111.89   10.70
   3  -2   1  120.89   11.80
  -3  -2  -1  115.09   12.00
   3  -2   1  110.19    7.20
  -3   2  -1  112.99    7.40
   3   2   1  105.49    8.90
  -3   2  -1  109.89    8.20
  -4  -2  -1  104.99   10.70
   4  -2   1  115.39   12.50
  -4  -2  -1  124.29   11.10
  -4   2  -1  110.09    8.50
   4   2   1  115.69    8.50
  -4   2  -1  110.49    9.00
   5  -2   1  347.07   22.40
  -5  -2  -1  311.77   21.00
   5  -2   1  333.17   20.70
   5   2   1  311.67   17.70
  -5   2  -1  301.77   19.60
  -5   2  -1  317.67   17.90
  -5   2  -1  289.17   21.40
  -5   2  -1  305.47   17.20
  -6  -2  -1   21.30    8.20
   6  -2   1   25.00    8.30
   6   2   1   25.30    4.30
  -6   2  -1   33.20    4.80
  -7  -2  -1  149.09   18.20
   7  -2   1  122.09   17.50
  -7   2  -1  137.49   16.40
   7   2   1  133.39   10.00
  -8  -2  -1   16.50   12.00
   8  -2   1   14.00   12.10
   8   2   1   17.10    4.50
  -8   2  -1   33.00   11.80
  -9  -2  -1   94.89   18.50
   9  -2   1  134.59   20.60
  -9   2  -1  129.69   19.20
   9   2   1  131.49   10.40
 -10  -2  -1   12.10   17.20
 -10   2  -1    3.10   18.00
 -11  -2  -1   82.29   23.70
  11   2   1   65.49    8.50
 -11   2  -1   72.49   20.70
 -11  -3   1   39.50   23.90
 -11   3   1   15.90   32.20
  11   3  -1   18.30    8.30
 -11   3   1   17.90   14.50
 -10  -3   1   28.00   19.60
 -10   3   1   -6.70   11.50
 -10   3   1    2.00   16.50
  10   3  -1    1.20    7.00
  -9  -3   1   10.80   15.60
  -9   3   1   30.30   12.50
  -9   3   1   14.40   10.80
   9   3  -1   13.80    7.10
  -8  -3   1   43.10   14.40
   8   3  -1   69.49   10.90
  -8   3   1   52.29   10.40
  -7  -3   1  119.89   18.80
   7   3  -1  130.49   12.30
  -7   3   1  115.19   16.40
  -6  -3   1  354.86   25.60
   6   3  -1  398.86   21.60
  -6   3   1  334.27   22.30
   5  -3  -1  223.18   22.40
  -5  -3   1  279.87   19.40
  -5   3   1  261.37   16.70
   5   3  -1  252.37   16.50
   4  -3  -1   93.59   14.80
  -4  -3   1   79.59   11.00
  -4   3   1   89.49    9.00
   4   3  -1   82.49    9.20
   3  -3  -1   66.39   10.30
  -3  -3   1   70.49    9.40
  -3  -3   1   55.99   10.40
  -3   3   1   72.59    8.00
   3   3  -1   92.69   14.80
   3   3  -1   69.39    8.00
   2  -3  -1  226.78   17.90
   2   3  -1  219.58   13.60
  -2   3   1  196.58   13.60
   1  -3  -1  180.58   16.60
   1   3  -1  215.58   13.00
  -1   3   1  198.58   12.90
   0  -3  -1  397.56   26.20
   0   3   1  427.46   23.50
   0   3  -1  433.96   23.40
   1  -3   1   20.10    6.90
   1   3   1   26.20    4.60
  -1   3  -1   19.00    4.70
   2  -3   1  334.47   23.40
  -2   3  -1  343.87   20.00
   2   3   1  365.26   20.10
   3  -3   1   38.90    9.20
  -3  -3  -1   38.10    8.20
  -3  -3  -1   49.70    8.20
  -3   3  -1   48.00    7.80
   3   3   1   48.00    7.60
  -4  -3  -1   93.39   12.30
   4  -3   1   92.99   16.30
  -4   3  -1  104.19    9.90
   4   3   1   97.49    9.90
   5  -3   1   24.10   11.60
  -5  -3  -1    8.30    8.20
   5   3   1   15.30    6.60
  -5   3  -1   23.40    6.90
   6  -3   1  520.25   34.30
  -6  -3  -1  493.15   31.10
   6   3   1  449.56   26.80
  -6   3  -1  456.15   27.00
  -6   3  -1  426.96   32.40
  -7  -3  -1   49.90   12.80
   7  -3   1   27.80   17.00
   7   3   1   32.30    7.00
  -7   3  -1   12.50   10.20
   8  -3   1   -2.60   13.90
  -8  -3  -1    3.20   14.20
  -8   3  -1   -7.10   12.00
  -9  -3  -1   35.40   17.60
   9  -3   1   38.90   18.00
   9   3   1   42.30    8.10
  -9   3  -1   27.00   16.40
 -10  -3  -1  140.39   25.00
 -10   3  -1  145.79   22.20
  10   3   1  166.78   14.00
 -11  -3  -1   26.30   27.90
 -11   3  -1    5.30   21.30
  11   3   1    7.30    7.60
 -10  -4   1   17.70   22.90
  10   4  -1    0.70   10.90
 -10   4   1   18.80   16.40
  -9  -4   1   26.60   18.80
   9   4  -1   28.50   10.90
  -9   4   1   62.99   14.60
  -8  -4   1   39.90   15.80
   8   4  -1   28.30   10.40
  -8   4   1   26.90   12.80
   7   4  -1  109.09   15.20
  -7   4   1   68.49   15.80
  -6  -4   1  105.09   14.40
   6  -4  -1  131.29   22.30
   6   4  -1  107.39   15.90
  -5  -4   1   69.29   11.10
   5  -4  -1   85.19   21.30
   5   4  -1   78.39   14.30
  -5   4   1   70.19   11.00
  -4  -4   1   29.10    8.00
   4  -4  -1    0.50   14.90
  -4   4   1   16.10    8.20
   4   4  -1    9.00    8.60
   3  -4  -1   35.80   13.70
   3   4  -1   41.70    8.50
  -3   4   1   49.60    8.40
   2  -4  -1  117.49   20.50
   2   4  -1  168.88   13.70
  -2   4   1  152.18   13.40
   1  -4  -1   15.20   12.00
   1   4  -1   21.50    7.10
  -1   4   1   29.60    7.20
   0  -4  -1   23.60   11.70
   0   4  -1   18.60    6.90
   0   4   1   13.50    6.60
   1  -4   1  111.29   19.00
   1   4   1  116.49   12.00
  -1   4  -1  122.19   12.00
   2  -4   1   65.79   14.00
  -2   4  -1   74.89   11.10
   2   4   1   70.49    9.40
   3  -4   1  546.85   37.20
  -3   4  -1  502.55   31.10
   3   4   1  592.94   31.80
   4  -4   1   17.70   15.60
  -4  -4  -1   27.90    8.60
   4   4   1   29.20    9.20
  -4   4  -1   17.40    8.20
  -5  -4  -1  325.07   24.20
   5   4   1  359.06   23.40
  -5   4  -1  300.47   22.90
   6  -4   1   45.10   19.30
  -6  -4  -1   19.80   11.90
   6   4   1    9.20   11.00
  -6   4  -1   11.10   10.40
   7   4   1   34.60   10.30
  -7   4  -1   -2.50   18.10
   8  -4   1   69.39   25.00
  -8  -4  -1   34.70   17.10
  -8   4  -1   42.20   20.60
  -8   4  -1   34.20   13.70
   8   4   1   59.19   10.60
  -9  -4  -1  231.98   33.50
   9   4   1  187.78   19.60
  10   4   1   -4.90   10.70
   8  -5  -1   35.10   33.80
  -8  -5   1   -9.90   18.00
  -8   5   1    4.50   18.90
   8   5  -1    2.90   15.20
   7  -5  -1   16.80   30.20
  -7  -5   1   10.70   15.10
   7   5  -1    7.50   14.40
  -7   5   1   17.00   15.90
   6  -5  -1   14.90   25.30
  -6  -5   1   -5.40   13.30
  -6   5   1   34.80   14.90
   6   5  -1   38.10   14.00
   5  -5  -1   27.50   23.60
   5   5  -1   37.90   13.30
  -5   5   1   36.30   13.80
   4  -5  -1   68.49   22.90
  -4   5   1   50.09   13.00
   4   5  -1   35.30   12.90
   3  -5  -1   83.89   22.10
  -3   5   1   83.79   13.40
   3   5  -1   74.09   14.00
   2  -5  -1   26.90   20.20
  -2   5   1   -3.20   10.60
   2   5  -1   22.20   11.50
   1  -5  -1   66.59   21.80
  -1   5   1   77.89   12.40
   1   5  -1   82.59   13.30
   0   5   1  194.98   20.50
   0   5  -1  235.18   20.70
   1  -5   1   64.09   25.60
  -1   5  -1  109.69   14.40
   1   5   1   92.29   13.40
   2  -5   1   83.99   22.30
   2   5   1  102.39   14.20
  -2   5  -1  148.09   18.40
   3  -5   1   19.50   21.50
  -3   5  -1   38.60   12.70
   3   5   1   57.69   12.90
   4  -5   1    8.30   21.60
  -4   5  -1   26.50   12.40
   4   5   1   53.79   13.70
   5  -5   1   78.19   24.90
  -5   5  -1   66.99   14.80
   5   5   1   79.09   15.10
   6  -5   1   16.00   26.00
  -6  -5  -1    4.00   14.60
  -6   5  -1   16.80   14.00
   7  -5   1   34.20   30.00
  -7  -5  -1   12.80   16.70
  -7   5  -1   12.40   15.30
   7   5   1   23.20   15.40
  -8  -5  -1   49.60   19.70
   8  -5   1  -18.30   35.50
  -8   5  -1   47.00   31.40
   8   5   1    6.90   15.10
  -8   5  -1   36.10   19.50
   5  -6  -1  -14.70   36.30
  -5   6   1    8.00   20.00
   5   6  -1    6.90   21.10
   4  -6  -1   72.39   33.10
  -4   6   1   28.00   19.00
   4   6  -1  -11.00   18.00
   3  -6  -1  -48.50   31.20
   3   6  -1   14.30   16.80
  -3   6   1   22.60   16.60
   2  -6  -1  -50.89   30.30
   2   6  -1   -9.20   15.80
  -2   6   1   14.90   17.00
   1  -6  -1   -0.30   29.60
  -1   6   1   18.50   16.50
   1   6  -1   10.80   16.90
   0  -6  -1   36.30   29.20
   0   6   1   27.10   16.60
   0   6  -1   16.30   17.30
   1   6   1    4.60   16.20
  -1   6  -1   -4.60   16.00
   2  -6   1  -46.10   30.30
   2   6   1    0.70   17.20
  -2   6  -1   39.10   16.80
   3  -6   1   -4.00   31.40
  -3   6  -1    1.90   16.20
   3   6   1  -37.50   18.30
   4  -6   1   21.40   33.00
  -4   6  -1   12.40   17.50
   4   6   1   13.80   18.70
   5   6   1   49.30   22.70
  -5   6  -1    7.30   19.00
 -12   0   2  148.59   25.40
  12   0  -2  143.99   12.10
 -11   0   2   -1.40   16.40
 -10   0   2   13.10   14.00
   9   0  -2    5.00    2.80
  -9   0   2   10.20   11.40
   8   0  -2  320.67   17.80
  -8   0   2  349.07   24.40
   7   0  -2   22.70    3.10
  -7   0   2   25.40    7.30
   6   0  -2  457.65   23.30
  -6   0   2  440.46   27.10
  -5   0   2   28.90    4.30
  -5   0   2   37.60    6.10
   5   0  -2   26.20    2.60
  -4   0   2   65.39    8.40
  -4   0   2   47.30    8.00
   4   0  -2   60.59    3.70
   4   0  -2   48.80    8.20
  -4   0   2   50.79    4.00
  -3   0   2   23.20    2.50
   3   0  -2   22.70    2.10
  -3   0   2   25.10    4.60
  -2   0   2  813.52   40.40
  -2   0   2  756.42   39.20
   2   0  -2  745.63   39.10
   2   0  -2  807.72   40.50
   1   0  -2   24.60    1.50
  -1   0   2   24.90    2.30
   0   0   2  824.82   40.80
   0   0   2  812.82   41.00
   0   0  -2  805.42   41.00
   1   0   2   39.80    3.00
  -1   0  -2   46.90    2.90
  -1   0  -2   38.60    3.20
   1   0   2   40.40    3.90
  -2   0  -2 5394.06  250.97
   2   0   2 5169.58  251.17
  -2   0  -2 4952.30  250.07
   2   0   2 4543.85  250.17
   3   0   2  100.19    9.90
  -3   0  -2  105.59    8.80
   4   0   2  839.02   45.50
  -4   0  -2  844.62   45.10
   5   0   2   77.09    9.90
   6   0   2   45.00    8.20
   7   0   2   21.00    9.70
  -7   0  -2   22.90    8.60
   8   0   2   41.20   13.30
  -8   0  -2   46.30   12.30
   9   0   2    7.90   15.60
  -9   0  -2  -10.70   13.10
 -10   0  -2    8.70   16.00
  10   0   2   25.40   19.20
 -11   0  -2    6.50   20.10
 -12   0  -2    6.00   26.00
 -12  -1   2   18.00   22.20
  12  -1  -2   15.50    7.20
 -12   1   2    1.10   10.00
  12   1  -2    7.60    5.20
 -12   1   2    2.90   20.80
  11  -1  -2   19.10    5.90
 -11  -1   2   33.00   17.80
  11   1  -2   -4.70    4.50
 -11   1   2  -12.70   16.00
  10  -1  -2   74.29   10.10
 -10  -1   2   89.59   16.80
  10   1  -2   81.59    7.60
 -10   1   2   72.19   15.80
  -9  -1   2  106.99   16.70
   9  -1  -2  121.29    9.40
  -9   1   2  138.29   19.00
   9   1  -2  123.99    8.70
   8  -1  -2   38.30    5.80
  -8  -1   2   52.59   11.40
  -8   1   2   43.90   10.10
   8   1  -2   45.90    5.80
  -7  -1   2   -1.90    7.50
   7  -1  -2   26.80    3.60
   7   1  -2   25.70    3.20
  -7   1   2   16.90    7.00
   6  -1  -2   35.60    4.10
  -6  -1   2   36.60    7.30
   6   1  -2   28.10    4.10
  -6   1   2   40.10    7.00
   5  -1  -2  731.63   36.90
  -5  -1   2  720.83   40.00
  -5  -1   2  721.03   37.80
  -5   1   2  722.93   36.70
   5   1  -2  728.83   36.90
  -5   1   2  703.93   39.40
  -5   1   2  712.63   39.70
  -4  -1   2  746.73   39.40
   4  -1  -2  755.42   39.00
  -4  -1   2  754.02   41.50
  -4   1   2  776.82   38.70
   4   1  -2  759.32   39.00
   4   1  -2  815.32   42.20
  -4   1   2  752.72   41.00
  -4   1   2  758.52   40.90
   3  -1  -2 1378.76   69.79
  -3  -1   2 1422.96   71.79
   3  -1  -2 1405.96   70.99
  -3  -1   2 1341.37   70.09
  -3   1   2 1426.76   69.89
  -3   1   2 1372.46   69.49
   3   1  -2 1374.26   70.19
   3   1  -2 1414.96   71.89
  -3   1   2 1316.37   70.79
  -3   1   2 1412.56   72.29
  -2  -1   2   58.39    5.50
   2  -1  -2   46.10    5.60
   2   1  -2   54.69    4.10
  -2   1   2   53.29    4.00
   1  -1  -2  890.51   42.90
  -1  -1   2  862.61   43.30
   1  -1  -2  795.82   44.00
  -1  -1   2  852.01   43.00
   1   1  -2  815.22   42.90
  -1   1   2  833.92   43.90
   1   1  -2  891.21   43.50
  -1   1   2  843.02   42.80
  -1   1   2  854.21   43.00
   0  -1  -2  734.03   37.00
   0  -1   2  796.72   37.00
   0  -1  -2  694.83   37.90
   0  -1   2  723.23   37.00
   0   1   2  708.93   37.10
   0   1  -2  660.03   37.10
   0   1   2  750.92   37.80
   0   1  -2  770.92   37.10
  -1  -1  -2 4085.19  205.68
  -1  -1  -2 4150.88  205.98
   1  -1   2 4401.26  205.78
  -1  -1  -2 3922.31  206.18
   1  -1   2 4641.14  206.98
  -1   1  -2 3993.40  206.68
  -1   1  -2 3578.74  206.18
   1   1   2 4399.66  206.08
   1   1   2 3716.83  207.68
   1   1   2 4010.10  205.68
  -1   1  -2 4405.36  205.58
  -2  -1  -2  525.55   26.70
   2  -1   2  508.75   28.00
   2  -1   2  502.25   25.10
  -2   1  -2  433.46   25.80
  -2   1  -2  492.45   24.70
  -2   1  -2  399.66   25.30
   2   1   2  450.75   25.70
   3  -1   2  892.11   46.00
  -3  -1  -2  880.51   46.00
   3   1   2  828.52   47.90
  -3   1  -2  885.21   45.20
  -4  -1  -2  193.98   14.60
   4  -1   2  212.98   15.00
   4   1   2  190.18   14.60
  -4   1  -2  201.58   13.40
   5  -1   2  343.97   21.00
  -5  -1  -2  322.17   21.10
  -5   1  -2  315.47   21.00
   5   1   2  309.27   21.50
  -6  -1  -2   52.09    8.70
   6  -1   2   47.10    9.20
   6   1   2   71.19   10.00
   7  -1   2   54.19   11.50
  -7  -1  -2   40.80    9.30
   7   1   2   58.09   10.50
   8  -1   2  145.59   17.40
  -8  -1  -2  124.99   19.90
   8   1   2  115.09   16.80
  -8   1  -2  107.89   15.50
   9  -1   2  252.67   38.90
  -9  -1  -2  221.68   27.40
  -9   1  -2  199.38   32.60
  10  -1   2   73.09   20.00
 -10  -1  -2   62.89   18.10
 -10   1  -2   58.19   18.40
 -11  -1  -2   73.99   22.40
 -11   1  -2   57.69   20.70
 -12   1  -2   42.70   28.40
 -12   2   2  -15.50   19.40
 -12   2   2   25.40   12.90
  12   2  -2   -0.90    6.10
 -11  -2   2   10.70   18.70
 -11   2   2   16.70   18.00
  11   2  -2    8.20    5.20
 -11   2   2   21.50   10.90
  10  -2  -2  122.19   13.10
 -10  -2   2  137.49   20.70
 -10   2   2  143.49   17.20
  10   2  -2  117.09   10.70
 -10   2   2  113.39   18.80
   9  -2  -2    1.00    5.60
  -9  -2   2   13.00   13.30
  -9   2   2   11.80   11.10
   9   2  -2   15.80    5.30
  -9   2   2   36.00    8.50
   8  -2  -2   32.00    5.50
  -8  -2   2   25.20   11.90
  -8   2   2   42.10    7.00
   8   2  -2   48.00    6.00
  -8   2   2   37.60    9.70
   7  -2  -2  142.79   10.60
  -7  -2   2  161.28   17.30
  -7   2   2  156.28   18.60
   7   2  -2  158.38   10.80
  -7   2   2  159.58   11.50
  -6  -2   2   99.29   12.70
  -6   2   2   93.29    7.90
  -6   2   2   97.29   11.50
   6   2  -2   90.19    7.50
  -6   2   2   72.59   12.10
  -5  -2   2  303.07   20.50
   5   2  -2  308.57   17.50
  -5   2   2  338.27   17.90
  -4  -2   2  136.79   11.20
   4   2  -2  118.09   15.50
   4   2  -2  137.09    9.00
  -4   2   2  131.79    8.90
  -3  -2   2  581.44   29.20
   3  -2  -2  466.35   29.90
   3   2  -2  522.95   27.40
  -3   2   2  449.26   27.40
  -3   2   2  534.05   27.40
   3   2  -2  552.94   30.00
  -2  -2   2  104.39    8.40
   2  -2  -2  115.29   11.50
  -2  -2   2  117.09    9.10
   2  -2  -2  108.39    7.30
   2   2  -2  101.89    7.80
   2   2  -2  106.09   10.10
  -2   2   2  112.89    7.90
  -2   2   2   96.39   11.40
   1  -2  -2   45.20    5.10
   1  -2  -2   43.00    6.90
  -1  -2   2   31.70    4.40
  -1  -2   2   33.80    5.40
  -1   2   2   36.40    5.10
   1   2  -2   46.70    7.60
  -1   2   2   43.50    6.70
   1   2  -2   41.40    5.10
   0  -2  -2   43.50    6.80
   0  -2   2   36.50    4.40
   0  -2  -2   40.90    5.20
   0   2  -2   41.70    6.40
   0   2   2   37.10    5.90
   0   2   2   43.10    6.00
   1  -2   2  762.52   39.60
  -1  -2  -2  731.73   41.30
   1  -2   2  783.92   42.00
  -1  -2  -2  771.52   39.80
  -1   2  -2  794.82   39.90
   1   2   2  771.72   39.90
   1   2   2  761.02   40.60
   2  -2   2  595.04   31.00
   2  -2   2  620.34   31.40
  -2  -2  -2  590.74   31.50
   2  -2   2  646.14   34.10
  -2   2  -2  595.44   31.50
   2   2   2  615.34   31.60
  -2   2  -2  526.75   33.50
  -3  -2  -2   30.60    5.90
  -3  -2  -2   35.80    6.40
   3  -2   2   44.50    7.60
  -3  -2  -2   42.80    5.20
   3  -2   2   34.60    6.50
  -3   2  -2   32.20    8.10
   3   2   2   35.30    6.60
  -3   2  -2   43.20    4.60
   3   2   2   38.50    6.00
  -4  -2  -2    4.70    5.20
   4  -2   2   -2.40    6.90
   4  -2   2    4.90    5.90
  -4  -2  -2   -2.10    6.90
   4   2   2   -3.80    5.90
   4   2   2    4.30    3.70
  -4   2  -2    4.30    3.70
  -4   2  -2    4.80    6.70
  -5  -2  -2  232.88   17.90
   5  -2   2  288.27   20.10
   5  -2   2  256.57   17.60
   5   2   2  249.48   14.60
  -5   2  -2  232.28   18.10
  -5   2  -2  236.08   16.80
   5   2   2  219.18   18.00
  -6  -2  -2  151.88   16.60
   6  -2   2  122.29   14.60
   6   2   2  122.39    9.10
   6   2   2  116.99   16.90
  -6   2  -2  129.89   15.60
   7  -2   2    1.20   10.90
  -7  -2  -2    7.70   10.60
   7   2   2    5.80    5.10
  -8  -2  -2   47.10   23.10
   8  -2   2   43.70   13.90
   8   2   2   33.00    5.20
  -8   2  -2   33.30   12.10
  -9  -2  -2   60.19   17.50
   9   2   2   49.30    6.20
  10  -2   2   84.59   22.70
 -10  -2  -2  105.69   19.80
  10   2   2   70.89   10.70
 -10   2  -2  116.69   21.00
 -11  -2  -2   48.30   23.80
 -11   2  -2   54.69   22.50
 -11  -3   2   -7.40   21.60
 -11   3   2    3.60   13.90
  11   3  -2   15.60    7.90
 -11   3   2  -42.50   20.20
 -10  -3   2    4.70   18.40
 -10   3   2    8.10   12.00
  10   3  -2    9.70    7.40
  -9  -3   2   53.49   15.30
   9   3  -2   46.90    7.70
  -9   3   2   47.90   11.40
  -8  -3   2   44.60   14.00
   8   3  -2   38.80    7.70
  -7  -3   2   -3.70   10.30
   7   3  -2    8.60    6.60
  -7   3   2   -0.60    7.80
  -6  -3   2   41.70    9.60
  -6   3   2   42.40    7.20
  -5  -3   2  164.88   14.80
  -5   3   2  156.28   12.50
   5   3  -2  151.08   12.30
   4  -3  -2  309.67   24.00
  -4  -3   2  369.26   21.20
  -4   3   2  280.57   20.00
   4   3  -2  345.17   19.40
   3  -3  -2   25.40    8.80
  -3  -3   2   30.40    5.50
  -3   3   2   18.30    4.70
   3   3  -2   47.60   19.10
   3   3  -2   31.40    4.90
   2  -3  -2  715.83   42.90
  -2  -3   2  791.92   40.00
   2   3  -2  795.22   41.80
  -2   3   2  722.93   39.90
   2   3  -2  749.82   39.80
   1  -3  -2   43.00    8.60
  -1   3   2   60.39    7.30
   1   3  -2   48.40    6.90
   0  -3  -2 1282.57   70.29
   0   3  -2 1317.77   67.79
   0   3   2 1358.76   67.99
  -1  -3  -2    3.70    7.00
   1  -3   2    6.20    7.00
   1   3   2    5.10    4.10
  -1   3  -2    4.10    4.10
   2  -3   2  340.87   23.50
   2   3   2  365.16   20.20
  -2   3  -2  337.97   20.00
   3  -3   2   89.19   14.30
  -3   3  -2   78.89    8.90
   3   3   2   91.39    9.00
   4  -3   2  289.27   23.10
  -4  -3  -2  292.97   20.10
   4   3   2  291.27   18.10
  -4   3  -2  274.77   17.60
  -5  -3  -2  136.69   16.20
   5  -3   2  142.29   20.10
   5   3   2  139.29   12.70
  -5   3  -2  144.19   12.30
  -5   3  -2  123.69   19.30
   6  -3   2  138.49   17.80
  -6  -3  -2  168.28   19.20
   6  -3   2  167.58   24.10
   6   3   2  178.58   14.10
  -6   3  -2  164.98   22.40
   7  -3   2   -3.50   12.30
   7  -3   2   22.80   19.90
  -7  -3  -2    4.10   12.90
   7   3   2   -2.50    6.60
  -7   3  -2   -5.90   18.80
  -8  -3  -2   24.10   15.60
   8  -3   2   18.00   15.60
   8   3   2   34.80    7.90
  -8   3  -2   20.10   13.20
  -9  -3  -2   44.60   18.40
   9   3   2   47.00    8.30
  10  -3   2   22.00   21.80
 -10  -3  -2   51.19   23.10
 -10   3  -2   80.99   23.80
 -10  -4   2   12.30   22.90
 -10   4   2   13.20   17.10
  10   4  -2  -12.90   11.00
  -9  -4   2  140.39   21.20
  -9   4   2  157.78   23.40
   9   4  -2  160.68   18.60
  -8  -4   2   63.39   17.30
  -8   4   2   81.09   14.50
   8   4  -2   87.29   11.40
  -7  -4   2  123.39   19.40
   7   4  -2  204.38   17.20
  -7   4   2  158.88   19.20
  -6  -4   2   -4.20   10.60
   6   4  -2   16.50    9.60
  -6   4   2   27.70   11.30
  -5  -4   2  101.59   15.60
   5  -4  -2  129.19   22.50
  -5   4   2  130.59   15.70
  -4  -4   2   29.60    7.50
   4  -4  -2   27.20   15.70
   4   4  -2   24.50    8.80
  -4   4   2   17.90    9.00
   3  -4  -2  531.35   37.70
  -3  -4   2  562.64   30.50
   3   4  -2  546.25   31.30
  -3   4   2  535.95   31.50
   2  -4  -2   -1.40   14.60
   2   4  -2   11.80    7.00
  -2   4   2   10.30    7.20
   1  -4  -2   92.49   14.60
  -1   4   2   78.39   11.50
   1   4  -2   88.49   11.50
   0  -4  -2   16.10   11.90
   0   4   2    5.90    6.50
   0   4  -2   11.30    6.80
   1  -4   2    3.90   11.20
  -1   4  -2    5.60    6.80
   1   4   2   12.70    7.00
   2  -4   2   26.90   12.40
  -2   4  -2   27.70    7.60
   2   4   2   39.30    8.10
   3  -4   2  159.68   23.50
   3   4   2  171.78   15.60
  -3   4  -2  170.78   14.90
   4  -4   2  172.28   25.90
  -4   4  -2  104.09   14.10
   4   4   2  123.09   15.80
   5  -4   2   86.09   19.80
   5   4   2   59.19   11.60
  -5   4  -2   74.89   10.60
   6  -4   2  112.89   21.00
  -6  -4  -2   56.59   13.60
  -6   4  -2   69.49   18.60
   6   4   2   80.29   12.80
  -6   4  -2   74.49   12.40
   7  -4   2   88.89   22.80
  -7   4  -2  126.89   25.40
   7   4   2   73.39   11.60
  -8  -4  -2   95.49   20.60
   8   4   2   97.59   16.00
  -9  -4  -2  114.39   22.80
   9   4   2  134.69   16.70
  -8  -5   2   -7.30   16.80
  -8   5   2   19.10   19.30
   8   5  -2    6.00   16.00
  -7  -5   2    9.00   14.50
   7  -5  -2   17.00   29.80
  -7   5   2   34.00   16.70
   7   5  -2    7.30   14.60
   6   5  -2    1.70   13.10
  -6   5   2   11.70   14.90
   5  -5  -2   93.99   24.80
  -5  -5   2   78.69   11.70
   5   5  -2   57.69   13.60
  -5   5   2   61.49   14.80
   4  -5  -2   54.79   22.80
  -4   5   2   61.99   14.00
   4   5  -2   83.19   13.50
   3   5  -2   33.00   11.70
  -3   5   2   44.70   12.30
   2  -5  -2   18.60   20.30
  -2   5   2   14.60   11.00
   2   5  -2  -12.40   11.00
   1  -5  -2   17.50   20.10
  -1   5   2   26.70   10.80
   1   5  -2   10.10   11.50
   0   5   2  246.58   22.50
   0   5  -2  277.47   22.50
   2  -5   2   21.50   21.60
   2   5   2   38.80   12.50
  -2   5  -2   17.00   12.80
   3  -5   2   88.39   23.00
   3   5   2  106.89   14.80
  -3   5  -2   81.19   14.40
   4  -5   2  107.69   24.20
   4   5   2   66.59   15.10
  -4   5  -2   80.49   14.20
   5   5   2   77.79   16.20
  -5   5  -2   67.59   16.50
  -6  -5  -2    9.90   15.30
   6  -5   2   38.60   27.00
  -6   5  -2   17.30   25.00
   6   5   2  -12.80   15.40
  -6   5  -2   23.50   14.50
  -7  -5  -2   27.70   17.60
   7  -5   2    7.50   30.40
   7   5   2    3.50   16.00
  -7   5  -2   38.70   27.70
  -8  -5  -2   37.40   20.60
   8   5   2  -17.20   15.10
   5  -6  -2   32.00   42.30
  -5   6   2  -16.70   20.60
   5   6  -2  -15.40   22.30
   4  -6  -2  -12.00   32.70
   4   6  -2    9.50   18.00
  -4   6   2   19.50   18.80
   3  -6  -2   51.29   32.70
  -3   6   2   31.90   18.20
   3   6  -2   -8.80   17.60
   2  -6  -2  -15.40   30.20
  -2   6   2    4.40   24.30
   2   6  -2  -12.70   19.20
   1  -6  -2  -18.90   30.40
   1   6  -2  -14.10   16.30
  -1   6   2   -3.20   16.30
   0  -6  -2    9.60   29.50
   0   6  -2  -12.90   16.40
   0   6   2   21.10   16.50
   1   6   2   -3.10   17.40
  -1   6  -2   19.10   16.10
   2  -6   2   42.40   31.40
  -2   6  -2    6.50   16.30
   2   6   2   45.50   22.50
   3  -6   2   17.80   32.10
   3   6   2  -19.30   18.10
  -3   6  -2   33.00   16.80
   4   6   2   15.80   19.80
  -4   6  -2   23.10   19.10
  -5   6  -2  -12.70   20.40
   5   6   2   29.10   23.50
  12   0  -3   39.40    6.80
 -12   0   3   44.00   20.80
  11   0  -3    2.40    4.60
 -11   0   3   -6.10   15.30
  10   0  -3   37.80    4.80
 -10   0   3   31.80   14.10
   9   0  -3  119.39    8.30
  -9   0   3  128.19   16.60
   8   0  -3  525.85   27.20
  -8   0   3  511.15   33.20
   7   0  -3   39.80    3.90
  -7   0   3   44.20    8.20
   6   0  -3  679.93   35.20
  -6   0   3  702.63   39.00
  -5   0   3    2.70    2.60
  -5   0   3    4.00    7.60
   5   0  -3    6.40    1.50
   5   0  -3   11.70    7.30
  -5   0   3   13.60    4.90
  -4   0   3 1596.74   82.79
   4   0  -3 1652.83   83.39
   4   0  -3 1581.24   80.49
  -4   0   3 1591.74   80.59
  -3   0   3  432.56   22.60
   3   0  -3  433.26   22.50
   3   0  -3  442.06   24.70
  -3   0   3  459.65   24.60
   2   0  -3  266.97   15.30
   2   0  -3  257.67   13.80
  -2   0   3  285.97   14.10
  -2   0   3  270.67   15.00
   1   0  -3   33.00    2.20
  -1   0   3   28.00    2.70
   1   0  -3   33.60    3.00
  -1   0   3   37.20    2.30
   0   0  -3 1456.05   74.69
   0   0   3 1510.55   74.89
   0   0  -3 1474.25   74.89
   0   0   3 1528.55   74.69
  -1   0  -3    3.60    1.30
  -1   0  -3    5.50    1.20
   1   0   3    3.10    1.40
   1   0   3    2.40    1.60
   2   0   3 3023.10  153.08
  -2   0  -3 3126.19  152.88
  -2   0  -3 2975.40  152.08
   3   0   3  189.98   12.30
   3   0   3  144.69   10.30
  -3   0  -3  185.88   11.40
  -3   0  -3  175.98   10.30
   4   0   3  123.89   11.60
  -4   0  -3  132.59   12.20
   5   0   3   63.99    8.60
   6   0   3  178.48   15.90
   7   0   3   33.60   10.60
   8   0   3   94.89   16.50
  -8   0  -3   84.69   14.70
   9   0   3   18.00   16.40
  -9   0  -3   -0.80   13.20
 -10   0  -3    4.20   16.50
  10   0   3  -27.90   18.50
  11   0   3   58.19   26.00
 -11   0  -3   33.80   22.70
  12  -1  -3   17.90    7.60
 -12  -1   3    8.50   21.10
  12   1  -3    5.50    5.50
 -12   1   3   25.00   10.60
 -12   1   3   -9.20   19.20
  11  -1  -3   20.90    6.00
 -11  -1   3   18.00   16.70
  11   1  -3   18.30    5.10
 -11   1   3   -0.30   15.00
 -10  -1   3  158.58   20.90
  10  -1  -3  174.78   12.70
 -10   1   3  192.38   27.80
  10   1  -3  173.08   11.30
  -9  -1   3   69.59   14.60
   9  -1  -3   82.39    8.10
  -9   1   3   71.69   13.50
   9   1  -3   76.19    7.00
   8  -1  -3  257.37   15.20
  -8  -1   3  264.27   21.80
   8   1  -3  241.48   14.00
  -8   1   3  233.88   20.30
   7  -1  -3   74.19    6.10
  -7  -1   3   67.19   10.20
   7   1  -3   71.89    5.80
  -7   1   3   75.69    9.90
  -6  -1   3   82.69   10.60
   6  -1  -3   76.29    5.90
  -6   1   3   85.39   10.50
   6   1  -3   83.69    5.80
   5  -1  -3  161.18    9.40
   5  -1  -3  159.38   13.90
  -5  -1   3  158.78   13.00
  -5   1   3  186.58   14.40
  -5   1   3  150.88   13.00
   5   1  -3  167.58    9.40
  -4  -1   3  602.14   32.10
   4  -1  -3  609.34   31.50
  -4  -1   3  605.34   34.00
   4  -1  -3  649.34   33.80
  -4   1   3  602.74   31.20
   4   1  -3  606.54   34.80
  -4   1   3  634.44   33.70
  -4   1   3  610.14   33.80
   4   1  -3  603.64   31.50
   3  -1  -3 1043.70   51.69
   3  -1  -3  973.10   50.19
  -3  -1   3  987.90   52.09
  -3  -1   3  976.80   50.49
   3   1  -3  932.91   50.19
   3   1  -3  973.60   52.19
  -3   1   3 1020.20   50.19
  -3   1   3 1015.50   51.19
  -3   1   3  997.40   49.90
  -2  -1   3  704.93   35.10
   2  -1  -3  676.33   34.90
  -2  -1   3  707.33   36.00
   2   1  -3  674.73   36.00
   2   1  -3  648.74   34.80
  -2   1   3  693.23   34.90
  -2   1   3  686.23   34.60
  -1  -1   3  236.68   12.90
   1  -1  -3  223.38   14.10
  -1  -1   3  235.48   12.70
  -1   1   3  249.18   14.70
   1   1  -3  235.68   12.80
  -1   1   3  225.78   12.60
   0  -1   3  237.48   11.80
   0  -1  -3  205.88   11.60
   0  -1  -3  204.98   12.90
   0   1   3  213.68   11.80
   0   1  -3  223.08   11.80
  -1  -1  -3  921.71   47.40
   1  -1   3 1008.40   47.50
  -1  -1  -3  871.11   47.90
   1   1   3  891.91   47.80
  -1   1  -3  971.30   48.60
   1   1   3 1077.09   48.10
  -1   1  -3  794.72   47.70
  -2  -1  -3  295.97   16.70
  -2  -1  -3  298.87   16.90
   2  -1   3  315.77   16.90
   2   1   3  337.27   16.10
   2   1   3  291.57   17.60
  -2   1  -3  286.17   18.10
  -2   1  -3  309.97   16.10
  -2   1  -3  254.37   17.20
  -3  -1  -3 1475.05   71.19
   3  -1   3 1435.86   71.19
  -3   1  -3 1265.87   70.49
   3   1   3 1349.16   71.69
  -3   1  -3 1450.65   70.29
  -3   1  -3 1298.97   71.49
   4  -1   3   53.49    8.20
  -4  -1  -3   57.59    9.30
   4   1   3   68.59    8.90
  -4   1  -3   54.49    6.90
  -4   1  -3   53.39    7.80
   5  -1   3  170.18   14.30
   5   1   3  137.09   13.60
   6  -1   3   16.70    7.60
   6   1   3   12.10    8.00
  -7  -1  -3  157.88   18.20
   7  -1   3  178.98   19.60
   7   1   3  203.18   19.70
   8  -1   3  141.29   18.90
  -8  -1  -3  161.18   20.90
   8   1   3  172.68   22.70
   9  -1   3   80.19   18.70
  -9  -1  -3   81.59   17.10
   9   1   3   75.79   18.00
  -9   1  -3   46.70   16.30
  10  -1   3   57.69   21.70
 -10  -1  -3   48.60   18.70
 -10   1  -3   16.20   17.20
  10   1   3   38.60   21.10
 -11  -1  -3   67.99   24.20
  11  -1   3   60.79   26.10
 -11   1  -3   26.60   21.80
 -12   2   3  -11.40   13.70
  12   2  -3   -0.10    6.40
  11  -2  -3    0.60    7.80
 -11  -2   3  -11.80   17.70
  11   2  -3    1.80    5.60
 -11   2   3    4.10   10.90
 -11   2   3    7.00   15.30
 -10  -2   3   38.00   15.90
  10  -2  -3   30.50    7.40
 -10   2   3   55.89   15.10
 -10   2   3   38.40   10.30
  10   2  -3   48.30    6.40
   9  -2  -3   59.09    8.60
  -9  -2   3   52.19   13.80
   9   2  -3   79.19    8.30
  -9   2   3   60.09   12.70
  -9   2   3   82.59   12.50
   8  -2  -3   12.70    5.00
  -8  -2   3   20.10   10.40
  -8   2   3   22.40    6.70
  -8   2   3   21.40    9.00
   8   2  -3   18.70    5.10
   7  -2  -3   35.70    5.30
  -7  -2   3   33.90    9.20
  -7   2   3   45.60    8.10
   7   2  -3   49.30    6.50
  -7   2   3   47.20    6.30
  -6  -2   3   29.60    7.30
   6  -2  -3   19.00    3.90
  -6   2   3   28.80    4.60
   6   2  -3   35.90    5.70
  -6   2   3   32.80   12.60
  -5  -2   3  111.79   11.50
  -5   2   3  132.89    9.00
   5   2  -3  132.39    8.50
  -4  -2   3   78.79    8.60
   4   2  -3   67.89    6.20
  -4   2   3   73.89    6.40
  -3  -2   3  342.17   19.00
   3  -2  -3  319.87   17.10
  -3  -2   3  306.37   18.50
   3   2  -3  307.17   20.20
  -3   2   3  307.77   17.10
  -3   2   3  315.57   17.50
   3   2  -3  312.37   17.40
  -2  -2   3  463.65   24.80
   2  -2  -3  445.86   23.90
  -2  -2   3  492.55   25.00
   2  -2  -3  433.96   27.10
   2   2  -3  481.45   25.80
  -2   2   3  435.56   24.50
  -2   2   3  440.56   26.60
   2   2  -3  470.05   24.30
  -2   2   3  441.36   24.00
  -1  -2   3  245.38   14.20
   1  -2  -3  235.78   16.70
  -1  -2   3  262.67   14.00
   1  -2  -3  252.57   13.90
   1   2  -3  234.38   14.10
  -1   2   3  246.58   14.20
   1   2  -3  243.78   14.60
  -1   2   3  239.78   16.30
   0  -2   3  213.08   12.50
   0  -2   3  232.28   11.90
   0  -2  -3  208.08   12.40
   0  -2  -3  204.48   15.00
   0   2   3  209.08   14.30
   0   2   3  219.58   12.80
   0   2  -3  185.28   13.20
   0   2  -3  210.18   12.10
   1  -2   3  297.67   17.80
  -1  -2  -3  231.08   16.60
   1  -2   3  270.57   14.50
   1  -2   3  261.47   14.10
  -1  -2  -3  256.37   14.90
   1   2   3  251.67   15.90
  -1   2  -3  264.27   14.10
   1   2   3  261.57   15.20
  -1   2  -3  221.58   16.90
  -2  -2  -3  426.86   24.00
   2  -2   3  500.45   26.60
  -2  -2  -3  455.35   24.60
   2  -2   3  437.36   24.00
   2   2   3  438.96   24.10
  -2   2  -3  396.96   25.50
  -2   2  -3  456.15   23.30
  -3  -2  -3  616.34   33.40
  -3  -2  -3  655.83   34.50
   3  -2   3  641.54   34.30
   3   2   3  660.83   35.70
  -3   2  -3  647.14   32.90
  -3   2  -3  580.84   34.70
   3   2   3  621.94   33.30
  -4  -2  -3   57.99    9.20
  -4  -2  -3   59.29    8.50
   4  -2   3   54.59    9.10
   4  -2   3   68.89    9.80
  -4  -2  -3   61.49   10.30
  -4   2  -3   66.89   10.50
   4   2   3   70.79   10.90
  -4   2  -3   74.59   11.20
   4   2   3   63.09    7.00
   5  -2   3  197.38   16.50
  -5  -2  -3  198.78   16.50
   5   2   3  190.58   16.80
  -5   2  -3  193.08   16.30
  -6  -2  -3  143.49   17.20
   6  -2   3  190.18   17.10
  -6   2  -3  163.38   16.60
   6   2   3  157.48   17.50
  -7  -2  -3   12.60   11.10
   7  -2   3   14.80   11.50
   7   2   3   -4.20   12.10
  -8  -2  -3    4.10   15.30
   8  -2   3    2.60   14.30
   8   2   3   32.50   17.60
  -9  -2  -3  168.18   27.80
   9  -2   3  121.79   20.40
  -9   2  -3  107.49   19.60
  10  -2   3   34.90   22.30
 -10  -2  -3   56.89   21.10
 -10   2  -3   35.60   26.70
 -11  -2  -3   36.20   23.10
  11  -2   3    8.00   25.60
 -11   2  -3  -16.80   22.50
 -11  -3   3   -3.90   22.10
  11   3  -3    4.50    8.00
 -11   3   3    1.20   14.50
 -10  -3   3   12.80   16.50
  10   3  -3   25.10    8.20
 -10   3   3   23.20   14.70
 -10   3   3   33.40   12.40
  -9  -3   3   27.90   14.90
  -9   3   3   21.20   10.60
   9   3  -3    7.80    7.20
  -8  -3   3   13.20   11.70
   8   3  -3   20.10    7.00
  -8   3   3   18.40    9.70
  -7  -3   3   49.90   11.70
  -7   3   3   62.39    9.80
  -6  -3   3   10.40    8.50
  -6   3   3   18.40    7.00
   6   3  -3   17.60    5.70
  -5  -3   3   63.19    9.00
  -5   3   3   57.19    8.20
   5   3  -3   50.89    8.10
  -4  -3   3   93.49   10.60
   4  -3  -3   94.19   12.90
   4   3  -3   80.39    9.40
  -4   3   3   78.79    9.20
   3  -3  -3   -2.90    8.90
  -3  -3   3    2.90    4.60
  -3   3   3    0.50    4.20
   3   3  -3    8.40    4.70
   3   3  -3   -6.50   12.90
  -2  -3   3  102.59    8.40
   2  -3  -3   87.29   11.60
   2   3  -3  107.19    8.70
   2   3  -3  103.09   13.10
  -2   3   3   95.29    8.80
   1  -3  -3   11.70    7.90
  -1  -3   3   18.80    3.60
   1   3  -3   15.10    6.20
   1   3  -3   16.60    4.40
  -1   3   3   14.20    4.40
   0  -3  -3  543.45   32.80
   0   3  -3  553.74   29.90
   0   3   3  565.64   30.20
  -1  -3  -3   13.00    7.20
   1  -3   3   13.10    7.60
   1   3   3   19.60    4.70
  -1   3  -3   13.50    4.50
   2  -3   3  104.59   13.70
  -2   3  -3   87.89    8.70
   2   3   3   82.49    9.00
   3  -3   3   77.39   14.60
  -3   3  -3   75.79    8.80
   3   3   3   68.49    8.80
   4  -3   3  113.39   17.50
  -4  -3  -3   86.29   11.00
   4  -3   3   91.19   11.70
  -4   3  -3   80.09    9.30
  -4   3  -3   91.49   16.60
   4   3   3   95.09   10.60
   5  -3   3  117.09   15.40
  -5  -3  -3  144.89   17.30
  -5   3  -3  114.99   19.40
   5   3   3  144.79   12.80
   6  -3   3  133.99   17.20
   6  -3   3  119.09   18.10
  -6  -3  -3  113.59   19.00
  -6   3  -3   98.29   16.20
   6   3   3   91.89   12.80
  -7  -3  -3   -3.40   13.60
   7  -3   3  -21.40   13.10
  -7   3  -3    2.80   15.70
   7   3   3   13.60    6.90
  -8  -3  -3    3.70   16.30
   8  -3   3    8.00   16.70
   8   3   3   -0.30    7.30
   9  -3   3   91.09   20.90
  -9  -3  -3   92.99   21.50
  -9   3  -3   85.59   20.10
  10  -3   3  -26.10   22.80
 -10  -3  -3   21.80   23.30
 -10   3  -3   31.90   21.30
 -10  -4   3   35.90   22.90
  10   4  -3   -5.10   12.00
 -10   4   3  -16.00   17.50
  -9  -4   3  234.68   30.10
   9   4  -3  165.58   20.00
  -9   4   3  197.58   23.90
  -8  -4   3   77.19   17.00
  -8   4   3  139.29   20.20
   8   4  -3  105.49   16.20
  -7   4   3   51.19   12.70
   7   4  -3   59.39   10.00
  -6  -4   3   38.00   11.30
  -6   4   3   46.10   11.70
   6   4  -3   66.79    9.90
  -5  -4   3  295.87   22.00
   5  -4  -3  340.27   43.60
   5   4  -3  293.87   23.50
   4  -4  -3   88.09   23.20
  -4  -4   3   78.99   12.20
   4   4  -3   69.59   11.90
  -4   4   3   81.29   10.90
   3  -4  -3  808.72   52.59
  -3  -4   3  843.32   44.70
  -3   4   3  799.12   45.70
   3   4  -3  887.31   45.40
   2  -4  -3    3.80   13.20
   2   4  -3    7.10    7.40
  -2   4   3   31.80    8.60
   1  -4  -3   62.79   14.10
  -1   4   3   65.79    8.90
   1   4  -3   66.79   10.90
   0  -4  -3    9.40   12.60
   0   4   3    0.00    7.20
   0   4  -3   11.20    7.20
  -1  -4  -3   80.69   14.20
  -1   4  -3   80.09   11.80
   1   4   3  102.19   12.10
   2   4   3  -12.90    8.00
  -2   4  -3    0.00    7.40
   3  -4   3   63.09   15.80
  -3   4  -3   20.90    8.00
   3   4   3   40.50    9.10
   4  -4   3    2.60   21.10
  -4   4  -3    0.40    8.30
   4   4   3    0.10    9.50
   5  -4   3   34.30   18.10
  -5  -4  -3   25.20   11.60
   5   4   3   38.80   11.40
  -5   4  -3   24.40   17.20
  -6  -4  -3    6.90   13.80
   6  -4   3   48.70   19.90
   6   4   3    8.70   12.50
  -6   4  -3   42.00   19.20
  -7  -4  -3   97.19   19.80
   7  -4   3   99.89   24.10
  -7   4  -3   69.89   21.50
   7   4   3  103.79   16.70
  -8  -4  -3   82.69   20.50
  -8   4  -3   58.99   22.60
  -9  -4  -3   74.79   23.70
   9   4   3   47.10   10.50
  -8  -5   3   37.80   17.40
   8   5  -3   29.00   18.10
  -8   5   3   37.80   20.30
  -7  -5   3  -10.70   14.30
   7  -5  -3   17.90   29.70
   7   5  -3   15.40   13.40
  -7   5   3  -14.20   16.80
  -6  -5   3   28.10   17.50
   6  -5  -3   19.40   26.70
  -6   5   3   29.50   15.60
   6   5  -3    8.20   13.20
  -5  -5   3   66.49   11.00
   5  -5  -3   54.89   25.30
  -5   5   3   35.20   14.90
   5   5  -3   51.09   13.40
   4  -5  -3   88.89   24.10
  -4   5   3   60.59   14.40
   4   5  -3  118.69   18.20
   3  -5  -3   43.20   22.10
   3   5  -3   46.90   11.90
  -3   5   3   39.30   13.10
   2  -5  -3   89.89   22.60
   2   5  -3   75.69   13.60
  -2   5   3   84.89   13.40
   1  -5  -3   18.00   21.10
  -1   5   3   28.50   12.60
   1   5  -3   19.70   12.00
   0  -5  -3  122.69   24.10
   0   5   3  124.29   18.80
   0   5  -3  128.29   18.90
  -1  -5  -3   72.39   23.60
  -1   5  -3   52.09   14.80
   1   5   3   73.79   13.10
  -2   5  -3   40.30   14.50
   2   5   3   37.00   13.30
   3  -5   3   33.70   22.30
   3   5   3   50.89   13.70
  -3   5  -3   70.29   23.30
   4  -5   3  200.58   29.20
   4   5   3  189.88   24.00
  -4   5  -3  162.68   21.60
   5  -5   3   14.20   25.90
   5   5   3   49.00   16.00
  -5   5  -3   64.59   26.60
  -5   5  -3   25.50   13.80
   6  -5   3   38.70   28.10
   6   5   3   16.70   16.00
  -6   5  -3   37.70   26.70
  -7  -5  -3   32.70   20.20
   7  -5   3   44.10   32.10
   7   5   3    1.90   16.30
  -7   5  -3   77.29   32.50
  -5   6   3  -21.70   21.40
   4  -6  -3  -35.40   32.80
  -4   6   3  -16.10   20.00
   4   6  -3   31.30   18.10
   3  -6  -3   54.29   32.80
  -3   6   3   47.10   18.10
   3   6  -3   23.40   16.80
   2  -6  -3   -8.90   38.20
  -2  -6   3    2.40   29.30
  -2   6   3   35.10   16.60
   2   6  -3    8.90   17.10
   1  -6  -3   12.10   30.60
  -1  -6   3   -6.00   29.60
  -1   6   3    3.80   16.50
   1   6  -3   26.90   16.60
   0  -6   3   41.80   30.10
   0   6  -3   16.80   16.90
   0   6   3   32.00   17.30
   1  -6   3  -17.50   29.10
  -1  -6  -3   50.69   31.40
   1   6   3   32.50   23.40
  -1   6  -3   31.90   16.70
   2  -6   3   21.40   31.80
   2   6   3   13.40   19.00
  -2   6  -3   32.40   17.70
   3  -6   3   11.50   33.10
  -3   6  -3  -12.50   17.80
   3   6   3   22.10   19.80
   4  -6   3  -32.50   35.70
  -4   6  -3   -8.00   17.90
   4   6   3    6.80   20.80
   5   6   3   29.00   26.00
  -5   6  -3   -0.80   20.90
 -12   0   4   19.00   18.80
  12   0  -4    3.40    6.40
 -11   0   4   46.60   15.80
  11   0  -4   39.20    5.90
 -10   0   4  109.19   16.00
  10   0  -4  102.99    8.50
   9   0  -4    7.10    3.40
  -9   0   4    4.20   11.20
  -8   0   4   23.80    8.90
   8   0  -4   26.70    3.40
  -7   0   4   88.29   12.00
   7   0  -4   87.79    5.90
  -6   0   4   46.80    7.30
   6   0  -4   45.90    3.70
  -5   0   4  376.56   22.30
   5   0  -4  362.26   25.00
   5   0  -4  373.96   19.30
  -4   0   4  254.17   15.30
   4   0  -4  240.58   12.40
   4   0  -4  219.88   16.20
  -4   0   4  225.68   12.70
  -3   0   4   83.19    5.00
   3   0  -4   66.79    7.70
  -3   0   4   84.39    7.50
  -2   0   4  102.39    6.70
   2   0  -4   90.89    7.40
   2   0  -4   93.49    5.30
   1   0  -4  533.55   27.70
  -1   0   4  568.44   28.40
   0   0   4 9999.00  498.35
  -1   0  -4  675.23   35.60
  -1   0  -4  701.73   35.30
   1   0   4  686.73   35.50
   1   0   4  715.33   35.90
   2   0   4  236.18   14.90
  -2   0  -4  209.58   13.40
  -2   0  -4  238.38   13.30
   2   0   4  226.68   13.90
  -3   0  -4   10.10    3.70
   3   0   4   14.50    4.60
   3   0   4   14.10    3.40
  -3   0  -4    8.80    2.10
  -4   0  -4  849.91   42.10
  -4   0  -4  799.52   44.10
   4   0   4  811.92   44.70
   5   0   4   63.59    9.30
   6   0   4  264.57   20.30
   7   0   4   38.60   11.10
   8   0   4   35.50   15.30
   9   0   4    4.70   16.80
  -9   0  -4    7.70   13.80
 -10   0  -4  125.39   20.90
  10   0   4  123.39   23.20
  11   0   4   20.70   26.20
 -11   0  -4   34.40   22.20
  12  -1  -4   12.70    8.10
 -12  -1   4   16.20   20.70
 -12   1   4   28.60   11.20
  12   1  -4   21.00    6.10
 -12   1   4   29.40   18.20
  11  -1  -4   14.10    6.10
 -11  -1   4   -1.00   15.40
 -11   1   4    9.60   14.10
  11   1  -4   11.10    4.90
 -10  -1   4   64.79   15.00
  10  -1  -4   83.79    9.50
 -10   1   4   62.89   14.40
  10   1  -4   86.19    7.80
  -9  -1   4   69.19   12.80
  -9   1   4   44.00   12.20
  -8  -1   4  155.68   17.20
   8  -1  -4  149.88   10.40
  -8   1   4  151.98   16.40
   8   1  -4  162.18    9.80
  -7  -1   4  394.76   25.40
   7  -1  -4  373.06   20.90
  -7   1   4  373.26   24.70
   7   1  -4  413.76   21.30
  -6  -1   4   80.49    9.90
   6  -1  -4   71.09    5.70
  -6   1   4   78.89    9.70
   6   1  -4   73.09    5.50
  -5  -1   4   55.29    8.00
   5  -1  -4   67.99    8.70
   5  -1  -4   56.69    4.50
  -5   1   4   47.90    8.20
   5   1  -4   49.30    4.40
  -5   1   4   50.59    8.70
   4  -1  -4   98.49   10.00
  -4  -1   4  102.59    8.80
   4  -1  -4   87.99    6.10
  -4  -1   4   92.99    8.30
   4   1  -4   99.19   11.80
   4   1  -4   90.79    5.90
  -4   1   4   96.89    6.20
   3  -1  -4 2123.09  111.69
  -3  -1   4 2274.37  113.29
  -3  -1   4 2299.17  112.09
  -3   1   4 2300.57  111.49
   3   1  -4 2092.59  113.49
  -3   1   4 2261.27  111.79
   3   1  -4 2136.89  111.59
  -3   1   4 2329.07  112.49
  -2  -1   4  473.35   25.40
   2  -1  -4  489.05   25.80
   2  -1  -4  497.35   25.70
  -2   1   4  500.75   25.30
  -2   1   4  512.25   25.10
  -2   1   4  462.55   25.50
   2   1  -4  481.45   26.50
   1  -1  -4  210.78   13.80
  -1  -1   4  239.68   12.50
   1   1  -4  213.98   12.60
  -1   1   4  222.98   12.90
  -1   1   4  215.38   12.00
  -1   1   4  217.58   12.70
   0  -1  -4  352.86   20.50
   0  -1   4  381.16   19.40
   0  -1  -4  365.86   18.90
   0   1   4  383.56   19.70
   0   1   4  345.27   19.20
   0   1   4  365.36   19.10
   0   1  -4  367.46   19.40
  -1  -1  -4 1446.86   75.09
  -1  -1  -4 1486.85   75.99
   1  -1   4 1568.04   74.69
  -1   1  -4 1549.14   78.99
  -1   1  -4 1467.85   74.49
  -1   1  -4 1345.47   74.79
   1   1   4 1481.95   74.99
  -2  -1  -4  487.15   26.90
   2  -1   4  512.45   27.20
  -2  -1  -4  491.15   26.90
   2   1   4  512.15   28.10
   2   1   4  569.94   26.30
  -2   1  -4  495.25   26.40
  -2   1  -4  516.15   28.40
  -2   1  -4  459.35   26.90
  -3  -1  -4  302.27   18.30
   3  -1   4  334.77   18.60
  -3   1  -4  266.07   20.80
  -3   1  -4  294.77   17.60
   3   1   4  342.27   19.60
  -3   1  -4  317.87   17.30
   4  -1   4   13.60    5.30
  -4   1  -4    5.00    5.50
   4   1   4    2.00    4.80
  -4   1  -4    4.30    3.70
   5  -1   4   98.69   11.70
   5   1   4  109.69   11.90
  -5   1  -4  100.69    9.10
   6  -1   4    5.10    7.70
   6   1   4    8.50    8.30
   7  -1   4  225.38   22.10
   7   1   4  244.38   22.90
   8  -1   4  127.89   19.10
   9  -1   4   41.80   18.20
  -9  -1  -4   27.20   14.60
   9   1   4   45.80   18.00
 -10  -1  -4   49.50   19.60
  10  -1   4   19.70   22.10
 -10   1  -4   22.60   18.50
  10   1   4   47.70   22.10
 -11  -1  -4   43.30   24.60
  11  -1   4   12.80   26.50
 -11   1  -4   87.59   23.50
  12  -2  -4   -9.90   10.60
  12   2  -4    3.50    7.00
 -12   2   4   -0.50   17.80
  11  -2  -4  -14.00    8.00
 -11   2   4   -2.90   14.80
  11   2  -4   -2.40    5.90
 -11   2   4   15.40   12.10
 -10  -2   4   90.29   16.00
  10  -2  -4   59.39    8.80
 -10   2   4   87.09   10.70
  10   2  -4   69.09    9.20
 -10   2   4   74.29   14.60
   9  -2  -4   28.80    6.80
  -9  -2   4   45.80   12.70
   9   2  -4   47.60    5.80
  -9   2   4   41.80    8.80
  -9   2   4   37.60   10.80
   8  -2  -4   23.70    6.00
  -8   2   4   37.20    8.80
  -8   2   4   31.10    7.10
   8   2  -4   36.00    6.20
  -7  -2   4   19.50    8.30
   7  -2  -4    9.40    4.30
  -7   2   4    1.90    6.90
   7   2  -4   18.50    4.30
  -7   2   4   16.30    5.10
  -6  -2   4  162.08   14.30
   6  -2  -4  164.78   10.90
  -6   2   4  165.18   11.30
   6   2  -4  173.78   10.70
  -5  -2   4  169.08   12.80
   5   2  -4  149.39    9.70
  -5   2   4  151.38   10.20
  -4  -2   4  252.27   15.60
  -4   2   4  237.68   13.80
   4   2  -4  221.78   13.40
  -3  -2   4  188.58   12.00
  -3   2   4  170.38   10.80
   3   2  -4  163.78   14.60
   3   2  -4  174.58   10.50
  -2  -2   4  665.73   33.70
   2  -2  -4  592.04   35.50
  -2  -2   4  665.03   33.60
   2   2  -4  627.94   33.00
   2   2  -4  624.74   34.50
  -2   2   4  609.24   36.10
  -2   2   4  643.44   33.30
  -1  -2   4  400.66   22.20
   1  -2  -4  404.76   24.40
  -1  -2   4  434.16   21.90
   1  -2  -4  390.66   21.60
  -1   2   4  413.66   22.00
   1   2  -4  392.16   22.50
  -1   2   4  400.66   23.80
   1   2  -4  411.16   22.00
   0  -2   4  127.39    8.70
   0  -2   4  130.09    8.60
   0  -2  -4  122.29    8.60
   0  -2  -4  101.19   10.90
   0   2   4  128.29    8.90
   0   2  -4  128.49    8.50
   0   2   4  114.19   10.60
   1  -2   4  763.12   37.90
  -1  -2  -4  669.63   35.40
  -1  -2  -4  608.84   36.70
   1  -2   4  677.03   35.10
  -1   2  -4  673.43   35.10
   1   2   4  679.13   35.60
  -2  -2  -4  374.46   20.30
  -2  -2  -4  351.86   21.30
   2  -2   4  395.86   20.20
  -2  -2  -4  353.86   20.10
   2   2   4  382.56   20.30
  -2   2  -4  310.57   23.30
  -2   2  -4  372.86   19.50
  -2   2  -4  334.37   21.20
  -3  -2  -4  349.37   21.00
  -3  -2  -4  368.66   20.60
   3  -2   4  380.06   20.90
   3   2   4  373.96   22.50
  -3   2  -4  337.17   19.70
  -3   2  -4  350.96   21.70
   4  -2   4  185.58   13.50
   4   2   4  179.58   15.20
  -4   2  -4  158.78   14.10
   5  -2   4  576.14   35.20
   5   2   4  633.84   36.60
  -5   2  -4  629.84   35.20
   6  -2   4  119.89   17.60
  -6  -2  -4  139.99   17.70
   6   2   4  118.49   17.90
  -7  -2  -4  153.78   22.40
   7  -2   4  162.48   21.30
   7   2   4  166.78   24.30
  -7   2  -4  206.08   19.30
  -8  -2  -4   76.99   17.00
   8  -2   4   54.69   17.70
   8   2   4   65.39   19.00
  -9  -2  -4  171.48   29.20
   9  -2   4  181.88   24.40
   9   2   4  205.48   27.80
  10  -2   4   -6.60   22.30
 -10  -2  -4    6.00   20.50
 -10   2  -4   27.20   19.60
  11  -2   4   45.70   28.90
 -11  -2  -4   21.20   26.30
 -11   2  -4   58.39   25.00
 -11  -3   4   25.10   22.70
  11   3  -4   30.20    9.30
 -11   3   4   43.20   15.70
 -10  -3   4   23.70   17.30
  10   3  -4   41.20    8.50
 -10   3   4   50.69   12.70
 -10   3   4   15.30   14.10
  -9  -3   4   20.80   14.80
  -9   3   4   37.30   11.00
   9   3  -4   27.00    7.50
  -8  -3   4   26.80   12.60
   8   3  -4   32.80    7.50
  -8   3   4   48.00   10.10
  -7  -3   4   32.80   11.40
   7   3  -4   39.50    7.60
  -6  -3   4  165.58   16.70
   6   3  -4  167.78   12.70
  -6   3   4  160.18   14.80
  -5  -3   4   36.70    7.80
  -5   3   4   48.00    7.00
   5   3  -4   49.70    7.50
   4  -3  -4   83.29   13.20
  -4  -3   4   58.49    7.70
  -4   3   4   62.89    8.80
   4   3  -4   62.19    8.70
  -3  -3   4   12.60    4.70
   3  -3  -4    5.80    9.20
  -3   3   4   14.20    5.20
   3   3  -4    8.40    4.70
  -2  -3   4  251.47   14.10
   2  -3  -4  199.68   19.30
   2   3  -4  229.08   14.10
   2   3  -4  206.08   18.60
  -2   3   4  229.58   14.50
  -1  -3   4    2.00    2.80
   1  -3  -4   -5.60    7.70
   1   3  -4    4.10    6.40
  -1   3   4    0.60    4.60
   1   3  -4    8.90    4.60
   0  -3   4  114.19    7.40
   0  -3  -4   84.29   13.20
   0   3   4  117.59    9.60
   0   3  -4  106.79    8.90
   0   3  -4   83.79   10.00
   1  -3   4    8.40    3.30
  -1  -3  -4    6.20    7.40
  -1   3  -4   10.90    4.40
   1   3   4   11.50    5.20
  -1   3  -4   -1.90    4.60
  -2  -3  -4  424.66   28.20
   2  -3   4  457.75   25.00
   2  -3   4  520.55   29.60
  -2   3  -4  398.26   27.80
  -2   3  -4  448.36   24.80
   2   3   4  494.75   25.90
   3  -3   4   47.80    7.20
   3  -3   4   75.19   11.70
   3   3   4   52.89    9.00
   3   3   4   72.09    9.50
  -3   3  -4   67.89    8.10
  -3   3  -4   76.89   13.60
   4  -3   4   48.90    8.30
  -4  -3  -4   68.99   10.40
   4  -3   4   83.19   13.70
   4   3   4   67.19   10.50
   4   3   4   79.39   10.40
  -4   3  -4   65.99   11.30
   5  -3   4  150.28   23.80
  -5  -3  -4  163.68   20.80
   5  -3   4  170.48   16.50
   5   3   4  202.88   18.40
   5   3   4  184.18   19.60
   6  -3   4  402.16   29.60
  -6  -3  -4  416.36   32.00
   6   3   4  448.66   26.10
  -6   3  -4  451.25   36.20
   7  -3   4   66.59   15.20
  -7  -3  -4   70.79   17.10
   7   3   4   44.70    7.80
  -7   3  -4   66.09   15.30
   8  -3   4    3.20   18.80
  -8  -3  -4   17.70   18.40
  -8   3  -4   25.20   15.10
   9  -3   4   42.10   21.50
  -9  -3  -4   16.20   20.70
  10  -3   4   72.29   25.10
 -10  -3  -4   73.89   25.30
 -10   3  -4   97.19   23.40
 -10  -4   4   30.60   22.70
 -10   4   4   36.60   19.60
  -9  -4   4  102.99   19.60
  -9   4   4   97.19   17.10
   9   4  -4  115.99   17.80
  -8  -4   4   11.60   14.50
  -8   4   4   51.39   13.70
   8   4  -4   49.10   10.20
  -7  -4   4    5.10   12.10
   7   4  -4    2.30    9.30
  -7   4   4   -2.60   11.80
  -6  -4   4   12.40   10.90
  -6   4   4    9.30   10.80
   6   4  -4    8.60    9.40
  -5  -4   4  465.55   28.30
   5   4  -4  468.35   27.30
  -5   4   4  408.26   28.80
  -4  -4   4   11.40    6.90
   4   4  -4   35.20    8.60
  -4   4   4   17.50    9.30
  -3  -4   4  464.65   25.20
   3  -4  -4  397.16   35.60
   3   4  -4  476.55   26.50
  -3   4   4  377.76   26.90
   2  -4  -4   87.99   16.70
  -2  -4   4   79.29    8.30
  -2   4   4   75.69   10.10
   2   4  -4   73.29    9.50
   1  -4  -4  186.78   24.00
  -1   4   4  198.28   16.60
   1   4  -4  237.88   16.30
   0  -4  -4    4.20   12.90
   0   4   4    0.10    8.00
   0   4  -4   11.70    7.30
  -1  -4  -4  130.89   22.00
   1   4   4  115.49   14.30
  -1   4  -4  127.99   13.60
   2  -4   4   -9.50   13.80
  -2  -4  -4   26.50   13.50
   2   4   4    5.80    8.20
  -2   4  -4    4.90    7.80
   3  -4   4   95.19   17.90
  -3   4  -4  111.99   23.60
  -3   4  -4   72.09   10.10
   3   4   4   90.19   15.00
   4  -4   4   25.70   21.50
  -4   4  -4   24.10   20.20
   4   4   4   21.90   10.50
   5  -4   4  120.79   23.70
  -5  -4  -4   86.69   15.00
   5   4   4   96.19   13.90
  -5   4  -4  118.79   19.20
  -6  -4  -4   69.29   16.70
   6  -4   4   88.59   22.60
  -6   4  -4   94.49   21.00
   6   4   4   62.89   15.00
   7  -4   4   30.70   16.90
  -7  -4  -4   32.50   19.30
  -7   4  -4   74.29   21.10
   7   4   4   51.29   12.00
  -8  -4  -4   -8.70   20.80
  -8   4  -4    4.20   19.70
  -9  -4  -4   19.20   24.60
  -9   4  -4   27.90   23.10
   9   4   4    9.90    9.90
  -8  -5   4   54.79   17.50
  -8   5   4   95.19   22.20
  -7  -5   4    3.70   13.70
  -7   5   4   21.40   17.80
   6  -5  -4   30.20   28.30
  -6  -5   4   12.20   11.80
   6   5  -4    6.40   12.70
  -6   5   4   52.29   16.40
  -5  -5   4   -3.70   10.50
   5   5  -4    3.50   12.00
  -5   5   4    4.30   14.00
   4  -5  -4    3.10   23.10
  -4  -5   4   33.50    8.80
   4   5  -4   31.50   12.00
  -4   5   4   55.99   13.90
   3  -5  -4   31.00   21.70
  -3   5   4   -4.10   12.10
   3   5  -4   14.90   12.80
   2  -5  -4  125.29   24.00
  -2   5   4  116.99   15.90
   2   5  -4  105.99   14.40
   1  -5  -4   20.60   22.00
  -1  -5   4   23.00   21.00
  -1   5   4   28.90   12.30
   1   5  -4   41.50   12.70
   0  -5  -4   70.29   22.60
   0   5   4   32.50   12.40
   0   5  -4   50.89   12.80
  -1  -5  -4   50.39   22.90
   1  -5   4   29.80   22.80
  -1   5  -4   72.19   15.00
   1   5   4   44.20   13.50
   2  -5   4   34.50   21.80
   2   5   4   62.69   14.00
   3  -5   4   52.39   22.90
  -3   5  -4  -13.40   14.50
   3   5   4    3.90   14.30
   4  -5   4   91.59   26.50
  -4   5  -4   77.89   15.10
   4   5   4   65.19   15.90
  -4   5  -4  137.59   26.30
   5  -5   4   31.30   26.30
  -5   5  -4   50.19   25.30
   6  -5   4  -24.30   28.70
   6   5   4  -22.40   16.90
  -6   5  -4   69.69   28.50
   7  -5   4  -20.50   35.10
   7   5   4   15.40   17.20
  -7   5  -4   31.70   32.00
   4  -6  -4    6.00   35.60
  -4   6   4   -3.00   19.90
   4   6  -4    9.10   18.60
  -3  -6   4  -21.50   30.30
   3  -6  -4  -29.50   32.10
   3   6  -4    4.00   18.90
  -3   6   4   11.40   18.40
   2  -6  -4  -31.60   30.30
  -2  -6   4   33.20   29.30
   2   6  -4   15.10   17.80
  -2   6   4    4.10   17.60
  -1  -6   4  -45.80   28.60
   1  -6  -4   28.30   33.40
  -1   6   4    9.40   17.80
   1   6  -4   45.30   16.90
   0  -6  -4  -31.80   31.90
   0  -6   4    7.80   29.10
   0   6  -4   -0.50   15.70
   0   6   4   45.50   28.20
   1  -6   4  -11.30   30.40
  -1  -6  -4   30.40   33.10
   1   6   4   -6.20   19.20
  -1   6  -4   -4.20   16.80
   2  -6   4   77.29   33.60
   2   6   4   21.40   19.80
  -2   6  -4   17.10   17.60
   3  -6   4  -35.40   34.60
  -3   6  -4   19.20   35.60
  -3   6  -4   13.70   19.50
   3   6   4   25.60   20.40
   4  -6   4   21.90   44.30
  -4   6  -4   18.40   19.10
   4   6   4   -4.10   23.00
  12   0  -5   89.79   11.60
 -12   0   5  100.29   21.20
 -11   0   5  149.49   24.30
  11   0  -5  134.09   11.00
  10   0  -5   74.39    7.80
 -10   0   5   95.89   14.70
   9   0  -5   90.99    8.70
   8   0  -5  125.39    8.40
  -8   0   5  132.69   15.10
   7   0  -5  378.76   19.80
  -7   0   5  359.46   23.90
   6   0  -5  387.66   20.40
  -6   0   5  389.76   23.70
  -5   0   5  200.88   14.10
   5   0  -5  203.38   11.00
   4   0  -5    3.70    5.50
  -4   0   5    1.80    2.30
   4   0  -5    2.50    1.30
  -4   0   5   -2.20    3.60
   3   0  -5 1299.17   69.09
   3   0  -5 1299.57   67.19
  -3   0   5 1387.16   68.69
  -3   0   5 1368.36   67.39
   2   0  -5 1127.69   57.09
   2   0  -5 1117.39   58.39
  -2   0   5 1168.88   58.49
  -1   0   5   70.69    5.10
   1   0  -5   61.59    5.20
   0   0  -5 4238.68  219.88
   0   0   5 4557.44  219.98
   1   0   5  448.86   22.80
  -1   0  -5  421.06   22.80
   2   0   5  233.78   13.90
  -2   0  -5  261.57   13.40
  -2   0  -5  230.58   13.80
   2   0   5  259.27   15.00
  -3   0  -5    3.00    1.80
  -3   0  -5    0.90    3.90
   3   0   5   -3.00    3.70
   4   0   5 1658.33   89.99
  -4   0  -5 1807.52   87.59
  -5   0  -5  138.49    8.40
   5   0   5  100.69   13.70
   6   0   5  135.89   15.30
   7   0   5   11.80   10.90
   8   0   5   50.19   16.30
   9   0   5   27.50   18.00
 -10   0  -5    4.00   17.70
  10   0   5   -1.10   21.90
 -11   0  -5  -14.40   22.70
  11   0   5    4.60   28.50
  12  -1  -5   25.70    8.70
 -12  -1   5    9.50   20.80
 -12   1   5   35.40   18.20
 -12   1   5   47.00   12.40
  12   1  -5   45.00    6.90
 -11  -1   5   69.39   17.40
  11  -1  -5   57.99    8.20
  11   1  -5   65.09    8.60
 -11   1   5   36.90   14.70
  10  -1  -5   42.70    6.40
 -10  -1   5   56.19   13.80
 -10   1   5   26.40   12.20
  10   1  -5   31.80    5.10
   9  -1  -5   37.50    5.50
  -9  -1   5   33.40   11.70
  -9   1   5   21.60   10.60
   9   1  -5   38.90    4.80
   8  -1  -5  430.16   23.10
  -8  -1   5  439.46   29.00
  -8   1   5  408.46   27.00
   8   1  -5  407.06   24.20
  -7  -1   5  401.56   26.50
   7  -1  -5  419.46   22.60
  -7   1   5  425.36   25.80
   7   1  -5  426.56   22.20
   6  -1  -5  148.19    9.10
  -6  -1   5  148.19   13.50
  -6   1   5  133.89   12.80
   6   1  -5  154.08    8.90
  -5  -1   5  134.99   11.00
   5  -1  -5  125.79    8.10
  -5   1   5  142.49   10.90
   5   1  -5  129.19    7.80
  -4  -1   5  553.84   29.90
   4  -1  -5  548.45   30.30
   4  -1  -5  516.35   27.80
  -4   1   5  555.54   29.40
   4   1  -5  514.15   27.60
  -3  -1   5 1602.84   78.29
  -3  -1   5 1544.85   79.29
   3  -1  -5 1538.35   79.19
   3  -1  -5 1517.25   77.89
   3   1  -5 1475.75   77.69
  -3   1   5 1613.34   77.59
  -3   1   5 1582.94   77.89
   3   1  -5 1456.85   80.59
  -3   1   5 1573.74   78.59
  -2  -1   5  519.25   27.00
   2  -1  -5  472.55   26.00
  -2  -1   5  520.55   26.30
  -2   1   5  536.55   25.70
  -2   1   5  518.65   26.20
   2   1  -5  484.55   27.40
  -2   1   5  467.05   26.00
   1  -1  -5    9.40    2.50
  -1  -1   5    8.20    2.40
  -1   1   5    3.90    3.10
  -1   1   5    6.80    2.40
   1   1  -5    3.70    2.60
  -1   1   5    8.50    2.00
  -1   1   5    5.60    1.60
   0  -1  -5  385.06   23.50
   0  -1  -5  418.16   22.70
   0  -1   5  447.96   22.70
   0   1  -5  423.66   22.80
   0   1   5  476.05   22.90
   0   1   5  421.76   22.60
  -1  -1  -5 1423.36   77.09
   1  -1   5 1543.75   77.49
  -1  -1  -5 1444.56   77.79
  -1   1  -5 1469.55   77.39
  -1   1  -5 1413.86   77.39
   1   1   5 1693.83   77.29
  -1   1  -5 1690.03   79.09
   1   1   5 1559.94   77.89
  -2  -1  -5  666.83   35.60
  -2  -1  -5  654.23   35.40
   2  -1   5  688.43   35.90
  -2   1  -5  735.23   37.70
  -2   1  -5  648.94   35.40
   2   1   5  675.93   36.50
  -2   1  -5  634.64   35.10
   2   1   5  735.33   35.00
   3  -1   5   39.30    5.70
  -3  -1  -5   36.60    5.20
  -3  -1  -5   29.70    6.30
  -3   1  -5   33.40    5.40
   3   1   5   33.70    6.00
  -3   1  -5   36.40    5.50
   3   1   5   43.90    5.00
   4  -1   5  246.58   17.50
  -4  -1  -5  271.77   15.30
  -4   1  -5  260.77   15.70
   4   1   5  274.47   18.70
   5  -1   5   25.50    7.10
   5   1   5   35.90    7.50
   6  -1   5   11.20    9.70
   6   1   5    6.80    8.90
   7  -1   5  146.19   20.70
   7   1   5  159.78   19.40
   8  -1   5  -11.80   15.70
   8   1   5   27.20   16.50
  -9  -1  -5   18.50   15.40
   9  -1   5   -5.40   19.20
   9   1   5   12.80   18.60
 -10  -1  -5   38.60   19.30
  10  -1   5   36.90   23.20
 -10   1  -5   46.90   18.70
  10   1   5   10.60   23.00
  11  -1   5   17.00   29.30
 -11  -1  -5   73.49   28.40
  11   1   5  105.79   31.40
 -11   1  -5   89.89   26.10
 -11  -2   5   19.70   17.80
  11  -2  -5   22.90    9.10
  11   2  -5   27.70    6.40
 -11   2   5    1.10   14.70
 -11   2   5   16.20   12.20
 -10  -2   5   62.29   15.20
  10  -2  -5   59.59    9.20
 -10   2   5   64.09   14.40
  10   2  -5   72.69    9.20
 -10   2   5   82.79   11.10
   9  -2  -5   41.20    7.50
  -9  -2   5   34.80   12.40
  -9   2   5   19.10   10.60
  -9   2   5   55.79    8.90
   9   2  -5   49.80    8.10
  -8  -2   5   93.09   13.80
   8   2  -5   86.99    9.40
  -8   2   5   86.09   10.80
   7  -2  -5   11.70    4.60
  -7  -2   5   25.50    8.60
  -7   2   5    9.30    5.40
   7   2  -5   14.50    4.50
  -7   2   5   18.10    7.20
  -6  -2   5   98.99   12.60
   6  -2  -5   91.69    8.10
  -6   2   5   97.09    8.60
   6   2  -5   94.79    7.70
  -5  -2   5  227.98   16.10
   5   2  -5  229.08   13.50
  -5   2   5  246.48   15.70
  -4  -2   5   65.79    8.00
  -4   2   5   65.29    6.40
   4   2  -5   66.49    5.70
  -3  -2   5    8.70    3.50
   3   2  -5    7.50    2.60
  -3   2   5    1.30    3.20
   2  -2  -5   89.89   11.30
   2  -2  -5   98.99    7.40
  -2  -2   5  102.09    7.50
  -2   2   5  107.89    7.60
  -2   2   5   93.09    7.90
  -2   2   5   82.19   12.10
   2   2  -5   86.39   10.50
   2   2  -5  103.89    7.40
  -1  -2   5  631.34   32.60
  -1  -2   5  641.74   32.40
   1  -2  -5  592.24   34.60
   1   2  -5  607.54   33.10
   1   2  -5  621.14   32.10
  -1   2   5  599.34   34.10
  -1   2   5  622.24   32.50
   0  -2  -5  128.49   12.00
   0  -2  -5  145.69    9.70
   0  -2   5  164.88    9.30
   0   2   5  149.88   12.70
   0   2  -5  144.79   10.20
   0   2   5  162.88   10.30
   1  -2   5  248.28   13.40
  -1  -2  -5  226.68   15.50
   1   2   5  247.78   14.40
  -1   2  -5  200.88   17.20
  -1   2  -5  215.88   14.70
  -1   2  -5  240.78   13.60
  -2  -2  -5  368.46   22.00
   2  -2   5  384.76   20.70
  -2  -2  -5  356.36   20.30
   2   2   5  413.46   23.20
  -2   2  -5  346.17   21.40
  -2   2  -5  356.76   21.70
   3  -2   5  280.07   16.90
  -3  -2  -5  266.77   17.40
  -3  -2  -5  257.97   16.90
   3   2   5  258.97   18.40
  -3   2  -5  284.37   17.50
   4  -2   5  105.29   11.30
  -4   2  -5  119.79   11.70
   4   2   5  107.79   13.20
   5  -2   5   87.59   13.00
  -5   2  -5   97.79   12.90
   5   2   5  107.59   15.60
   6  -2   5   27.90   10.90
  -6   2  -5   22.00    9.00
   6   2   5   20.50   11.80
  -7  -2  -5  243.38   26.50
   7  -2   5  208.18   25.70
  -7   2  -5  293.97   21.90
   7   2   5  264.97   29.10
  -8  -2  -5   82.29   17.30
   8  -2   5   75.59   19.30
   8   2   5   89.39   20.10
   9  -2   5   64.29   22.10
  -9  -2  -5   77.79   20.20
   9   2   5  104.99   23.60
 -10  -2  -5   -7.30   22.20
  10  -2   5   66.49   25.40
 -10   2  -5   17.00   21.00
  10   2   5   25.30   27.80
  11  -2   5   34.00   31.90
 -11   2  -5   63.39   27.60
 -11   3   5    4.10   17.00
 -10  -3   5    5.60   16.60
 -10   3   5    4.30   13.20
  10   3  -5    0.90    7.70
  -9  -3   5   54.99   14.60
  -9   3   5   53.89   12.00
   9   3  -5   64.59    8.40
  -8  -3   5   66.29   13.60
   8   3  -5   73.99   10.80
  -8   3   5   98.99   16.20
  -7   3   5    8.20    8.70
   7   3  -5   16.50    6.70
  -6  -3   5  310.77   22.80
  -6   3   5  308.47   21.30
   6   3  -5  332.77   19.50
  -5  -3   5   41.50    8.10
  -5   3   5   46.40    7.20
   5   3  -5   43.50    6.30
   4  -3  -5   55.39   13.10
  -4  -3   5   52.59    7.20
  -4   3   5   44.10    6.70
   4   3  -5   38.70    5.80
  -3  -3   5   44.80    6.20
   3  -3  -5   42.50   11.10
   3   3  -5   50.59    6.10
  -3   3   5   52.69    8.40
   2  -3  -5  282.87   22.60
  -2  -3   5  304.67   17.30
  -2   3   5  284.67   17.90
   2   3  -5  308.27   17.60
   1  -3  -5   51.89    9.60
  -1  -3   5   35.40    5.40
  -1   3   5   57.99    7.90
   1   3  -5   33.00    5.20
   0  -3  -5  320.97   22.90
   0  -3   5  337.57   18.30
   0   3   5  339.27   19.80
   0   3  -5  341.47   19.20
   0   3  -5  309.87   20.40
  -1  -3  -5    4.60    7.90
   1  -3   5    4.10    3.10
   1   3   5   -3.80    5.60
  -1   3  -5    4.00    5.50
  -1   3  -5    0.20    7.00
   2  -3   5  305.07   18.00
   2   3   5  325.07   19.10
  -2   3  -5  295.67   21.20
   3  -3   5    6.40   10.90
   3  -3   5    0.90    5.80
   3   3   5   -6.00    8.60
   3   3   5   15.20    6.40
  -3   3  -5   -3.90    9.20
  -4  -3  -5   11.90    9.60
   4  -3   5    5.20    7.70
  -4   3  -5   35.60   10.80
   4   3   5   16.50   10.30
   5  -3   5    6.50    9.20
  -5  -3  -5    7.30   11.50
  -5   3  -5    1.70   12.20
   5   3   5   11.40   12.20
  -6  -3  -5  411.56   30.90
   6  -3   5  367.76   28.50
  -6   3  -5  390.86   30.30
   6   3   5  389.36   32.40
  -7  -3  -5   64.79   29.70
   7  -3   5   49.10   16.70
   7   3   5   64.19   25.30
  -7   3  -5   27.90   19.20
  -8  -3  -5   44.10   20.40
   8  -3   5   38.60   20.10
  -8   3  -5   41.80   15.30
  -9  -3  -5   -9.20   22.60
   9  -3   5  -30.10   22.90
 -10  -3  -5   48.60   28.60
  10  -3   5   81.89   26.60
 -10   3  -5   36.70   23.10
  -9  -4   5   36.30   17.10
  -9   4   5   53.69   16.90
   9   4  -5   46.70   11.40
  -8  -4   5   -0.20   13.40
   8   4  -5   -4.60    9.70
  -8   4   5   19.40   14.20
  -7  -4   5   -0.80   11.80
  -7   4   5   25.20   13.00
   7   4  -5   19.90    9.40
  -6   4   5    3.50   11.00
   6   4  -5    3.20    8.90
   5  -4  -5  213.68   31.50
  -5  -4   5  228.98   19.00
   5   4  -5  247.38   18.50
  -5   4   5  248.48   20.40
  -4  -4   5   47.30    7.90
   3  -4  -5   -0.40   18.80
  -3  -4   5    9.50    5.80
  -3   4   5   -0.50    9.00
   3   4  -5   16.50    8.00
   2  -4  -5   96.49   18.00
  -2  -4   5   94.39    8.90
   2   4  -5   77.19   12.40
  -2   4   5  106.49   13.90
   1  -4  -5  225.58   26.40
  -1  -4   5  212.78   13.60
  -1   4   5  223.78   18.10
   1   4  -5  221.88   16.60
   0  -4  -5   56.19   14.80
   0   4  -5   43.80    8.50
   0   4   5   51.89    9.80
  -1  -4  -5  162.18   24.90
   1   4   5  175.58   16.20
  -1   4  -5  151.28   14.30
   2  -4   5    7.20   14.90
  -2   4  -5    2.60    7.80
   2   4   5   -1.70    9.30
   3  -4   5   54.69   18.90
   3   4   5   48.40   11.30
   4  -4   5    2.90    9.60
   4  -4   5   -2.30   18.40
   4   4   5   16.90   10.90
  -4   4  -5   -4.00   17.10
   5  -4   5  -16.60   19.90
   5  -4   5  -10.90   11.80
  -5  -4  -5   15.90   14.40
   5   4   5   -7.60   12.40
  -5   4  -5   37.50   19.10
   6  -4   5    6.80   15.20
  -6  -4  -5   41.20   17.30
  -6   4  -5    8.70   18.80
   6   4   5   -0.50   15.20
  -7  -4  -5  -41.20   18.90
   7  -4   5   -3.60   18.00
  -7   4  -5   25.30   18.80
   7   4   5   10.10   11.80
  -8  -4  -5    7.30   22.80
   8  -4   5    1.80   21.00
  -8   4  -5   -5.00   20.90
  -9  -4  -5    4.00   27.20
  -8  -5   5   81.59   17.60
  -7  -5   5   13.70   13.50
   7   5  -5   -0.30   13.60
  -7   5   5   -9.30   17.90
  -6  -5   5   -4.00   11.90
   6   5  -5    3.60   12.20
  -6   5   5   -7.40   16.50
   5  -5  -5   39.20   27.50
  -5  -5   5   30.60   11.80
  -5   5   5   10.00   15.10
   5   5  -5    4.00   12.70
   4  -5  -5   60.99   24.80
  -4  -5   5   28.20    9.30
  -4   5   5   35.00   13.60
   4   5  -5   48.30   12.80
  -3  -5   5   35.40   19.50
   3  -5  -5   52.79   24.10
   3   5  -5   59.09   12.60
  -3   5   5   56.59   13.40
  -2  -5   5   -2.70   20.60
   2  -5  -5  -13.60   22.80
  -2   5   5    9.20   12.10
   2   5  -5   11.50   11.90
   1  -5  -5   28.40   23.50
  -1  -5   5   34.90   21.80
  -1   5   5   43.20   12.80
   1   5  -5   38.70   12.70
   0  -5  -5   -6.80   22.20
   0   5   5    2.90   12.90
   0   5  -5    6.20   12.10
  -1  -5  -5   27.80   23.70
   1  -5   5  -27.80   21.30
  -1   5  -5    0.90   14.40
   1   5   5   22.90   13.00
   2  -5   5   27.90   22.40
   2   5   5   19.30   14.20
  -2   5  -5  -25.40   25.10
  -2   5  -5   -8.40   16.30
   3  -5   5  123.69   29.40
   3   5   5   95.39   16.70
  -3   5  -5   92.99   26.10
  -3   5  -5   46.40   17.40
   4  -5   5    9.70   26.50
   4   5   5   30.10   15.30
  -4   5  -5   -1.70   26.20
   5  -5   5   -3.70   28.40
  -5   5  -5   22.60   29.80
   5   5   5    8.60   16.90
   6   5   5  -35.30   17.20
  -6   5  -5   35.60   29.40
   7   5   5   49.00   17.40
   4  -6  -5   56.89   41.60
   4   6  -5   31.90   19.00
  -4   6   5   -9.50   22.40
   3  -6  -5  -32.60   33.40
  -3  -6   5   34.30   30.80
  -3   6   5    9.80   18.70
   3   6  -5    9.20   17.90
   2  -6  -5   57.49   34.80
  -2  -6   5   60.59   42.00
   2   6  -5  -12.50   17.20
  -2   6   5  -14.20   17.50
   1  -6  -5   28.30   32.70
  -1  -6   5    1.60   29.10
   1   6  -5   38.40   16.90
  -1   6   5  -10.10   17.70
   0  -6   5   26.80   30.00
   0   6   5   31.70   18.70
   0   6  -5   62.09   16.90
   1  -6   5   13.20   31.60
   1   6   5   -7.90   19.90
  -1   6  -5  -26.10   17.10
  -1   6  -5   71.89   35.40
   2  -6   5  -63.09   31.80
  -2   6  -5   30.10   18.00
   2   6   5   13.90   20.70
  -2   6  -5   44.50   37.00
   3  -6   5   63.19   36.00
  -3   6  -5  -12.80   18.70
   3   6   5    5.20   21.80
  -3   6  -5  -24.40   38.90
   4   6   5   88.59   24.50
  -4   6  -5    6.10   20.50
  12   0  -6  249.38   17.30
 -12   0   6  185.88   32.80
 -11   0   6  101.79   17.40
  11   0  -6  107.79   10.50
  10   0  -6    5.50    4.40
 -10   0   6   11.30   11.90
   9   0  -6   16.70    3.90
  -9   0   6   26.40   11.80
   8   0  -6  286.57   15.40
  -8   0   6  245.98   21.10
  -7   0   6  419.56   26.00
   7   0  -6  405.46   21.80
   6   0  -6  700.73   36.80
  -6   0   6  738.83   40.10
  -5   0   6   58.99    7.90
   5   0  -6   63.39    4.50
   4   0  -6   16.00    6.70
  -4   0   6   14.30    3.80
   4   0  -6   11.50    1.70
  -3   0   6   83.79    6.80
   3   0  -6   64.69    8.60
   3   0  -6   86.29    5.00
  -2   0   6   18.70    3.20
  -2   0   6   19.10    2.70
   2   0  -6   10.30    3.50
   1   0  -6  366.66   20.50
  -1   0   6  387.46   20.20
   0   0  -6  347.27   19.50
   0   0  -6  376.86   19.20
   0   0   6  364.26   19.50
  -1   0  -6  482.65   27.60
  -1   0  -6  561.44   27.50
   1   0   6  541.05   27.80
   1   0   6  532.25   28.10
  -2   0  -6  333.07   19.50
   2   0   6  334.57   19.50
  -2   0  -6  357.96   18.20
   2   0   6  334.77   19.50
  -3   0  -6  698.53   34.80
   3   0   6  643.64   36.60
   4   0   6  785.72   44.80
  -4   0  -6  848.82   42.20
   5   0   6   61.19    9.20
  -5   0  -6   68.39    6.10
   6   0   6   30.40   10.70
   7   0   6   -0.30   12.80
   8   0   6  169.38   26.00
   9   0   6   46.80   19.90
 -10   0  -6   20.30   19.40
  10   0   6   25.60   23.80
 -11   0  -6   -3.30   28.60
  11   0   6   -4.00   36.00
 -12  -1   6   34.70   26.70
 -12   1   6   37.60   13.30
 -12   1   6   16.50   18.40
  12   1  -6   21.50    7.10
 -11  -1   6   49.10   17.40
  11  -1  -6   66.39    9.40
  11   1  -6   88.89    9.70
 -11   1   6   98.09   16.30
 -10  -1   6   32.30   13.10
  10  -1  -6   21.40    5.90
  10   1  -6   12.80    4.80
 -10   1   6   20.70   12.20
   9  -1  -6   13.10    5.10
  -9  -1   6   11.50   10.90
  -9   1   6   23.30   11.10
   9   1  -6   17.90    4.10
   8  -1  -6  134.29   10.10
  -8  -1   6  128.19   16.30
   8   1  -6  141.79    9.30
  -8   1   6  125.69   15.40
  -7  -1   6  105.19   13.60
   7  -1  -6  129.19    9.20
   7   1  -6  124.79    8.70
  -7   1   6  118.89   13.00
   6  -1  -6  225.18   12.90
  -6  -1   6  223.58   16.20
  -6   1   6  224.38   15.60
   6   1  -6  220.18   12.40
   5  -1  -6  719.33   36.30
   5  -1  -6  632.74   41.80
  -5  -1   6  713.03   38.80
  -5   1   6  740.63   38.10
   5   1  -6  698.43   36.00
   4  -1  -6   28.00    6.40
  -4  -1   6   41.40    6.30
   4  -1  -6   32.30    3.90
   4   1  -6   46.00    3.80
  -4   1   6   38.60    6.00
   3  -1  -6  717.33   36.40
  -3  -1   6  725.83   37.70
   3  -1  -6  674.33   37.80
  -3   1   6  712.43   36.90
   3   1  -6  685.33   43.70
   3   1  -6  700.53   36.10
  -3   1   6  711.33   36.10
  -3   1   6  731.43   36.40
   2  -1  -6  143.49    8.60
   2  -1  -6  144.09    9.60
  -2  -1   6  143.29    9.30
  -2   1   6  145.79    8.60
  -2   1   6  129.29   10.00
   2   1  -6  144.49    8.30
  -2   1   6  156.08    8.20
   1  -1  -6  237.08   13.60
  -1  -1   6  251.37   13.90
  -1   1   6  243.88   12.80
   1   1  -6  226.18   14.30
  -1   1   6  250.07   13.50
   0  -1  -6  372.66   20.20
   0  -1   6  375.16   20.40
   0  -1  -6  359.56   21.30
   0   1  -6  355.46   20.60
   0   1   6  435.76   20.50
   1  -1   6  892.61   52.59
   1  -1   6 1086.69   52.39
  -1  -1  -6  995.40   53.79
  -1  -1  -6  991.60   51.89
   1   1   6 1129.79   53.39
   2  -1   6   75.29   11.00
  -2  -1  -6  106.59    7.90
   2  -1   6   98.59    7.90
  -2  -1  -6   97.09    7.30
  -2   1  -6  112.69    7.50
  -2   1  -6   92.29    7.60
   2   1   6  113.19    9.50
  -3  -1  -6   31.70    5.80
   3  -1   6   45.10    6.20
  -3   1  -6   39.80    5.70
   3   1   6   41.40    6.40
   4  -1   6   96.89   10.80
  -4  -1  -6  113.39    8.60
  -4   1  -6  110.19    8.70
   4   1   6   95.49   11.80
   5  -1   6    3.40    7.10
  -5  -1  -6   -0.30    4.20
  -5   1  -6    1.80    4.30
   5   1   6    5.30    8.80
   6  -1   6   67.89   11.90
  -6   1  -6   75.99    9.80
   6   1   6   71.89   11.70
   7  -1   6   36.10   14.40
   7   1   6   48.00   15.20
  -7   1  -6   62.89   11.20
   8  -1   6    3.50   16.80
   8   1   6   17.00   16.90
  -9  -1  -6    7.20   16.70
   9  -1   6   -6.60   19.80
   9   1   6   -1.30   20.40
 -10  -1  -6   -8.20   19.70
  10  -1   6   45.70   25.80
  10   1   6   44.10   25.60
  11  -1   6   41.00   32.90
 -11   1  -6   44.10   28.60
 -11  -2   6   39.70   18.10
  11  -2  -6   13.40   10.10
 -11   2   6   17.30   12.70
 -11   2   6   33.30   15.20
  11   2  -6   24.20    6.70
  10  -2  -6   16.70    8.00
 -10  -2   6   20.80   14.10
 -10   2   6   39.40   13.10
  10   2  -6   19.50    6.10
 -10   2   6   32.50   10.20
   9  -2  -6    6.70    6.60
  -9  -2   6    6.00   10.70
  -9   2   6   -4.80    8.50
   9   2  -6   -1.60    5.30
  -9   2   6    6.30   10.40
   8  -2  -6   13.30    5.90
  -8  -2   6    9.20    9.90
  -8   2   6   17.20    8.50
   8   2  -6   21.40    5.00
  -8   2   6   11.20    7.10
  -7  -2   6    1.00    8.10
   7  -2  -6    2.50    5.10
   7   2  -6    2.20    4.50
  -7   2   6    0.40    5.90
  -7   2   6    5.20    6.80
   6  -2  -6    8.10    8.10
  -6  -2   6    3.60    6.60
   6   2  -6    3.60    3.70
   5  -2  -6   94.49    7.80
  -5  -2   6  101.99   10.50
  -5   2   6   84.69    8.10
   5   2  -6  109.79    7.60
  -4  -2   6   62.69    7.50
  -4   2   6   56.59    6.20
   4   2  -6   47.40    5.60
  -3  -2   6   84.49    7.70
  -3   2   6   92.29    7.10
   3   2  -6   76.79    6.40
  -2  -2   6   11.50    3.10
   2  -2  -6   -2.10    6.50
  -2  -2   6    3.40    5.50
   2   2  -6    8.90    2.60
  -2   2   6    6.30    3.60
   1  -2  -6  146.19   10.30
  -1  -2   6  184.58   10.50
   1  -2  -6  166.68   14.00
  -1   2   6  177.68   11.10
   1   2  -6  172.38   10.60
  -1   2   6  171.48   10.70
   0  -2  -6   67.19    6.60
   0  -2   6   73.29    5.90
   0  -2  -6   76.39    9.80
   0   2   6   79.29    7.20
   0   2  -6   71.99    8.30
  -1  -2  -6   18.60    5.60
   1  -2   6   19.60    3.20
  -1  -2  -6   24.70    3.90
   1   2   6   20.60    6.20
  -2  -2  -6    7.50    3.30
  -2  -2  -6   11.00    5.50
   2  -2   6    4.90    3.50
  -2   2  -6    9.30    4.80
   2   2   6   10.60    5.90
  -3  -2  -6   45.90    7.00
   3  -2   6   42.30    6.60
  -3   2  -6   43.00    6.30
   3   2   6   51.09    8.70
   4  -2   6   -4.50    6.70
  -4   2  -6   -3.10    6.50
   4   2   6  -14.60    7.80
   5  -2   6   23.00    9.10
   5   2   6   13.90   10.30
  -5   2  -6   18.80    7.70
   6  -2   6   30.70   11.40
  -6   2  -6   23.90    9.60
   6   2   6   27.50   13.70
   7  -2   6   30.60   16.30
  -7   2  -6    5.30   10.40
   7   2   6   -0.20   25.90
   8  -2   6  -28.30   18.20
  -8  -2  -6    2.70   16.40
   8   2   6   43.60   19.60
  -9  -2  -6   28.90   19.20
   9  -2   6   -1.80   22.10
   9   2   6   38.30   23.50
 -10  -2  -6   33.60   24.50
  10  -2   6   42.70   27.50
  10   2   6   16.20   28.80
 -10  -3   6    2.20   16.10
 -10   3   6   -1.90   14.00
  10   3  -6    0.00    7.90
  -9  -3   6   48.50   14.00
   9   3  -6   23.70    7.90
  -9   3   6   13.50   12.20
  -8  -3   6   42.00   12.50
  -8   3   6   43.80   10.90
   8   3  -6   64.09    8.00
  -7  -3   6   -9.00    9.30
  -7   3   6   12.30    8.70
   7   3  -6    9.70    6.40
  -6  -3   6   72.59   10.90
  -5  -3   6  137.19   13.40
   5   3  -6  135.89   11.10
  -5   3   6  119.99   13.20
  -4  -3   6    9.70    5.80
  -4   3   6   -3.50    6.20
   4   3  -6    8.50    4.80
   3  -3  -6   26.90   11.40
  -3  -3   6   31.30    5.70
  -3   3   6   40.10   10.10
   3   3  -6   27.10    5.20
  -2  -3   6  291.07   17.00
   2  -3  -6  282.37   22.90
   2   3  -6  286.57   17.10
  -2   3   6  287.77   17.80
  -1  -3   6   39.90    6.00
   1  -3  -6   56.09   10.70
  -1   3   6   48.60    6.60
   1   3  -6   60.89    7.80
   0  -3   6  100.29    7.40
   0  -3  -6   67.99   11.40
   0   3   6  103.49   10.50
   1  -3   6    6.60    3.60
  -1  -3  -6   -7.40    8.50
   1   3   6   -4.70    6.40
  -2  -3  -6   84.59   13.00
   2  -3   6   95.69    8.90
  -2   3  -6  107.69   14.30
   2   3   6  104.19   11.20
   3  -3   6   51.09    7.80
  -3  -3  -6   54.19   10.90
  -3   3  -6   56.09   10.00
   3   3   6   38.80   10.50
   4  -3   6   57.69    9.40
   4   3   6   61.89   12.60
  -4   3  -6   71.49   12.20
   5  -3   6   77.99   11.90
  -5  -3  -6   63.19   13.80
   5   3   6   64.89   14.60
  -6  -3  -6   19.80   15.00
   6  -3   6   50.09   13.70
   6   3   6   23.50   17.60
  -6   3  -6   33.10   14.80
  -7  -3  -6   68.69   19.60
   7  -3   6   34.60   27.60
   7   3   6   53.49   20.60
  -7   3  -6   38.20   14.90
  -8  -3  -6   26.80   19.90
   8  -3   6   14.60   20.30
   8   3   6   31.90   23.20
  -9  -3  -6   14.60   24.30
   9  -3   6    5.80   24.00
  -9  -4   6   43.00   17.20
  -9   4   6   65.19   18.70
   9   4  -6   85.79   12.70
  -8  -4   6   34.20   13.90
   8   4  -6   45.10   10.70
  -8   4   6   51.39   15.20
  -7  -4   6   63.19   13.40
   7   4  -6   77.19   10.60
  -7   4   6   56.09   13.50
  -6  -4   6   17.80   10.60
  -6   4   6   17.10   11.40
   6   4  -6   14.20    9.20
  -5  -4   6   36.80    9.50
   5   4  -6   50.69    9.20
  -5   4   6   23.20   10.70
  -4  -4   6    6.50    7.10
  -4   4   6    7.40    9.80
   4   4  -6   16.00   13.00
   3  -4  -6  298.07   33.40
  -3  -4   6  254.47   17.20
   3   4  -6  270.37   18.70
  -3   4   6  214.38   25.10
   2  -4  -6   27.30   17.40
  -2  -4   6   23.50    6.00
  -2   4   6   35.70   10.40
   2   4  -6   31.40    8.20
  -1  -4   6  171.08   11.80
   1  -4  -6  152.98   27.30
  -1   4   6  170.18   17.70
   1   4  -6  179.28   14.50
   0  -4   6    8.90    4.40
   0  -4  -6   23.20   15.70
   0   4   6    3.20    9.50
   0   4  -6    3.20    7.70
  -1  -4  -6   10.50   15.90
   1  -4   6   17.70    4.90
  -1   4  -6   27.10    8.20
   1   4   6   40.90   10.10
  -2  -4  -6   14.40   16.10
   2  -4   6    5.80    6.40
   2   4   6   18.90   10.40
   3  -4   6    4.50   18.90
   3  -4   6    1.60    7.90
  -3   4  -6   24.90   18.00
   3   4   6   25.60   11.70
   4  -4   6   15.90   10.30
  -4   4  -6   20.10   17.20
   4   4   6   10.00   11.90
   5  -4   6   -7.70   13.00
  -5  -4  -6   -4.00   16.30
  -5   4  -6    4.50   15.80
   5   4   6    7.10   13.30
  -6  -4  -6    3.50   19.10
   6  -4   6   18.00   16.60
  -6   4  -6   -0.70   17.80
   7  -4   6   57.19   19.90
  -7  -4  -6   41.30   21.50
  -7   4  -6   47.50   18.90
  -8  -4  -6   13.10   23.00
   8  -4   6  -29.00   22.80
  -8   4  -6   14.60   22.60
  -7  -5   6    5.60   14.10
   7   5  -6   27.10   14.40
  -7   5   6   12.40   19.20
  -6  -5   6   38.30   12.80
  -6   5   6   10.00   16.90
   6   5  -6    5.60   13.50
   5  -5  -6   -1.60   28.10
  -5  -5   6    0.50   10.40
   5   5  -6   11.00   13.20
  -5   5   6    4.80   16.10
   4  -5  -6   94.19   28.20
  -4  -5   6   82.09   14.20
  -4   5   6   81.19   15.30
   4   5  -6   80.59   13.50
  -3  -5   6    6.30   28.10
  -3  -5   6   36.10    8.30
   3  -5  -6   27.00   26.30
  -3   5   6   15.30   13.30
   3   5  -6   14.20   11.30
  -2  -5   6  113.19   24.80
   2  -5  -6  177.18   27.30
  -2  -5   6  119.39   12.30
   2   5  -6  124.69   27.30
   2   5  -6  110.89   18.70
  -2   5   6  134.39   20.70
   1  -5  -6    4.60   23.30
  -1   5   6   21.00   13.30
   1   5  -6   19.60   11.90
   1   5  -6   13.10   23.70
   0  -5  -6   89.09   26.00
   0  -5   6  116.29   24.10
   0   5  -6  170.28   26.50
   0   5  -6  106.99   15.20
   0   5   6  121.19   16.20
  -1  -5  -6   -0.10   24.50
   1  -5   6  -20.10   22.30
  -1   5  -6  -17.10   12.80
  -1   5  -6    9.50   21.90
   1   5   6   -2.10   14.10
   2  -5   6   63.99   24.20
  -2   5  -6   48.30   17.10
   2   5   6   31.40   16.10
  -2   5  -6   72.49   26.80
   3  -5   6  127.29   26.40
  -3  -5  -6  102.49   26.90
  -3   5  -6  147.99   27.50
   3   5   6  101.49   18.00
   4  -5   6   27.10   28.70
  -4   5  -6   59.89   29.70
   4   5   6   12.40   16.70
   5   5   6   44.90   18.00
  -5   5  -6   83.19   30.10
   6   5   6   -7.90   18.00
  -6   5  -6   22.60   27.00
   3   6  -6   34.70   18.60
  -3   6   6   19.60   21.30
  -2  -6   6    4.60   30.30
   2  -6  -6   22.70   35.20
   2   6  -6    2.50   17.30
  -2   6   6   12.40   19.40
   2   6  -6   39.20   35.10
   1  -6  -6   26.50   36.30
  -1  -6   6   33.90   30.30
  -1   6   6   17.20   19.30
   1   6  -6   75.09   35.60
   1   6  -6    6.30   16.80
   0  -6  -6   97.39   40.50
   0  -6   6   97.99   32.10
   0   6  -6   68.09   18.40
   0   6  -6   26.90   37.00
   0   6   6   76.19   20.60
  -1  -6  -6   45.30   38.00
   1  -6   6   51.89   33.20
   1   6   6   63.69   21.30
  -1   6  -6   65.79   18.00
  -1   6  -6  -13.10   38.50
   2  -6   6  -32.70   34.30
  -2   6  -6  -16.30   17.90
   2   6   6   18.10   23.00
  -2   6  -6   27.20   40.40
   3  -6   6   42.90   40.80
  -3   6  -6   19.20   45.40
   3   6   6   55.09   25.10
  12   0  -7   62.19   10.90
 -12   0   7   27.10   19.30
 -11   0   7  110.39   18.30
  11   0  -7  121.39   11.50
 -10   0   7   17.50   11.60
  10   0  -7   12.10    5.00
   9   0  -7   22.10    4.40
  -9   0   7   33.10   11.40
  -8   0   7  553.24   34.30
   7   0  -7   27.70    3.50
  -7   0   7   19.00    7.10
   6   0  -7   92.19    6.50
  -6   0   7  104.89   10.50
  -5   0   7    0.00    4.20
   5   0  -7   -0.60    1.90
  -4   0   7   -0.50    3.50
   4   0  -7   -1.90    1.70
   3   0  -7    1.00    1.50
  -3   0   7    0.80    2.60
   3   0  -7    1.20    5.50
  -3   0   7    2.40    2.50
  -2   0   7  259.17   14.60
   2   0  -7  255.57   13.50
  -1   0   7    5.00    2.10
   1   0  -7    0.10    3.40
   0   0   7  581.14   30.50
   1   0   7   26.90    4.20
  -1   0  -7   25.20    3.60
   1   0   7   19.30    4.00
  -1   0  -7   18.50    3.50
  -2   0  -7 1194.68   58.69
   2   0   7 1110.19   59.99
   3   0   7   96.79   10.50
  -3   0  -7  126.59    7.70
  -4   0  -7  378.06   19.70
   4   0   7  334.67   23.00
   5   0   7   18.80    8.10
  -5   0  -7   19.20    5.30
  -6   0  -7   15.60    4.50
   6   0   7   15.00   11.40
   7   0   7    0.80   13.50
   8   0   7   71.19   18.90
  10   0   7   -6.70   25.20
 -11  -1   7   23.40   16.10
  11  -1  -7   45.20    8.30
 -11   1   7   23.20   14.90
  11   1  -7   49.60    7.10
 -10  -1   7   35.80   13.20
  10  -1  -7   49.90    7.30
  10   1  -7   48.90    6.10
 -10   1   7   39.50   12.80
   9  -1  -7   14.90    5.40
  -9  -1   7    4.90   10.40
   9   1  -7   14.10    4.40
  -8  -1   7   28.30   11.50
   8  -1  -7   32.30    5.70
   8   1  -7   43.20    6.40
  -8   1   7   35.00    9.20
   7  -1  -7   -1.90    3.80
  -7  -1   7    1.30    7.20
   7   1  -7    0.30    3.00
  -6  -1   7   35.80    6.80
   6  -1  -7   38.70    5.20
  -6   1   7   39.10    6.90
   6   1  -7   32.50    4.40
   5  -1  -7  125.99    7.90
  -5  -1   7  108.19   10.30
   5   1  -7  105.49    7.80
  -5   1   7  138.99   10.70
  -4  -1   7  100.39    8.70
   4  -1  -7   87.39   11.60
   4  -1  -7   99.89    6.90
  -4   1   7  113.79    8.50
   4   1  -7  107.89    6.60
  -3  -1   7  257.87   15.20
   3  -1  -7  257.07   14.00
  -3  -1   7  290.47   15.70
   3  -1  -7  213.58   15.80
  -3   1   7  251.47   14.60
  -3   1   7  258.07   14.00
   3   1  -7  251.27   13.60
   2  -1  -7    5.60    2.40
  -2  -1   7    7.50    2.70
   2  -1  -7   10.60    3.70
  -2  -1   7    0.50    3.50
  -2   1   7   11.00    2.40
  -2   1   7   10.40    2.70
   2   1  -7   11.00    2.10
  -2   1   7    9.80    2.40
  -1  -1   7  134.69    8.50
   1  -1  -7  132.59    8.80
   1  -1  -7  121.69   10.40
  -1   1   7  139.99    8.40
   0  -1  -7  301.47   18.10
   0  -1   7  300.17   17.10
   0  -1  -7  299.77   17.00
   0   1   7  345.17   17.30
   0   1   7  300.97   17.30
   1  -1   7  587.44   32.50
  -1  -1  -7  592.74   33.00
   1   1   7  640.54   33.10
  -1   1  -7  646.94   32.10
  -2  -1  -7  101.79    8.60
   2  -1   7  113.29    8.60
  -2   1  -7  114.09    7.70
   2   1   7   96.89    9.60
  -3  -1  -7  425.26   23.50
   3  -1   7  393.16   24.50
   3   1   7  420.76   25.40
  -3   1  -7  450.65   23.20
   4  -1   7   75.09   11.70
  -4  -1  -7   92.39    8.80
  -4   1  -7   99.89    8.50
   4   1   7  100.39   12.20
  -5  -1  -7   15.00    5.10
   5  -1   7   23.90    8.60
  -5   1  -7   23.30    4.80
   5   1   7    6.80    9.60
  -6  -1  -7  111.49   11.70
   6  -1   7  105.69   15.60
   6   1   7  101.99   15.30
   7  -1   7   27.10   15.60
   7   1   7   -9.50   15.10
   8  -1   7   51.99   19.30
   8   1   7   62.59   19.70
   9  -1   7   14.60   21.80
   9   1   7   20.80   23.00
 -10  -1  -7   10.30   21.70
  10  -1   7   -0.40   27.00
  10   1   7   12.60   26.90
 -11  -2   7   21.90   17.90
  11  -2  -7   19.20   10.60
 -11   2   7    1.80   14.50
 -11   2   7   19.50   13.70
  11   2  -7    4.10    7.20
 -10  -2   7   29.70   14.80
  10  -2  -7   36.70    9.20
 -10   2   7   28.10   11.40
 -10   2   7   20.60   13.40
  10   2  -7   28.70    6.50
  -9  -2   7   44.20   11.80
   9  -2  -7   47.90    8.10
   9   2  -7   56.89    6.60
  -9   2   7   48.40    9.80
  -9   2   7   46.50   18.40
   8  -2  -7   13.80    6.80
  -8  -2   7   26.80    9.80
  -8   2   7   31.50   12.40
  -8   2   7   15.80    8.20
  -7  -2   7   45.90   16.00
  -7   2   7   58.89   11.20
  -6  -2   7  154.98   15.00
   6  -2  -7  172.78   12.00
  -6   2   7  160.78   12.50
   6   2  -7  177.38   11.10
  -6   2   7  172.98   13.00
  -5  -2   7   11.20    5.60
  -5   2   7   13.20    4.50
   5   2  -7   12.30    3.60
  -4  -2   7  100.99    9.40
  -4   2   7   83.29    8.00
   4   2  -7   93.39    7.20
  -3  -2   7  347.07   19.40
   3   2  -7  338.67   18.00
  -3   2   7  309.67   18.60
  -2  -2   7  179.58   11.20
  -2   2   7  166.28   11.30
   1  -2  -7   31.40    7.30
  -1  -2   7   33.30    4.70
  -1   2   7   44.00    6.40
   0  -2  -7   18.70    6.50
   0   2   7   16.00    4.30
   0   2   7   22.00    4.60
  -1  -2  -7  218.68   15.70
   1  -2   7  214.18   12.70
  -1  -2  -7  197.08   12.10
   1   2   7  215.28   14.80
  -2  -2  -7  267.47   18.30
  -2  -2  -7  232.38   16.50
   2  -2   7  263.27   16.20
   2   2   7  291.67   18.30
  -2   2  -7  289.57   17.10
   3  -2   7   50.59    7.20
  -3  -2  -7   50.59    7.90
  -3   2  -7   64.09    9.90
   3   2   7   62.59    9.30
  -4  -2  -7  133.09   14.10
   4   2   7  149.29   17.50
  -4   2  -7  152.18   13.70
   5  -2   7   31.30   10.30
  -5   2  -7   43.30    8.80
   5   2   7    6.50   11.60
   6  -2   7   50.39   14.00
  -6   2  -7   52.79   15.10
   6   2   7   79.99   16.90
   7  -2   7   75.49   18.10
   7   2   7   83.69   20.60
  -7   2  -7   97.49   17.00
  -8  -2  -7  -17.10   17.50
   8  -2   7   12.10   19.60
   8   2   7    6.00   21.30
  -9  -2  -7   80.89   22.70
   9  -2   7   28.40   23.90
   9   2   7   77.09   26.70
  10  -2   7   30.50   30.90
 -10  -2  -7   53.49   27.20
  10   2   7   57.79   33.10
 -10  -3   7   -2.30   16.10
  10   3  -7    3.80    8.60
 -10   3   7  -10.40   15.10
  -9  -3   7   29.60   14.20
   9   3  -7   -9.30    7.30
  -9   3   7   12.10   12.90
  -8  -3   7   36.10   12.20
  -8   3   7   43.40   11.20
   8   3  -7   57.09    7.70
  -7  -3   7   44.20   11.00
   7   3  -7   62.39    8.10
  -7   3   7   62.89   10.10
   6   3  -7   67.49   10.10
  -6   3   7   66.79   10.00
  -5  -3   7   45.60    8.60
  -5   3   7   49.99    8.70
   5   3  -7   51.29    6.90
  -4  -3   7  131.49   13.20
   4   3  -7  166.18   11.40
  -4   3   7  122.89   13.20
  -3  -3   7  149.99   12.20
  -3   3   7  160.88   13.30
   3   3  -7  176.88   11.80
  -2  -3   7  232.48   14.60
   2  -3  -7  181.08   21.60
   2   3  -7  236.18   14.60
  -2   3   7  243.98   15.80
   1  -3  -7   22.70   10.80
  -1  -3   7   14.30    4.10
  -1   3   7   20.20    6.70
   1   3  -7   20.60    5.20
   0  -3  -7   28.30   10.00
   0  -3   7   21.40    4.10
   0   3   7   29.20    7.00
   1  -3   7   11.30    3.90
  -1  -3  -7    2.80    9.90
   1   3   7    1.30    7.00
  -2  -3  -7   64.59   11.60
   2  -3   7   68.09    8.70
  -3  -3  -7  105.09   18.40
   3  -3   7   78.99   11.20
   3   3   7   67.49   12.00
   4  -3   7   84.19   14.00
   4   3   7   73.89   13.80
  -4   3  -7   75.09   12.90
   5  -3   7   87.39   13.70
   5   3   7  106.59   17.20
  -5   3  -7  102.89   14.50
  -6  -3  -7   24.30   16.60
   6  -3   7   17.10   17.50
  -6   3  -7    1.90   13.30
   6   3   7    4.80   19.60
  -7  -3  -7   67.09   19.70
   7  -3   7   21.00   18.80
  -7   3  -7   34.30   15.00
   7   3   7   34.70   22.00
   8  -3   7   40.70   22.40
  -8  -3  -7   42.40   22.00
  -8   3  -7   58.59   17.00
   8   3   7   45.40   25.80
   9  -3   7   56.19   27.40
  -9  -3  -7   67.09   28.60
  -9   3  -7  118.19   21.10
   9   3   7  150.58   33.30
  -9  -4   7   39.30   16.90
  -9   4   7   53.59   19.50
   9   4  -7   60.59   17.70
  -8  -4   7   46.20   14.90
  -8   4   7   57.79   15.60
   8   4  -7   68.89   11.20
  -7  -4   7   30.20   12.20
   7   4  -7   12.60    9.80
  -7   4   7   36.80   14.00
  -6  -4   7   16.80   10.70
  -6   4   7   20.10   12.10
   6   4  -7   16.30    9.30
  -5  -4   7  106.39   16.40
  -5   4   7   69.19   12.70
   5   4  -7  116.89   14.30
  -4  -4   7   58.49    9.60
   4  -4  -7   79.29   21.70
   4   4  -7   54.09   10.20
  -4   4   7   66.19   11.70
   3  -4  -7  333.77   41.90
  -3  -4   7  410.66   24.60
   3   4  -7  426.86   25.40
  -3   4   7  438.86   28.00
  -2  -4   7    5.30    5.50
   2   4  -7    3.80    7.90
  -2   4   7  -10.30   12.00
  -1  -4   7   78.39    8.80
  -1   4   7   81.99   12.40
   1   4  -7   87.09   12.10
   0  -4   7   19.80    5.10
   0   4   7   28.00   10.90
   1  -4   7   79.09    9.20
   1   4   7   64.69   12.60
   2  -4   7   19.40    7.20
  -2  -4  -7    2.50   17.90
   2   4   7   39.40   11.90
   3  -4   7   13.10    9.30
   3   4   7   21.40   12.40
  -3   4  -7   25.70   16.30
   4  -4   7   13.40   11.70
  -4   4  -7    3.80   16.60
  -5  -4  -7   12.20   18.30
   5  -4   7    6.30   14.60
   5   4   7    1.60   15.50
  -5   4  -7    8.70   15.80
   5   4   7   -2.80   19.00
  -6  -4  -7   10.60   22.80
   6  -4   7  -33.30   24.30
  -6   4  -7  -20.70   18.40
  -7  -4  -7   56.79   24.50
   7  -4   7   50.69   21.50
  -7   4  -7   83.79   21.70
  -8  -4  -7   -5.60   26.10
   8  -4   7   12.20   24.90
  -7  -5   7   18.50   15.30
  -6  -5   7   32.90   12.80
   6   5  -7   27.80   16.70
  -6   5   7   31.90   18.20
  -5  -5   7  -11.10   10.80
   5   5  -7   21.90   12.70
  -5   5   7  -13.40   16.20
  -4  -5   7    5.10    9.40
   4  -5  -7   45.50   28.60
   4   5  -7   -0.70   12.60
  -4   5   7   20.00   15.60
   3  -5  -7    0.50   26.50
  -3  -5   7  -10.90    8.50
  -3   5   7   -3.50   13.80
   3   5  -7   29.70   12.40
   2  -5  -7   55.09   27.10
  -2  -5   7   68.49   22.60
  -2  -5   7   66.29    9.20
   2   5  -7   63.89   12.50
  -2   5   7   92.89   16.10
   2   5  -7   76.19   26.10
   1  -5  -7   58.59   25.70
  -1  -5   7    4.80    6.60
  -1   5   7   23.00   14.70
   1   5  -7   16.00   12.40
   0  -5  -7   95.79   26.40
   0  -5   7   72.79   23.30
   0   5   7   72.59   15.40
   0   5  -7   92.19   24.10
   0   5  -7   39.40   13.20
  -1  -5  -7   14.60   25.20
   1  -5   7   19.10   23.80
  -1   5  -7    3.40   26.70
   1   5   7    0.50   14.60
  -1   5  -7   13.10   13.50
  -2  -5  -7  -12.60   25.50
   2  -5   7   29.90   24.40
   2   5   7   28.40   16.40
  -2   5  -7  -27.60   28.20
  -3   5  -7  -17.20   26.00
   3   5   7   16.40   17.20
   4   5   7   35.80   17.50
  -4   5  -7   45.50   23.30
   5   5   7    5.10   18.20
  -5   5  -7   33.70   25.10
   3   6  -7   31.20   20.00
  -2  -6   7   -3.70   36.90
   2  -6  -7   -5.70   59.29
   2   6  -7    1.30   18.10
  -2   6   7   27.60   23.00
   2   6  -7    9.20   37.60
  -1  -6   7   61.69   32.20
   1  -6  -7    0.50   40.90
   1   6  -7   23.20   36.00
  -1   6   7   28.50   21.90
   1   6  -7   17.20   18.30
   0  -6  -7   67.59   41.00
   0  -6   7   43.40   31.90
   0   6  -7  100.69   38.50
   0   6  -7   10.60   17.90
   1  -6   7   42.60   35.30
  -1   6  -7  122.09   41.10
   1   6   7   27.10   23.20
  -1   6  -7   -0.30   18.20
  -2  -6  -7   68.99   49.40
   2  -6   7  -15.40   38.60
  -2   6  -7   -5.10   44.00
   2   6   7   -7.90   25.00
  11   0  -8   21.70    6.90
 -11   0   8   -3.60   14.00
  10   0  -8  163.98   12.30
 -10   0   8  148.79   20.60
  -9   0   8    7.70   10.30
  -8   0   8  106.89   17.40
   8   0  -8  111.89    8.70
  -7   0   8   21.70    7.30
   7   0  -8   29.50    4.00
  -6   0   8    1.10    5.40
   6   0  -8    6.10    2.60
  -5   0   8    8.70    4.60
   5   0  -8    8.70    2.50
   4   0  -8  117.89    7.10
  -4   0   8  116.59    9.10
  -3   0   8    7.70    3.20
   3   0  -8    4.30    1.80
  -2   0   8    1.50    2.40
   2   0  -8    3.40    1.80
  -1   0   8   32.80    4.20
   0   0   8  291.37   16.50
  -1   0  -8   41.00    4.50
   1   0   8   31.30    4.40
   2   0   8  175.48   13.00
  -2   0  -8  209.08   11.50
   3   0   8  113.49   11.00
  -3   0  -8  109.29    7.70
  -4   0  -8    1.10    3.20
   4   0   8    9.20    7.20
   5   0   8  178.48   18.00
  -5   0  -8  187.18   12.30
   6   0   8   29.20   13.30
  -6   0  -8   39.90    6.20
   7   0   8   51.39   16.50
   8   0   8    2.60   18.70
  -8   0  -8    9.50    7.60
   9   0   8   48.60   23.50
  10   0   8    3.50   30.50
 -11  -1   8   73.19   17.40
  11  -1  -8  101.39   14.20
 -11   1   8   36.20   15.50
  11   1  -8   79.69   11.20
  10  -1  -8    1.80    6.90
 -10  -1   8   -3.00   12.60
  10   1  -8    6.80    5.60
 -10   1   8   16.00   11.40
  -9  -1   8   63.99   11.80
   9  -1  -8   45.90    6.70
   9   1  -8   59.79    7.60
  -9   1   8   37.50   11.30
  -8  -1   8   50.69   10.60
   8  -1  -8   45.70    6.20
  -8   1   8   40.40    9.70
   8   1  -8   59.19    6.70
   7  -1  -8   21.30    6.40
  -7  -1   8   19.10    8.20
   7   1  -8   18.20    3.70
  -7   1   8    6.30    7.10
  -6  -1   8   41.00    7.10
   6  -1  -8   43.80    6.10
   6   1  -8   57.19    5.30
  -6   1   8   52.79    7.10
   5  -1  -8  137.79    9.20
  -5  -1   8  134.79   11.60
   5   1  -8  142.69    8.60
  -5   1   8  159.88   11.10
   4  -1  -8  101.49    6.90
  -4  -1   8   87.99    8.70
   4   1  -8   91.19    6.10
  -4   1   8   95.99    8.90
   3  -1  -8  328.87   23.10
   3  -1  -8  410.66   20.90
  -3  -1   8  391.66   21.90
  -3   1   8  409.26   21.40
  -3   1   8  401.46   20.80
   2  -1  -8   52.09    7.80
   2  -1  -8   55.79    5.30
  -2  -1   8   67.19    6.00
  -2   1   8   65.79    5.60
  -2   1   8   68.39    5.10
  -2   1   8   62.49    5.30
  -1  -1   8  183.58   11.40
   1  -1  -8  181.08   12.10
  -1   1   8  197.58   11.20
   0  -1  -8  119.79    8.80
   0  -1  -8  119.69   10.00
   0  -1   8  122.59    8.10
   0   1   8  117.89    8.40
   1  -1   8  151.58   10.40
  -1  -1  -8  168.08   11.70
   1   1   8  165.78   11.20
  -2  -1  -8   -1.80    4.20
   2  -1   8    7.60    3.90
   2   1   8   10.50    5.20
   3  -1   8  152.88   13.40
   3   1   8  175.88   14.50
  -3   1  -8  187.38   11.30
   4  -1   8   84.99   12.50
  -4  -1  -8   79.19    9.40
   4   1   8   68.69   10.40
  -5  -1  -8    4.10    5.80
   5  -1   8    1.30    9.70
  -5   1  -8    0.40    5.00
   5   1   8   -9.70   10.30
   6   1   8   -3.90   16.70
   7  -1   8   44.50   16.90
  -7   1  -8   47.80    8.40
   8  -1   8   79.49   20.20
  -8   1  -8   71.79   13.80
   8   1   8   69.49   21.60
   9  -1   8    0.10   24.40
  -9   1  -8   19.30    9.50
   9   1   8   19.10   24.50
  10  -1   8   56.49   32.60
  10   1   8   23.10   37.30
  11  -2  -8   32.50   15.20
 -11   2   8   28.00   14.30
 -11   2   8   44.60   20.20
 -10  -2   8  -11.60   13.20
  10  -2  -8   31.80   10.80
  10   2  -8   13.80    6.70
 -10   2   8   -9.10   12.30
 -10   2   8   19.40   11.80
  -9  -2   8  -13.60   10.70
   9  -2  -8    1.90    7.70
   9   2  -8    2.10    5.60
  -9   2   8    1.10    9.60
  -9   2   8   18.90   10.70
  -8  -2   8   25.10    9.80
   8  -2  -8   11.20    6.90
  -8   2   8   19.00    8.20
  -8   2   8    8.60    8.20
   8   2  -8   16.00    5.30
   7  -2  -8  148.29   12.60
  -7  -2   8  140.39   15.80
  -7   2   8  151.78   13.50
   7   2  -8  145.59   10.90
  -7   2   8  138.99   13.60
   6  -2  -8   29.40    5.90
  -6  -2   8   18.90    7.60
   6   2  -8   25.20    4.90
  -6   2   8   19.70    6.50
  -5  -2   8   14.40    6.20
  -5   2   8    3.60    5.10
   5   2  -8   16.60    4.00
  -4  -2   8  226.68   15.60
   4   2  -8  247.08   13.40
  -4   2   8  214.98   14.40
  -3  -2   8  101.79    9.00
   3   2  -8  114.49    7.80
  -3   2   8  106.59    9.10
  -2  -2   8  241.38   14.70
  -2   2   8  240.08   14.90
   1  -2  -8   59.49    9.40
  -1  -2   8   81.69    6.60
  -1   2   8   61.39    8.30
   0  -2  -8  249.18   18.30
   0  -2   8  246.08   14.40
   0   2   8  238.98   15.30
  -1  -2  -8   58.39   10.80
  -1  -2  -8   28.40    5.40
   1  -2   8   40.90    5.70
   1   2   8   35.60    6.50
  -2  -2  -8  203.68   16.90
   2  -2   8  212.68   14.20
   2   2   8  227.08   16.70
   3  -2   8  127.79   13.20
  -3  -2  -8  119.69   14.40
   3   2   8  150.68   15.30
  -3   2  -8  157.28   12.90
  -4  -2  -8  269.77   21.10
   4  -2   8  251.47   20.70
  -4   2  -8  315.57   20.00
   4   2   8  303.47   23.50
   5  -2   8   27.00   11.50
  -5  -2  -8   20.70   10.40
   5   2   8   35.80   13.80
   6  -2   8   54.59   15.50
  -6   2  -8   93.29   16.00
   7  -2   8   32.90   17.90
   7   2   8   73.29   20.60
  -7   2  -8   56.99   11.20
   8  -2   8   18.50   22.30
   8   2   8    3.20   22.80
  -9  -2  -8   51.69   23.30
   9  -2   8   21.30   27.40
  -9   2  -8   61.39   14.30
   9   2   8  105.49   29.50
 -10  -3   8   52.39   19.00
  10   3  -8   60.29   12.10
 -10   3   8   50.29   18.30
  -9  -3   8   32.70   14.20
   9   3  -8   46.60    8.20
  -9   3   8   49.99   15.20
  -8  -3   8   60.69   13.10
   8   3  -8   52.79    7.90
  -8   3   8   41.90   11.50
  -7  -3   8    6.70    9.60
  -7   3   8    0.50    9.80
   7   3  -8    7.00    6.60
  -6  -3   8  191.28   17.70
  -6   3   8  177.58   17.20
   6   3  -8  171.38   13.90
  -5  -3   8   36.50    8.90
   5   3  -8   50.59    7.20
  -4  -3   8  110.49   12.10
   4   3  -8  115.29   10.40
  -4   3   8  109.29   13.40
  -3  -3   8    1.70    5.40
   3   3  -8    0.70    5.30
  -3   3   8   11.40    7.40
  -2  -3   8  110.19    9.70
  -2   3   8  119.79   13.10
   2   3  -8  120.69    9.70
   1  -3  -8   74.09   13.30
  -1  -3   8   77.89    7.90
  -1   3   8   80.69   11.50
   0  -3   8    4.90    4.20
   0  -3  -8    9.10   12.20
   0   3   8   14.70    7.60
   1  -3   8   24.10    5.30
  -1  -3  -8   14.00   11.40
   1   3   8   31.60    8.50
  -2  -3  -8   -8.60   11.70
   2  -3   8    3.40    6.00
   3  -3   8   52.79    9.30
  -3  -3  -8   50.99   13.80
   3   3   8   56.19   13.20
  -3   3  -8   62.49   12.20
   4  -3   8   10.40   10.10
  -4   3  -8    7.50   11.60
   4   3   8   -6.90   18.50
   5  -3   8   72.39   16.30
  -5   3  -8   63.99   12.90
   5   3   8   63.29   18.60
   6  -3   8   39.40   16.20
  -6   3  -8   23.40   13.00
   6   3   8   35.20   21.00
   7  -3   8   35.00   19.30
  -7  -3  -8   18.10   19.80
  -7   3  -8    2.50   15.20
   7   3   8  -32.40   22.50
   8  -3   8   31.30   25.10
  -8  -3  -8    6.30   24.30
   8   3   8   29.30   26.50
  -8   3  -8    6.60   32.70
  -9  -4   8   18.30   17.80
  -8  -4   8   18.80   14.40
  -8   4   8   17.40   16.40
  -7  -4   8   -6.20   12.10
   7   4  -8    1.30    9.40
  -7   4   8  -10.10   13.60
  -6  -4   8   29.00   11.30
  -6   4   8   30.30   12.60
   6   4  -8   16.60    9.50
  -5  -4   8  115.89   15.60
   5   4  -8  121.89   14.90
  -5   4   8   94.79   14.30
  -4  -4   8    3.70   12.20
   4  -4  -8    8.20   22.00
   4   4  -8   -9.10    8.70
  -4   4   8   11.60   11.20
  -3  -4   8  161.28   14.30
   3  -4  -8  193.28   33.20
  -3   4   8  124.49   19.00
  -2  -4   8   17.30    6.30
   2  -4  -8    3.70   19.30
  -2   4   8   38.10   13.00
   2   4  -8   18.60    8.50
  -1  -4   8    0.80    5.70
   1  -4  -8   14.80   18.40
   1   4  -8    9.90    7.70
   0  -4  -8   31.90   17.90
   0   4   8   42.50   12.20
  -1  -4  -8   63.79   20.00
   1  -4   8   90.99   10.70
   1   4   8   96.49   14.10
  -2  -4  -8   20.70   18.80
   2  -4   8   13.20    7.90
   2   4   8   -1.90   12.60
  -2   4  -8   11.70   16.90
  -3  -4  -8   17.70   20.50
   3  -4   8   -3.40   10.30
  -3   4  -8   51.99   16.00
   4  -4   8   22.20   13.60
  -4   4  -8   -8.00   15.60
   5  -4   8   20.50   16.60
  -5  -4  -8  -17.30   19.40
  -5   4  -8    1.70   18.00
   6  -4   8  -26.40   18.80
  -6  -4  -8  -22.60   21.80
  -6   4  -8   22.10   18.80
   6   4   8   22.40   28.10
   7  -4   8   31.00   23.10
  -7  -4  -8   -0.50   24.80
   7   4   8    1.00   29.40
  -7   4  -8   24.50   23.10
  -6  -5   8   12.50   13.60
   6  -5  -8   23.90   36.80
  -6   5   8   29.90   20.00
   6   5  -8   17.90   14.40
   5  -5  -8  -28.60   32.30
  -5  -5   8    9.70   11.60
   5   5  -8   -2.10   13.70
  -5   5   8  -12.20   17.20
   4  -5  -8    1.10   30.50
  -4  -5   8   14.00    9.90
   4   5  -8  -17.40   12.40
  -4   5   8   15.50   16.30
   3  -5  -8   53.29   29.20
  -3  -5   8   -6.10    8.40
  -3   5   8   -6.10   15.40
   3   5  -8    8.30   12.30
  -2  -5   8   17.10    9.00
   2  -5  -8   13.30   28.60
  -2   5   8    6.10   15.70
   2   5  -8  -11.30   11.60
   2   5  -8  -36.10   25.00
  -1  -5   8   20.60    8.50
   1  -5  -8   25.60   27.40
   1   5  -8  -13.90   24.00
  -1   5   8   20.40   16.00
   1   5  -8   23.20   13.10
   0  -5   8   -0.30    7.80
   0  -5  -8    2.60   26.50
   0   5   8  -15.50   16.40
   0   5  -8   -7.60   23.40
   0   5  -8  -26.70   12.20
  -1  -5  -8    2.60   27.20
   1  -5   8   25.30    9.50
  -1   5  -8   23.50   27.10
   1   5   8   -4.90   16.00
  -2  -5  -8   41.70   28.80
   2  -5   8   26.60   11.70
  -2   5  -8   24.80   24.10
   2   5   8   31.80   17.70
  -3  -5  -8   54.79   29.40
   3   5   8   20.00   18.50
  -3   5  -8   13.00   26.70
   4   5   8   16.50   18.10
  -4   5  -8    8.30   25.70
  -5   5  -8  -15.20   31.80
   1   6  -8   11.40   18.20
   1   6  -8  -46.80   37.30
   0   6  -8  -10.70   17.80
   0   6   8  -27.70   25.50
  11   0  -9  117.79   14.00
  10   0  -9  186.48   13.50
 -10   0   9  157.08   20.60
   9   0  -9    2.00    4.90
  -9   0   9    5.20   10.10
  -8   0   9   23.20    9.90
   8   0  -9   35.20    8.50
   7   0  -9   84.39    9.40
  -7   0   9   91.89   12.70
   6   0  -9  473.95   24.10
  -6   0   9  427.86   26.80
  -5   0   9   58.79    8.40
   5   0  -9   62.49    5.50
  -4   0   9   17.90    4.50
   4   0  -9   32.20    3.90
   3   0  -9  258.07   13.50
  -3   0   9  238.78   14.80
  -2   0   9    3.80    2.90
  -1   0   9   -0.30    2.60
   0   0   9   59.39    5.70
  -1   0  -9    0.20    3.10
  -2   0  -9    9.20    3.20
   2   0   9    2.70    4.90
  -3   0  -9    9.10    3.50
   3   0   9    7.10    6.70
  -4   0  -9  409.96   21.40
   4   0   9  322.97   25.00
  -5   0  -9  318.17   17.90
   5   0   9  222.88   24.70
   6   0   9   45.50   15.10
  -6   0  -9   90.49   11.00
   7   0   9  115.29   20.10
   8   0   9   31.70   21.60
   9   0   9   55.49   26.90
  11  -1  -9   63.69   11.30
 -11  -1   9   27.90   16.30
  11   1  -9   49.00    8.60
 -11   1   9   46.80   15.20
 -10  -1   9   31.10   13.50
  10  -1  -9   68.79    9.10
 -10   1   9   53.99   13.00
  10   1  -9   46.60    7.20
  -9  -1   9    6.90   10.70
   9  -1  -9    8.40    6.50
  -9   1   9    2.30   10.50
   9   1  -9    9.10    5.20
   8  -1  -9   74.79    9.60
  -8  -1   9   65.79   11.10
   8   1  -9   75.39    8.00
  -8   1   9   89.39   14.60
  -7  -1   9  166.78   20.50
   7  -1  -9  234.58   15.80
  -7   1   9  220.28   16.90
   6  -1  -9   93.09    8.70
  -6  -1   9  100.19   12.00
   6   1  -9   96.29    7.40
  -6   1   9  106.09   10.70
   5  -1  -9   44.40    5.90
  -5  -1   9   35.00    6.30
  -5   1   9   53.99    7.70
   5   1  -9   36.80    4.70
  -4  -1   9   18.70    4.80
   4  -1  -9   11.80    3.50
   4   1  -9   13.90    2.70
  -4   1   9   20.30    3.90
  -4   1   9    8.70    4.10
  -3  -1   9  811.92   43.90
   3  -1  -9  854.31   42.90
  -3   1   9  852.71   42.80
   3   1  -9  804.12   42.20
  -3   1   9  832.42   43.30
  -2  -1   9  258.37   15.20
   2  -1  -9  255.37   14.40
  -2   1   9  248.08   14.70
  -2   1   9  254.17   14.30
  -1  -1   9   95.39    7.50
  -1   1   9  102.39    7.50
   0  -1  -9   68.29    9.30
   0  -1   9   75.59    6.60
   0   1   9   75.09    6.80
   1  -1   9  278.97   17.50
  -1  -1  -9  309.87   18.60
   1   1   9  311.17   18.20
   2  -1   9  283.87   19.70
  -2  -1  -9  339.17   20.00
  -2   1  -9  354.46   18.50
   2   1   9  333.77   20.60
  -3  -1  -9   14.00    5.50
   3  -1   9   11.00    6.80
  -3   1  -9   17.10    4.00
   3   1   9   23.50    7.80
   4  -1   9   97.59   12.90
  -4  -1  -9  104.09   12.10
   4   1   9  111.09   16.30
  -4   1  -9  135.09   10.40
  -5  -1  -9   65.99    9.20
   5  -1   9   52.69   13.20
   5   1   9   86.89   15.10
  -5   1  -9   65.59   11.90
   6  -1   9  100.79   17.10
  -6   1  -9  135.99   13.30
   6   1   9  183.18   26.50
   7  -1   9   12.90   17.30
  -7  -1  -9   24.30   10.00
  -7   1  -9   30.50    8.20
   7   1   9   20.50   17.90
   8  -1   9   12.60   22.00
  -8   1  -9    2.30    9.00
   8   1   9    3.30   22.40
   9  -1   9  -15.90   27.30
   9   1   9   38.10   27.80
 -10  -2   9   29.80   14.70
  10  -2  -9   17.30   10.90
 -10   2   9   19.80   12.90
 -10   2   9   14.30   11.90
  10   2  -9   20.40    6.90
   9  -2  -9   52.19   10.00
  -9  -2   9   40.70   12.40
   9   2  -9   58.79    7.40
  -9   2   9   21.50   17.20
  -9   2   9   52.99   11.60
   8  -2  -9   16.60    7.70
  -8  -2   9   13.40    9.70
  -8   2   9   22.10    9.00
  -8   2   9   17.80    8.90
   8   2  -9   14.50    5.80
   7  -2  -9   13.50    7.60
  -7  -2   9   15.50    9.30
  -7   2   9    2.30    6.90
  -7   2   9   11.80    8.00
   7   2  -9    9.50    5.30
  -6  -2   9  103.89   15.70
  -6   2   9  128.19   11.40
   6   2  -9  134.59   10.50
  -5  -2   9   39.30    8.10
   5   2  -9   61.69    6.90
  -5   2   9   41.60    7.10
  -4  -2   9  101.59   10.20
  -4   2   9   93.09   10.00
   4   2  -9   98.39    7.90
   3  -2  -9   -4.90    9.30
  -3  -2   9   10.00    4.30
   3   2  -9   13.80    3.50
  -3   2   9    3.10    5.40
   2  -2  -9  416.06   26.40
  -2  -2   9  503.05   26.60
  -2   2   9  494.45   26.30
  -2   2   9  464.95   25.20
   1  -2  -9   74.29   13.90
  -1  -2   9   63.49    6.60
   1  -2  -9   48.50    6.60
  -1   2   9   65.99    7.10
  -1   2   9   69.79    9.00
   0  -2  -9   49.30    9.40
   0  -2   9   66.19    6.60
   0   2   9   55.79    8.30
   1  -2   9   66.09    7.50
  -1  -2  -9   59.69    9.50
   1   2   9   72.59   10.50
  -2  -2  -9  177.78   16.90
   2  -2   9  174.48   13.40
   2   2   9  184.48   15.90
  -3  -2  -9   13.00    9.20
   3  -2   9    6.50    7.40
  -3   2  -9   21.90    6.90
   3   2   9    9.60    9.40
   4  -2   9   40.30   10.80
  -4  -2  -9   34.10   10.80
   4   2   9   17.70   12.40
  -4   2  -9   38.10    8.80
  -5  -2  -9   34.40   12.60
   5  -2   9   54.29   13.70
  -5   2  -9   50.19    9.60
   5   2   9   78.89   17.50
   6  -2   9   88.09   18.00
   6   2   9  107.89   21.50
  -6   2  -9  136.79   16.10
   7  -2   9   22.60   19.00
   7   2   9    9.40   21.60
  -7   2  -9   28.10   11.40
   8  -2   9   -2.10   24.20
   8   2   9   49.00   25.70
  -8   2  -9   32.70   13.00
  -9  -2  -9   10.40   25.90
   9  -2   9    5.30   30.90
   9   2   9  101.19   34.10
  -9  -3   9  -10.40   13.00
  -9   3   9   -7.90   14.20
   9   3  -9    7.80    7.90
  -8  -3   9   13.60   12.10
  -8   3   9    3.30   12.50
   8   3  -9  -14.00    7.10
  -7  -3   9   27.80   11.00
  -7   3   9   38.20   11.10
   7   3  -9   30.50    8.70
  -6  -3   9   49.60   10.30
  -6   3   9   16.40   10.30
   6   3  -9   47.20    7.10
  -5  -3   9   12.40    8.40
  -5   3   9   16.60    9.40
  -4  -3   9    7.10    6.90
   4   3  -9    2.60    6.00
  -4   3   9   -0.10    9.20
   3  -3  -9  170.68   27.10
  -3  -3   9  198.88   14.70
  -3   3   9  194.98   16.90
   3   3  -9  194.18   13.50
  -2  -3   9   63.29    8.70
  -2   3   9   64.39    9.20
  -1  -3   9   55.69    8.20
   1  -3  -9   60.69   15.00
  -1   3   9   65.79    9.10
   0  -3   9   67.89    8.60
   0  -3  -9   63.39   14.70
   0   3   9   90.89   13.70
  -1  -3  -9  134.29   22.10
   1  -3   9  115.29   11.00
   2  -3   9   25.00    7.40
   2   3   9    8.30   11.30
  -2   3  -9   24.90   10.60
  -3  -3  -9   40.70   14.70
   3   3   9   51.09   13.70
  -4  -3  -9   11.50   15.60
  -4   3  -9    9.60   11.70
   4   3   9   -3.10   15.50
   5  -3   9   16.20   14.60
   5   3   9   29.50   22.00
  -5   3  -9   10.70   12.70
   6  -3   9   81.39   19.60
   6   3   9  106.69   25.50
  -6   3  -9  119.99   20.90
   7  -3   9   37.70   21.50
   7   3   9   -1.20   25.40
  -7   3  -9    9.90   16.30
  -8  -3  -9   24.10   26.60
   8  -3   9  -13.00   27.60
  -8   3  -9   25.90   19.70
   8   3   9    1.30   29.90
  -8  -4   9   -6.20   15.20
   8   4  -9   12.70   11.20
  -8   4   9    3.30   18.10
  -7  -4   9   51.79   13.90
  -7   4   9   24.80   15.70
   7   4  -9   19.50   10.20
  -6  -4   9   17.60   11.00
   6   4  -9    8.30    9.20
  -6   4   9   25.20   14.30
  -5  -4   9   53.49   11.20
   5   4  -9   78.19   10.20
  -5   4   9   41.70   13.60
  -4  -4   9    1.00    8.10
   4   4  -9    8.10    8.80
  -4   4   9   12.40   12.40
   3  -4  -9   -0.40   22.00
  -3  -4   9    3.00    7.30
   3   4  -9   10.20   11.70
  -3   4   9   17.90   12.20
   2  -4  -9   29.50   20.70
  -2  -4   9   17.20   10.00
  -2   4   9   -5.40   12.00
   2   4  -9    5.90    8.60
   1  -4  -9  115.79   22.30
  -1  -4   9  147.39   13.00
   0  -4  -9   14.60   20.30
   0  -4   9   21.00    7.40
  -1  -4  -9   55.59   20.40
   1  -4   9   76.59   12.60
   1   4   9   84.99   15.30
   2  -4   9   25.90   10.80
  -2  -4  -9   33.70   20.20
   2   4   9   34.10   14.40
  -2   4  -9   13.30   16.60
  -3  -4  -9   -5.80   22.30
   3  -4   9   17.00   12.50
  -3   4  -9   23.90   16.40
   4  -4   9    1.90   13.70
  -4  -4  -9    5.10   22.50
  -4   4  -9   10.20   16.30
   5  -4   9    3.60   17.20
  -5   4  -9   -0.90   19.00
   5   4   9   56.39   33.80
   6  -4   9   26.30   20.40
  -6  -4  -9   10.00   23.70
   6   4   9  -14.20   26.90
  -6   4  -9   -8.20   19.60
  -7  -4  -9   -9.10   28.00
   7  -4   9   70.09   26.30
   7   4   9  -18.10   31.70
  -6  -5   9  -12.70   14.40
   6   5  -9   27.90   16.20
   5  -5  -9   10.30   34.60
  -5  -5   9   30.00   12.20
   5   5  -9   23.20   14.20
  -5   5   9   24.30   18.80
  -4  -5   9   29.30   11.00
   4  -5  -9   71.49   33.00
  -4   5   9   16.30   18.30
   4   5  -9   32.90   14.20
  -3  -5   9   -6.50    9.30
   3  -5  -9   39.20   32.10
   3   5  -9    7.60   13.00
  -3   5   9  -19.50   16.80
   2  -5  -9  -47.50   35.30
  -2  -5   9   -7.10    8.70
  -2   5   9   27.70   16.80
   2   5  -9   -2.20   13.00
   1  -5  -9   -2.30   29.10
  -1  -5   9    0.40    8.60
   1   5  -9  -45.90   25.60
  -1   5   9   41.80   16.60
   1   5  -9   18.50   12.00
   0  -5  -9    5.30   28.90
   0  -5   9   15.30    9.10
   0   5  -9  -32.20   25.40
   0   5   9    4.30   17.40
   1  -5   9    2.20   10.20
  -1  -5  -9   -2.40   43.60
  -1   5  -9  -24.60   25.90
   1   5   9  -14.90   17.90
   2  -5   9   21.10   13.10
  -2  -5  -9   29.40   30.50
  -2   5  -9   11.60   27.50
   2   5   9    9.70   18.40
   3  -5   9   12.80   15.10
  -3   5  -9   40.90   25.90
   3   5   9   38.50   19.40
  -4  -5  -9   11.00   35.50
  -4   5  -9   27.50   27.30
 -11   0  10   11.60   16.00
  10   0 -10   29.30    7.40
 -10   0  10   21.80   12.60
   9   0 -10    3.10    5.70
  -9   0  10   12.90   10.30
   8   0 -10   57.39    8.30
  -8   0  10   36.90    9.90
   7   0 -10   90.99    8.70
   6   0 -10  862.91   43.50
  -6   0  10  815.22   46.20
  -5   0  10   16.70    5.40
   4   0 -10  137.89    8.50
  -4   0  10  120.59   10.10
  -3   0  10    6.40    3.80
   3   0 -10   12.70    2.80
  -2   0  10   45.90    5.80
  -1   0  10    3.90    3.40
   0   0  10    7.90    3.60
  -1   0 -10   -4.70    3.80
   1   0  10   -1.00    4.60
  -2   0 -10    3.10    4.00
   2   0  10   -4.70    5.80
   3   0  10   11.00    8.00
  -3   0 -10   11.20    5.50
  -4   0 -10  206.58   13.90
   4   0  10  171.98   19.80
  -5   0 -10    7.30    6.10
   5   0  10   -3.80   12.60
   6   0  10   24.90   15.80
  -6   0 -10   42.20    7.70
   7   0  10   30.40   19.10
  -7   0 -10   20.90    8.80
   8   0  10   -5.60   23.50
   9   0  10  -47.50   30.20
 -11   1  10   35.20   14.50
  10  -1 -10   17.10    9.20
 -10  -1  10   21.00   13.90
  10   1 -10    0.50    6.80
 -10   1  10   16.90   11.90
   9  -1 -10   55.29    8.30
  -9  -1  10   27.70   11.30
  -9   1  10   38.40   10.70
   9   1 -10   47.70    6.80
  -8  -1  10   18.70    9.70
   8  -1 -10   25.50    6.50
   8   1 -10   26.50    5.40
  -8   1  10   24.60    9.90
   7  -1 -10  158.78   12.10
  -7  -1  10  137.79   15.50
   7   1 -10  149.79   10.70
  -7   1  10  119.59   14.90
   6  -1 -10  164.18   12.00
  -6  -1  10  130.79   21.90
  -6   1  10  145.79   13.40
   6   1 -10  158.38   10.50
   5  -1 -10  201.38   12.90
  -5  -1  10  178.88   14.90
   5   1 -10  201.28   11.70
  -5   1  10  220.48   13.10
  -5   1  10  174.98   13.60
   4  -1 -10   70.99    7.60
  -4  -1  10   57.69    8.60
   4   1 -10   76.59    6.10
  -4   1  10   79.29    7.90
  -4   1  10   74.79    7.80
   3  -1 -10   80.89    7.40
  -3  -1  10   76.59    7.90
  -3   1  10   69.79    7.20
  -3   1  10   81.99    7.50
  -2  -1  10   75.19    7.40
  -2   1  10   74.29    7.00
  -1  -1  10   20.10    4.00
  -1   1  10   14.10    4.00
   0  -1  10  349.37   20.70
   0   1  10  371.86   20.80
  -1  -1 -10  157.58   13.00
   1  -1  10  125.19   10.70
   1   1  10  137.99   11.80
   2  -1  10  228.38   17.60
  -2  -1 -10  232.98   16.80
  -2   1 -10  256.07   14.60
   2   1  10  218.38   17.20
  -3  -1 -10   36.00    7.60
   3  -1  10   26.90    8.40
   3   1  10   32.90    9.70
  -3   1 -10   27.90    5.20
  -4  -1 -10  128.69   18.00
   4  -1  10  123.89   18.60
  -4   1 -10  115.39   13.70
   4   1  10  142.49   19.70
  -5  -1 -10   81.39   14.40
   5  -1  10   76.39   15.30
  -5   1 -10  107.39   11.40
   5   1  10  102.69   17.30
   6  -1  10   50.79   16.10
  -6  -1 -10   57.89   10.90
   6   1  10   25.80   18.60
  -6   1 -10   73.49   12.20
   7  -1  10    5.70   18.60
  -7   1 -10   14.40    8.90
   7   1  10   -9.90   20.50
   8  -1  10   19.90   25.20
   8   1  10   68.29   26.30
  -8   1 -10   65.59   11.70
   9  -1  10   30.50   37.70
   9   1  10   45.20   39.80
  10  -2 -10   40.00   13.20
 -10  -2  10   40.30   15.50
  10   2 -10   25.80    8.20
 -10   2  10    2.30   13.30
 -10   2  10   56.59   15.50
   9  -2 -10   19.70   10.10
  -9  -2  10   23.80   12.30
  -9   2  10   11.50   10.80
   9   2 -10   29.40    6.90
  -9   2  10   37.00   12.40
   8  -2 -10   24.40    8.90
  -8  -2  10   13.50   10.20
   8   2 -10   12.10    6.10
  -8   2  10    2.60   10.10
  -8   2  10  -19.40   11.40
  -7  -2  10   14.20    9.40
   7  -2 -10   14.50    7.90
  -7   2  10   13.50    8.80
   7   2 -10   24.30    5.70
  -7   2  10   15.30    7.40
   6  -2 -10  103.99   12.50
  -6  -2  10   94.69   13.90
  -6   2  10  104.09   10.90
   6   2 -10  102.69    9.80
  -6   2  10  100.69   13.30
  -5  -2  10  126.79   21.30
   5   2 -10  170.78   11.50
  -5   2  10  174.08   14.60
  -4  -2  10   -0.30    6.00
  -4   2  10    2.10    6.70
  -4   2  10   17.60    4.40
   4   2 -10   10.30    4.10
  -3  -2  10   31.50    6.10
  -3   2  10   26.40    4.40
   3   2 -10   29.70    4.20
  -3   2  10   38.80    6.90
  -2  -2  10  132.59   10.60
  -2   2  10  131.09    9.60
  -2   2  10  137.19   12.30
   1  -2 -10  321.37   25.30
  -1  -2  10  342.67   19.90
  -1   2  10  349.77   19.80
   0  -2  10   70.79    8.30
   0  -2 -10   79.29   11.60
   0   2  10   82.89   10.20
  -1  -2 -10  138.49   17.50
   1  -2  10  136.29   11.30
   1   2  10  143.59   13.70
  -2  -2 -10   56.39   11.50
   2  -2  10   46.40    7.90
   2   2  10   48.70   10.00
  -2   2 -10   63.19    9.90
   3  -2  10  105.49   15.20
  -3   2 -10  146.99   13.40
   3   2  10  105.39   18.40
  -4  -2 -10   66.89   12.90
   4   2  10   74.49   16.10
  -4   2 -10   88.09   12.90
   5  -2  10    0.50   13.30
  -5  -2 -10   13.90   14.10
   5   2  10   14.00   17.60
   6  -2  10   35.50   17.40
  -6   2 -10   48.20   10.60
   6   2  10   48.10   20.70
   7  -2  10   35.90   21.30
   7   2  10   29.70   23.60
  -7   2 -10   12.90   12.10
   8  -2  10  -20.40   26.40
   8   2  10   29.10   28.60
  -8   2 -10   13.90   14.20
  -9  -3  10   14.60   15.70
   9   3 -10   20.20    9.10
  -9   3  10   25.00   17.30
  -8  -3  10   -8.70   12.80
   8   3 -10    6.10    7.70
  -8   3  10   -3.60   13.70
  -7  -3  10    7.30   10.90
   7   3 -10   25.10    6.80
  -7   3  10   -3.50   12.00
  -6  -3  10   11.60    9.50
   6   3 -10   31.60    6.90
  -6   3  10   49.99   11.30
  -5  -3  10    2.10    8.10
   5   3 -10   12.80    6.50
  -5   3  10   12.00   10.00
  -4  -3  10   20.70    7.60
   4   3 -10   26.10    6.70
  -4   3  10    9.20   10.30
  -3   3  10   36.60   10.30
   3   3 -10   20.00    5.90
   2  -3 -10  120.79   20.20
  -2  -3  10  112.79   11.80
  -2   3  10  154.38   15.50
  -1  -3  10   98.29   10.70
  -1   3  10  100.29   15.40
   0  -3 -10   88.29   23.70
   0  -3  10  111.39   11.20
   1  -3  10   -9.20    6.40
  -1  -3 -10    3.00   14.50
   2  -3  10   29.50   13.50
  -2  -3 -10   28.10   15.20
   2   3  10   25.20   12.60
   3  -3  10   51.29   11.90
  -3  -3 -10   72.99   16.80
  -3   3 -10   66.19   12.10
   3   3  10   76.69   15.30
  -4  -3 -10  -18.80   16.60
   4  -3  10   -3.30   12.60
   4   3  10   14.20   19.30
   5  -3  10   80.59   17.30
  -5  -3 -10   27.70   19.00
   5   3  10   64.79   22.60
  -5   3 -10   78.89   13.90
   6  -3  10   26.90   19.20
  -6  -3 -10    9.00   21.20
  -6   3 -10   32.60   14.70
   6   3  10   26.00   24.20
   7  -3  10   14.50   24.40
  -7   3 -10   27.50   17.50
   7   3  10   17.60   27.90
  -8  -4  10   69.69   18.60
  -7  -4  10    2.20   13.10
  -7   4  10   12.60   16.90
   7   4 -10   36.70   10.70
  -6  -4  10  -12.70   11.70
   6   4 -10    6.60    9.40
  -6   4  10   -1.60   15.10
  -5  -4  10   13.90   10.30
  -5   4  10   39.20   14.40
   5   4 -10  -10.50    8.60
  -4  -4  10    3.30    9.10
  -4   4  10    5.40   13.70
   4   4 -10   -8.10    8.60
   3  -4 -10    3.10   24.10
  -3  -4  10   15.60    8.40
  -3   4  10   50.19   13.90
  -2  -4  10    6.20    7.40
  -2   4  10   25.00   14.00
  -1  -4  10  156.08   14.20
   1  -4 -10  144.59   24.10
  -1   4  10  159.78   23.50
   0  -4  10    0.00    7.70
   0  -4 -10   -2.20   21.00
   0   4  10    8.10   14.80
  -1  -4 -10   35.30   21.40
   1  -4  10   28.90    9.60
   2  -4  10    0.30   10.60
  -2  -4 -10   19.20   21.90
  -2   4 -10   13.90   17.00
   3  -4  10   32.00   13.00
  -3  -4 -10  -22.40   23.50
  -3   4 -10   27.90   17.10
   4  -4  10   15.40   15.00
  -4   4 -10  -30.80   18.00
  -5  -4 -10   44.50   22.80
   5  -4  10   37.10   19.10
  -5  -4 -10   -5.50   28.20
   5   4  10   12.70   26.80
  -5   4 -10    3.80   20.40
   6  -4  10  -34.10   22.30
  -6  -4 -10  -16.40   26.90
   6   4  10    4.00   30.40
  -5  -5  10   56.69   13.80
  -5   5  10   39.00   31.00
   5   5 -10   21.90   14.80
   4  -5 -10   21.90   36.20
  -4  -5  10   -3.60   11.30
   4   5 -10    6.50   13.20
  -4   5  10   10.10   19.40
  -3  -5  10   -0.40    9.60
   3  -5 -10  -18.60   33.40
   3   5 -10   -0.10   12.80
  -3   5  10  -13.10   18.90
  -2  -5  10   -6.50    9.40
   2  -5 -10   21.70   33.10
   2   5 -10  -18.60   13.70
  -2   5  10  -23.80   18.10
  -1  -5  10   10.20    9.60
   1  -5 -10  -12.40   31.70
  -1   5  10    4.70   19.10
   1   5 -10  -12.30   22.80
   0  -5 -10    5.90   32.10
   0  -5  10    1.10   10.10
   0   5 -10  -36.10   24.10
   0   5  10  -31.00   19.80
   1  -5  10   -2.40   11.70
  -1  -5 -10   26.40   31.80
  -1   5 -10    7.40   25.10
   1   5  10   -9.60   19.20
   2  -5  10   27.90   14.70
  -2  -5 -10   38.10   34.30
  -2   5 -10   16.50   27.00
  -3  -5 -10   37.60   38.40
   3  -5  10   19.40   16.50
  -3   5 -10   32.90   28.40
   3   5  10   27.40   20.10
  10   0 -11   15.80    8.00
 -10   0  11  -18.20   12.90
   9   0 -11   18.70    7.00
  -9   0  11   18.20   10.70
  -8   0  11   69.29   11.20
   8   0 -11   95.69   10.10
  -7   0  11   -0.70    8.60
   7   0 -11   10.60    5.00
   6   0 -11   10.60    8.20
  -6   0  11   14.80    9.50
  -5   0  11   -0.90    5.90
   5   0 -11    2.90    4.10
  -4   0  11    3.60    5.10
   4   0 -11   -2.90    3.60
  -3   0  11    9.30    4.40
  -2   0  11    8.40    4.10
  -1   0  11  187.68   12.40
   0   0  11   14.70    4.70
   1   0  11    4.20    5.60
  -1   0 -11    0.70    5.00
   2   0  11  100.09   12.90
  -2   0 -11  107.69   10.40
  -3   0 -11   14.80    6.10
   3   0  11   10.90    9.70
   4   0  11   38.40   12.80
  -4   0 -11   56.19    7.60
   5   0  11   54.09   15.40
  -5   0 -11   32.40    7.70
   6   0  11   -5.60   17.00
  -6   0 -11   10.40    8.60
  -7   0 -11   24.80   10.70
   7   0  11  -17.70   21.40
   8   0  11   44.30   28.00
 -10  -1  11  -15.10   13.30
  10  -1 -11   22.40   10.90
 -10   1  11   -1.60   12.70
 -10   1  11   18.60   13.00
  10   1 -11    4.50    7.20
  -9  -1  11   41.20   13.00
   9  -1 -11   47.10   10.90
   9   1 -11   41.80    7.30
  -9   1  11   19.90   10.80
  -9   1  11   48.80   13.50
  -8  -1  11   21.50   10.50
   8  -1 -11   44.20    8.20
  -8   1  11   26.40   10.90
   8   1 -11   44.50    6.40
  -7  -1  11   30.20    9.80
   7  -1 -11   69.89   10.80
  -7   1  11   27.50   18.10
   7   1 -11   43.50    5.90
   6  -1 -11    0.10    6.70
  -6  -1  11    4.50    7.50
  -6   1  11    4.90    7.10
  -6   1  11    5.50    7.00
   5  -1 -11    9.60    5.80
   5   1 -11    8.70    4.20
  -5   1  11   11.00    6.00
  -5   1  11    9.60    5.70
  -4  -1  11   79.79    9.70
   4  -1 -11   70.39    8.60
  -4   1  11   82.59    9.30
   4   1 -11   72.19    6.70
  -4   1  11   58.89    8.40
  -3  -1  11   19.40    5.10
   3  -1 -11   19.90    5.00
  -3   1  11   19.60    4.60
  -3   1  11   29.00    5.80
  -2  -1  11   39.20    6.70
  -2   1  11   40.60    6.50
  -1  -1  11  106.39    9.00
  -1   1  11  115.29    9.20
   0  -1  11    1.90    4.50
   0   1  11   10.50    5.50
   1  -1  11   16.40    5.50
  -1  -1 -11    3.00    7.70
   1   1  11   14.70    6.60
  -2  -1 -11   38.90    8.60
   2  -1  11   42.50    8.60
   2   1  11   38.40    9.10
   3   1  11   19.60   11.40
  -3   1 -11   14.50    8.50
  -4  -1 -11   15.70    8.80
   4  -1  11    2.60   11.30
   4   1  11   22.90   14.40
  -4   1 -11   13.10    6.10
   5  -1  11    1.60   13.80
  -5   1 -11   11.20    6.90
   5   1  11    0.80   15.10
  -6  -1 -11    1.50   11.20
   6  -1  11   -1.40   17.40
   6   1  11    3.70   19.80
  -6   1 -11   14.60    8.20
  -7  -1 -11   51.19   13.80
   7  -1  11   51.29   23.60
  -7   1 -11   34.00   10.60
   7   1  11   11.80   24.70
   8  -1  11   -5.80   27.90
   8   1  11   24.40   29.40
 -10   2  11    0.50   13.30
   9  -2 -11   23.90   11.90
  -9  -2  11    8.50   13.40
   9   2 -11   14.60    7.40
  -9   2  11   11.80   11.40
  -9   2  11    1.00   13.50
  -8  -2  11   10.70   11.30
   8  -2 -11    0.80   10.20
  -8   2  11   -0.70   10.90
  -8   2  11   -2.20   11.90
   8   2 -11    8.80    6.30
   7  -2 -11   13.60   10.10
  -7  -2  11    3.50    9.60
  -7   2  11   14.00    8.00
   7   2 -11    0.80    5.80
  -7   2  11    3.60    9.60
  -6  -2  11   35.70    9.10
  -6   2  11   40.90    7.00
   6   2 -11   34.70    6.40
  -6   2  11   38.60    9.20
  -5  -2  11   75.89   12.20
   5   2 -11   86.69    8.90
  -5   2  11   77.39   11.80
  -5   2  11   63.59    9.10
  -4  -2  11    1.50    6.20
   4   2 -11    7.90    4.50
  -4   2  11   -7.10    4.70
  -4   2  11   -7.60    8.00
  -3  -2  11   37.80   11.10
  -3   2  11   38.70    8.20
  -3   2  11   28.60    5.50
  -2  -2  11   10.70    5.50
  -2   2  11   20.20    7.40
  -2   2  11   10.60    5.00
  -1  -2  11   28.00    5.80
  -1   2  11   34.60    6.40
   0  -2  11    3.00    5.50
   0  -2 -11   -4.60   11.70
   0   2  11   13.70    7.20
  -1  -2 -11   88.09   16.50
   1  -2  11   76.79   10.60
   1   2  11   89.29   13.40
  -2  -2 -11   10.20   11.60
   2  -2  11   20.20   10.40
   2   2  11    2.40   10.60
   3  -2  11   14.90   10.40
  -3  -2 -11   14.00   12.10
   3   2  11    4.00   13.90
  -3   2 -11   24.60    7.80
  -4  -2 -11   12.80   13.50
  -4   2 -11   26.20    8.70
   4   2  11   54.29   19.60
  -5  -2 -11   20.80   14.70
   5  -2  11   -7.60   14.80
   5   2  11    8.00   19.30
  -5   2 -11   16.50    9.20
   6  -2  11   46.00   20.40
  -6  -2 -11   41.60   16.60
   6   2  11   24.40   22.50
   7  -2  11   -3.60   23.10
   7   2  11    4.60   27.10
  -7   2 -11  -12.00   12.50
   8  -2  11   21.70   36.50
   8   2  11   73.59   36.00
  -8  -3  11   -6.20   13.00
   8   3 -11    0.40    8.20
  -8   3  11   -1.60   15.00
  -7  -3  11    1.90   11.30
  -7   3  11   -0.80   13.30
   7   3 -11   -2.70    7.30
  -6  -3  11   36.10   10.30
  -6   3  11   40.30   12.70
   6   3 -11   38.20    7.20
  -5  -3  11   18.20    9.00
   5   3 -11   34.60    7.00
  -5   3  11   26.00   11.80
  -4  -3  11   20.70    8.40
  -4   3  11    8.00   11.10
  -3  -3  11   27.20    7.20
   3   3 -11   26.60    6.30
  -2  -3  11   61.29   10.10
  -2   3  11   66.39   11.90
  -1  -3  11   38.50    7.40
  -1   3  11   35.10   11.40
   0  -3  11    8.00    6.90
   0  -3 -11    6.80   16.50
  -1  -3 -11   18.00   16.20
   1  -3  11   11.40    8.10
  -2  -3 -11   29.60   16.80
   2  -3  11   22.20   10.00
   2   3  11   22.80   13.80
   3  -3  11    4.00   11.60
   3   3  11  -16.30   21.80
  -4  -3 -11   14.40   19.50
   4  -3  11   12.80   14.40
   4   3  11   -0.70   20.60
  -4   3 -11   12.10   12.40
  -5  -3 -11   72.79   22.40
   5  -3  11   41.10   18.10
  -5   3 -11   55.29   14.30
   5   3  11   17.50   23.40
  -6  -3 -11   22.10   23.90
   6  -3  11  -26.60   21.70
   6   3  11    8.10   26.90
  -6   3 -11   27.20   16.00
   7  -3  11   31.80   29.50
   7   3  11   94.69   32.00
  -7  -4  11    6.50   14.80
   7   4 -11   20.20   10.90
  -7   4  11  -11.90   28.20
  -6   4  11   23.70   17.10
   6   4 -11   28.70   10.00
  -5  -4  11    0.40   11.40
   5   4 -11    8.40    9.60
  -5   4  11   10.70   15.90
  -4  -4  11   14.60    9.70
  -4   4  11    3.10   15.30
   4   4 -11    0.90    9.60
   3  -4 -11   56.89   26.30
  -3  -4  11   53.09    9.90
   3   4 -11   60.79    9.70
  -3   4  11   56.99   15.40
   2  -4 -11   38.50   25.20
  -2   4  11   17.20   15.40
  -1  -4  11   41.80    9.60
   1  -4 -11   59.19   24.20
  -1   4  11   41.10   16.50
   0  -4 -11  -12.60   23.10
   0  -4  11    0.50    8.60
   0   4  11   -3.20   16.20
  -1  -4 -11   19.70   24.60
   1  -4  11   12.80   10.70
   1   4  11   11.30   16.40
  -2  -4 -11   18.50   24.90
   2  -4  11   57.09   13.00
  -2   4 -11   68.49   17.10
  -3  -4 -11    0.20   26.60
   3  -4  11   24.50   14.20
  -3   4 -11   25.40   18.20
  -4  -4 -11   23.20   28.50
   4  -4  11   24.90   17.70
  -4   4 -11    6.50   19.90
  -5  -4 -11   48.90   33.90
   5  -4  11   36.20   21.30
  -5   4 -11  -30.80   26.70
  -4  -5  11    1.40   13.20
   4  -5 -11   50.09   55.29
   4   5 -11   52.89   15.40
  -4   5  11   20.40   26.20
  -3  -5  11   11.10   11.80
   3  -5 -11   54.69   40.80
   3   5 -11   12.80   12.80
  -3   5  11    1.40   21.70
   2  -5 -11   44.60   39.00
  -2  -5  11   12.60   10.80
   2   5 -11   12.10   13.10
  -2   5  11  -33.90   20.70
  -1  -5  11    2.60   11.10
   1  -5 -11    4.10   37.70
   1   5 -11  -14.70   22.90
  -1   5  11   34.50   21.10
   0  -5  11    0.10   12.10
   0  -5 -11   26.40   38.90
   0   5  11    6.70   21.00
   0   5 -11    3.30   24.30
   1  -5  11   10.60   13.30
  -1   5 -11  -17.60   26.50
   1   5  11   23.00   20.90
   2  -5  11   14.70   16.40
  -2   5 -11  -16.50   28.50
   2   5  11  -14.70   21.30
 -10   0  12   76.59   15.80
  -9   0  12   12.10   11.80
   9   0 -12  -10.80    7.80
   8   0 -12   20.20    7.00
  -8   0  12   45.10   10.60
   7   0 -12   16.60    6.30
  -7   0  12   27.20    9.50
  -6   0  12   21.70    8.40
   6   0 -12   38.30    6.30
   5   0 -12   18.30    5.50
  -4   0  12  330.17   22.40
   4   0 -12  402.16   20.70
  -3   0  12    6.90    5.30
  -2   0  12   28.30    5.50
  -1   0  12    9.60    5.20
   0   0  12   13.70    5.80
  -1   0 -12  175.88   14.20
   1   0  12  153.58   14.80
   3   0  12   10.70   10.90
  -3   0 -12   -1.60    6.90
  -4   0 -12   87.29   12.90
   4   0  12   74.09   15.40
   5   0  12   61.39   18.00
  -5   0 -12   92.19   14.60
  -6   0 -12   10.30   10.50
   6   0  12   14.00   20.50
   7   0  12   27.90   24.80
  -7   0 -12   27.80   17.20
 -10   1  12   20.70   13.70
  -9  -1  12  -15.00   12.50
   9  -1 -12   28.80   15.20
  -9   1  12   14.10   11.20
  -9   1  12   15.90   11.90
   9   1 -12    2.20    6.90
  -8  -1  12  -16.80   10.60
   8  -1 -12   14.10    9.10
  -8   1  12   17.80   10.50
  -8   1  12   19.10   10.00
   8   1 -12    9.80    6.20
   7  -1 -12   -2.60    7.90
  -7  -1  12    3.70    9.50
  -7   1  12   -7.70    8.40
   7   1 -12    6.70    5.80
  -7   1  12    4.90    8.60
  -6  -1  12   42.50    9.20
   6  -1 -12   35.30    8.30
   6   1 -12   53.19    8.50
  -6   1  12   37.40    8.30
   5  -1 -12   47.00   10.00
  -5  -1  12   30.10    7.70
   5   1 -12   56.59    8.20
  -5   1  12   45.00    7.70
  -5   1  12   47.70    9.10
   4  -1 -12   71.19   10.60
  -4  -1  12   49.10    7.80
  -4   1  12   72.99   10.90
   4   1 -12   77.99    7.50
  -4   1  12   52.19    7.50
  -3   1  12   40.10    6.10
  -2  -1  12   40.80    6.90
  -2   1  12   55.99    8.20
  -1  -1  12   38.90    6.00
  -1   1  12   34.70    6.20
   0  -1  12   72.79    9.10
   0   1  12   46.10    7.70
   1  -1  12   -8.90   11.10
   1   1  12   19.70    8.60
   2  -1  12   47.70    9.60
  -2  -1 -12   38.70   10.30
   2   1  12   38.60   11.50
   3  -1  12   54.29   12.40
  -3  -1 -12   72.29   11.30
   3   1  12   87.89   15.40
  -3   1 -12   79.69   10.30
  -4  -1 -12   19.90   10.30
   4  -1  12   15.00   13.00
   4   1  12    7.50   15.10
  -4   1 -12   15.20    6.90
  -5  -1 -12   25.50   11.70
   5  -1  12   40.10   16.50
   5   1  12   31.00   18.20
  -5   1 -12   23.70    8.40
  -6  -1 -12   -0.70   13.30
   6  -1  12  -17.20   19.60
   6   1  12   15.10   22.30
  -6   1 -12  -11.10    9.50
  -7  -1 -12   20.00   15.30
   7  -1  12    3.40   25.10
  -7   1 -12    6.70   11.60
   7   1  12   51.39   27.30
   9  -2 -12   32.70   14.60
  -9  -2  12  -28.20   15.40
  -9   2  12  -14.50   17.50
   9   2 -12   -9.90    8.20
  -9   2  12    5.60   15.80
  -8  -2  12  -11.80   11.90
   8  -2 -12    4.90   11.50
  -8   2  12    6.00   10.20
   8   2 -12   -0.80    7.00
  -8   2  12   10.20   12.80
  -7  -2  12   19.20   10.50
   7   2 -12    3.70    6.10
  -7   2  12   17.10   11.20
  -7   2  12    1.30   17.40
  -6  -2  12   -4.90    8.90
   6   2 -12    7.50    6.00
  -6   2  12    6.30    7.20
  -6   2  12    0.40   10.00
  -5  -2  12    8.90    7.70
   5   2 -12    4.90    6.50
  -5   2  12   -4.80    6.60
  -5   2  12    6.40    9.50
  -4  -2  12   14.30    7.00
  -4   2  12   24.80   16.60
  -4   2  12   16.00    5.80
  -3  -2  12   13.00    6.50
  -3   2  12   -0.50    5.40
  -3   2  12    1.70    9.00
  -2  -2  12    7.00    6.10
  -2   2  12   15.80    8.00
  -1  -2  12    4.90    6.00
  -1   2  12    7.60    7.30
   0  -2 -12  -23.30   13.50
   0  -2  12   -1.00    6.00
   0   2  12   -4.70    8.30
  -1  -2 -12    6.60   12.80
   1  -2  12   27.30    7.70
   1   2  12    7.90    9.80
   2  -2  12   34.10    9.30
  -2  -2 -12    9.10   13.50
   2   2  12    6.80   13.10
  -3  -2 -12  -12.80   13.70
   3  -2  12   12.80   11.30
  -3   2 -12   11.10    8.00
   3   2  12   -0.80   16.20
  -4  -2 -12   -8.80   14.80
   4  -2  12   -6.20   13.80
   4   2  12   44.90   18.00
  -4   2 -12   20.00    8.90
   5  -2  12    4.40   17.40
  -5  -2 -12   13.80   16.90
  -5   2 -12   18.60   10.50
   5   2  12    8.80   20.80
   6  -2  12   17.00   22.00
  -6  -2 -12   10.60   19.30
   6   2  12   36.00   25.40
   7  -2  12  -18.60   28.40
   7   2  12   18.10   32.50
  -8   3  12  -12.40   21.80
   8   3 -12   -0.80    9.70
  -7  -3  12   10.10   12.00
   7   3 -12    0.40    7.70
  -7   3  12  -23.60   15.30
  -6  -3  12   24.80   11.30
  -6   3  12   22.60   14.10
   6   3 -12   22.30    8.30
  -5  -3  12   -5.20    9.40
  -5   3  12   14.80   13.10
   5   3 -12   13.40    6.70
  -4  -3  12   13.70    8.50
   4   3 -12   14.60    6.60
  -4   3  12   11.20   12.70
  -3  -3  12   -7.10    7.60
   3   3 -12   13.20    6.90
  -3   3  12   -0.70   12.60
  -2  -3  12   42.50    8.40
   1  -3 -12    2.60   19.00
  -1  -3  12    4.40    7.10
   0  -3 -12   -2.20   18.20
   0  -3  12   10.80    7.40
  -1  -3 -12   10.10   18.70
   1  -3  12    7.80    8.80
   1   3  12  -15.50   14.00
  -2  -3 -12    4.70   19.30
   2  -3  12   41.20   11.90
   2   3  12   45.20   17.00
   3  -3  12   26.90   13.80
   3   3  12   29.70   21.40
   4  -3  12   19.40   15.70
  -4  -3 -12   35.70   23.20
  -4   3 -12    9.00   13.20
   4   3  12   12.10   22.60
   5  -3  12   11.30   20.70
  -5  -3 -12   19.40   24.40
  -5   3 -12  -23.60   14.40
   5   3  12  -13.40   25.30
   6  -3  12   -7.80   25.00
   6   3  12   36.90   29.90
  -6  -4  12    2.30   14.00
  -6   4  12   20.40   19.70
   6   4 -12  -23.80   10.80
  -5  -4  12   -7.00   11.80
   5   4 -12    6.10    9.20
  -5   4  12   -5.50   17.50
  -4  -4  12   -8.30   10.60
  -4   4  12   19.30   17.30
   4   4 -12    2.60    8.50
  -3  -4  12   15.70    9.90
   3   4 -12    1.00    9.20
  -3   4  12   23.60   16.50
  -2  -4  12   -4.10    9.40
   2  -4 -12    5.40   27.80
  -2   4  12   17.40   16.80
  -1  -4  12   -2.00    9.30
  -1   4  12  -33.40   17.40
   0  -4  12    9.90    9.80
   0  -4 -12  -13.60   28.70
   0   4  12   -7.10   17.20
  -1  -4 -12   28.20   27.80
   1  -4  12    8.90   11.70
  -1   4 -12    4.80   16.00
   2  -4  12   25.40   14.30
  -2  -4 -12   23.80   28.00
  -2   4 -12   23.30   18.70
  -3  -4 -12   22.00   30.10
   3  -4  12   24.00   16.20
  -3   4 -12   15.70   19.50
   4  -4  12   22.10   20.50
  -4   4 -12   -9.80   22.70
  -9   0  13  -20.00   13.10
   9   0 -13    5.80    9.60
  -8   0  13   33.10   11.30
   8   0 -13   38.60    8.30
   7   0 -13    0.30    7.00
  -7   0  13   -1.40    9.40
  -6   0  13  153.88   15.30
   6   0 -13  172.38   13.80
  -5   0  13   -0.40    7.40
   4   0 -13  129.29   11.30
  -4   0  13   90.19   12.40
  -3   0  13   23.20    6.90
   0   0  13    6.80    7.30
   1   0  13   13.30    8.70
  -1   0 -13    9.10    9.80
   2   0  13    1.40   10.30
   3   0  13   17.50   13.10
  -3   0 -13   19.50    8.80
  -4   0 -13   -3.90    9.00
   4   0  13  -30.70   15.40
   5   0  13   57.99   20.20
  -5   0 -13   64.39   12.00
   6   0  13   21.50   23.30
   9  -1 -13   75.59   13.90
  -9  -1  13   39.40   15.10
  -9   1  13   55.89   13.20
   9   1 -13   65.09    9.70
  -9   1  13   88.89   15.20
   8  -1 -13   32.40   10.90
  -8  -1  13   31.40   12.50
   8   1 -13   24.70    7.60
  -8   1  13   30.00   10.60
  -8   1  13   42.90   11.60
   7  -1 -13    4.90    9.00
  -7  -1  13   -1.90   10.10
  -7   1  13    5.80    9.90
  -7   1  13   -1.40    9.30
   7   1 -13   -2.20    6.40
  -6  -1  13   27.80    9.10
   6  -1 -13   21.30    8.90
   6   1 -13   33.20    6.40
  -6   1  13   22.00    9.50
  -6   1  13   20.80    8.40
  -5  -1  13   22.20    8.20
   5  -1 -13   18.70    8.70
   5   1 -13   13.20    9.30
  -5   1  13    0.00    8.70
  -5   1  13   22.60    8.00
   4  -1 -13   46.10    9.00
  -4  -1  13   24.60    7.20
  -4   1  13   27.30    7.70
  -4   1  13   17.20    8.50
  -3  -1  13   27.00    6.60
  -3   1  13   30.50    7.00
  -2  -1  13   25.40    6.40
  -2   1  13   26.20    7.20
  -1  -1  13   -6.60    6.10
  -1   1  13   -2.30    7.10
   0  -1 -13   -0.30   13.10
   0  -1  13    3.70    6.50
   0   1  13    8.60    8.30
   1  -1  13   26.70    8.30
  -1  -1 -13   50.59   11.50
   1   1  13   33.10   11.90
  -2  -1 -13   86.99   12.80
   2  -1  13   73.19   11.50
   2   1  13   72.19   14.30
   3  -1  13    8.10   12.30
  -3  -1 -13    9.00   11.40
  -3   1 -13    6.30    6.90
   3   1  13    7.50   14.30
  -4  -1 -13   38.00   12.60
   4  -1  13   25.00   14.80
   4   1  13   16.00   17.40
  -4   1 -13   30.90    8.20
   5  -1  13   30.50   19.00
  -5  -1 -13   15.40   13.40
   5   1  13    2.60   20.20
  -5   1 -13   10.40    9.30
  -6  -1 -13   31.20   16.20
   6  -1  13   23.90   23.90
  -6   1 -13   45.10   12.10
   6   1  13   45.50   26.80
  -8  -2  13   38.80   14.20
   8   2 -13   17.10    8.30
  -8   2  13   17.00   17.50
  -8   2  13   57.69   15.10
  -7  -2  13   25.60   11.80
  -7   2  13   48.10   10.00
  -7   2  13   51.59   13.60
  -6  -2  13    7.80    9.50
  -6   2  13    6.00   11.60
   6   2 -13   -5.50    8.30
  -5  -2  13   70.99   10.90
   5   2 -13  104.79   10.40
  -5   2  13   86.19   12.90
  -5   2  13   92.49   13.00
  -4  -2  13   19.40    7.80
  -4   2  13   44.90   11.40
  -4   2  13   20.00    7.10
  -3  -2  13   23.90    7.00
  -3   2  13   23.20    6.70
  -3   2  13   28.00   11.70
  -2  -2  13   23.60    7.00
  -2   2  13   34.70    7.70
  -1  -2  13   19.10    7.00
  -1   2  13   12.90    8.60
   0  -2  13   26.90    7.60
   0   2  13   15.30   10.60
  -1  -2 -13   13.60   15.20
   1  -2  13    6.70    8.80
   1   2  13    2.30   15.50
  -2  -2 -13   28.70   15.50
   2  -2  13   -2.30   10.40
   2   2  13   19.30   15.00
  -3  -2 -13   -2.90   15.60
   3  -2  13   30.20   13.30
   3   2  13    1.30   17.20
  -3   2 -13    3.40    8.80
  -4  -2 -13    6.60   17.80
   4  -2  13   -4.10   15.70
   4   2  13  -35.00   23.70
   5  -2  13    2.50   20.20
  -5  -2 -13   32.30   19.90
   5   2  13  -27.30   23.70
  -5   2 -13    2.10   11.40
   6  -2  13   34.60   27.00
   6   2  13   84.69   31.00
  -7  -3  13   29.20   17.80
  -7   3  13   29.60   18.10
   7   3 -13   20.50    9.10
  -6  -3  13   18.00   11.90
   6   3 -13   29.50    8.20
  -6   3  13   18.60   16.00
  -5  -3  13   -3.60   10.30
  -5   3  13    5.50   14.40
   5   3 -13   -4.20    7.10
  -4  -3  13   53.39   10.90
  -4   3  13   42.90   14.60
   4   3 -13   43.60    7.50
  -3  -3  13   77.99   13.40
  -3   3  13   60.09   14.60
  -2  -3  13    1.50    8.20
   1  -3 -13   51.89   22.40
   0  -3 -13   11.60   21.10
   0  -3  13   16.10    9.00
   0   3  13    7.30   13.50
  -1  -3 -13    1.30   20.90
   1  -3  13   -3.30   10.30
   1   3  13   45.40   19.60
   2  -3  13    4.40   12.70
  -2  -3 -13   -4.40   21.80
   2   3  13   23.60   27.30
  -3  -3 -13   31.10   23.40
   3  -3  13    3.70   15.40
   3   3  13   -3.40   21.70
   4  -3  13  -40.90   18.10
  -4  -3 -13   35.30   26.10
  -4   3 -13   10.30   14.60
   4   3  13   -3.10   25.00
   5  -3  13   18.80   24.80
   5   3  13   92.49   30.30
  -5  -4  13   11.40   14.40
   5   4 -13   38.60   11.20
  -5   4  13   15.70   20.30
  -4  -4  13   13.60   12.30
  -4   4  13   -5.70   19.50
   4   4 -13  -16.70    9.00
   3  -4 -13   -4.40   32.40
  -3  -4  13   -4.80   11.20
  -3   4  13   -6.00   18.60
  -2  -4  13   -7.70   10.70
  -2   4  13    1.80   18.70
  -1  -4  13   10.10   11.20
   1  -4 -13   17.50   30.40
  -1   4  13    0.40   18.70
   0  -4  13    9.10   11.90
   0  -4 -13  -32.20   29.50
   1  -4  13   21.90   14.20
  -1  -4 -13    4.50   31.80
   2  -4  13   17.90   16.80
  -2   4 -13   34.30   20.10
   8   0 -14    5.70    9.70
  -8   0  14   14.20   12.20
   7   0 -14    9.90    9.50
  -7   0  14   10.00   10.40
  -6   0  14   62.49   10.30
  -5   0  14    0.60    8.20
   5   0 -14   16.90    8.30
  -4   0  14    8.80    7.10
  -3   0  14   -9.60    6.80
  -2   0  14   41.70    8.00
  -1   0  14   19.00    7.30
   0   0  14   25.30    8.50
   1   0  14    5.60   10.30
  -2   0 -14   -3.20    9.40
   2   0  14   -4.30   14.90
   3   0  14   11.80   14.50
  -3   0 -14   25.40   10.40
  -4   0 -14   30.70   11.90
   4   0  14   52.19   19.30
   5   0  14    9.50   22.40
  -5   0 -14   11.30   13.00
   6   0  14   32.20   35.90
   8  -1 -14   29.20   13.00
  -8  -1  14   20.50   13.80
  -8   1  14   16.70   13.70
   8   1 -14   28.60    8.70
  -8   1  14   16.20   11.10
   7  -1 -14   21.40   11.10
  -7  -1  14    6.70   10.90
  -7   1  14    2.90   10.10
   7   1 -14    3.50    7.30
  -7   1  14    6.00   12.10
   6  -1 -14   33.60   11.20
  -6  -1  14    4.30   10.20
   6   1 -14   23.40    7.20
  -6   1  14    9.30    9.40
  -6   1  14   15.40   10.80
  -5  -1  14    6.70    8.40
  -5   1  14   21.10    8.90
   5   1 -14   17.90    6.70
  -5   1  14   16.40   10.40
  -4  -1  14   -2.80    7.60
  -4   1  14    5.80    7.70
  -3  -1  14   22.80    7.60
  -3   1  14   31.40    7.60
  -2  -1  14    9.20    6.90
  -2   1  14    4.70    7.20
  -1  -1  14   15.80    7.30
  -1   1  14   11.30    8.40
   0  -1  14    9.50    7.80
   0   1  14   18.20    9.90
  -1  -1 -14   24.60   13.20
   1  -1  14   22.20    9.60
   1   1  14   33.60   12.10
   2  -1  14   14.90   11.30
  -2  -1 -14   61.99   13.70
   2   1  14   30.60   14.00
  -3  -1 -14    2.80   13.50
   3  -1  14   -0.60   14.20
   3   1  14   -8.40   16.10
   4  -1  14   20.80   17.70
  -4  -1 -14    7.00   15.00
   4   1  14   10.20   19.80
  -4   1 -14   23.10    9.90
   5  -1  14  101.29   23.90
  -5  -1 -14   46.20   17.50
   5   1  14   31.40   23.90
   6   1  14   50.69   38.50
  -7  -2  14   11.60   12.70
   7   2 -14   23.00    8.10
  -7   2  14   15.90   15.20
  -7   2  14   44.40   13.80
  -6  -2  14   11.30   11.10
  -6   2  14    4.40    9.30
   6   2 -14   21.70    7.40
  -6   2  14   17.10   13.80
  -5  -2  14   14.70    9.60
  -5   2  14   29.20   13.40
  -5   2  14   21.60    9.10
  -4  -2  14    1.80    8.90
  -4   2  14   17.10   11.20
  -4   2  14   17.90   13.00
  -3  -2  14   35.60    8.60
  -3   2  14   23.50   16.40
  -2  -2  14   42.20    8.60
  -2   2  14   94.99   19.10
  -1  -2  14   15.50    8.00
  -1   2  14   24.10   15.20
   0  -2  14    0.50    8.40
   0   2  14    5.00   12.10
   1  -2  14   56.89   11.80
   1   2  14   42.20   14.70
  -2  -2 -14   38.70   18.60
   2  -2  14   29.40   12.90
   2   2  14   11.60   16.50
  -3  -2 -14    6.70   19.40
   3  -2  14   -2.90   15.30
   3   2  14   29.70   19.30
   4  -2  14   -0.40   18.80
  -4  -2 -14   -3.80   20.60
   4   2  14   15.40   22.90
  -4   2 -14   12.30   10.40
   5  -2  14   11.60   40.40
   5   2  14  -14.10   27.50
   6   3 -14    6.20    9.10
  -6   3  14   22.80   18.40
  -5  -3  14   -5.80   11.50
   5   3 -14   -6.50    8.00
  -5   3  14   20.10   16.70
  -4  -3  14   13.30   10.70
  -4   3  14    4.40   15.70
  -3  -3  14   26.00   10.70
  -3   3  14    6.00   15.80
  -2  -3  14   -4.70    9.50
  -1  -3  14   25.80   10.00
   1  -3 -14   30.40   25.10
   0  -3 -14   63.39   24.40
   0  -3  14   39.30   11.60
  -1  -3 -14  -18.10   24.20
   1  -3  14   18.50   12.50
   1   3  14   29.00   18.40
  -2  -3 -14   34.40   26.00
   2  -3  14    8.60   15.10
   2   3  14   35.90   21.40
  -3  -3 -14   39.40   30.40
   3  -3  14    5.10   18.90
   3   3  14   -1.00   24.10
  -3   4  14   30.70   21.70
   2  -4 -14  -38.90   42.00
  -2  -4  14    6.20   13.50
  -1  -4  14   38.50   13.60
   0  -4  14   -1.50   15.80
  -7   0  15  -18.40   11.40
   7   0 -15    9.50   10.80
  -6   0  15    6.70   10.70
   6   0 -15   63.89   10.70
   5   0 -15    4.40   10.00
  -5   0  15   19.80    9.10
  -4   0  15   -8.10    8.20
  -3   0  15    3.60    7.80
  -2   0  15   39.30    8.40
  -1   0  15   15.30    8.90
   0   0  15   14.10    9.90
   1   0  15    3.30   11.60
   2   0  15    2.10   14.40
   3   0  15   31.00   18.50
  -3   0 -15   30.70   12.80
  -4   0 -15   26.20   14.10
   4   0  15   29.90   21.90
   7  -1 -15   74.39   14.70
  -7  -1  15   56.39   14.30
  -7   1  15   27.30   14.90
  -7   1  15   60.19   12.30
   7   1 -15   99.79   14.20
  -6  -1  15    0.70   10.70
   6  -1 -15   11.10   12.70
  -6   1  15    3.70   12.20
  -6   1  15  -15.10   10.10
   6   1 -15   15.10    7.90
  -5  -1  15   25.80   10.80
   5  -1 -15    7.20   13.00
  -5   1  15   22.10   11.90
  -5   1  15   16.90    9.30
   5   1 -15   31.60    8.00
  -4  -1  15   -1.50    8.90
  -4   1  15   -6.90   11.70
  -4   1  15    8.40    8.50
  -3  -1  15    6.10    8.20
  -3   1  15    3.30    8.70
  -2  -1  15   -2.30    8.00
  -2   1  15    6.80    8.80
  -1  -1  15    8.50    8.10
  -1   1  15   -0.70    9.80
   0  -1  15   37.20   10.20
   0   1  15   21.30   11.80
  -1  -1 -15   -0.70   15.00
   1  -1  15   -8.00   11.70
   1   1  15    8.90   13.30
   2  -1  15   17.70   14.00
   2   1  15   11.30   15.10
  -2   1 -15   11.70    9.70
   3  -1  15    2.20   17.00
  -3  -1 -15    6.70   16.40
   3   1  15    5.30   19.50
  -3   1 -15  -12.20   10.50
  -4  -1 -15   17.40   18.70
   4  -1  15  -11.20   20.40
   4   1  15   14.40   24.10
  -6  -2  15   38.50   15.30
   6   2 -15   38.20    8.60
  -6   2  15   37.10   16.80
  -6   2  15   20.70   13.90
  -5  -2  15   -6.80   11.20
  -5   2  15    7.20    9.80
  -5   2  15   11.70   15.60
   5   2 -15    3.80    8.00
  -4  -2  15  -18.50    9.40
  -4   2  15  -21.50   14.60
  -4   2  15    2.40    9.60
  -3  -2  15   -1.60    9.40
  -3   2  15   17.40    9.80
  -2  -2  15    5.60    8.90
  -2   2  15    0.30   10.90
  -1  -2  15    9.90    9.30
  -1   2  15   28.10   12.30
   0  -2  15    8.50   10.80
   0   2  15    8.90   13.80
   1  -2  15   34.90   13.20
  -1  -2 -15   13.70   21.10
   1   2  15   51.89   16.50
  -2  -2 -15   27.40   21.80
   2  -2  15   -6.20   14.80
   2   2  15  -14.50   18.20
   3  -2  15   -3.90   19.30
  -3  -2 -15   -7.80   23.80
   3   2  15   -5.30   22.30
   4   2  15   -4.60   27.40
  -4   3  15    9.80   18.30
  -3  -3  15    0.10   12.00
  -2  -3  15  -13.10   11.80
  -1  -3  15   13.80   12.10
   1  -3 -15  -25.20   28.00
   0  -3 -15   20.50   28.30
   0  -3  15   30.60   14.20
   1  -3  15   21.20   16.10
   1   3  15   13.00   22.60
   2   3  15    8.30   24.10
   6   0 -16   51.99   12.90
  -6   0  16   38.10   12.90
  -6   0  16   45.00   12.90
  -5   0  16   11.90   10.80
  -4   0  16   -5.90    9.50
  -3   0  16   23.30    9.70
  -2   0  16   -3.40    9.40
  -1   0  16   38.30   11.70
   0   0  16   17.00   12.80
   1   0  16   55.79   15.50
   2   0  16   -6.30   17.00
  -3   0 -16   48.30   16.50
   3   0  16   47.20   22.00
   6  -1 -16    5.70   15.10
  -6   1  16   14.80   12.20
   6   1 -16   -0.70   10.00
  -6   1  16   32.50   15.20
  -5  -1  16   12.10   11.20
  -5   1  16   30.10   11.50
  -5   1  16   -4.10   14.10
  -4  -1  16   24.10   10.90
  -4   1  16   45.00   10.50
  -3  -1  16   17.40   10.70
  -3   1  16   32.30   10.50
  -2  -1  16    8.00    9.80
  -2   1  16   12.40   10.50
  -1  -1  16   18.40   10.80
  -1   1  16   35.20   12.70
   0  -1  16    2.50   12.00
   0   1  16   20.50   13.70
   1  -1  16   -5.10   14.30
   1   1  16   -3.30   15.30
   2  -1  16   -1.60   18.10
   2   1  16    6.20   18.80
   3   1  16  -11.40   24.00
  -3   1 -16   10.60   14.30
  -5   2  16  -16.60   11.40
  -4   2  16    7.40   11.00
  -3  -2  16   -9.40   10.90
  -3   2  16   22.70   11.70
  -2  -2  16  -16.50   11.30
  -2   2  16   -7.50   12.90
  -1  -2  16   11.40   12.10
  -1   2  16   39.20   14.70
   0  -2  16   22.90   13.70
   0  -2 -16   21.70   24.40
   0   2  16   12.50   15.90
  -1  -2 -16  -11.20   25.60
   1  -2  16   35.50   20.20
   1   2  16  -13.60   18.20
   2   2  16  -11.50   21.90
  -4   0  17   13.80   12.50
  -3   0  17    2.30   12.30
  -2   0  17  -18.10   12.00
  -1   0  17   -5.40   13.90
   0   0  17   29.10   16.40
   1   0  17   11.10   19.50
  -4   1  17   35.40   12.60
  -3  -1  17    5.70   16.90
  -3   1  17   12.80   12.60
  -2  -1  17  -23.10   12.30
  -2   1  17   33.10   13.30
  -1  -1  17   -5.80   15.00
  -1   1  17   19.60   15.30
   0   1  17   44.20   16.90
   1   1  17   21.60   21.50
;
_shelx_hkl_checksum              79389
loop_
_space_group_symop_operation_xyz
'x, y, z'
'-x, y+1/2, -z'
loop_
_atom_site_label
_atom_site_type_symbol
_atom_site_fract_x
_atom_site_fract_y
_atom_site_fract_z
_atom_site_U_iso_or_equiv
_atom_site_adp_type
_atom_site_occupancy
_atom_site_site_symmetry_order
_atom_site_calc_flag
_atom_site_refinement_flags_posn
_atom_site_refinement_flags_adp
O1A O 0.1076(2) 0.6199(5) 0.4093(2) 0.0273(7) Uani 1 1 d . .
O2A O 0.1736(3) 1.0000(6) 0.3492(2) 0.0318(8) Uani 1 1 d . .
N1A N 0.3606(3) 0.4083(7) 0.4215(2) 0.0244(8) Uani 1 1 d . .
H1A H 0.4496 0.3494 0.4196 0.037 Uiso 1 1 calc R U
H2A H 0.2984 0.2847 0.3953 0.037 Uiso 1 1 calc R U
H3A H 0.3472 0.4417 0.4866 0.037 Uiso 1 1 calc R U
C1A C 0.1943(3) 0.7671(8) 0.3748(3) 0.0213(9) Uani 1 1 d . .
C2A C 0.3388(4) 0.6505(8) 0.3614(3) 0.0218(10) Uani 1 1 d . .
H21A H 0.4127 0.7789 0.3881 0.026 Uiso 1 1 calc R U
C3A C 0.3560(4) 0.5930(9) 0.2521(3) 0.0320(11) Uani 1 1 d . .
H31A H 0.4425 0.4890 0.2501 0.038 Uiso 1 1 calc R U
H32A H 0.2758 0.4855 0.2222 0.038 Uiso 1 1 calc R U
C4A C 0.3644(6) 0.8352(11) 0.1883(4) 0.0584(16) Uani 1 1 d . .
H41A H 0.2723 0.9245 0.1809 0.070 Uiso 1 1 calc R U
H42A H 0.4346 0.9560 0.2235 0.070 Uiso 1 1 calc R U
C5A C 0.4038(7) 0.7765(15) 0.0856(4) 0.103(3) Uani 1 1 d . .
H51A H 0.4114 0.9401 0.0486 0.155 Uiso 1 1 calc R U
H52A H 0.3317 0.6657 0.0487 0.155 Uiso 1 1 calc R U
H53A H 0.4942 0.6854 0.0924 0.155 Uiso 1 1 calc R U
O1B O 0.6315(2) 0.2485(6) 0.4120(2) 0.0294(8) Uani 1 1 d . .
O2B O 0.6918(3) 0.6480(5) 0.3691(2) 0.0346(8) Uani 1 1 d . .
N1B N 0.8878(3) 0.0614(6) 0.3820(2) 0.0267(9) Uani 1 1 d . .
H1B H 0.8941 0.0950 0.4493 0.040 Uiso 1 1 calc R U
H2B H 0.9746 0.0245 0.3651 0.040 Uiso 1 1 calc R U
H3B H 0.8301 -0.0777 0.3667 0.040 Uiso 1 1 calc R U
C1B C 0.7089(4) 0.4079(9) 0.3737(3) 0.0226(9) Uani 1 1 d . .
C2B C 0.8301(4) 0.2934(8) 0.3246(3) 0.0239(10) Uani 1 1 d . .
H21B H 0.9055 0.4279 0.3238 0.029 Uiso 1 1 calc R U
C3B C 0.7768(4) 0.2132(10) 0.2161(3) 0.0404(13) Uani 1 1 d . .
H31B H 0.7283 0.3642 0.1811 0.048 Uiso 1 1 calc R U
H32B H 0.7067 0.0720 0.2181 0.048 Uiso 1 1 calc R U
C4B C 0.8919(5) 0.1183(13) 0.1542(4) 0.0593(16) Uani 1 1 d . .
H41B H 0.9504 -0.0133 0.1941 0.071 Uiso 1 1 calc R U
H42B H 0.8470 0.0317 0.0922 0.071 Uiso 1 1 calc R U
C5B C 0.9838(5) 0.3313(15) 0.1254(5) 0.094(3) Uani 1 1 d . .
H51B H 1.0543 0.2587 0.0861 0.141 Uiso 1 1 calc R U
H52B H 1.0307 0.4151 0.1864 0.141 Uiso 1 1 calc R U
H53B H 0.9269 0.4607 0.0846 0.141 Uiso 1 1 calc R U
loop_
_atom_site_aniso_label
_atom_site_aniso_U_11
_atom_site_aniso_U_22
_atom_site_aniso_U_33
_atom_site_aniso_U_23
_atom_site_aniso_U_13
_atom_site_aniso_U_12
O1A 0.0129(13) 0.0279(19) 0.0417(17) 0.0010(16) 0.0064(12) -0.0010(12)
O2A 0.0160(14) 0.025(2) 0.055(2) 0.0035(15) 0.0050(14) 0.0074(14)
N1A 0.0099(15) 0.023(2) 0.040(2) 0.0014(18) 0.0032(14) 0.0021(14)
C1A 0.0118(18) 0.025(3) 0.026(2) -0.003(2) -0.0005(16) 0.0010(19)
C2A 0.0095(18) 0.018(2) 0.038(2) 0.001(2) 0.0018(17) 0.0015(17)
C3A 0.023(2) 0.038(3) 0.036(2) 0.000(2) 0.0056(19) 0.008(2)
C4A 0.064(3) 0.063(4) 0.052(3) 0.013(3) 0.023(3) 0.021(3)
C5A 0.128(6) 0.132(7) 0.057(4) 0.026(4) 0.040(4) 0.029(6)
O1B 0.0145(13) 0.0265(18) 0.0493(19) 0.0082(14) 0.0123(13) 0.0038(13)
O2B 0.0191(15) 0.020(2) 0.066(2) -0.0017(17) 0.0085(14) 0.0034(13)
N1B 0.0128(15) 0.030(3) 0.037(2) -0.0035(18) 0.0041(15) 0.0068(16)
C1B 0.0113(18) 0.025(3) 0.031(2) 0.000(2) -0.0009(17) 0.0035(19)
C2B 0.0125(18) 0.019(3) 0.041(3) 0.002(2) 0.0045(18) 0.0017(17)
C3B 0.033(2) 0.049(3) 0.040(3) 0.000(2) 0.005(2) 0.011(2)
C4B 0.051(3) 0.083(5) 0.042(3) -0.017(3) 0.000(2) 0.023(3)
C5B 0.058(4) 0.141(8) 0.089(5) -0.013(5) 0.040(4) -0.019(4)
loop_
_atom_type_symbol
_atom_type_description
_atom_type_scat_dispersion_real
_atom_type_scat_dispersion_imag
_atom_type_scat_source
C C 0.0033 0.0016 'International Tables Vol C Tables 4.2.6.8 and 6.1.1.4'
H H 0.0000 0.0000 'International Tables Vol C Tables 4.2.6.8 and 6.1.1.4'
N N 0.0061 0.0033 'International Tables Vol C Tables 4.2.6.8 and 6.1.1.4'
O O 0.0106 0.0060 'International Tables Vol C Tables 4.2.6.8 and 6.1.1.4'
loop_
_geom_angle_atom_site_label_1
_geom_angle_atom_site_label_2
_geom_angle_atom_site_label_3
_geom_angle
C2A N1A H1A 109.5
C2A N1A H2A 109.5
H1A N1A H2A 109.5
C2A N1A H3A 109.5
H1A N1A H3A 109.5
H2A N1A H3A 109.5
O2A C1A O1A 125.8(3)
O2A C1A C2A 116.9(3)
O1A C1A C2A 117.3(4)
N1A C2A C3A 109.5(3)
N1A C2A C1A 109.3(3)
C3A C2A C1A 113.2(3)
N1A C2A H21A 108.2
C3A C2A H21A 108.2
C1A C2A H21A 108.2
C4A C3A C2A 113.7(4)
C4A C3A H31A 108.8
C2A C3A H31A 108.8
C4A C3A H32A 108.8
C2A C3A H32A 108.8
H31A C3A H32A 107.7
C5A C4A C3A 112.8(5)
C5A C4A H41A 109.0
C3A C4A H41A 109.0
C5A C4A H42A 109.0
C3A C4A H42A 109.0
H41A C4A H42A 107.8
C4A C5A H51A 109.5
C4A C5A H52A 109.5
H51A C5A H52A 109.5
C4A C5A H53A 109.5
H51A C5A H53A 109.5
H52A C5A H53A 109.5
C2B N1B H1B 109.5
C2B N1B H2B 109.5
H1B N1B H2B 109.5
C2B N1B H3B 109.5
H1B N1B H3B 109.5
H2B N1B H3B 109.5
O2B C1B O1B 125.7(4)
O2B C1B C2B 117.6(3)
O1B C1B C2B 116.6(4)
N1B C2B C1B 110.0(3)
N1B C2B C3B 109.4(3)
C1B C2B C3B 109.1(3)
N1B C2B H21B 109.4
C1B C2B H21B 109.4
C3B C2B H21B 109.4
C2B C3B C4B 114.5(4)
C2B C3B H31B 108.6
C4B C3B H31B 108.6
C2B C3B H32B 108.6
C4B C3B H32B 108.6
H31B C3B H32B 107.6
C5B C4B C3B 113.4(5)
C5B C4B H41B 108.9
C3B C4B H41B 108.9
C5B C4B H42B 108.9
C3B C4B H42B 108.9
H41B C4B H42B 107.7
C4B C5B H51B 109.5
C4B C5B H52B 109.5
H51B C5B H52B 109.5
C4B C5B H53B 109.5
H51B C5B H53B 109.5
H52B C5B H53B 109.5
loop_
_geom_bond_atom_site_label_1
_geom_bond_atom_site_label_2
_geom_bond_distance
O1A C1A 1.253(4)
O2A C1A 1.250(5)
N1A C2A 1.478(5)
N1A H1A 0.9100
N1A H2A 0.9100
N1A H3A 0.9100
C1A C2A 1.541(5)
C2A C3A 1.518(5)
C2A H21A 1.0000
C3A C4A 1.513(6)
C3A H31A 0.9900
C3A H32A 0.9900
C4A C5A 1.497(7)
C4A H41A 0.9900
C4A H42A 0.9900
C5A H51A 0.9800
C5A H52A 0.9800
C5A H53A 0.9800
O1B C1B 1.255(5)
O2B C1B 1.241(5)
N1B C2B 1.484(5)
N1B H1B 0.9100
N1B H2B 0.9100
N1B H3B 0.9100
C1B C2B 1.523(5)
C2B C3B 1.531(6)
C2B H21B 1.0000
C3B C4B 1.539(6)
C3B H31B 0.9900
C3B H32B 0.9900
C4B C5B 1.484(8)
C4B H41B 0.9900
C4B H42B 0.9900
C5B H51B 0.9800
C5B H52B 0.9800
C5B H53B 0.9800
loop_
_geom_hbond_atom_site_label_D
_geom_hbond_atom_site_label_H
_geom_hbond_atom_site_label_A
_geom_hbond_distance_DH
_geom_hbond_distance_HA
_geom_hbond_distance_DA
_geom_hbond_angle_DHA
_geom_hbond_site_symmetry_A
N1A H1A O1B 0.91 1.84 2.745(4) 176.6 .
N1A H2A O2A 0.91 1.94 2.846(4) 174.7 1_545
N1A H3A O1B 0.91 2.07 2.818(4) 138.9 2_656
N1B H1B O1A 0.91 1.89 2.798(4) 171.7 2_646
N1B H2B O2A 0.91 1.95 2.850(4) 168.3 1_645
N1B H2B O1A 0.91 2.47 3.084(4) 125.3 1_645
N1B H3B O2B 0.91 1.94 2.825(4) 164.6 1_545
C2B H21B O1A 1.00 2.34 3.229(5) 147.3 1_655
loop_
_geom_torsion_atom_site_label_1
_geom_torsion_atom_site_label_2
_geom_torsion_atom_site_label_3
_geom_torsion_atom_site_label_4
_geom_torsion
O2A C1A C2A N1A 163.5(3)
O1A C1A C2A N1A -17.4(5)
O2A C1A C2A C3A -74.1(5)
O1A C1A C2A C3A 105.1(4)
N1A C2A C3A C4A -168.5(3)
C1A C2A C3A C4A 69.2(5)
C2A C3A C4A C5A 171.0(4)
O2B C1B C2B N1B 147.1(4)
O1B C1B C2B N1B -35.6(5)
O2B C1B C2B C3B -92.8(5)
O1B C1B C2B C3B 84.5(4)
N1B C2B C3B C4B -65.2(5)
C1B C2B C3B C4B 174.4(4)
C2B C3B C4B C5B -72.1(6)
