#------------------------------------------------------------------------------
#$Date: 2016-08-02 13:23:00 +0300 (Tue, 02 Aug 2016) $
#$Revision: 184767 $
#$URL: file:///home/coder/svn-repositories/cod/cif/1/54/37/1543755.cif $
#------------------------------------------------------------------------------
#
# This file is available in the Crystallography Open Database (COD),
# http://www.crystallography.net/. The original data for this entry
# were provided by IUCr Journals, http://journals.iucr.org/.
#
# The file may be used within the scientific community so long as
# proper attribution is given to the journal article from which the
# data were obtained.
#
data_1543755
loop_
_publ_author_name
'El Bakri, Youness'
'Harmaoui, Abdallah'
'Essassi, El Mokhtar'
'Saadi, Mohamed'
'El Ammari, Lahcen'
_publ_section_title
;
 6-Methyl-7H-1,2,4-triazolo[4,3-b][1,2,4]triazepin-8(9H)-thione
;
_journal_coeditor_code           TK4020
_journal_issue                   8
_journal_name_full               IUCrData
_journal_paper_doi               10.1107/S2414314616012293
_journal_volume                  1
_journal_year                    2016
_chemical_formula_iupac          'C6 H7 N5 S'
_chemical_formula_moiety         'C6 H7 N5 S'
_chemical_formula_sum            'C6 H7 N5 S'
_chemical_formula_weight         181.23
_chemical_name_systematic
6-Methyl-7<i>H</i>-1,2,4-triazolo[4,3-<i>b</i>][1,2,4]triazepin-8(9<i>H</i>)-thione
_space_group_crystal_system      triclinic
_space_group_IT_number           2
_space_group_name_Hall           '-P 1'
_space_group_name_H-M_alt        'P -1'
_symmetry_space_group_name_Hall  '-P 1'
_symmetry_space_group_name_H-M   'P -1'
_atom_sites_solution_hydrogens   mixed
_audit_creation_method           SHELXL-2014/7
_cell_angle_alpha                103.331(15)
_cell_angle_beta                 92.329(16)
_cell_angle_gamma                113.846(15)
_cell_formula_units_Z            2
_cell_length_a                   6.238(2)
_cell_length_b                   7.234(3)
_cell_length_c                   10.887(4)
_cell_measurement_reflns_used    2287
_cell_measurement_temperature    296(2)
_cell_measurement_theta_max      29.563
_cell_measurement_theta_min      3.198
_cell_volume                     432.3(3)
_computing_cell_refinement
;
SAINT (Bruker, 2009)
;
_computing_data_collection
;
APEX2 (Bruker, 2009)
;
_computing_data_reduction
;
SAINT (Bruker, 2009)
;
_computing_molecular_graphics
;
ORTEPIII (Burnett & Johnson, 1996) and ORTEP-3 for Windows (Farrugia,
2012)
;
_computing_publication_material
;
Mercury (Macrae <i>et al.</i>, 2008) and publCIF (Westrip, 2010)
;
_computing_structure_refinement
;
SHELXL2014 (Sheldrick, 2015b)
;
_computing_structure_solution
;
SHELXT2014 (Sheldrick, 2015a)
;
_diffrn_ambient_temperature      296(2)
_diffrn_measured_fraction_theta_full 0.951
_diffrn_measured_fraction_theta_max 0.943
_diffrn_measurement_device_type  'Bruker X8 APEX'
_diffrn_measurement_method       '\f and \w scans'
_diffrn_radiation_monochromator  graphite
_diffrn_radiation_source         'fine-focus sealed tube'
_diffrn_radiation_type           MoK\a
_diffrn_radiation_wavelength     0.71073
_diffrn_reflns_av_R_equivalents  0.0324
_diffrn_reflns_limit_h_max       8
_diffrn_reflns_limit_h_min       -8
_diffrn_reflns_limit_k_max       10
_diffrn_reflns_limit_k_min       -10
_diffrn_reflns_limit_l_max       15
_diffrn_reflns_limit_l_min       -14
_diffrn_reflns_number            10195
_diffrn_reflns_theta_full        25.242
_diffrn_reflns_theta_max         29.563
_diffrn_reflns_theta_min         3.198
_exptl_absorpt_coefficient_mu    0.325
_exptl_absorpt_correction_T_max  0.7467
_exptl_absorpt_correction_T_min  0.6444
_exptl_absorpt_correction_type   multi-scan
_exptl_absorpt_process_details
;
(SADABS; Krause <i>et al.</i>, 2015)
;
_exptl_crystal_colour            colourless
_exptl_crystal_density_diffrn    1.392
_exptl_crystal_description       block
_exptl_crystal_F_000             188
_exptl_crystal_size_max          0.35
_exptl_crystal_size_mid          0.30
_exptl_crystal_size_min          0.26
_refine_diff_density_max         0.469
_refine_diff_density_min         -0.376
_refine_ls_extinction_method     none
_refine_ls_goodness_of_fit_ref   1.073
_refine_ls_hydrogen_treatment    constr
_refine_ls_matrix_type           full
_refine_ls_number_parameters     110
_refine_ls_number_reflns         2287
_refine_ls_number_restraints     0
_refine_ls_restrained_S_all      1.073
_refine_ls_R_factor_all          0.0443
_refine_ls_R_factor_gt           0.0394
_refine_ls_shift/su_max          0.000
_refine_ls_shift/su_mean         0.000
_refine_ls_structure_factor_coef Fsqd
_refine_ls_weighting_details
'w=1/[\s^2^(Fo^2^)+(0.0613P)^2^+0.1769P] where P=(Fo^2^+2Fc^2^)/3'
_refine_ls_weighting_scheme      calc
_refine_ls_wR_factor_gt          0.1145
_refine_ls_wR_factor_ref         0.1194
_reflns_number_gt                2038
_reflns_number_total             2287
_reflns_threshold_expression     'I > 2\s(I)'
_cod_data_source_file            tk4020sup1.cif
_cod_data_source_block           I
_cod_database_code               1543755
_shelx_space_group_comment
;
The symmetry employed for this shelxl refinement is uniquely defined
by the following loop, which should always be used as a source of
symmetry information in preference to the above space-group names.
They are only intended as comments.
;
_shelx_hkl_file
;
  -1   0   0 3304.67  119.19
  -1   0   0 3571.74  115.59
  -1   0   0 3456.55  115.79
  -1   0   0 3210.78  115.39
  -1   0   0 3434.36  115.29
   1   0   0 3712.83  115.49
   1   0   0 2984.30  115.69
   1   0   0 3542.45  115.89
   1   0   0 3753.52  115.49
  -2   0   0 3201.08  106.59
  -2   0   0 3224.18  106.79
  -2   0   0 3063.59  107.09
   2   0   0 3268.67  106.89
   2   0   0 3129.79  106.69
   2   0   0 3284.67  107.69
   2   0   0 2932.71  106.79
   2   0   0 3366.76  107.09
  -3   0   0    6.00    0.70
  -3   0   0    6.00    0.70
  -3   0   0    8.00    0.70
   3   0   0    7.70    0.70
   3   0   0    7.00    0.70
   3   0   0    5.50    0.80
  -4   0   0  173.78    6.20
  -4   0   0  164.78    6.20
  -4   0   0  167.08    6.30
   4   0   0  173.58    6.30
   4   0   0  150.08    6.40
   4   0   0  169.98    6.00
  -5   0   0   53.59    3.00
  -5   0   0   58.79    2.80
   5   0   0   64.79    2.80
   5   0   0   55.99    2.90
  -6   0   0   21.50    2.20
  -6   0   0   24.20    2.00
   6   0   0   20.70    1.90
  -7   0   0   50.29    3.20
  -7   0   0   50.49    2.90
   7   0   0   46.50    3.20
  -8   0   0   32.60    2.90
  -8   0   0   29.30    2.50
   8   0   0   32.60    2.90
  -9   1   0    9.60    2.30
   8  -1   0   10.00    1.70
  -8   1   0    7.30    1.40
  -8   1   0    6.90    1.60
   6  -1   0    9.20    1.20
  -6   1   0    9.30    1.40
  -6   1   0    8.70    1.30
   5  -1   0  649.54   22.20
   5  -1   0  640.74   22.30
  -5   1   0  648.34   22.40
  -5   1   0  652.53   22.50
   4  -1   0   86.39    3.50
   4  -1   0   72.29    3.60
  -4   1   0   88.29    4.00
  -4   1   0  100.89    7.40
  -4   1   0   91.29    3.70
  -4   1   0   90.29    3.70
   3  -1   0   66.99    4.40
   3  -1   0   72.19    3.10
   3  -1   0   78.99    3.20
  -3   1   0   84.79    3.20
  -3   1   0   85.79    3.20
  -3   1   0   86.19    3.20
  -3   1   0   78.89    3.20
  -3   1   0   87.09    4.50
   2  -1   0 5218.88  184.58
   2  -1   0 5667.63  184.28
   2  -1   0 5918.91  184.58
   2  -1   0 5077.09  184.28
   2  -1   0 5506.05  185.08
  -2   1   0 5425.96  184.38
  -2   1   0 5892.01  190.08
  -2   1   0 5289.87  184.78
  -2   1   0 5449.06  184.28
  -2   1   0 5396.06  184.88
  -2   1   0 5716.93  184.08
  -2   1   0 5442.56  184.28
   1  -1   0 1402.56   45.90
   1  -1   0 1324.37   45.90
   1  -1   0 1323.47   46.20
   1  -1   0 1333.37   46.30
   1  -1   0 1367.56   46.10
   1  -1   0 1405.56   45.90
  -1   1   0 1399.86   45.90
  -1   1   0 1397.16   46.00
  -1   1   0 1374.16   46.10
  -1   1   0 1352.76   46.40
  -1   1   0 1344.67   46.20
   0  -1   0 3613.54  123.59
   0  -1   0 3598.44  122.99
   0  -1   0 3858.91  123.29
   0  -1   0 4002.80  123.39
   0  -1   0 3652.43  122.99
   0  -1   0 3616.04  123.09
   0  -1   0 3632.74  122.99
   0   1   0 3356.66  123.49
   0   1   0 3711.23  122.99
   0   1   0 3677.63  123.29
   0   1   0 3714.43  123.69
  -1  -1   0  323.57   11.20
  -1  -1   0  354.66   11.20
  -1  -1   0  337.37   11.50
  -1  -1   0  314.57   11.10
  -1  -1   0  333.97   11.30
   1   1   0  319.87   11.20
   1   1   0  306.27   11.30
   1   1   0  341.57   11.20
   1   1   0  303.97   11.30
  -2  -1   0  168.58    5.90
   2   1   0  156.08    6.10
   2   1   0  170.88    6.00
   2   1   0  168.08    6.10
  -3  -1   0   83.49    3.10
  -3  -1   0   84.09    3.30
   3   1   0   81.59    3.60
   3   1   0   84.59    3.40
   3   1   0   73.59    3.50
  -4  -1   0  847.42   29.00
  -4  -1   0  854.01   28.80
  -4  -1   0  860.71   28.80
   4   1   0  827.62   29.40
   4   1   0  859.21   29.20
  -5  -1   0   30.80    1.80
  -5  -1   0   28.00    2.10
   5   1   0   25.10    2.10
   6   1   0    0.60    1.00
  -7  -1   0  102.79    4.80
  -7  -1   0   72.29   11.60
  -7  -1   0   92.39    4.10
   7   1   0   99.49    4.90
  -8  -1   0   -0.80    1.10
   8   1   0   -0.90    1.10
  -9   2   0    2.60    1.20
  -8   2   0   63.59    3.90
  -8   2   0   64.89    3.90
   6  -2   0    2.30    0.80
   6  -2   0    2.10    0.70
  -6   2   0    7.80    4.50
  -6   2   0    3.00    0.90
  -6   2   0    1.90    0.90
   5  -2   0   76.39    3.40
   5  -2   0   84.69    3.30
  -5   2   0   76.29    3.50
  -5   2   0   76.49    3.60
   4  -2   0    0.40    0.50
   4  -2   0    1.20    2.10
  -4   2   0    0.10    0.50
  -4   2   0    0.80    0.50
  -4   2   0   -1.10    2.10
  -4   2   0    0.80    0.60
   3  -2   0  112.49    4.10
   3  -2   0  111.09    4.40
   3  -2   0  115.89    4.10
   3  -2   0  115.79    4.30
   3  -2   0  111.79    5.60
  -3   2   0  115.59    4.10
  -3   2   0  112.99    4.40
  -3   2   0  115.19    4.30
  -3   2   0  113.09    4.30
   2  -2   0 1562.94   55.09
   2  -2   0 1579.54   54.59
   2  -2   0 1633.94   54.69
   2  -2   0 1720.63   54.49
   2  -2   0 1624.84   54.59
  -2   2   0 1581.74   54.89
  -2   2   0 1627.34   54.69
  -2   2   0 1691.13   54.49
   1  -2   0 5850.21  203.18
   1  -2   0 5861.21  202.78
   1  -2   0 5971.40  203.78
   1  -2   0 5947.40  203.28
   1  -2   0 6278.87  202.48
   1  -2   0 6457.25  202.78
  -1   2   0 5542.45  203.48
  -1   2   0 6166.38  202.48
  -1   2   0 6493.85  203.28
  -1   2   0 5977.80  203.28
  -1   2   0 6046.19  202.78
   0  -2   0   92.89    3.30
   0  -2   0  101.89    3.20
   0  -2   0   83.89    3.20
   0  -2   0   90.89    3.20
   0  -2   0   95.29    3.30
   0  -2   0   84.39    3.20
   0  -2   0   86.69    3.40
   0   2   0   86.29    3.20
   0   2   0   88.79    3.40
   0   2   0   92.69    3.20
   0   2   0   87.49    3.30
   0   2   0   83.29    3.20
   0   2   0   81.29    3.40
  -1  -2   0  447.66   16.30
  -1  -2   0  457.95   14.70
   1   2   0  403.56   14.80
   1   2   0  443.56   14.70
   1   2   0  400.16   14.90
  -2  -2   0 1421.56   47.70
   2   2   0 1421.56   47.90
  -3  -2   0  405.66   13.80
   3   2   0  394.66   14.30
   3   2   0  393.66   14.10
  -4  -2   0   39.60    2.20
   4   2   0   35.80    2.70
   4   2   0   38.60    2.40
  -5  -2   0   16.60    1.90
   5   2   0   17.60    2.00
  -6  -2   0   -2.30    3.60
  -6  -2   0    0.00    1.00
   6   2   0   -0.80    1.00
  -7  -2   0    0.10    5.50
  -7  -2   0    3.00    1.20
   7   2   0    3.00    1.50
  -9   3   0   13.90    2.10
  -9   3   0   18.70    2.30
  -9   3   0   21.70    7.50
   7  -3   0    1.90    0.90
  -7   3   0    3.70    1.20
  -7   3   0    2.50    1.20
   6  -3   0  692.63   23.00
  -6   3   0  653.33   23.50
  -6   3   0  666.73   23.40
   4  -3   0  672.63   23.30
   4  -3   0  678.23   23.00
   4  -3   0  656.73   22.90
   4  -3   0  673.73   23.40
  -4   3   0  706.03   23.40
  -4   3   0  668.23   23.40
  -4   3   0  684.93   23.20
   3  -3   0   57.99    2.20
   3  -3   0   58.69    2.60
   3  -3   0   62.99    2.80
   3  -3   0   59.19    2.40
  -3   3   0   57.79    2.70
  -3   3   0   61.49    2.50
  -3   3   0   59.79    2.60
   2  -3   0  599.54   20.60
   2  -3   0  579.74   20.60
   2  -3   0  604.84   20.40
  -2   3   0  596.54   20.60
  -2   3   0  615.34   20.30
  -2   3   0  607.14   20.60
   1  -3   0   47.10    1.80
   1  -3   0   43.40    2.10
   1  -3   0   45.30    2.10
   1  -3   0   44.80    1.90
   1  -3   0   47.90    2.10
   1  -3   0   49.40    1.90
  -1   3   0   46.90    1.80
  -1   3   0   47.00    2.10
  -1   3   0   46.30    2.10
   0  -3   0  207.18    7.30
   0  -3   0  200.28    7.50
   0  -3   0  199.68    7.30
   0  -3   0  221.78    7.10
   0  -3   0  205.98    7.30
   0   3   0  208.98    7.30
   0   3   0  193.18    7.50
   0   3   0  221.48    7.60
   0   3   0  213.68    7.30
   0   3   0  199.28    7.40
  -1  -3   0  711.33   24.60
  -1  -3   0  639.74   22.40
  -1  -3   0  682.03   22.90
   1   3   0  685.63   22.50
   1   3   0  647.94   22.70
   1   3   0  617.64   22.90
  -2  -3   0   42.40    1.90
  -2  -3   0   41.00    4.60
  -2  -3   0   42.40    2.40
   2   3   0   38.60    2.00
   2   3   0   41.70    2.20
   2   3   0   39.60    2.40
  -3  -3   0  395.96   13.60
   3   3   0  380.56   14.20
   3   3   0  390.46   14.00
  -4  -3   0  124.79    5.00
   4   3   0  122.29    5.70
   4   3   0  122.69    5.40
  -5  -3   0    0.40    0.90
  -5  -3   0    2.50    5.30
   5   3   0    0.30    1.10
   5   3   0   -1.90    1.30
  -6  -3   0   -0.20    1.00
  -6  -3   0   -2.90    4.80
   6   3   0    1.10    1.30
   7   3   0    2.90    1.70
  -9   4   0   35.60    3.60
  -9   4   0   39.60    3.20
  -8   4   0   -1.00    4.50
  -8   4   0    0.00    1.00
  -8   4   0   -3.00    1.00
  -7   4   0    9.20    1.70
  -7   4   0   10.20    1.50
   6  -4   0   39.50    2.70
   6  -4   0   36.30    2.10
  -6   4   0   41.70    2.90
  -6   4   0   40.40    2.50
   4  -4   0   82.59    3.30
   4  -4   0   79.79    3.80
   4  -4   0   85.89    3.60
  -4   4   0   81.29    3.40
  -4   4   0   77.09    3.80
  -4   4   0   80.39    3.60
   3  -4   0  344.97   12.20
   3  -4   0  331.87   11.90
   3  -4   0  345.27   12.30
  -3   4   0  354.36   11.90
  -3   4   0  338.87   12.30
   2  -4   0 1174.38   40.20
   2  -4   0 1145.69   39.80
   2  -4   0 1102.39   40.10
   2  -4   0 1274.67   39.70
  -2   4   0 1197.48   40.20
  -2   4   0 1202.88   40.20
  -2   4   0 1190.18   39.70
   1  -4   0 1203.18   41.60
   1  -4   0 1256.77   41.40
   1  -4   0 1186.98   41.20
   1  -4   0 1269.07   41.00
   1  -4   0 1157.98   41.40
  -1   4   0 1248.68   41.40
  -1   4   0 1219.18   41.30
  -1   4   0 1222.58   41.20
  -1   4   0 1262.27   41.60
   0  -4   0   40.60    2.00
   0  -4   0   44.10    2.30
   0  -4   0   46.30    1.70
   0  -4   0   42.60    2.00
   0  -4   0   41.90    1.90
   0   4   0   42.20    2.30
   0   4   0   44.70    1.90
   0   4   0   42.70    2.20
   0   4   0   45.10    2.00
  -1  -4   0 1033.10   35.50
  -1  -4   0 1032.40   34.70
  -1  -4   0 1018.40   35.00
  -1  -4   0 1100.99   37.30
  -1  -4   0 1018.30   34.70
   1   4   0 1001.40   35.20
   1   4   0 1062.89   34.90
   1   4   0  996.00   35.40
  -2  -4   0   49.60    2.20
  -2  -4   0   49.99    2.90
  -2  -4   0   55.59    5.50
   2   4   0   47.40    3.00
   2   4   0   47.00    2.70
   2   4   0   49.10    2.40
  -3  -4   0  106.79    8.70
  -3  -4   0  113.39    4.40
  -3  -4   0  115.39    5.30
   3   4   0  105.09    5.20
   3   4   0  104.59    4.90
  -4  -4   0   23.70    2.60
  -4  -4   0   22.90    1.90
   4   4   0   22.40    2.90
   4   4   0   23.80    2.40
   5   4   0   70.09    4.40
   5   4   0   76.09    4.90
  -6  -4   0    3.40    5.90
   6   4   0    8.10    1.90
  -9   5   0   30.20    2.80
  -9   5   0   19.20    2.60
  -8   5   0    0.50    1.10
  -8   5   0    0.80    1.20
  -8   5   0   -2.00    3.70
   7  -5   0  427.26   15.50
   7  -5   0  426.26   16.10
  -7   5   0  436.96   15.80
  -7   5   0  453.25   16.30
   5  -5   0  187.48    7.50
   5  -5   0  184.08    7.20
   5  -5   0  180.68    6.90
  -5   5   0  184.28    7.60
  -5   5   0  186.88    7.00
   4  -5   0   31.60    4.90
   3  -5   0  317.77   11.70
   3  -5   0  310.07   11.30
   3  -5   0  352.26   11.00
   3  -5   0  305.67   11.70
  -3   5   0  315.47   11.20
  -3   5   0  324.67   11.70
   1  -5   0  316.27   11.40
   1  -5   0  330.27   11.10
   1  -5   0  326.87   11.90
   1  -5   0  311.47   11.60
  -1   5   0  329.17   11.40
  -1   5   0  331.57   11.90
  -1   5   0  326.27   11.50
   0  -5   0  356.86   13.40
   0  -5   0  378.76   13.30
   0  -5   0  390.76   14.00
   0  -5   0  376.06   13.50
   0   5   0  384.96   13.30
   0   5   0  390.66   13.30
   0   5   0  398.96   14.00
   0   5   0  385.46   13.60
  -1  -5   0  108.19    6.50
  -1  -5   0  103.89    4.90
  -1  -5   0  103.49    4.20
  -1  -5   0  101.79    4.30
  -1  -5   0  105.39    3.90
   1   5   0  100.89    4.60
   1   5   0  103.79    4.90
   1   5   0  107.49    4.20
  -2  -5   0  199.28   10.80
  -2  -5   0  188.58    7.70
  -2  -5   0  175.98    7.00
  -2  -5   0  175.48    6.60
   2   5   0  181.68    7.40
   2   5   0  179.08    7.70
   2   5   0  170.38    6.80
  -3  -5   0    1.50    1.30
  -3  -5   0    0.10    0.90
  -3  -5   0   -1.60    3.70
   3   5   0    1.00    1.30
   3   5   0    1.10    1.10
  -4  -5   0   -1.60    4.50
   4   5   0    1.00    1.30
   4   5   0   -0.70    1.60
  -5  -5   0    1.10    5.10
   5   5   0    4.10    1.70
   5   5   0    4.40    2.10
  -9   6   0   16.30    2.10
   8  -6   0    1.00    0.80
  -8   6   0   -0.90    1.30
  -8   6   0   -0.60    1.00
   7  -6   0  149.09    6.20
   7  -6   0  156.38    6.80
   7  -6   0  163.38    7.10
  -7   6   0  153.48    6.50
  -7   6   0  161.68    7.20
   6  -6   0   74.89    4.30
   6  -6   0   78.49    3.50
   6  -6   0   77.49    3.90
  -6   6   0   74.89    3.60
  -6   6   0   79.39    4.40
   5  -6   0   30.50    1.90
   5  -6   0   32.10    2.30
   5  -6   0   32.40    5.60
   5  -6   0   34.50    2.70
  -5   6   0   37.00    2.80
  -5   6   0   30.00    4.40
  -5   6   0   30.90    2.00
   4  -6   0  807.82   28.20
   4  -6   0  820.32   28.80
   4  -6   0  851.51   28.70
  -4   6   0  789.42   28.00
  -4   6   0  852.01   28.80
   3  -6   0    3.70    4.00
   3  -6   0    7.80    1.00
   3  -6   0    9.80    1.40
   3  -6   0    8.00    1.30
  -3   6   0    7.10    1.20
  -3   6   0    8.60    0.90
   1  -6   0   26.80    2.10
   1  -6   0   25.30    1.60
   1  -6   0   22.80    1.90
  -1   6   0   24.60    2.20
  -1   6   0   23.60    1.70
  -1   6   0   26.30    1.60
   0  -6   0  195.78    7.90
   0  -6   0  177.88    7.20
   0  -6   0  188.48    7.30
   0   6   0  190.08    7.50
   0   6   0  196.08    8.00
   0   6   0  197.58    7.10
  -1  -6   0   63.19    3.70
  -1  -6   0   59.39    3.00
  -1  -6   0   58.09    5.60
   1   6   0   60.09    3.40
   1   6   0   61.39    3.90
   1   6   0   56.99    2.80
  -2  -6   0   39.00    2.60
  -2  -6   0   47.00    6.10
  -2  -6   0   38.70    3.20
   2   6   0   44.20    3.60
   2   6   0   40.40    3.00
  -3  -6   0   11.40    1.70
  -3  -6   0    9.70    7.40
   3   6   0   12.40    2.50
   3   6   0   11.30    1.90
  -4  -6   0    2.30    1.20
   4   6   0    6.50    2.30
   4   6   0    5.80    1.80
  -9   7   0   20.90    3.50
   8  -7   0   43.70    3.60
   8  -7   0   40.40    2.70
  -8   7   0   43.90    2.90
  -8   7   0   40.00    3.90
   7  -7   0   60.19    3.20
   7  -7   0   68.69    4.20
  -7   7   0   57.39    3.30
  -7   7   0   62.79    4.20
   6  -7   0  235.98    9.40
   6  -7   0  217.98    8.50
   6  -7   0  229.18    9.10
  -6   7   0  219.08    8.50
  -6   7   0  224.48    9.40
   5  -7   0  256.27    9.90
   5  -7   0  239.88    9.60
   5  -7   0  237.78    9.00
  -5   7   0  246.18    9.80
  -5   7   0  236.58    8.90
   4  -7   0  186.58    7.80
   4  -7   0  185.18    7.20
   4  -7   0  191.18    7.70
  -4   7   0  193.58    7.80
  -4   7   0  184.78    6.90
   3  -7   0   62.99    3.60
   3  -7   0   53.79    8.80
   3  -7   0   70.39    3.60
   3  -7   0   69.89    3.10
  -3   7   0   68.19    3.20
  -3   7   0   65.69    3.50
   1  -7   0   73.59    3.50
   1  -7   0   73.49    3.70
   1  -7   0   79.99    4.10
  -1   7   0   73.29    4.20
  -1   7   0   73.39    3.40
   0  -7   0   92.49    4.40
   0  -7   0   96.59    4.30
   0  -7   0  102.89    5.10
   0   7   0   99.79    5.20
   0   7   0   94.19    4.10
   0   7   0  100.59    4.70
  -1  -7   0   -0.40    0.70
   1   7   0   -0.60    1.10
   1   7   0    0.00    1.40
  -2  -7   0   -0.40    0.90
   2   7   0    1.20    1.20
   2   7   0    1.10    1.70
  -3  -7   0   43.30    3.20
   3   7   0   48.40    3.80
   3   7   0   49.80    4.60
   8  -8   0   34.10    3.50
   8  -8   0   26.10    2.40
  -8   8   0   28.60    2.40
  -8   8   0   29.40    3.50
   7  -8   0   21.70    2.00
   7  -8   0   26.50    3.10
  -7   8   0   19.00    2.50
  -7   8   0   23.10    2.10
   6  -8   0  165.28    7.40
   6  -8   0  153.18    6.30
  -6   8   0  161.58    7.30
  -6   8   0  148.69    6.30
   5  -8   0    5.30    1.00
   5  -8   0    9.40    1.70
  -5   8   0    4.20    1.40
  -5   8   0    7.70    1.00
   4  -8   0   25.50    2.80
   4  -8   0   29.90    2.50
   4  -8   0   25.30    2.00
   4  -8   0   33.60    7.60
  -4   8   0   25.00    2.10
  -4   8   0   24.40    2.60
   3  -8   0    8.70    1.50
   3  -8   0    7.70    1.50
   3  -8   0    8.30    1.10
  -3   8   0    8.70    1.20
  -3   8   0   11.50    1.90
   2  -8   0    4.10    1.20
   2  -8   0   -0.40    6.00
   2  -8   0    4.20    0.90
  -2   8   0    5.70    1.60
  -2   8   0    9.20    1.20
   0  -8   0   12.80    1.50
   0  -8   0   12.00    1.60
   0   8   0   16.40    2.60
  -1  -8   0   -5.40    6.00
  -1  -8   0    1.90    1.10
   1   8   0    4.00    2.00
   1   8   0    2.70    1.50
  -2  -8   0   41.10    3.10
   2   8   0   42.50    4.70
   2   8   0   38.40    3.50
  -8   9   0   -2.60    1.70
   7  -9   0   21.10    2.20
   7  -9   0   21.70    2.80
  -7   9   0   31.40    3.50
   6  -9   0   57.79    4.40
   6  -9   0   50.99    3.10
  -6   9   0   54.69    4.10
   5  -9   0    0.40    1.30
   5  -9   0    3.80    4.30
   5  -9   0    0.30    0.80
  -5   9   0    1.30    1.00
   4  -9   0    1.40    4.50
   4  -9   0    4.10    1.50
   4  -9   0    3.70    1.00
  -4   9   0    5.80    1.70
  -4   9   0    5.40    1.10
   3  -9   0    0.60    0.80
   3  -9   0    0.80    1.20
   3  -9   0   -2.00    5.30
  -3   9   0    0.80    1.30
   2  -9   0   38.70    3.10
   2  -9   0   31.20    2.40
  -2   9   0   36.90    3.60
   1  -9   0   52.29    3.20
   1  -9   0   52.79    3.50
  -1   9   0   59.79    4.40
   0  -9   0   15.70    1.90
   0  -9   0   21.10    2.30
   0   9   0   25.00    3.30
   1   9   0   12.00    3.00
  -6  10   0   33.00    2.90
   5 -10   0   69.59    4.00
   5 -10   0   82.49    5.20
  -5  10   0   86.89    5.20
   4 -10   0   20.70    2.70
   4 -10   0   23.30    2.30
  -4  10   0   28.30    3.40
   3 -10   0   23.10    2.30
   3 -10   0   25.90    3.20
  -3  10   0   29.90    3.50
   2 -10   0    1.70    1.30
   2 -10   0    1.80    1.10
  -2  10   0    2.60    1.70
   1 -10   0   -0.20    1.00
  -1  10   0   -0.40    1.60
  -5  11   0   50.49    5.00
  -4  11  -1   59.99    4.60
  -1  10  -1    5.30    2.10
   1 -10   1    2.80    1.10
  -2  10  -1   28.10    3.40
   2 -10   1   22.60    2.30
   2 -10   1   21.40    2.60
  -3  10  -1   78.19    4.90
   3 -10   1   70.99    4.40
   3 -10   1   69.29    3.80
  -4  10  -1    2.40    1.40
   4 -10   1    3.50    1.50
   4 -10   1    1.60    5.30
   4 -10   1    2.20    1.00
  -5  10  -1    0.80    1.00
  -5  10  -1    2.50    1.50
   5 -10   1    1.10    5.10
   5 -10   1    0.40    0.80
   5 -10   1    0.90    1.30
  -6  10  -1   58.99    3.90
   6 -10   1   72.59    5.80
   6 -10   1   64.19    3.80
   1   9  -1    4.50    2.20
  -1  -9   1   12.80   10.00
  -1  -9   1    0.00    1.10
   0   9  -1   21.50    3.10
   0  -9   1   13.20    1.60
   0  -9   1    5.40    8.00
   0  -9   1   15.70    1.80
  -1   9  -1   84.89    5.20
   1  -9   1   75.69    4.10
   1  -9   1   74.59    4.00
  -2   9  -1   16.40    2.10
  -2   9  -1   19.90    2.60
   2  -9   1   17.90    1.90
   2  -9   1   19.00    2.40
   2  -9   1   12.60    7.20
  -3   9  -1    1.00    0.80
  -3   9  -1    0.00    1.20
   3  -9   1   -0.30    1.00
   3  -9   1   -2.10    5.50
   3  -9   1   -0.40    0.70
  -6   9  -1    1.20    1.40
   6  -9   1    2.50    1.00
   6  -9   1   -0.60    4.00
   6  -9   1    2.80    1.50
  -7   9  -1    8.10    2.10
   7  -9   1    9.00    2.00
   7  -9   1    7.40    1.40
  -8   9  -1    9.20    1.60
  -8   9  -1    5.00    2.00
   8  -9   1    4.50    2.40
   2   8  -1    3.80    2.20
  -2  -8   1   -8.10    7.50
  -2  -8   1    4.10    1.40
  -1   8  -1   44.30    3.40
  -1   8  -1   39.10    2.40
   1  -8   1   42.20    2.50
   1  -8   1   38.70    2.70
  -3   8  -1   43.40    3.10
  -3   8  -1   36.70    2.40
   3  -8   1   31.90    2.80
   3  -8   1   36.50    2.30
   3  -8   1   39.60    2.90
  -4   8  -1   28.00    1.70
  -4   8  -1   27.00    2.20
  -4   8  -1   25.40    2.50
   4  -8   1   26.70    2.70
   4  -8   1   27.80    2.00
   4  -8   1   18.80    6.00
   4  -8   1   25.90    2.30
  -5   8  -1   31.60    2.90
  -5   8  -1   34.80    2.10
   5  -8   1   36.80    3.10
   5  -8   1   30.80    2.20
  -6   8  -1    1.30    0.80
  -6   8  -1    4.50    1.60
   6  -8   1   -0.70    3.80
   6  -8   1    2.20    0.80
   6  -8   1    3.30    1.30
  -7   8  -1    0.30    1.30
  -7   8  -1    0.90    0.90
   7  -8   1    0.50    1.20
   7  -8   1    1.70    0.90
  -8   8  -1    9.70    1.60
  -8   8  -1    5.30    1.90
   8  -8   1    7.20    1.80
   8  -8   1    8.10    1.40
  -4  -7   1    8.20   11.40
   3   7  -1   -0.30    1.30
   3   7  -1   -1.40    1.80
  -3  -7   1    0.00    1.00
   2   7  -1   73.19    4.40
   2   7  -1   82.19    5.30
  -2  -7   1   74.29    3.90
   1   7  -1   38.00    3.40
   1   7  -1   33.60    2.20
   1   7  -1   34.50    2.80
  -1  -7   1   37.30    2.50
   0   7  -1  163.18    6.40
   0   7  -1  169.68    7.30
   0  -7   1  158.78    6.40
   0  -7   1  163.98    6.50
   0  -7   1  163.08    7.20
  -2   7  -1   83.29    3.80
  -2   7  -1   85.29    3.70
  -2   7  -1   83.79    4.30
   2  -7   1   86.19    4.20
   2  -7   1   77.99    4.00
   2  -7   1   77.79    3.60
  -3   7  -1   49.70    2.20
  -3   7  -1   42.00    2.90
  -3   7  -1   43.90    2.70
   3  -7   1   50.39    3.00
   3  -7   1   47.40    3.00
   3  -7   1   50.59    2.50
  -4   7  -1  201.68    7.80
  -4   7  -1  216.48    8.50
   4  -7   1  219.48    8.50
   4  -7   1  206.58    7.90
   4  -7   1  213.78    8.60
  -5   7  -1   19.70    1.70
  -5   7  -1   22.30    2.50
   5  -7   1   21.90    2.00
   5  -7   1   20.20    1.70
   5  -7   1   24.30    2.50
  -6   7  -1    9.60    1.70
  -6   7  -1    8.70    1.30
   6  -7   1   10.30    1.70
   6  -7   1   11.20    1.70
   6  -7   1    8.50    1.10
  -7   7  -1   46.90    3.00
  -7   7  -1   51.59    3.90
   7  -7   1   52.49    2.90
   7  -7   1   51.09    3.70
  -8   7  -1    0.60    1.00
  -8   7  -1   -2.70    1.30
   8  -7   1    0.70    0.80
   4   6  -1   -2.20    1.60
   4   6  -1    0.20    1.30
  -4  -6   1    0.20    1.00
   3   6  -1   30.50    3.00
   3   6  -1   32.70    3.80
  -3  -6   1   36.40    8.40
  -3  -6   1   30.00    2.50
   2   6  -1   11.60    2.00
   2   6  -1   11.40    1.30
   2   6  -1   11.60    1.80
  -2  -6   1   14.50    1.50
  -2  -6   1   13.00    3.50
  -2  -6   1   13.60    2.00
   1   6  -1  201.48    7.80
   1   6  -1  216.48    8.70
   1   6  -1  209.08    8.30
  -1  -6   1  194.28    7.80
  -1  -6   1  204.98   10.00
  -1  -6   1  222.58    8.70
   0   6  -1  123.89    5.30
   0   6  -1  126.99    4.90
   0   6  -1  124.49    5.60
   0  -6   1  117.99    4.90
   0  -6   1  127.99    5.60
   0  -6   1  118.79    4.90
  -1   6  -1   99.99    4.60
  -1   6  -1  101.69    4.20
  -1   6  -1   96.99    4.10
   1  -6   1  100.49    4.10
   1  -6   1   97.79    4.30
   1  -6   1   99.79    4.60
  -2   6  -1 2004.80   67.39
  -2   6  -1 1974.70   67.29
  -2   6  -1 2037.70   67.69
   2  -6   1 2082.49   67.79
   2  -6   1 1941.31   67.19
   2  -6   1 1948.91   67.49
  -3   6  -1    3.80    0.60
  -3   6  -1    3.60    1.00
   3  -6   1    3.70    1.00
   3  -6   1    6.30    1.20
   3  -6   1    4.30    0.70
   3  -6   1   -0.50    3.00
  -4   6  -1  554.24   19.50
  -4   6  -1  574.04   20.10
   4  -6   1  582.84   20.10
   4  -6   1  562.34   20.20
   4  -6   1  556.44   19.60
  -5   6  -1   34.30    2.70
  -5   6  -1   34.40    2.10
   5  -6   1   35.90    2.00
   5  -6   1   35.30    2.40
   5  -6   1   35.10    2.70
  -7   6  -1   29.00    2.40
  -7   6  -1   32.20    3.10
   7  -6   1   28.40    2.10
   7  -6   1   29.50    3.00
   7  -6   1   34.90    2.90
  -8   6  -1   -0.20    1.50
  -8   6  -1    0.50    1.00
   8  -6   1    0.30    0.90
  -9   6  -1   50.09    3.70
   5   5  -1    2.30    1.50
   5   5  -1   -1.60    1.70
  -5  -5   1   -2.40    4.90
   4   5  -1   -1.70    1.40
   4   5  -1   -0.80    1.20
  -4  -5   1   -0.30    4.40
   3   5  -1   24.00    2.50
   3   5  -1   25.20    2.90
  -3  -5   1   24.50    1.80
  -3  -5   1   28.40    2.20
  -3  -5   1   28.70    2.70
  -3  -5   1   24.40    5.80
   2   5  -1   -0.20    0.50
   2   5  -1    0.40    1.10
   2   5  -1    0.20    0.80
  -2  -5   1    1.40    0.60
  -2  -5   1    0.20    1.00
  -2  -5   1    0.50    0.70
   1   5  -1   -0.20    0.90
   1   5  -1    0.00    0.50
   1   5  -1    0.00    0.70
  -1  -5   1    0.50    0.60
  -1  -5   1    1.10    0.90
   0   5  -1  895.91   30.90
   0   5  -1  922.81   30.40
   0   5  -1  893.71   30.60
   0  -5   1  924.31   30.90
   0  -5   1  839.92   30.30
   0  -5   1  877.61   30.30
   0  -5   1  898.61   30.40
  -1   5  -1   75.99    3.60
  -1   5  -1   81.29    3.40
  -1   5  -1   81.19    3.30
   1  -5   1   84.89    3.70
   1  -5   1   79.29    3.30
   1  -5   1   77.29    3.50
   1  -5   1   81.99    3.40
  -2   5  -1 1749.22   59.79
  -2   5  -1 1808.52   59.39
  -2   5  -1 1782.92   59.69
   2  -5   1 1799.72   59.99
   2  -5   1 1706.53   59.79
   2  -5   1 1624.34   59.49
   2  -5   1 1941.61   59.39
  -3   5  -1  104.79    4.50
  -3   5  -1  103.79    4.00
   3  -5   1  103.89    4.00
   3  -5   1   99.89    4.40
   3  -5   1  104.79    4.40
  -4   5  -1  159.28    6.40
  -4   5  -1  155.18    5.90
   4  -5   1  152.88    6.40
   4  -5   1  162.28    6.30
   4  -5   1  157.48    5.90
  -5   5  -1   83.89    4.20
  -5   5  -1   84.59    3.70
   5  -5   1   85.49    3.90
   5  -5   1   83.09    4.10
   5  -5   1   81.59    3.50
  -6   5  -1  351.56   13.10
  -6   5  -1  348.27   12.60
   6  -5   1  341.67   12.40
   6  -5   1  342.27   12.80
   6  -5   1  351.86   13.00
  -7   5  -1   90.59    4.50
  -7   5  -1  101.69    5.10
   7  -5   1   93.19    4.20
  -8   5  -1    9.50    5.10
  -8   5  -1    2.80    1.40
  -8   5  -1    3.20    1.30
  -9   5  -1   81.19    5.20
  -9   5  -1   78.59    4.60
   5   4  -1    3.80    1.50
   5   4  -1    2.00    1.80
  -5  -4   1    5.00    1.30
   4   4  -1   27.60    3.00
   4   4  -1   28.70    2.50
  -4  -4   1   26.50    2.70
  -4  -4   1   25.50    2.10
   3   4  -1   13.10    1.90
   3   4  -1   12.60    1.60
  -3  -4   1   13.00    1.90
  -3  -4   1   14.90    4.70
  -3  -4   1   12.30    1.30
   2   4  -1    1.70    0.80
   2   4  -1    1.10    0.60
   2   4  -1    0.50    0.90
  -2  -4   1    0.50    2.40
  -2  -4   1    0.30    0.80
  -2  -4   1    2.30    0.60
   1   4  -1  266.07    9.80
   1   4  -1  271.07    9.60
   1   4  -1  261.97   10.00
  -1  -4   1  276.97   10.00
  -1  -4   1  277.17   11.80
  -1  -4   1  261.67    9.50
   0   4  -1  413.86   15.30
   0   4  -1  429.06   15.10
   0   4  -1  407.56   14.80
   0   4  -1  469.35   15.40
   0   4  -1  450.15   15.00
   0  -4   1  431.06   15.30
   0  -4   1  485.35   14.80
   0  -4   1  426.66   14.90
   0  -4   1  401.56   14.90
   0  -4   1  431.16   14.90
  -1   4  -1  338.27   11.50
  -1   4  -1  323.57   11.20
  -1   4  -1  309.27   11.20
  -1   4  -1  307.77   11.40
   1  -4   1  308.77   11.30
   1  -4   1  304.87   11.10
   1  -4   1  308.07   11.40
   1  -4   1  361.76   11.20
   1  -4   1  327.27   11.30
  -2   4  -1    0.10    0.40
  -2   4  -1    0.10    0.50
  -2   4  -1    1.70    0.40
   2  -4   1    0.00    2.20
   2  -4   1    0.10    0.20
   2  -4   1    0.10    0.40
   2  -4   1   -0.30    0.40
   2  -4   1    1.20    0.40
  -3   4  -1   22.20    1.60
  -3   4  -1   23.60    1.30
  -3   4  -1   23.10    1.50
   3  -4   1   23.90    1.60
   3  -4   1   23.10    1.50
   3  -4   1   22.30    1.20
  -4   4  -1  624.84   22.30
  -4   4  -1  634.94   21.70
  -4   4  -1  626.14   22.00
   4  -4   1  644.64   21.90
   4  -4   1  622.04   21.60
   4  -4   1  636.94   22.00
   5  -4   1  273.37   13.60
  -9   4  -1   14.80    2.30
  -9   4  -1   11.20    1.90
  -9   4  -1    4.70    5.40
   7   3  -1    1.80    1.40
   6   3  -1   28.30    2.90
  -6  -3   1   25.60    2.60
   5   3  -1    5.10    1.30
   5   3  -1    7.20    1.90
  -5  -3   1    6.40    1.30
   4   3  -1  203.48    8.40
   4   3  -1  199.08    8.00
  -4  -3   1  203.88    7.60
   3   3  -1   25.00    1.90
   3   3  -1   25.60    2.20
  -3  -3   1   24.20    2.10
   2   3  -1  161.38    6.40
   2   3  -1  163.08    6.60
   2   3  -1  177.68    6.60
   2   3  -1  167.58    6.20
  -2  -3   1  167.58    6.10
  -2  -3   1  169.58    9.00
  -2  -3   1  177.08    6.60
   1   3  -1  240.78    9.20
   1   3  -1  254.57    8.90
   1   3  -1  261.47    9.10
   1   3  -1  239.58    9.00
  -1  -3   1  262.47   10.70
  -1  -3   1  256.87    9.20
   0   3  -1    2.60    0.50
   0   3  -1    1.30    0.50
   0   3  -1    3.00    0.40
   0   3  -1    1.00    0.60
   0  -3   1    2.80    0.40
   0  -3   1    1.80    0.40
   0  -3   1    2.90    0.60
  -1   3  -1 2093.29   74.89
  -1   3  -1 2348.17   76.09
  -1   3  -1 2254.47   75.59
   1  -3   1 2111.29   75.29
   1  -3   1 2250.47   74.99
   1  -3   1 2456.75   74.89
   1  -3   1 2269.07   75.19
   1  -3   1 2274.87   76.29
   1  -3   1 2090.39   75.29
  -2   3  -1  315.37   10.80
  -2   3  -1  314.07   11.10
  -2   3  -1  323.47   11.10
   2  -3   1  306.77   10.80
   2  -3   1  315.77   11.10
   2  -3   1  315.07   11.10
  -3   3  -1  857.81   29.40
  -3   3  -1  863.41   29.40
  -3   3  -1  883.51   29.20
   3  -3   1  846.12   29.40
   3  -3   1  862.51   29.40
   3  -3   1  860.11   29.10
  -4   3  -1   18.70    1.70
  -4   3  -1   20.60    1.40
  -4   3  -1   23.90    1.60
  -4   3  -1   22.90    1.10
   4  -3   1   22.90    1.60
   4  -3   1   21.50    1.40
   4  -3   1   16.70    3.60
   4  -3   1   21.90    1.20
   5  -3   1  738.53   28.80
  -6   3  -1  261.07   10.00
  -6   3  -1  270.67   10.20
   6  -3   1  269.77   10.00
  -9   3  -1   26.70    3.10
  -9   3  -1   15.00    2.50
   7   2  -1   41.70    3.40
  -7  -2   1   45.30    3.30
   6   2  -1    8.50    1.60
  -6  -2   1    8.50    1.50
   5   2  -1    7.80    1.40
  -5  -2   1    8.80    1.30
   4   2  -1   88.29    4.10
   4   2  -1   90.39    4.40
  -4  -2   1   93.19    3.90
   3   2  -1   74.29    3.40
   3   2  -1   77.39    3.60
   3   2  -1   76.49    3.60
  -3  -2   1   82.59    3.30
   2   2  -1    2.90    0.60
   2   2  -1    3.00    0.70
   2   2  -1    3.10    0.60
   2   2  -1    1.40    0.60
  -2  -2   1    3.00    0.60
  -2  -2   1    0.30    1.90
   1   2  -1   94.09    3.70
   1   2  -1   91.79    3.60
   1   2  -1   89.69    3.70
   1   2  -1   96.59    3.50
  -1  -2   1   96.59    3.70
   0   2  -1 5721.43  197.08
   0   2  -1 6140.89  196.88
   0   2  -1 5340.07  196.98
   0   2  -1 6190.18  196.08
   0   2  -1 5998.30  196.08
   0   2  -1 5586.84  196.68
   0   2  -1 5969.50  196.98
   0  -2   1 6235.98  197.48
   0  -2   1 5749.12  196.18
   0  -2   1 5600.84  196.08
   0  -2   1 5600.74  196.88
   0  -2   1 6428.46  196.68
   0  -2   1 5958.10  196.68
   0  -2   1 5531.35  196.28
  -1   2  -1    3.40    0.40
  -1   2  -1    3.10    0.30
  -1   2  -1    3.30    0.20
  -1   2  -1    2.30    0.40
  -1   2  -1    2.40    0.40
  -1   2  -1    3.70    0.40
   1  -2   1    3.80    0.50
   1  -2   1    3.00    0.30
   1  -2   1    3.30    0.30
   1  -2   1    2.40    0.40
   1  -2   1    2.30    0.40
   1  -2   1    3.90    0.40
  -2   2  -1    0.20    0.30
  -2   2  -1    0.20    0.30
  -2   2  -1   -0.30    1.20
  -2   2  -1   -0.20    0.90
  -2   2  -1    0.30    0.30
  -2   2  -1    0.60    0.10
   2  -2   1   -0.60    1.10
   2  -2   1    0.50    0.20
   2  -2   1    0.10    0.30
   2  -2   1    0.50    0.30
  -3   2  -1 2157.98   75.69
  -3   2  -1 2198.98   75.69
  -3   2  -1 2424.86   75.69
  -3   2  -1 2263.77   75.59
   3  -2   1 2243.98   75.69
   3  -2   1 2391.86   85.89
   3  -2   1 2137.19   76.59
   3  -2   1 2235.08   76.09
   4  -2   1   18.20    4.00
  -5   2  -1  505.45   17.60
  -5   2  -1  501.35   17.50
   5  -2   1  511.05   17.50
   5  -2   1  481.95   20.50
  -6   2  -1    9.60    1.40
  -6   2  -1   11.80    1.40
   6  -2   1   10.50    1.30
   6  -2   1   10.40    1.30
  -7   2  -1  104.19    4.90
  -7   2  -1  108.79    5.10
   7  -2   1  105.59    4.70
  -8   2  -1    2.90    1.30
  -8   2  -1    2.10    1.20
  -8   2  -1    4.40    5.30
   8  -2   1    2.50    1.10
  -9   2  -1  110.99    6.60
   8   1  -1    7.20    1.70
  -8  -1   1    9.70    1.80
   6   1  -1    2.20    1.10
  -6  -1   1    0.90    1.10
  -6  -1   1   -5.80    4.50
   5   1  -1  180.78    7.10
  -5  -1   1  179.18    6.60
  -5  -1   1  181.68    7.00
   4   1  -1    1.60    0.70
  -4  -1   1    9.90    3.60
   3   1  -1  340.37   12.10
   3   1  -1  334.97   11.90
   3   1  -1  346.57   12.10
  -3  -1   1  334.17   11.80
   2   1  -1  113.39    4.60
   2   1  -1  121.09    4.60
   2   1  -1  125.29    4.50
  -2  -1   1  124.69    4.40
   1   1  -1 9429.06  318.57
   1   1  -1 9362.46  318.27
   1   1  -1 8852.31  318.67
  -1  -1   1 9999.00  318.37
  -1  -1   1 9902.71  318.67
  -1  -1   1 9454.35  318.97
  -1  -1   1 9591.34  318.17
   0   1  -1 3725.93  122.89
   0   1  -1 3502.75  123.29
   0   1  -1 3720.93  123.39
   0   1  -1 3921.71  123.39
   0   1  -1 3543.55  123.39
   0   1  -1 3731.23  122.99
   0  -1   1 3561.74  123.29
   0  -1   1 3566.94  123.39
   0  -1   1 4026.40  123.39
   0  -1   1 3567.44  123.29
   0  -1   1 3773.32  123.39
   0  -1   1 3454.25  122.89
  -1   1  -1 4340.37  145.89
  -1   1  -1 4415.96  145.79
  -1   1  -1 4455.95  152.08
  -1   1  -1 4478.05  145.89
  -1   1  -1 4237.58  146.29
   1  -1   1 4283.77  146.29
   1  -1   1 4340.47  145.79
   1  -1   1 4208.18  146.09
   1  -1   1 4605.64  152.68
   1  -1   1 4219.48  146.09
   1  -1   1 4313.97  145.69
  -2   1  -1  911.11   31.20
  -2   1  -1  865.31   31.10
  -2   1  -1  943.01   31.10
  -2   1  -1  974.10   32.70
  -2   1  -1  932.91   31.20
  -2   1  -1  868.21   31.20
  -2   1  -1  896.21   31.10
   2  -1   1  977.10   31.10
   2  -1   1  945.11   35.30
  -3   1  -1  607.04   20.50
  -3   1  -1  586.14   20.50
  -3   1  -1  617.24   20.60
   3  -1   1  594.84   20.50
   3  -1   1  603.54   22.60
  -4   1  -1 2448.96   82.69
  -4   1  -1 2408.06   82.79
   4  -1   1 2543.55   82.69
  -5   1  -1   23.10    1.90
  -5   1  -1   16.00    1.80
   5  -1   1   23.90    1.70
   5  -1   1   21.70    1.70
  -6   1  -1   28.60    2.20
  -6   1  -1   27.70    2.20
   6  -1   1   28.60    2.10
  -7   1  -1  248.98    9.70
  -7   1  -1  248.78    9.60
   7  -1   1  251.87    9.70
   8   0  -1   45.60    3.20
  -8   0   1   40.10    2.80
  -8   0   1   38.30    9.30
  -8   0   1   43.20    3.30
   7   0  -1   51.69    3.20
  -7   0   1   49.40    3.00
  -7   0   1   53.59    3.50
  -7   0   1   62.39   11.00
   6   0  -1   29.20    2.10
  -6   0   1   30.40    2.10
  -6   0   1   28.90    2.40
   5   0  -1 1578.64   53.29
   5   0  -1 1606.84   53.69
   5   0  -1 1617.34   53.29
  -5   0   1 1550.54   53.39
  -5   0   1 1530.15   53.19
   4   0  -1  346.87   12.20
   4   0  -1  372.36   12.50
   4   0  -1  342.17   12.70
  -4   0   1  352.36   12.50
  -4   0   1  374.96   12.50
  -4   0   1  344.67   12.40
   3   0  -1  199.38    7.00
   3   0  -1  196.78    7.20
  -3   0   1  193.38    7.00
  -3   0   1  193.48    7.10
  -3   0   1  199.68    7.00
   2   0  -1 4567.64  157.18
   2   0  -1 4491.85  156.48
   2   0  -1 4704.13  156.58
   2   0  -1 4741.23  156.58
  -2   0   1 4364.56  156.58
  -2   0   1 5244.78  156.78
  -2   0   1 4413.16  156.98
  -2   0   1 4456.45  156.58
  -2   0   1 5098.29  156.48
   1   0  -1   30.20    1.30
   1   0  -1   31.00    1.40
   1   0  -1   28.80    1.30
   1   0  -1   32.10    1.30
  -1   0   1   31.50    1.30
  -1   0   1   34.60    1.20
  -1   0   1   33.20    1.40
  -1   0   1   33.20    1.40
   0   0   1  222.68    8.30
  -1   0  -1   11.00    0.60
  -1   0  -1   11.50    1.60
  -1   0  -1   10.30    0.60
  -1   0  -1   11.40    0.60
  -1   0  -1   10.90    0.60
   1   0   1   12.20    0.60
   1   0   1   12.60    1.90
  -2   0  -1 2017.60   65.79
  -2   0  -1 1973.60   65.89
  -2   0  -1 1877.01   69.49
   2   0   1 2019.30   65.59
   2   0   1 1907.81   66.19
  -3   0  -1    8.10    0.90
  -3   0  -1    6.20    0.70
  -3   0  -1    7.90    0.80
   3   0   1    9.00    0.90
   3   0   1    6.60    1.00
   3   0   1    7.20    0.80
  -4   0  -1  557.04   19.20
  -4   0  -1  545.05   19.10
  -4   0  -1  543.35   19.10
   4   0   1  557.84   19.20
   4   0   1  575.54   19.00
  -5   0  -1    1.50    0.80
  -5   0  -1    1.30    0.70
   5   0   1    1.60    0.70
   5   0   1    1.10    0.80
  -7   0  -1    1.70    0.90
  -7   0  -1    1.90    1.10
  -7   0  -1    6.30    5.70
   7   0   1    2.10    1.20
  -8   1   1    7.10    1.40
  -8   1   1    8.20    6.20
  -8   1   1    7.20    1.70
   7  -1  -1   38.70    2.50
  -7   1   1   30.80    2.80
  -7   1   1   38.80    2.90
   6  -1  -1   20.20    1.60
   6  -1  -1   16.80    1.80
  -6   1   1   17.50    1.90
  -6   1   1   20.50    2.00
   5  -1  -1  367.36   12.30
   5  -1  -1  318.87   12.50
  -5   1   1  344.87   12.50
  -5   1   1  356.06   12.90
  -5   1   1  355.76   12.50
   4  -1  -1 1853.01   59.79
   4  -1  -1 1787.72   59.89
   4  -1  -1 1678.63   59.99
  -4   1   1 1699.73   59.89
  -4   1   1 1870.91   59.99
  -4   1   1 1721.73   59.99
  -4   1   1 1859.91   59.99
   3  -1  -1  239.48    8.70
   3  -1  -1  234.48    8.70
   3  -1  -1  254.67    8.50
  -3   1   1  243.18    8.70
  -3   1   1  261.87    8.80
  -3   1   1  231.28    8.70
  -3   1   1  257.87    8.70
  -3   1   1  246.78    9.50
   2  -1  -1  397.56   12.60
   2  -1  -1  365.16   12.60
   2  -1  -1  335.77   12.50
   2  -1  -1  367.96   12.40
   2  -1  -1  356.56   12.50
  -2   1   1  349.17   12.50
  -2   1   1  367.26   12.40
  -2   1   1  370.16   12.50
  -2   1   1  384.66   12.60
   1  -1  -1 5257.27  168.58
   1  -1  -1 5018.20  169.18
   1  -1  -1 4811.42  168.58
   1  -1  -1 4986.30  169.28
  -1   1   1 5071.39  168.58
  -1   1   1 5161.78  169.28
  -1   1   1 4995.20  168.58
   0  -1  -1  119.59    4.40
   0  -1  -1  119.89    4.30
   0  -1  -1  124.19    4.30
   0  -1  -1  118.59    4.30
   0   1   1  125.69    4.30
   0   1   1  119.09    4.30
   0   1   1  127.19    5.00
   0   1   1  117.09    4.30
  -1  -1  -1   41.90    1.60
  -1  -1  -1   41.80    1.70
  -1  -1  -1   47.60    1.70
  -1  -1  -1   43.70    1.60
  -1  -1  -1   37.10    3.00
   1   1   1   44.60    1.60
   1   1   1   34.60    2.90
   1   1   1   42.30    1.60
   1   1   1   40.40    1.80
   1   1   1   42.20    1.60
   1   1   1   42.10    1.80
  -2  -1  -1  949.11   32.60
  -2  -1  -1  971.90   32.60
  -2  -1  -1  959.10   32.60
   2   1   1  980.70   32.60
   2   1   1  992.60   32.80
  -3  -1  -1  389.46   13.60
  -3  -1  -1  398.36   13.50
   3   1   1  386.66   13.40
   3   1   1  387.96   13.90
   3   1   1  398.66   13.80
  -4  -1  -1    3.00    0.90
  -4  -1  -1    2.40    0.70
  -4  -1  -1    3.20    0.60
   4   1   1    2.60    1.00
   4   1   1    3.00    0.90
  -5  -1  -1  166.68    6.40
  -5  -1  -1  157.98    6.10
   5   1   1  157.68    6.50
  -6  -1  -1   95.19    4.10
  -6  -1  -1   97.29    4.50
   6   1   1   94.19    4.70
  -7  -1  -1   45.90    3.20
  -7  -1  -1   48.00    2.80
   7   1   1   49.99    3.50
  -8  -1  -1   24.60    2.70
   8   1   1   24.40    2.90
  -9   2   1    2.70    1.30
   7  -2  -1  225.48    8.60
  -7   2   1  226.38    9.10
  -7   2   1  240.08    9.20
   6  -2  -1  693.63   25.80
   6  -2  -1  766.92   25.50
  -6   2   1  754.82   25.90
  -6   2   1  767.62   26.00
   5  -2  -1  236.98    8.00
   5  -2  -1  231.18    8.40
   5  -2  -1  199.78    8.20
  -5   2   1  230.78    8.30
  -5   2   1  221.18    8.30
  -5   2   1  220.58    8.40
   4  -2  -1 1588.64   51.79
   4  -2  -1 1670.73   51.69
   4  -2  -1 1575.94   52.09
   4  -2  -1 1416.96   51.89
  -4   2   1 1549.54   51.99
  -4   2   1 1483.55   52.09
  -4   2   1 1515.35   51.99
   3  -2  -1  636.54   21.20
   3  -2  -1  603.64   21.40
   3  -2  -1  638.94   21.30
   3  -2  -1  638.34   21.60
  -3   2   1  609.54   21.40
  -3   2   1  632.54   21.60
  -3   2   1  640.84   21.40
   2  -2  -1 3842.42  132.19
   2  -2  -1 3824.32  131.89
   2  -2  -1 4256.77  131.39
   2  -2  -1 3889.61  131.39
  -2   2   1 3886.61  132.19
  -2   2   1 3737.93  132.19
  -2   2   1 3982.00  131.39
   1  -2  -1  202.98    7.20
   1  -2  -1  201.18    7.20
   1  -2  -1  194.78    7.10
   1  -2  -1  201.68    7.20
   1  -2  -1  211.78    7.00
   1  -2  -1  218.18    7.00
  -1   2   1  206.18    7.20
  -1   2   1  202.78    7.00
  -1   2   1  200.68    7.20
  -1   2   1  196.28    7.10
  -1   2   1  213.38    7.40
  -1   2   1  207.08    7.00
   0  -2  -1 1857.21   61.79
   0  -2  -1 1692.63   61.09
   0  -2  -1 1824.12   60.79
   0   2   1 1808.92   61.29
   0   2   1 1764.72   60.79
   0   2   1 1888.21   60.69
   0   2   1 1816.62   61.19
  -1  -2  -1   23.70    1.10
  -1  -2  -1   25.30    1.10
  -1  -2  -1   23.30    1.00
  -1  -2  -1   23.50    2.70
   1   2   1   24.60    1.10
   1   2   1   25.10    1.10
   1   2   1   22.90    1.40
   1   2   1   24.30    1.30
  -2  -2  -1    5.30    0.60
  -2  -2  -1    8.20    0.70
  -2  -2  -1    1.50    2.20
   2   2   1    5.70    0.90
   2   2   1    5.10    0.80
  -3  -2  -1  548.45   18.80
  -3  -2  -1  557.04   18.70
   3   2   1  534.95   19.10
  -4  -2  -1   23.50    1.70
  -4  -2  -1   22.60    1.50
   4   2   1   23.10    2.20
   4   2   1   21.30    1.90
  -5  -2  -1  142.39    5.60
  -5  -2  -1  146.79    5.90
   5   2   1  147.29    6.60
   5   2   1  148.29    6.30
  -6  -2  -1    0.70    4.20
  -6  -2  -1   -0.80    0.90
   6   2   1   -0.10    1.20
  -9   3   1   17.50    2.30
  -9   3   1   19.30    2.50
  -9   3   1   14.30    6.20
  -7   3   1   21.40    2.20
  -7   3   1   22.70    2.60
   5  -3  -1   41.30    2.50
   5  -3  -1   43.40    2.00
   5  -3  -1   44.00    2.10
   5  -3  -1   45.40    1.90
  -5   3   1   34.60    2.60
  -5   3   1   43.60    2.40
  -5   3   1   42.00    2.30
   4  -3  -1  107.59    4.00
   4  -3  -1  109.69    4.30
   4  -3  -1  109.89    4.10
   4  -3  -1  113.79    4.60
  -4   3   1  107.39    4.50
  -4   3   1  101.79    4.30
  -4   3   1  107.39    4.30
   3  -3  -1  629.34   21.60
   3  -3  -1  648.54   22.00
   3  -3  -1  661.63   21.50
   3  -3  -1  627.94   21.80
  -3   3   1  624.64   22.00
  -3   3   1  638.44   21.70
  -3   3   1  630.24   21.90
   2  -3  -1 1754.02   56.79
   2  -3  -1 1845.82   56.79
   2  -3  -1 1643.14   57.19
   2  -3  -1 1626.44   57.39
   2  -3  -1 1694.83   57.29
  -2   3   1 1632.24   57.09
  -2   3   1 1715.93   57.19
  -2   3   1 1674.33   56.89
   1  -3  -1  109.79    4.20
   1  -3  -1  109.49    4.10
   1  -3  -1  106.79    4.20
  -1   3   1  103.79    4.10
  -1   3   1  110.19    4.30
  -1   3   1  109.79    4.00
   0  -3  -1    2.30    0.40
   0  -3  -1    2.20    0.40
   0  -3  -1    2.30    0.50
   0  -3  -1    3.20    1.20
   0  -3  -1    2.60    0.40
   0   3   1    2.40    0.30
   0   3   1    2.40    0.50
   0   3   1    2.80    0.40
   0   3   1    1.80    0.50
  -1  -3  -1   82.49    3.20
  -1  -3  -1   84.19    3.10
  -1  -3  -1   91.19    5.30
  -1  -3  -1   83.59    3.30
  -1  -3  -1   89.89    3.80
   1   3   1   84.09    3.70
   1   3   1   88.39    3.20
   1   3   1   83.69    3.50
  -2  -3  -1  100.99    3.90
  -2  -3  -1  102.99    3.90
  -2  -3  -1  110.99    7.30
   2   3   1  107.19    4.40
   2   3   1  102.69    4.60
  -3  -3  -1   92.99    3.60
  -3  -3  -1   80.39    7.70
   3   3   1   89.59    4.10
   3   3   1   90.39    4.40
  -4  -3  -1   30.40    2.00
   4   3   1   26.00    2.30
   4   3   1   26.50    2.70
  -5  -3  -1  100.99    4.50
   5   3   1  102.89    5.50
   5   3   1  101.79    5.10
  -6  -3  -1   13.60    6.60
  -9   4   1   16.40    2.20
  -9   4   1   14.30    2.20
  -9   4   1   16.00    6.40
  -8   4   1   91.69    5.10
  -8   4   1   89.59    4.60
   7  -4  -1  290.87   11.50
  -7   4   1  308.77   11.40
  -7   4   1  309.87   11.80
   6  -4  -1   88.09    3.80
   6  -4  -1   91.19    4.40
   6  -4  -1   95.99    3.50
   6  -4  -1   85.69    3.70
  -6   4   1   89.99    4.50
  -6   4   1   88.99    4.10
   5  -4  -1  175.48    6.60
   5  -4  -1  178.88    7.20
   5  -4  -1  179.28    6.40
   5  -4  -1  181.08    6.90
  -5   4   1  179.98    6.80
  -5   4   1  174.88    7.30
   4  -4  -1   59.49    2.70
   4  -4  -1   55.39    2.40
   4  -4  -1   57.99    2.30
   4  -4  -1   54.49    3.00
  -4   4   1   56.09    2.60
  -4   4   1   61.79    2.80
  -4   4   1   50.19    3.00
   3  -4  -1 1045.10   31.60
   3  -4  -1  907.91   32.00
   3  -4  -1  889.41   32.20
   3  -4  -1  913.41   31.70
  -3   4   1  938.01   31.70
  -3   4   1  941.81   32.10
  -3   4   1  939.91   32.20
   1  -4  -1 1534.65   51.19
   1  -4  -1 1440.86   50.79
   1  -4  -1 1475.85   50.99
  -1   4   1 1523.25   50.89
  -1   4   1 1568.14   51.19
  -1   4   1 1498.25   50.99
  -1   4   1 1542.75   50.69
   0  -4  -1  452.55   15.40
   0  -4  -1  415.36   14.90
   0  -4  -1  438.26   15.00
   0  -4  -1  412.86   16.20
   0  -4  -1  436.46   14.90
   0   4   1  428.96   15.40
   0   4   1  432.76   15.10
   0   4   1  442.36   14.80
   0   4   1  432.26   14.90
  -1  -4  -1  146.49    7.70
  -1  -4  -1  130.89    5.10
  -1  -4  -1  133.09    5.20
  -1  -4  -1  142.69    5.70
  -1  -4  -1  128.29    5.00
   1   4   1  137.59    5.00
   1   4   1  138.19    5.50
   1   4   1  130.59    5.70
  -2  -4  -1  128.19    4.70
  -2  -4  -1  125.99    4.80
  -2  -4  -1  135.69    8.30
  -2  -4  -1  126.29    5.60
   2   4   1  124.99    5.70
   2   4   1  127.79    5.40
  -3  -4  -1    6.70    1.60
  -3  -4  -1    5.40    0.80
  -3  -4  -1    3.30    3.50
   3   4   1    5.70    1.50
   3   4   1    8.20    1.30
  -4  -4  -1    7.20    1.80
  -4  -4  -1    6.90    5.00
   4   4   1    8.40    1.90
   4   4   1    9.10    1.60
   5   4   1   71.69    4.50
   5   4   1   76.59    5.00
  -6  -4  -1    8.80    6.40
   6   4   1   10.20    2.10
  -9   5   1   -3.20    1.40
  -9   5   1    6.90    5.10
  -9   5   1   -0.30    1.10
  -8   5   1    0.10    1.00
  -8   5   1   -2.00    3.30
  -8   5   1   -0.30    1.10
   6  -5  -1    3.50    3.50
   6  -5  -1    4.10    1.10
   6  -5  -1    3.40    1.10
   6  -5  -1    3.80    0.80
  -6   5   1    3.50    1.00
  -6   5   1   -0.40    3.00
  -6   5   1    5.40    1.40
   5  -5  -1  914.11   31.10
   5  -5  -1  920.11   31.40
   5  -5  -1  872.71   30.70
  -5   5   1  893.21   30.80
  -5   5   1  902.91   31.40
   4  -5  -1    0.40    0.60
   4  -5  -1    0.90    0.30
   4  -5  -1   -0.50    0.70
   4  -5  -1    0.10    0.40
   4  -5  -1    4.60    3.00
  -4   5   1   -1.10    0.80
  -4   5   1   -0.40    0.50
   3  -5  -1 2003.50   69.69
   3  -5  -1 2046.70   69.19
   3  -5  -1 2098.69   69.69
  -3   5   1 2049.79   69.69
  -3   5   1 2114.79   69.09
   2  -5  -1    3.10    0.40
   2  -5  -1    1.70    0.80
   2  -5  -1    0.80    3.10
   2  -5  -1    1.10    0.60
   2  -5  -1    2.10    0.50
  -2   5   1    2.80    0.40
  -2   5   1    1.50    0.80
   1  -5  -1  138.19    5.70
   1  -5  -1  128.79    5.50
  -1   5   1  142.49    5.40
  -1   5   1  136.29    5.80
  -1   5   1  145.39    5.10
  -1   5   1  138.09    5.40
   0  -5  -1   51.09    2.90
   0  -5  -1   46.70    2.30
   0  -5  -1   47.50    4.20
   0  -5  -1   44.20    2.50
   0   5   1   49.90    2.90
   0   5   1   50.09    2.60
   0   5   1   50.69    2.20
   0   5   1   47.90    2.30
  -1  -5  -1   34.40    2.60
  -1  -5  -1   31.40    2.00
  -1  -5  -1   35.10    4.10
  -1  -5  -1   33.90    2.00
   1   5   1   32.80    2.50
   1   5   1   28.00    2.20
   1   5   1   33.00    1.70
  -2  -5  -1    8.70    4.00
  -2  -5  -1    8.40    1.60
  -2  -5  -1    7.70    1.20
   2   5   1    8.10    1.70
   2   5   1    4.90    1.20
  -3  -5  -1   48.60    7.10
   3   5   1   39.60    3.10
   3   5   1   46.50    3.70
  -4  -5  -1   33.10    7.40
   4   5   1   34.00    3.70
   4   5   1   37.90    3.30
  -5  -5  -1    5.60    5.60
   5   5   1   11.60    2.60
   5   5   1   11.40    2.10
  -9   6   1    2.60    1.30
   8  -6  -1    3.00    1.00
   8  -6  -1    3.80    1.40
  -8   6   1    3.00    1.60
  -8   6   1    1.40    1.10
  -8   6   1   -5.40    4.50
   7  -6  -1   80.29    4.20
   7  -6  -1   78.59    3.80
   7  -6  -1   90.89    4.70
  -7   6   1   84.49    4.90
  -7   6   1   77.59    4.00
   6  -6  -1   50.09    2.70
   6  -6  -1   55.39    3.10
   6  -6  -1   54.29    3.70
  -6   6   1   59.79    3.90
  -6   6   1   48.20    6.30
  -6   6   1   51.09    2.90
   5  -6  -1  687.53   24.30
   5  -6  -1  667.23   23.50
   5  -6  -1  671.73   24.00
  -5   6   1  677.43   23.50
  -5   6   1  711.63   24.40
   3  -6  -1  223.88    9.00
   3  -6  -1  236.18    9.00
   3  -6  -1  230.58    8.50
  -3   6   1  233.68    9.00
  -3   6   1  234.88    8.20
   1  -6  -1  424.56   15.40
   1  -6  -1  429.56   15.70
   1  -6  -1  415.96   15.10
  -1   6   1  427.16   15.20
  -1   6   1  432.46   15.80
  -1   6   1  428.56   15.20
  -1   6   1  441.36   14.90
   0  -6  -1   77.29    3.70
   0  -6  -1   77.49    4.10
   0  -6  -1   74.79    3.50
   0   6   1   77.29    3.80
   0   6   1   80.99    3.30
   0   6   1   80.09    4.30
  -1  -6  -1  147.39    6.20
  -1  -6  -1  160.88    9.10
  -1  -6  -1  148.69    6.10
  -1  -6  -1  154.28    6.90
   1   6   1  150.58    6.50
   1   6   1  154.68    5.80
   1   6   1  159.78    7.00
  -2  -6  -1   46.50    6.00
  -2  -6  -1   43.50    2.80
   2   6   1   43.30    3.20
   2   6   1   42.20    3.70
  -3  -6  -1   47.00    3.10
   3   6   1   51.79    3.60
   3   6   1   52.79    4.30
  -4  -6  -1    0.20    1.20
   4   6   1   -0.10    1.30
   4   6   1   -0.80    1.70
  -9   7   1   34.30    3.70
   8  -7  -1   23.50    2.10
   8  -7  -1   26.00    3.10
  -8   7   1   27.50    3.50
  -8   7   1   24.70    2.40
   7  -7  -1   17.90    1.80
   7  -7  -1   16.90    2.20
  -7   7   1   19.00    2.00
  -7   7   1   16.10    2.40
   4  -7  -1   81.79    4.00
   4  -7  -1   76.79    3.50
   4  -7  -1   76.69    4.20
  -4   7   1   77.49    3.20
  -4   7   1   79.09    4.20
   3  -7  -1    9.70    1.10
   3  -7  -1   12.40    1.60
   3  -7  -1    8.30    1.50
  -3   7   1   11.40    1.40
  -3   7   1    9.80    1.40
   2  -7  -1  122.99    5.00
   2  -7  -1  119.89    5.50
   2  -7  -1  120.69    5.40
  -2   7   1  120.69    5.70
  -2   7   1  114.49    4.80
  -2   7   1  123.89    5.40
   1  -7  -1    0.20    0.90
   1  -7  -1   -0.40    0.80
   1  -7  -1    1.00    0.70
  -1   7   1    1.10    1.20
  -1   7   1    0.00    0.60
   0  -7  -1    0.10    0.70
   0  -7  -1   -0.30    1.00
   0  -7  -1   -0.70    0.70
   0   7   1    0.60    0.90
   0   7   1    0.20    1.20
  -1  -7  -1   15.40    1.80
  -1  -7  -1   13.50    1.70
   1   7   1   16.30    2.50
   1   7   1   16.00    2.10
  -2  -7  -1    6.30    1.30
   2   7   1    4.10    1.50
   2   7   1    7.50    2.20
  -3  -7  -1    3.00    1.40
   3   7   1    1.60    2.00
   3   7   1    2.40    1.50
   8  -8  -1   20.50    2.00
   8  -8  -1   19.90    2.60
  -8   8   1   20.70    2.20
  -8   8   1   16.60    2.60
   7  -8  -1    2.30    0.90
   7  -8  -1    2.40    1.40
  -7   8   1    1.60    0.90
  -7   8   1    1.20    1.40
   5  -8  -1   -0.10    1.10
   5  -8  -1    6.80    3.90
   5  -8  -1   -0.70    0.60
  -5   8   1   -0.30    1.20
   3  -8  -1  142.39    6.10
   3  -8  -1  153.98    6.70
  -3   8   1  143.19    5.90
  -3   8   1  157.28    7.00
   2  -8  -1  306.47   11.70
   2  -8  -1  313.47   12.20
  -2   8   1  335.77   12.80
   1  -8  -1   26.60    2.60
   1  -8  -1   26.90    2.20
  -1   8   1   29.90    3.20
   0  -8  -1   33.40    2.60
   0  -8  -1   31.60    2.70
   0   8   1   39.00    3.80
  -1  -8  -1    2.70    1.00
  -1  -8  -1    5.00    1.40
   1   8   1    4.30    1.50
   1   8   1    6.30    2.10
  -2  -8  -1    9.30    2.30
   2   8   1   10.30    2.60
   2   8   1    6.30    1.80
   7  -9  -1  175.28    8.20
   7  -9  -1  153.18    6.90
  -7   9   1  170.68    8.10
   6  -9  -1   13.40    1.60
   6  -9  -1   16.20    2.50
  -6   9   1   15.80    2.40
   5  -9  -1    8.90    1.40
   5  -9  -1    9.60    2.00
  -5   9   1   10.10    1.50
   4  -9  -1   26.30    3.10
   4  -9  -1   24.20    2.10
  -4   9   1   30.80    3.20
   3  -9  -1   -0.30    5.50
   3  -9  -1    1.30    0.90
   3  -9  -1    1.30    1.20
  -3   9   1   -0.10    1.30
   2  -9  -1   24.80    2.30
   2  -9  -1   30.00    2.90
   2  -9  -1   46.50   12.90
  -2   9   1   29.60    3.50
   0  -9  -1    2.70    1.20
   0  -9  -1    3.30    1.10
   0  -9  -1    6.10    6.90
   0   9   1    5.70    2.20
   5 -10  -1   69.89    5.50
   5 -10  -1   59.89    3.60
  -5  10   1   61.59    4.70
   4 -10  -1   66.69    4.70
   4 -10  -1   58.89    3.60
  -4  10   1   73.29    4.90
   3 -10  -1   36.80   11.70
   3 -10  -1   29.80    2.50
   3 -10  -1   22.30    2.80
  -3  10   1   34.80    3.70
   2 -10  -1    2.40    1.50
   2 -10  -1    6.40    7.70
  -2  10   1    6.60    2.20
   1 -10  -1   -0.90    1.40
  -3  11  -2   19.00    2.90
  -6  11  -2   32.80    3.80
  -1  10  -2    2.50    1.80
   1 -10   2    0.10    0.90
   1 -10   2    2.70    8.30
   1 -10   2    1.80    1.00
  -2  10  -2    3.30    1.80
   2 -10   2    0.90    6.10
   2 -10   2    2.70    1.10
   2 -10   2    2.30    1.00
  -3  10  -2    1.90    1.40
  -3  10  -2    1.80    1.30
   3 -10   2    1.60    1.00
   3 -10   2    0.70    1.10
   3 -10   2    5.40    6.00
  -5  10  -2   10.10    1.60
   5 -10   2   11.50    1.60
   5 -10   2   10.20    1.90
  -6  10  -2    3.20    1.30
   6 -10   2    1.80    1.00
   6 -10   2    4.40    1.70
   6 -10   2    5.10    5.20
   1   9  -2   18.60    3.00
  -1  -9   2   15.30    1.90
  -1  -9   2   14.60    8.90
   0   9  -2    5.80    2.10
   0  -9   2    3.80    1.20
  -1   9  -2    1.00    0.90
  -1   9  -2    1.90    1.60
   1  -9   2    0.50    0.80
   1  -9   2    1.50    0.90
   1  -9   2   12.20    7.50
  -2   9  -2   10.50    1.50
  -2   9  -2   10.70    2.00
   2  -9   2    9.90    1.50
   2  -9   2    7.60    1.40
  -3   9  -2    2.40    1.30
  -3   9  -2    1.30    0.90
   3  -9   2    2.50    0.90
   3  -9   2   -1.70    4.70
   3  -9   2    0.70    1.10
  -4   9  -2   49.50    3.40
  -4   9  -2   42.50    2.90
   4  -9   2   42.40    2.70
   4  -9   2   46.60    3.50
  -5   9  -2   86.59    4.60
  -5   9  -2   94.49    4.90
   5  -9   2   85.59    4.20
   5  -9   2  101.79    5.30
  -6   9  -2    3.20    1.00
  -6   9  -2    1.70    1.50
   6  -9   2    3.10    1.50
   6  -9   2    3.30    1.00
   6  -9   2    7.70    5.20
  -7   9  -2   72.49    4.80
  -7   9  -2   63.69    3.60
   7  -9   2   68.49    3.70
   7  -9   2   69.29    4.90
  -8   9  -2   -0.10    1.70
  -8   9  -2    1.20    1.00
   2   8  -2    1.20    1.90
  -2  -8   2    0.70    1.00
  -2  -8   2   -6.70    7.80
   1   8  -2   35.30    3.60
  -1  -8   2   32.60    2.60
   0   8  -2   34.30    3.50
   0   8  -2   30.40    2.20
   0  -8   2   32.50    2.40
   0  -8   2   28.70    2.00
  -1   8  -2    0.90    1.20
  -1   8  -2    0.40    0.70
   1  -8   2    1.20    0.80
   1  -8   2    0.30    0.80
   1  -8   2    5.70    6.50
  -2   8  -2   64.39    3.30
   2  -8   2   63.89    3.80
   2  -8   2   62.29    3.50
   2  -8   2   62.99    3.20
  -4   8  -2   15.60    2.00
  -4   8  -2   14.50    1.40
  -4   8  -2   13.90    1.80
  -4   8  -2   16.40    1.80
   4  -8   2   14.20    1.90
   4  -8   2   15.40    1.60
   4  -8   2   12.30    1.80
  -5   8  -2  119.09    5.70
  -5   8  -2  112.39    4.90
   5  -8   2  123.89    5.80
   5  -8   2  117.79    5.00
  -7   8  -2   88.39    4.40
  -7   8  -2  100.99    5.50
   7  -8   2   96.79    5.40
   7  -8   2   86.69    4.30
  -8   8  -2    2.90    1.70
  -8   8  -2    4.90    1.30
   8  -8   2    5.20    1.30
  -4  -7   2    5.60    1.50
  -4  -7   2   13.70    9.90
   3   7  -2    7.40    1.90
   3   7  -2    8.10    2.30
  -3  -7   2   -4.30    8.00
  -3  -7   2    8.50    1.50
   2   7  -2   64.19    4.00
   2   7  -2   76.29    4.90
   2   7  -2   63.39    3.40
  -2  -7   2   46.50   12.50
  -2  -7   2   66.49    3.50
   1   7  -2    4.10    1.60
   1   7  -2    2.50    0.90
  -1  -7   2    2.40    0.90
  -1  -7   2    2.00    1.20
  -1  -7   2    8.00    7.30
  -1   7  -2  121.99    5.50
  -1   7  -2  115.19    5.00
   1  -7   2  118.29    5.00
   1  -7   2  124.49    5.50
   1  -7   2  113.39    4.80
  -2   7  -2    3.90    0.90
  -2   7  -2    2.50    1.10
  -2   7  -2    3.70    0.90
   2  -7   2    3.40    1.00
   2  -7   2    4.00    1.10
  -3   7  -2  390.66   13.90
  -3   7  -2  367.76   13.20
  -3   7  -2  367.46   13.70
  -3   7  -2  371.36   13.60
   3  -7   2  377.86   13.40
   3  -7   2  376.96   13.90
   3  -7   2  392.36   14.10
  -5   7  -2   76.39    4.10
  -5   7  -2   71.29    3.40
   5  -7   2   69.89    3.40
   5  -7   2   76.39    4.10
   5  -7   2   76.09    3.90
  -6   7  -2   52.19    3.60
  -6   7  -2   43.40    2.70
   6  -7   2   54.29    3.60
   6  -7   2   48.60    3.20
   6  -7   2   48.10    2.70
  -7   7  -2   -0.60    1.20
  -7   7  -2    0.20    0.90
   7  -7   2    0.10    0.80
  -8   7  -2    0.10    1.00
  -8   7  -2   -2.80    1.30
   8  -7   2    0.80    0.90
  -5  -6   2    7.50    1.60
   4   6  -2    3.00    1.50
   4   6  -2    0.90    1.90
  -4  -6   2   -2.00    7.70
  -4  -6   2    0.50    1.00
   3   6  -2  119.49    6.10
   3   6  -2  131.99    6.70
  -3  -6   2  121.89    5.50
  -3  -6   2  137.39   11.00
   2   6  -2    1.40    1.10
   2   6  -2    2.50    0.90
   2   6  -2    1.00    1.40
  -2  -6   2    1.40    1.20
  -2  -6   2    2.20    3.00
  -2  -6   2   -2.80    5.70
  -2  -6   2    3.60    1.00
   1   6  -2   62.69    3.00
   1   6  -2   60.49    3.40
   1   6  -2   67.89    3.90
  -1  -6   2   48.10    5.10
  -1  -6   2   60.49    3.50
  -1  -6   2   60.19    2.90
   0   6  -2  105.69    4.80
   0   6  -2  102.29    4.20
   0  -6   2   98.39    4.10
   0  -6   2  103.79    4.20
   0  -6   2  107.39    4.80
   0  -6   2   87.89    5.30
  -1   6  -2   29.40    1.80
  -1   6  -2   29.60    2.00
  -1   6  -2   29.80    2.30
   1  -6   2   29.50    1.70
   1  -6   2   31.00    2.20
   1  -6   2   27.80    2.00
  -2   6  -2   79.19    3.60
  -2   6  -2   82.39    3.60
  -2   6  -2   82.59    3.80
   2  -6   2   75.49    3.80
   2  -6   2   84.79    3.90
   2  -6   2   78.79    3.40
  -3   6  -2    3.10    0.60
  -3   6  -2    2.40    0.90
   3  -6   2   -1.10    3.30
   3  -6   2    2.30    0.90
   3  -6   2    3.30    0.70
   3  -6   2    2.40    0.90
  -4   6  -2  238.78    9.30
  -4   6  -2  246.68    8.90
   4  -6   2  239.08    8.80
   4  -6   2  242.78    9.40
   4  -6   2  245.28    9.30
  -6   6  -2  431.56   15.90
  -6   6  -2  468.15   16.60
   6  -6   2  427.96   15.70
   6  -6   2  446.86   16.50
   6  -6   2  452.65   16.30
  -7   6  -2    8.30    1.60
  -7   6  -2   11.10    1.60
   7  -6   2    9.80    1.40
  -8   6  -2    1.70    1.10
  -8   6  -2    2.10    1.50
   8  -6   2    3.60    1.40
  -6  -5   2    3.90    2.20
  -6  -5   2   -1.00    7.70
   5   5  -2   22.10    2.70
   5   5  -2   21.90    3.10
   4   5  -2    4.60    1.90
   4   5  -2    5.80    1.60
  -4  -5   2   -1.20    5.00
  -4  -5   2    6.20    1.30
  -4  -5   2    7.30    1.60
   3   5  -2   77.69    4.50
   3   5  -2   70.29    4.00
  -3  -5   2   81.39    8.10
  -3  -5   2   72.29    3.40
  -3  -5   2   79.49    3.60
  -3  -5   2   73.59    4.20
   2   5  -2  393.86   14.80
   2   5  -2  373.16   14.40
   2   5  -2  404.96   15.10
  -2  -5   2  407.56   14.40
  -2  -5   2  446.86   18.30
  -2  -5   2  421.26   15.10
   1   5  -2    3.80    1.10
   1   5  -2    1.70    0.90
   1   5  -2    3.90    0.80
  -1  -5   2    3.30    0.70
  -1  -5   2    3.60    1.10
   0   5  -2  328.77   11.80
   0   5  -2  332.17   12.20
   0  -5   2  347.97   12.30
   0  -5   2  317.87   11.70
   0  -5   2  330.87   11.70
   0  -5   2  344.87   11.70
  -1   5  -2  339.87   12.20
  -1   5  -2  349.77   12.30
  -1   5  -2  343.77   12.50
   1  -5   2  354.36   12.30
   1  -5   2  359.96   12.60
   1  -5   2  339.17   12.10
   1  -5   2  351.36   12.30
  -2   5  -2   40.00    2.10
  -2   5  -2   42.60    2.20
  -2   5  -2   41.70    1.90
   2  -5   2   41.00    1.90
   2  -5   2   36.80    2.20
   2  -5   2   41.50    2.30
   2  -5   2   43.90    1.80
  -3   5  -2   -1.40    0.50
  -3   5  -2    0.20    0.40
   3  -5   2   -0.60    0.50
   3  -5   2   -0.80    0.30
   3  -5   2   -0.70    0.50
   3  -5   2    0.50    3.00
  -4   5  -2  309.97   11.30
  -4   5  -2  316.17   11.80
   4  -5   2  330.57   11.70
   4  -5   2  323.77   11.30
   4  -5   2  316.77   11.80
   5  -5   2  148.89   10.20
   6  -5   2   10.00    4.70
   7  -5   2   12.00    6.70
  -8   5  -2   33.30    2.80
  -8   5  -2   33.50    3.30
  -9   5  -2    5.30    5.00
  -9   5  -2   14.50    2.50
  -9   5  -2   14.60    3.20
   6   4  -2   12.50    2.10
  -6  -4   2   -1.30    6.00
   5   4  -2  130.69    6.20
  -5  -4   2  134.39    5.80
   4   4  -2   79.09    4.70
   4   4  -2   80.39    4.20
  -4  -4   2   83.19    4.40
  -4  -4   2   78.79    3.80
   3   4  -2  199.98    8.10
   3   4  -2  197.88    7.70
  -3  -4   2  201.18    7.30
  -3  -4   2  210.78    8.00
  -3  -4   2  162.58   11.30
   2   4  -2  329.27   11.80
   2   4  -2  301.17   11.40
   2   4  -2  303.17   11.60
   2   4  -2  303.67   11.80
  -2  -4   2  333.77   11.90
  -2  -4   2  353.66   14.90
  -2  -4   2  317.27   11.30
   1   4  -2  350.66   12.30
   1   4  -2  338.47   12.60
   1   4  -2  366.56   12.60
   1   4  -2  333.87   12.50
  -1  -4   2  343.17   12.20
  -1  -4   2  361.26   14.40
  -1  -4   2  356.96   12.60
   0   4  -2  107.69    4.60
   0   4  -2  126.79    4.70
   0   4  -2  115.19    4.40
   0   4  -2  118.49    4.50
   0  -4   2  114.39    4.30
   0  -4   2  115.49    4.60
   0  -4   2  108.09    4.20
   0  -4   2  109.89    4.30
  -1   4  -2  369.76   13.10
  -1   4  -2  401.26   13.50
  -1   4  -2  368.26   13.30
  -1   4  -2  391.16   13.20
   1  -4   2  389.06   13.20
   1  -4   2  367.36   13.00
   1  -4   2  382.76   13.40
   1  -4   2  366.26   13.20
  -2   4  -2   90.99    3.80
  -2   4  -2   97.29    3.60
  -2   4  -2   98.89    3.90
   2  -4   2   94.69    3.90
   2  -4   2   90.69    3.80
   2  -4   2   91.79    3.60
  -3   4  -2  174.78    6.30
  -3   4  -2  167.88    6.60
  -3   4  -2  179.08    6.60
   3  -4   2  177.38    6.60
   3  -4   2  171.78    6.60
   3  -4   2  170.08    6.20
  -4   4  -2  184.28    7.20
  -4   4  -2  184.58    6.90
   4  -4   2  184.38    7.10
   4  -4   2  184.18    6.70
   4  -4   2  185.98    7.20
  -5   4  -2 1286.87   43.40
  -5   4  -2 1264.77   43.00
   5  -4   2 1236.18   42.80
   5  -4   2 1281.37   43.30
  -6   4  -2   -0.30    0.70
  -6   4  -2    0.60    2.90
  -6   4  -2   -0.20    0.80
   6  -4   2   -0.70    3.90
   6  -4   2   -1.10    0.40
  -8   4  -2   55.29    3.50
  -8   4  -2   55.39    3.90
  -9   4  -2   76.89    4.90
  -9   4  -2   85.19    5.40
   7   3  -2    3.10    1.50
  -7  -3   2   -3.20    7.20
  -7  -3   2    3.20    1.50
   6   3  -2    3.30    1.30
  -6  -3   2    5.40    1.40
  -6  -3   2    4.60    5.70
   5   3  -2    3.00    1.20
  -5  -3   2    1.90    1.00
  -5  -3   2    0.30    1.10
   4   3  -2   81.39    4.40
   4   3  -2   82.89    4.30
   4   3  -2   79.09    4.00
  -4  -3   2   84.09    4.20
  -4  -3   2   83.59    3.80
   3   3  -2  108.49    4.80
   3   3  -2  106.99    4.90
   3   3  -2  109.29    4.60
  -3  -3   2  108.49    4.40
  -3  -3   2  112.89    4.80
   2   3  -2   82.99    3.40
   2   3  -2   84.89    3.70
   2   3  -2   78.29    3.50
   2   3  -2   79.59    3.70
  -2  -3   2   82.29    3.60
   1   3  -2  472.65   17.30
   1   3  -2  486.45   17.20
   1   3  -2  509.55   17.20
   1   3  -2  523.25   17.30
  -1  -3   2  511.35   17.30
  -1  -3   2  491.05   17.00
   0   3  -2 4958.50  160.68
   0   3  -2 5267.97  160.38
   0   3  -2 4740.43  159.98
   0   3  -2 4535.65  160.48
   0  -3   2 4487.25  159.18
   0  -3   2 4693.23  160.08
   0  -3   2 4832.52  159.48
   0  -3   2 4495.05  159.38
  -1   3  -2 1269.27   42.10
  -1   3  -2 1320.77   42.00
  -1   3  -2 1269.77   42.20
  -1   3  -2 1298.47   42.30
  -1   3  -2 1206.98   42.10
  -1   3  -2 1167.38   42.10
   1  -3   2 1417.16   42.00
   1  -3   2 1179.88   42.10
   1  -3   2 1249.38   42.30
   1  -3   2 1185.88   42.00
   1  -3   2 1229.08   42.20
  -2   3  -2   36.00    1.90
  -2   3  -2   43.60    1.70
  -2   3  -2   39.50    1.90
   2  -3   2   35.40    1.90
   2  -3   2   39.70    1.60
   2  -3   2   36.80    1.80
  -3   3  -2   82.19    3.60
  -3   3  -2   84.99    3.40
  -3   3  -2   90.19    3.60
   3  -3   2   89.99    3.60
   3  -3   2   86.29    3.30
   3  -3   2   86.49    3.50
  -5   3  -2    1.70    0.80
  -5   3  -2   -0.20    0.70
   5  -3   2   -2.70    3.80
  -6   3  -2   60.79    3.20
  -6   3  -2   62.49    3.50
   6  -3   2   67.19    7.60
   6  -3   2   61.09    3.30
  -7   3  -2  155.08    6.60
  -7   3  -2  159.28    6.90
   7  -3   2  159.98    6.40
   8   2  -2   14.50    2.30
   6   2  -2   21.90    2.30
  -6  -2   2   21.90    2.40
   5   2  -2  255.57    9.90
   5   2  -2  234.48    9.40
  -5  -2   2  246.98    9.30
   4   2  -2   31.40    2.10
   4   2  -2   32.10    2.40
  -4  -2   2   35.50    2.10
   3   2  -2   15.20    1.30
   3   2  -2   14.00    1.50
   3   2  -2   15.30    1.60
  -3  -2   2   15.40    1.40
   2   2  -2   19.80    1.50
   2   2  -2   20.40    1.30
   2   2  -2   22.60    1.30
   2   2  -2   20.20    1.50
  -2  -2   2   20.70    1.30
   1   2  -2   91.59    3.50
   1   2  -2   95.09    3.60
   1   2  -2   86.89    3.60
   1   2  -2   91.29    3.50
  -1  -2   2   97.89    3.60
   0   2  -2 1380.76   47.20
   0   2  -2 1284.07   47.30
   0   2  -2 1444.36   47.20
   0   2  -2 1399.06   47.30
   0   2  -2 1394.56   47.40
   0   2  -2 1500.45   47.20
   0   2  -2 1421.96   47.50
   0  -2   2 1342.57   47.20
   0  -2   2 1391.66   47.40
   0  -2   2 1393.46   47.20
   0  -2   2 1364.66   47.60
   0  -2   2 1573.34   47.20
  -1   2  -2 3415.26  113.19
  -1   2  -2 3348.96  111.89
  -1   2  -2 3574.94  111.89
  -1   2  -2 3356.06  112.19
  -1   2  -2 3334.37  112.09
  -1   2  -2 3199.08  112.09
   1  -2   2 3209.18  112.19
   1  -2   2 3238.98  112.19
   1  -2   2 3270.77  112.29
   1  -2   2 3454.75  112.29
  -2   2  -2  434.96   14.80
  -2   2  -2  431.66   14.60
  -2   2  -2  414.66   14.80
   2  -2   2  424.06   14.60
   2  -2   2  423.06   14.80
   2  -2   2  446.26   16.80
  -3   2  -2   50.09    2.30
  -3   2  -2   54.69    2.10
  -3   2  -2   55.39    2.40
   3  -2   2   49.20    2.10
  -4   2  -2 1972.40   64.59
  -4   2  -2 1830.12   64.39
  -4   2  -2 1903.31   64.29
   4  -2   2 1961.70   67.49
   4  -2   2 1899.71   64.39
  -7   2  -2   23.30    2.30
  -7   2  -2   22.70    2.60
   7  -2   2   19.40    2.10
   8   1  -2    5.00    1.90
  -8  -1   2    3.60    1.60
   7   1  -2    3.60    1.30
  -7  -1   2   -3.60    5.70
  -7  -1   2    4.70    1.50
   6   1  -2  127.99    5.40
   6   1  -2  113.59    5.70
  -6  -1   2  127.39    5.50
   5   1  -2  246.28    9.30
   5   1  -2  252.27    9.70
  -5  -1   2  244.28    9.30
   4   1  -2   10.40    1.30
   4   1  -2    6.70    1.00
  -4  -1   2    5.70    1.00
   3   1  -2 1011.40   33.90
   3   1  -2  995.20   34.10
  -3  -1   2  993.30   33.90
   2   1  -2  598.84   20.80
   2   1  -2  606.44   21.00
   2   1  -2  630.24   20.90
   0   1  -2  466.95   15.70
   0   1  -2  463.55   16.50
   0   1  -2  459.85   15.70
   0   1  -2  455.45   15.80
   0   1  -2  468.95   15.80
   0   1  -2  470.45   17.10
   0   1  -2  459.75   15.80
   0  -1   2  476.55   15.80
   0  -1   2  492.85   15.80
   0  -1   2  447.56   15.80
   0  -1   2  466.35   15.80
   0  -1   2  480.75   16.50
   0  -1   2  470.85   17.10
   0  -1   2  445.46   15.70
   0  -1   2  456.15   15.70
  -1   1  -2 2063.29   67.79
  -1   1  -2 1943.61   67.99
  -1   1  -2 1990.10   68.19
  -1   1  -2 2034.20   74.09
  -1   1  -2 2079.49   68.49
   1  -1   2 2075.89   68.09
   1  -1   2 2066.59   74.69
   1  -1   2 2010.50   68.59
   1  -1   2 1948.71   68.09
  -2   1  -2  543.75   18.50
  -2   1  -2  528.65   18.50
  -2   1  -2  539.65   18.60
   2  -1   2  589.74   20.80
   2  -1   2  529.75   18.60
  -3   1  -2   86.79    3.40
  -3   1  -2   83.29    3.40
  -3   1  -2   89.89    3.50
   3  -1   2   88.59    6.00
   3  -1   2   81.59    3.40
  -4   1  -2   38.50    2.10
  -4   1  -2   35.30    2.00
   4  -1   2   39.10    2.00
  -5   1  -2  286.87   10.50
  -5   1  -2  287.87   10.60
   5  -1   2  293.17   10.40
   5  -1   2  289.87   10.50
  -6   1  -2   75.39    3.80
  -6   1  -2   71.69    3.70
  -6   1  -2   83.59    9.60
   6  -1   2   75.49    3.80
  -7   1  -2   81.19    4.20
  -7   1  -2   81.29    4.20
   7  -1   2   79.39    4.20
  -8   1  -2   39.90    3.00
  -8   1  -2   40.50    3.20
   8  -1   2   44.30    3.20
   6   0  -2   38.80    2.30
   6   0  -2   29.80    2.50
  -6   0   2   35.20    2.60
  -6   0   2   40.30    2.40
   5   0  -2   25.60    1.80
   5   0  -2   19.10    2.00
  -5   0   2   27.40    2.10
  -5   0   2   24.00    2.00
  -5   0   2   18.40    1.90
   4   0  -2   28.40    1.90
   4   0  -2   33.00    1.70
  -4   0   2   35.20    1.80
  -4   0   2   31.60    1.80
  -4   0   2   28.90    1.80
  -4   0   2   29.00    1.80
   3   0  -2 2036.50   68.79
   3   0  -2 2050.69   68.39
   3   0  -2 2094.19   68.49
  -3   0   2 2179.98   68.59
  -3   0   2 1963.00   68.59
  -3   0   2 1949.70   68.49
   2   0  -2 1744.13   56.09
   2   0  -2 1665.03   55.59
   2   0  -2 1617.64   55.59
  -2   0   2 1638.64   55.59
  -2   0   2 1665.63   55.69
  -2   0   2 1795.42   55.79
  -2   0   2 1512.95   55.79
   1   0  -2 4231.28  137.69
   1   0  -2 3928.21  137.79
   1   0  -2 4152.08  137.99
  -1   0   2 4292.07  137.89
  -1   0   2 3948.71  137.39
  -1   0   2 4104.19  137.79
   0   0  -2  260.17    9.00
   0   0  -2  284.97   10.00
   0   0  -2  260.07    9.00
   0   0  -2  255.07    9.90
   0   0  -2  255.57    8.90
   0   0   2  282.57   10.00
   0   0   2  268.97    8.90
   0   0   2  243.08    9.90
   0   0   2  257.17    9.00
   0   0   2  254.77    9.00
  -1   0  -2  130.59    6.20
  -1   0  -2  131.79    4.60
  -1   0  -2  127.79    4.50
  -1   0  -2  130.39    4.60
   1   0   2  125.99    4.60
   1   0   2  120.79    4.60
   1   0   2  134.29    4.60
   1   0   2  128.69    4.60
   1   0   2  132.79    6.30
  -2   0  -2  350.36   11.80
  -2   0  -2  347.47   11.90
  -2   0  -2  345.57   11.90
   2   0   2  332.57   11.90
   2   0   2  349.67   11.90
  -3   0  -2 2591.24   85.79
  -3   0  -2 2577.64   85.69
   3   0   2 2534.75   85.79
   3   0   2 2542.95   85.89
  -4   0  -2  194.48    7.20
  -4   0  -2  193.08    7.20
  -4   0  -2  197.78    7.50
   4   0   2  194.78    7.40
   4   0   2  196.38    7.10
   4   0   2  189.88    7.30
  -5   0  -2  199.48    7.40
  -5   0  -2  197.78    7.50
   5   0   2  191.88    7.60
  -6   0  -2  293.57   11.00
  -6   0  -2  295.97   11.10
   6   0   2  308.87   11.30
  -8   0  -2   23.20    2.40
  -8   0  -2   22.80    2.60
   8   0   2   26.40    2.90
  -9   1   2   55.69    3.50
  -8   1   2    5.80    6.60
  -8   1   2    1.30    1.40
  -8   1   2    4.20    1.20
   6  -1  -2    6.30    1.30
   6  -1  -2   11.20    1.30
  -6   1   2    7.60    1.20
  -6   1   2    6.20    1.30
   5  -1  -2   52.29    3.00
   5  -1  -2   58.69    2.60
   5  -1  -2   62.09    2.80
  -5   1   2   56.39    3.00
  -5   1   2   55.99    3.00
  -5   1   2   65.89    2.90
   4  -1  -2   38.90    1.70
   4  -1  -2   35.80    2.00
   4  -1  -2   34.30    1.90
  -4   1   2   29.40    2.00
  -4   1   2   41.90    1.90
  -4   1   2   35.10    1.90
  -4   1   2   37.30    2.40
  -4   1   2   31.40    2.00
   3  -1  -2 2216.08   71.79
   3  -1  -2 1993.60   71.79
   3  -1  -2 2245.08   71.79
   3  -1  -2 2116.89   71.79
  -3   1   2 1981.80   71.79
  -3   1   2 2100.89   72.09
  -3   1   2 2325.17   71.89
  -3   1   2 2149.88   71.79
   2  -1  -2 5785.12  189.78
   2  -1  -2 5793.32  190.18
   2  -1  -2 5574.74  188.88
  -2   1   2 5145.19  189.28
  -2   1   2 5436.46  190.08
  -2   1   2 6023.40  189.68
  -2   1   2 5758.92  189.48
  -2   1   2 5670.53  188.88
   1  -1  -2    7.00    0.40
   1  -1  -2    6.80    0.60
   1  -1  -2    6.40    0.50
  -1   1   2    5.90    0.40
  -1   1   2    7.00    0.60
  -1   1   2    6.50    0.40
  -1   1   2    6.80    0.60
   0  -1  -2 2660.63   92.19
   0  -1  -2 2865.41   96.49
   0  -1  -2 2653.03   92.29
   0   1   2 2694.13   92.29
   0   1   2 2975.30   96.49
   0   1   2 2596.24   92.29
  -1  -1  -2 2474.45   91.19
  -1  -1  -2 2565.54   85.49
  -1  -1  -2 2551.44   85.59
  -1  -1  -2 2724.23   85.39
  -1  -1  -2 2508.45   85.89
   1   1   2 2489.05   85.59
   1   1   2 2752.92   85.19
   1   1   2 2456.85   85.69
   1   1   2 2410.36   85.59
  -2  -1  -2   89.29    3.40
  -2  -1  -2   88.29    3.40
  -2  -1  -2   95.69    3.40
   2   1   2   89.59    3.40
   2   1   2   87.99    3.60
  -3  -1  -2  228.88    8.10
  -3  -1  -2  228.38    8.10
  -3  -1  -2  229.18    8.10
   3   1   2  223.28    8.40
   3   1   2  224.38    8.00
   3   1   2  228.58    8.30
  -4  -1  -2    2.40    3.50
  -4  -1  -2    4.80    0.90
  -4  -1  -2    5.70    0.80
   4   1   2    6.30    1.10
   4   1   2    4.90    0.70
   4   1   2    5.70    1.20
  -5  -1  -2   25.80    1.90
  -5  -1  -2   24.90    1.90
   5   1   2   23.60    2.10
   5   1   2   22.70    2.40
  -6  -1  -2    2.30    0.90
  -6  -1  -2    2.90    1.00
  -6  -1  -2    3.30    4.60
   6   1   2    1.20    1.10
  -7  -1  -2   16.80    7.10
  -7  -1  -2   27.50    2.60
  -7  -1  -2   25.40    2.30
   7   1   2   26.30    2.80
  -8  -1  -2    2.40    1.70
   8   1   2    0.20    1.50
  -9   2   2   90.49    4.90
  -8   2   2    0.20    5.10
  -8   2   2    0.00    1.20
  -8   2   2   -0.10    1.10
   7  -2  -2  333.07   12.80
  -7   2   2  351.36   12.90
  -7   2   2  348.57   12.90
   6  -2  -2   26.30    2.00
   6  -2  -2   28.10    1.70
  -6   2   2   34.30    2.30
  -6   2   2   28.30    2.30
   5  -2  -2  216.58    7.90
   5  -2  -2  222.48    7.50
   5  -2  -2  196.08    7.80
  -5   2   2  207.28    8.10
  -5   2   2  205.98    7.90
  -5   2   2  215.08    7.80
   4  -2  -2   10.10    0.90
   4  -2  -2    9.20    0.70
   4  -2  -2    9.20    0.70
   4  -2  -2    7.80    1.00
  -4   2   2    7.90    1.00
  -4   2   2    8.50    0.90
  -4   2   2    7.20    0.90
   3  -2  -2   70.59    2.90
   3  -2  -2   71.29    2.90
   3  -2  -2   74.69    2.80
   3  -2  -2   80.89    3.20
  -3   2   2   71.99    3.20
  -3   2   2   76.29    3.00
  -3   2   2   72.89    2.90
   2  -2  -2  361.56   12.80
   2  -2  -2  379.66   12.70
  -2   2   2  367.26   12.90
  -2   2   2  375.86   13.00
  -2   2   2  386.26   12.80
   1  -2  -2  395.16   13.30
   1  -2  -2  388.96   13.30
   1  -2  -2  367.86   13.50
   1  -2  -2  403.06   13.60
   1  -2  -2  383.86   13.50
  -1   2   2  408.26   13.20
  -1   2   2  380.96   13.50
  -1   2   2  397.06   13.50
  -1   2   2  394.36   13.30
   0  -2  -2 2087.39   71.39
   0  -2  -2 1980.80   70.79
   0  -2  -2 2151.18   75.89
   0  -2  -2 2160.28   71.09
   0   2   2 2158.38   71.29
   0   2   2 2085.59   73.09
   0   2   2 2174.68   70.99
  -1  -2  -2   36.10    1.60
  -1  -2  -2   37.90    1.40
  -1  -2  -2   34.70    1.40
  -1  -2  -2   37.00    3.30
  -1  -2  -2   35.20    1.60
   1   2   2   35.80    1.60
   1   2   2   34.90    1.70
  -2  -2  -2  756.82   26.10
  -2  -2  -2  797.12   26.10
  -2  -2  -2  758.32   26.00
   2   2   2  753.72   26.40
   2   2   2  761.52   26.50
   2   2   2  795.22   26.10
  -3  -2  -2  128.89    4.80
  -3  -2  -2  126.89    4.70
  -3  -2  -2  122.39    4.70
   3   2   2  122.49    5.30
   3   2   2  123.19    5.10
  -4  -2  -2    6.90    1.00
  -4  -2  -2    7.00    0.90
  -4  -2  -2    4.30    3.50
   4   2   2    5.80    1.20
   4   2   2    5.60    1.30
  -5  -2  -2    9.40    1.30
  -5  -2  -2    8.10    1.10
   5   2   2    7.60    1.40
   5   2   2    7.50    1.60
  -6  -2  -2    7.90    1.20
  -6  -2  -2   10.50    5.70
  -6  -2  -2    6.90    1.30
   6   2   2    7.40    1.70
   7   2   2   31.00    3.20
  -9   3   2    7.30    5.60
  -9   3   2    4.00    1.50
  -9   3   2    4.30    1.60
  -8   3   2   40.50    3.10
  -8   3   2   37.30    3.40
   7  -3  -2   97.19    4.50
  -7   3   2  106.99    5.10
  -7   3   2  104.69    4.90
   6  -3  -2    3.40    0.60
   6  -3  -2    2.00    0.90
   6  -3  -2    2.90    0.80
  -6   3   2    3.10    0.90
  -6   3   2    1.90    1.00
   5  -3  -2  288.17   10.10
   5  -3  -2  276.67   10.20
   5  -3  -2  298.17   10.70
  -5   3   2  284.67   10.40
  -5   3   2  292.67   10.40
  -5   3   2  271.77   10.60
   4  -3  -2   59.99    2.40
   4  -3  -2   56.99    2.50
   4  -3  -2   61.69    3.00
   4  -3  -2   60.39    2.60
  -4   3   2   60.89    2.70
  -4   3   2   55.19    3.00
  -4   3   2   59.19    2.70
   3  -3  -2  469.15   16.10
   3  -3  -2  463.25   15.90
   3  -3  -2  472.45   16.30
  -3   3   2  462.75   16.30
  -3   3   2  455.95   16.10
  -3   3   2  470.95   16.00
   2  -3  -2 1400.56   42.90
   2  -3  -2 1245.38   43.00
   2  -3  -2 1237.68   43.20
   2  -3  -2 1281.47   43.30
  -2   3   2 1260.17   43.30
  -2   3   2 1223.18   43.20
  -2   3   2 1314.67   42.90
   1  -3  -2   79.79    3.30
   1  -3  -2   80.09    3.00
   1  -3  -2   79.99    3.30
   1  -3  -2   69.39    4.00
  -1   3   2   82.69    3.30
  -1   3   2   81.59    3.00
  -1   3   2   81.69    3.30
   0  -3  -2 4526.45  148.09
   0  -3  -2 4210.18  146.09
   0  -3  -2 4216.88  146.79
   0  -3  -2 4374.96  146.39
   0  -3  -2 4450.45  152.38
   0   3   2 4238.88  146.29
   0   3   2 4448.35  147.09
  -1  -3  -2   85.09    5.30
  -1  -3  -2   76.39    3.20
  -1  -3  -2   72.69    3.10
  -1  -3  -2   81.39    2.90
  -1  -3  -2   74.29    3.50
   1   3   2   79.59    3.40
   1   3   2   75.59    3.50
   1   3   2   82.49    3.10
  -2  -3  -2  765.42   25.60
  -2  -3  -2  770.72   25.50
  -2  -3  -2  769.92   25.40
  -2  -3  -2  703.93   29.10
   2   3   2  743.93   26.20
   2   3   2  755.72   26.00
  -3  -3  -2   56.39    2.60
  -3  -3  -2   54.89    2.50
   3   3   2   54.59    3.10
   3   3   2   57.49    3.30
  -4  -3  -2  310.47   11.00
  -4  -3  -2  317.97   11.10
   4   3   2  304.47   11.70
   4   3   2  302.67   12.00
   5   3   2   46.40    3.70
   5   3   2   37.60    3.10
   6   3   2   25.50    2.90
  -9   4   2   -2.10    1.20
  -9   4   2    0.70    5.00
  -9   4   2    0.70    1.20
  -8   4   2  123.29    6.10
  -8   4   2  117.99    5.60
   6  -4  -2   63.59    3.50
   6  -4  -2   57.69    2.70
   6  -4  -2   57.89    2.80
  -6   4   2   62.99    3.20
  -6   4   2   60.79    3.60
   5  -4  -2  208.48    7.80
   5  -4  -2  213.28    7.60
   5  -4  -2  205.78    7.50
   5  -4  -2  212.28    8.20
  -5   4   2  205.78    7.80
  -5   4   2  204.78    8.30
   4  -4  -2   26.50    1.40
   4  -4  -2   26.70    2.00
   4  -4  -2   25.30    1.60
   4  -4  -2   24.00    1.40
  -4   4   2   22.90    1.60
  -4   4   2   27.90    1.60
  -4   4   2   26.50    2.10
   3  -4  -2    9.90    0.90
   3  -4  -2    9.70    1.30
   3  -4  -2   10.80    0.70
   3  -4  -2   11.00    1.10
  -3   4   2   11.20    0.90
  -3   4   2    8.10    1.10
  -3   4   2    7.60    1.00
   2  -4  -2  378.56   13.90
   2  -4  -2  397.06   13.50
   2  -4  -2  383.26   13.80
  -2   4   2  404.66   13.30
  -2   4   2  399.36   13.90
  -2   4   2  386.06   13.90
   1  -4  -2  298.77   11.00
   1  -4  -2  295.37   10.90
  -1   4   2  314.57   10.50
  -1   4   2  300.47   10.90
  -1   4   2  308.57   10.70
  -1   4   2  311.47   11.10
   0  -4  -2  177.38    8.40
   0  -4  -2  182.68    6.90
   0  -4  -2  171.28    6.60
   0  -4  -2  168.58    6.50
   0  -4  -2  176.48    6.50
   0   4   2  178.08    6.60
   0   4   2  176.58    6.50
   0   4   2  170.38    6.90
   0   4   2  181.68    6.20
  -1  -4  -2   62.69    5.10
  -1  -4  -2   53.59    2.60
  -1  -4  -2   53.39    3.00
  -1  -4  -2   50.99    2.40
   1   4   2   51.89    3.00
   1   4   2   54.49    2.50
   1   4   2   58.59    2.30
   1   4   2   54.79    2.80
  -2  -4  -2  111.09    4.10
  -2  -4  -2  113.79    5.20
  -2  -4  -2  106.79    4.40
  -2  -4  -2  121.19    8.40
   2   4   2  110.39    5.20
   2   4   2  106.49    4.90
  -3  -4  -2   -1.50    0.90
  -3  -4  -2    2.70    3.90
   3   4   2   -1.00    0.90
   3   4   2   -0.50    1.10
  -4  -4  -2   87.79    9.70
   4   4   2  101.59    5.50
   4   4   2  100.49    5.00
   5   4   2   14.90    2.60
   5   4   2   17.70    2.40
   6   4   2   16.70    2.80
  -9   5   2    0.10    4.20
  -9   5   2    0.20    1.00
  -9   5   2   -2.80    1.50
   7  -5  -2   -0.90    0.90
   7  -5  -2    0.70    0.70
  -7   5   2   -0.10    0.80
   6  -5  -2   18.70    2.30
   6  -5  -2   21.40    1.90
   6  -5  -2   23.20    1.60
  -6   5   2   20.70    1.90
  -6   5   2   19.00    2.10
   5  -5  -2  210.78    8.10
   5  -5  -2  205.48    7.80
   5  -5  -2  221.98    7.60
   5  -5  -2  209.08    8.50
  -5   5   2  213.78    7.90
  -5   5   2  212.18    8.60
   4  -5  -2    7.80    0.80
   4  -5  -2    7.90    1.30
   4  -5  -2    8.50    1.20
  -4   5   2    7.40    1.30
  -4   5   2   10.80    1.10
   2  -5  -2    0.40    0.50
   2  -5  -2   -0.60    0.60
   2  -5  -2    0.50    0.60
  -2   5   2   -0.60    0.60
  -2   5   2    0.60    1.60
   1  -5  -2  611.04   21.30
   1  -5  -2  561.34   21.00
   1  -5  -2  577.74   20.80
  -1   5   2  613.34   20.90
  -1   5   2  635.74   20.60
  -1   5   2  630.64   21.10
   0  -5  -2   12.30    1.20
   0  -5  -2    8.80    1.10
   0  -5  -2    8.20    2.60
   0  -5  -2   12.90    1.60
   0   5   2   11.10    1.30
   0   5   2   10.10    1.20
   0   5   2   10.60    1.60
   0   5   2   12.40    0.90
  -1  -5  -2    1.90    2.80
  -1  -5  -2    1.60    0.70
  -1  -5  -2    2.00    1.10
  -1  -5  -2    1.10    0.70
   1   5   2    1.90    1.10
   1   5   2    2.50    1.00
  -2  -5  -2  150.68    9.60
  -2  -5  -2  131.79    5.60
  -2  -5  -2  128.49    5.40
  -2  -5  -2  138.49    6.40
   2   5   2  129.49    5.90
   2   5   2  136.59    6.40
  -3  -5  -2   14.30    4.80
   3   5   2   12.20    2.20
   3   5   2   14.40    2.00
  -4  -5  -2   12.40    5.50
   4   5   2   11.00    2.00
   4   5   2   10.30    2.50
  -5  -5  -2   -2.40    4.90
   5   5   2   -2.00    1.60
   5   5   2   -2.40    1.20
  -9   6   2   57.89    3.70
   8  -6  -2   34.00    2.40
  -8   6   2   35.90    2.80
  -8   6   2   36.50    3.70
   7  -6  -2  142.09    5.80
   7  -6  -2  142.09    6.60
   7  -6  -2  139.09    6.20
  -7   6   2  150.68    6.90
  -7   6   2  133.99    6.00
   6  -6  -2  313.47   11.80
   6  -6  -2  312.77   11.40
   6  -6  -2  319.47   12.30
  -6   6   2  325.47   12.50
  -6   6   2  305.77   11.50
   5  -6  -2  138.69    5.60
   5  -6  -2  149.99    6.50
   5  -6  -2  140.39    6.00
  -5   6   2  140.89    5.60
  -5   6   2  148.69    6.50
   4  -6  -2   94.29    4.00
   4  -6  -2  102.09    4.50
   4  -6  -2   91.59    4.70
  -4   6   2   95.69    4.70
  -4   6   2   99.09    3.80
   3  -6  -2  133.09    5.90
   3  -6  -2  135.49    5.30
   3  -6  -2  138.19    5.80
  -3   6   2  132.49    4.90
  -3   6   2  137.39    5.90
   2  -6  -2  411.76   15.30
   2  -6  -2  414.86   14.80
   2  -6  -2  423.36   15.40
  -2   6   2  428.26   14.70
  -2   6   2  434.16   15.30
   1  -6  -2  233.98    8.60
   1  -6  -2  217.78    8.80
   1  -6  -2  233.68    9.20
  -1   6   2  230.28    9.30
  -1   6   2  231.88    8.70
  -1   6   2  234.68    8.70
  -1   6   2  230.58    8.20
   0  -6  -2   12.40    1.50
   0  -6  -2   13.20    1.90
   0  -6  -2   11.30    1.30
   0   6   2   14.20    2.00
   0   6   2   17.30    1.80
  -1  -6  -2   20.90    4.40
  -1  -6  -2   13.00    1.60
  -1  -6  -2   20.30    2.50
  -1  -6  -2   18.00    1.90
   1   6   2   20.50    2.70
   1   6   2   20.30    2.20
  -2  -6  -2   75.19    8.70
  -2  -6  -2   60.09    3.40
  -2  -6  -2   54.89    3.20
   2   6   2   63.89    3.80
   2   6   2   61.79    4.40
  -3  -6  -2    0.50    1.10
   3   6   2    1.60    1.30
   3   6   2   -0.40    1.70
  -4  -6  -2   -1.00    1.10
   4   6   2    1.60    1.40
   4   6   2   -1.10    1.70
   9  -7  -2   36.20    4.30
  -9   7   2   39.10    4.30
   8  -7  -2   46.40    2.90
   8  -7  -2   55.79    4.00
  -8   7   2   47.80    3.20
  -8   7   2   54.09    4.30
   7  -7  -2  180.58    7.30
   7  -7  -2  199.88    8.40
  -7   7   2  178.48    7.40
  -7   7   2  180.48    8.40
   6  -7  -2    1.30    1.20
   6  -7  -2    1.80    0.70
   6  -7  -2    2.60    1.00
  -6   7   2   -0.30    1.20
  -6   7   2    2.50    0.80
   5  -7  -2   19.90    2.50
   5  -7  -2   18.00    1.80
   5  -7  -2   19.00    1.60
  -5   7   2   21.30    2.50
  -5   7   2   18.50    1.40
   4  -7  -2   13.70    1.80
   4  -7  -2   16.30    1.50
   4  -7  -2   18.40    1.90
  -4   7   2   16.80    2.00
   3  -7  -2   26.40    2.50
   3  -7  -2   26.60    2.20
   3  -7  -2   25.50    1.80
  -3   7   2   26.60    1.80
  -3   7   2   28.10    2.40
   2  -7  -2   85.29    4.40
   2  -7  -2   88.99    3.90
   2  -7  -2   87.49    4.50
  -2   7   2   84.69    3.70
  -2   7   2   93.29    5.00
  -2   7   2   86.79    4.70
   1  -7  -2    4.90    1.10
   1  -7  -2    5.00    1.30
   1  -7  -2    6.60    1.60
  -1   7   2    4.90    1.10
  -1   7   2    5.20    1.50
   0  -7  -2   37.50    2.70
   0  -7  -2   36.10    2.50
   0   7   2   41.70    3.50
   0   7   2   42.40    2.80
  -1  -7  -2   89.39    4.40
  -1  -7  -2   87.59    4.40
   1   7   2   98.69    5.70
   1   7   2   91.09    4.80
  -2  -7  -2   80.39    4.30
   2   7   2   91.19    5.80
   2   7   2   83.69    4.90
  -3  -7  -2   13.00    2.70
   3   7   2    8.80    2.10
   3   7   2    6.80    2.40
   8  -8  -2   87.79    5.30
   8  -8  -2   76.49    4.10
  -8   8   2   82.99    5.50
   7  -8  -2  191.88    8.00
   7  -8  -2  208.48    9.20
  -7   8   2  212.38    9.30
   6  -8  -2    0.50    0.70
   6  -8  -2    0.30    1.30
  -6   8   2   -0.40    1.30
   5  -8  -2   45.20    3.70
   5  -8  -2   48.80    2.70
  -5   8   2   48.10    3.70
   4  -8  -2   -2.20    4.20
   4  -8  -2   -0.80    0.60
   4  -8  -2   -0.50    1.00
  -4   8   2   -0.80    0.70
  -4   8   2   -1.00    0.90
   3  -8  -2   84.09    4.60
   3  -8  -2   77.99    3.80
   2  -8  -2   80.29    3.90
   2  -8  -2   74.29    4.50
  -2   8   2   89.29    5.00
   1  -8  -2   38.70    2.60
   1  -8  -2   34.00    3.00
  -1   8   2   40.10    3.70
   0  -8  -2   19.90    2.50
   0  -8  -2   19.20    2.10
   0   8   2   22.70    2.40
   0   8   2   23.50    3.20
  -1  -8  -2   -0.20    0.90
  -1  -8  -2    0.40    1.10
   1   8   2   -1.40    1.20
   1   8   2   -1.00    1.70
   2   8   2    8.60    2.00
   7  -9  -2    1.00    1.00
   7  -9  -2    0.00    1.50
  -7   9   2    2.10    1.70
   6  -9  -2   68.99    4.90
   6  -9  -2   65.29    3.60
  -6   9   2   68.89    4.80
   5  -9  -2   -0.30    1.30
   5  -9  -2    2.30    4.10
   5  -9  -2    0.90    0.80
   4  -9  -2   28.00    2.20
   4  -9  -2   31.00    3.20
   3  -9  -2    6.60    1.70
   3  -9  -2    7.90    1.30
  -3   9   2    8.40    2.00
   2  -9  -2   16.30    8.00
   2  -9  -2   11.90    2.00
   2  -9  -2   14.40    1.70
  -2   9   2   18.40    2.80
   1  -9  -2   15.80    2.10
   1  -9  -2   18.00    2.00
  -1   9   2   18.60    2.80
   0  -9  -2    0.00    1.00
   0  -9  -2    2.20    6.50
   0   9   2   -0.40    1.80
   5 -10  -2   32.30    9.30
  -5  10   2   25.40    3.30
   4 -10  -2   12.80    7.10
  -4  10   2   17.90    2.80
   3 -10  -2    3.80    6.70
  -3  10   2    2.80    1.70
   2 -10  -2   -0.40   10.90
  -2  11  -3   46.90    4.70
  -5  11  -3   22.90    2.60
   0  10  -3   36.20    4.10
  -1  10  -3    2.00    1.80
   1 -10   3   15.50    9.10
  -2  10  -3   -0.40    1.00
  -2  10  -3    1.10    1.50
   2 -10   3   -0.10    0.80
   2 -10   3    9.20    6.80
   2 -10   3    0.40    1.00
  -3  10  -3    5.20    1.60
  -3  10  -3    1.80    1.10
   3 -10   3    5.40    1.30
   3 -10   3    4.50    1.40
   3 -10   3    4.70    5.70
  -4  10  -3   35.30    4.80
  -4  10  -3   26.20    2.50
   4 -10   3   32.30    3.20
   4 -10   3   42.90   10.40
   4 -10   3   29.80    2.40
  -5  10  -3    0.10    1.00
   5 -10   3    0.00    0.90
   5 -10   3    1.00    1.30
   5 -10   3   -1.30    5.20
  -6  10  -3   24.80    2.70
   6 -10   3   19.90    2.60
   6 -10   3   21.20    2.20
  -7  10  -3   14.20    2.30
   1   9  -3   24.10    3.30
  -1  -9   3   16.60    1.90
   0   9  -3   24.70    3.00
   0   9  -3   27.20    3.50
   0  -9   3   24.30    2.30
  -1   9  -3   12.00    2.30
  -1   9  -3    9.20    1.50
   1  -9   3    9.30    1.40
   1  -9   3    6.50    7.00
   1  -9   3   10.40    1.50
  -2   9  -3   61.09    4.00
  -2   9  -3   54.69    3.20
   2  -9   3   49.99    3.00
   2  -9   3   51.99    3.40
  -3   9  -3    0.70    1.10
  -3   9  -3   -0.90    0.70
   3  -9   3   -1.10    0.90
   3  -9   3    0.30    5.20
   3  -9   3    1.20    0.80
  -4   9  -3   19.30    2.40
  -4   9  -3   15.20    1.90
   4  -9   3   14.30    2.00
   4  -9   3   17.90    1.80
  -5   9  -3   16.40    2.00
  -5   9  -3   13.60    1.50
   5  -9   3   14.90    1.60
   5  -9   3    9.60    5.40
   5  -9   3   12.10    1.80
  -7   9  -3    2.80    1.60
  -7   9  -3    3.50    1.20
   7  -9   3    1.60    1.00
  -8   9  -3    4.50    2.10
  -8   9  -3    7.40    1.60
  -3  -8   3    9.20   12.10
  -3  -8   3   14.00    1.90
   2   8  -3   -0.90    1.70
  -2  -8   3   -0.40    1.00
  -2  -8   3   -5.50    7.80
   1   8  -3   12.90    2.40
   1   8  -3    9.90    1.50
  -1  -8   3    8.80    1.40
  -1  -8   3   -1.10    8.00
  -1   8  -3    1.40    0.90
  -1   8  -3    0.50    1.30
   1  -8   3    1.80    5.60
   1  -8   3    2.50    0.80
   1  -8   3    2.90    0.90
   1  -8   3    1.80    1.30
  -3   8  -3   70.59    3.80
  -3   8  -3   61.89    3.50
   3  -8   3   69.29    3.90
   3  -8   3   66.89    3.30
   3  -8   3   79.99   10.50
   3  -8   3   68.69    3.80
  -5   8  -3   11.80    1.80
  -5   8  -3   10.20    1.30
   5  -8   3   10.30    1.30
   5  -8   3   10.80    1.70
   5  -8   3    5.90    4.80
  -6   8  -3   40.40    2.70
  -6   8  -3   45.40    3.50
   6  -8   3   45.40    2.70
   6  -8   3   52.39    3.60
  -7   8  -3    3.70    1.70
  -7   8  -3    4.40    1.20
   7  -8   3    3.80    1.10
  -8   8  -3   13.30    2.40
  -8   8  -3   15.90    2.10
   8  -8   3   15.50    2.00
   8  -8   3   15.90    2.60
   4   7  -3   26.80    4.10
  -4  -7   3   26.30    2.60
  -4  -7   3   21.70   10.70
   3   7  -3   -0.50    1.70
  -3  -7   3   -0.20    0.90
  -3  -7   3    3.90    9.00
   2   7  -3   38.90    3.70
   2   7  -3   33.80    2.40
  -2  -7   3   22.30   10.50
  -2  -7   3   31.70    2.40
   1   7  -3    8.20    1.30
   1   7  -3    9.40    1.90
  -1  -7   3   13.80    8.30
  -1  -7   3    9.90    1.30
  -1  -7   3   10.00    1.80
   0   7  -3   55.29    3.00
   0   7  -3   57.09    3.70
   0  -7   3   54.79    2.90
   0  -7   3   58.09    3.50
   0  -7   3   54.89    2.70
  -1   7  -3  581.24   19.90
  -1   7  -3  543.95   19.50
   1  -7   3  568.14   20.00
   1  -7   3  545.45   19.30
   1  -7   3  532.55   19.30
  -2   7  -3   20.20    1.90
  -2   7  -3   24.20    1.80
  -2   7  -3   22.80    2.10
   2  -7   3   21.60    2.10
   2  -7   3   19.70    1.60
   2  -7   3   21.30    1.90
  -3   7  -3  188.88    7.20
  -3   7  -3  171.18    7.10
  -3   7  -3  172.58    7.10
   3  -7   3  178.38    6.80
   3  -7   3  187.18    7.50
   3  -7   3  179.08    7.30
  -4   7  -3  200.48    7.70
  -4   7  -3  199.28    8.10
   4  -7   3  201.88    7.60
   4  -7   3  206.18    8.30
   4  -7   3  210.28    8.30
  -6   7  -3  119.79    5.20
  -6   7  -3  119.89    5.80
   6  -7   3  117.09    5.00
  -7   7  -3   45.80    2.90
  -7   7  -3   41.30    3.60
   7  -7   3   42.80   10.50
   7  -7   3   45.60    2.70
  -8   7  -3   19.10    2.80
  -8   7  -3   20.50    2.30
   8  -7   3   18.30    2.40
   8  -7   3   17.90    1.90
   5   6  -3   -0.30    2.00
  -5  -6   3   -0.20    1.00
   4   6  -3    1.60    1.40
   4   6  -3    0.00    1.70
  -4  -6   3    1.40    1.00
  -4  -6   3   -2.40    7.10
   3   6  -3    1.20    1.20
   3   6  -3    0.70    0.80
   3   6  -3    1.40    1.70
  -3  -6   3   -2.00    3.80
  -3  -6   3    1.20    0.90
  -3  -6   3    1.90    1.40
   2   6  -3    0.00    1.00
   2   6  -3    1.50    0.80
   2   6  -3   -1.60    1.20
  -2  -6   3   -1.70    1.00
  -2  -6   3   -0.90    2.70
  -2  -6   3   -1.50    6.50
  -2  -6   3   -0.60    0.70
   1   6  -3  185.78    7.30
   1   6  -3  202.98    8.00
  -1  -6   3  193.28    7.90
  -1  -6   3  182.38    9.40
  -1  -6   3  187.88    7.20
   0   6  -3   87.59    4.30
   0   6  -3   79.99    3.80
   0  -6   3   90.29    4.20
   0  -6   3   86.49    3.60
   0  -6   3   82.29    3.50
  -1   6  -3  497.45   17.60
  -1   6  -3  506.45   17.30
  -1   6  -3  508.65   17.80
   1  -6   3  505.95   17.90
   1  -6   3  476.15   17.40
   1  -6   3  503.35   17.30
  -2   6  -3   10.20    1.20
  -2   6  -3    5.40    0.90
   2  -6   3    6.70    0.80
   2  -6   3    4.20    1.10
   2  -6   3   10.70    1.40
  -3   6  -3   22.40    1.60
  -3   6  -3   18.50    1.90
  -3   6  -3   21.80    1.50
   3  -6   3   21.10    1.80
   3  -6   3   21.70    1.40
   3  -6   3   22.50    1.90
  -4   6  -3   56.69    2.70
  -4   6  -3   47.50    3.10
   4  -6   3   55.19    3.00
   4  -6   3   50.29    3.10
   4  -6   3   52.09    2.50
  -5   6  -3  320.77   12.20
  -5   6  -3  325.37   11.70
   5  -6   3  323.17   12.20
   5  -6   3  324.17   12.10
   5  -6   3  319.77   11.60
  -6   6  -3    3.80    1.40
  -6   6  -3    6.40    3.10
  -6   6  -3    2.60    1.00
   6  -6   3    9.70    5.80
   6  -6   3    2.70    0.80
   6  -6   3    2.40    1.10
  -7   6  -3   32.50    2.50
  -7   6  -3   33.80    3.20
   7  -6   3   29.90    2.20
   7  -6   3   35.00    3.00
  -8   6  -3  146.89    7.10
  -8   6  -3  140.69    6.50
   8  -6   3  149.19    6.90
  -6  -5   3   12.80    1.90
  -6  -5   3    0.60    6.10
   5   5  -3    2.60    1.60
  -5  -5   3    2.50    1.20
  -5  -5   3    2.60    5.20
   4   5  -3   20.20    2.70
   4   5  -3   20.70    2.40
  -4  -5   3   13.50    5.40
  -4  -5   3   22.30    2.10
  -4  -5   3   19.50    2.20
  -4  -5   3   21.40    2.60
   3   5  -3   16.30    2.00
   3   5  -3   19.80    2.70
   3   5  -3   18.50    1.90
  -3  -5   3   20.80    1.80
  -3  -5   3   12.90    4.80
  -3  -5   3   20.10    1.80
  -3  -5   3   19.50    2.30
   2   5  -3  196.58    7.70
   2   5  -3  184.58    7.60
   2   5  -3  191.38    7.90
   2   5  -3  175.78    7.20
  -2  -5   3  205.48   11.00
  -2  -5   3  188.08    7.10
  -2  -5   3  184.98    7.70
   1   5  -3  369.26   13.60
   1   5  -3  395.46   13.50
   1   5  -3  362.76   13.20
  -1  -5   3  356.76   12.90
  -1  -5   3  356.06   15.30
  -1  -5   3  384.96   13.60
   0   5  -3  122.39    5.10
   0   5  -3  133.79    5.00
   0   5  -3  120.39    4.90
   0  -5   3  125.19    5.10
   0  -5   3  121.79    4.60
   0  -5   3  107.29    4.60
   0  -5   3  125.09    4.70
  -1   5  -3    0.50    0.60
  -1   5  -3    0.90    0.50
  -1   5  -3    0.00    0.80
  -1   5  -3    0.70    0.40
  -1   5  -3    1.40    0.50
   1  -5   3    0.60    0.40
   1  -5   3    0.30    0.60
   1  -5   3    0.20    0.50
   1  -5   3    0.90    0.40
   1  -5   3   -0.60    2.90
  -2   5  -3   29.90    1.50
  -2   5  -3   26.90    1.60
  -2   5  -3   26.10    1.70
  -2   5  -3   26.50    1.70
   2  -5   3   27.20    1.80
   2  -5   3   25.90    1.50
  -3   5  -3  203.18    7.30
  -3   5  -3  200.98    7.60
   3  -5   3  207.08    7.70
   3  -5   3  199.48    7.20
   3  -5   3  188.38    7.60
  -5   5  -3  475.35   17.00
  -5   5  -3  460.35   16.60
   5  -5   3  478.75   16.90
   5  -5   3  466.65   16.40
  -6   5  -3   47.30    3.30
  -6   5  -3   52.19    2.90
   6  -5   3   48.90    3.20
   6  -5   3   49.70    2.60
  -7   5  -3   36.50    3.30
  -7   5  -3   44.40    2.80
   7  -5   3   37.60    3.20
  -8   5  -3   48.30    3.70
  -8   5  -3   39.20    3.00
  -9   5  -3   -1.50    4.80
   6   4  -3    2.50    1.50
  -6  -4   3    0.30    1.10
  -6  -4   3   -0.70    5.10
   5   4  -3   85.59    4.70
  -5  -4   3   88.99    4.80
  -5  -4   3   83.69    4.30
   4   4  -3    4.60    1.40
   4   4  -3    5.70    1.40
   4   4  -3    3.70    1.60
  -4  -4   3    5.10    1.40
  -4  -4   3    5.30    1.20
  -4  -4   3   -1.00    4.70
   3   4  -3   46.60    3.00
   3   4  -3   49.80    3.20
   3   4  -3   46.00    2.80
   3   4  -3   47.50    2.70
  -3  -4   3   47.50    2.90
  -3  -4   3   52.59    2.60
  -3  -4   3   37.50    6.70
   2   4  -3    1.30    0.90
   2   4  -3    2.70    0.80
   2   4  -3    2.80    1.00
   2   4  -3    3.00    0.90
  -2  -4   3    2.00    0.90
  -2  -4   3    1.80    0.60
  -2  -4   3   -1.20    3.10
   1   4  -3  224.68    8.30
   1   4  -3  225.18    8.60
   1   4  -3  238.18    8.50
  -1  -4   3  228.78    8.50
  -1  -4   3  225.18    8.10
   0   4  -3 1946.61   60.39
   0   4  -3 1729.33   60.39
   0   4  -3 1764.52   60.29
   0   4  -3 1901.81   60.49
   0  -4   3 1757.82   60.09
   0  -4   3 1723.93   60.09
   0  -4   3 1794.12   60.09
   0  -4   3 1729.13   60.39
  -1   4  -3   97.19    3.40
  -1   4  -3   84.89    3.50
  -1   4  -3   88.89    3.60
  -1   4  -3   84.69    3.40
  -1   4  -3   93.69    3.70
   1  -4   3   82.49    3.50
   1  -4   3   84.59    3.30
   1  -4   3   86.09    3.50
   1  -4   3   91.29    3.70
  -2   4  -3  646.04   22.60
  -2   4  -3  696.83   22.20
  -2   4  -3  622.94   22.40
  -2   4  -3  683.23   22.80
  -2   4  -3  677.23   22.50
   2  -4   3  641.64   22.40
   2  -4   3  638.04   22.70
   2  -4   3  674.73   22.80
  -3   4  -3   19.90    1.40
  -3   4  -3   15.10    1.50
  -3   4  -3   19.00    1.20
   3  -4   3   18.10    1.10
   3  -4   3   19.70    1.40
   3  -4   3   14.60    1.40
  -4   4  -3 1472.05   49.70
  -4   4  -3 1476.55   49.50
   4  -4   3 1441.16   49.70
   4  -4   3 1468.25   49.30
  -5   4  -3  276.67   10.20
  -5   4  -3  271.77    9.90
   5  -4   3  258.47    9.70
   5  -4   3  266.17   10.10
   5  -4   3  274.37   10.10
  -7   4  -3   32.30    2.50
  -7   4  -3   37.60    7.00
  -7   4  -3   23.40    2.90
   7  -4   3   30.30    2.70
  -8   4  -3    2.10    1.40
  -8   4  -3    1.10    4.10
  -8   4  -3    3.20    1.20
   8  -4   3    3.30    1.30
   7   3  -3    1.50    1.40
  -7  -3   3    4.50    6.20
  -7  -3   3    2.30    1.50
   6   3  -3   20.70    2.40
  -6  -3   3   17.50    2.10
   5   3  -3   77.19    4.50
   5   3  -3   77.39    4.10
  -5  -3   3   80.89    4.10
  -5  -3   3   81.89    4.30
   4   3  -3   24.40    2.30
   4   3  -3   28.90    2.20
  -4  -3   3   25.00    2.00
  -4  -3   3   27.10    2.20
   3   3  -3    6.40    1.00
   3   3  -3    6.30    1.20
   3   3  -3    6.00    1.20
   3   3  -3    5.90    1.00
  -3  -3   3    7.60    1.10
   2   3  -3   -0.30    0.50
   2   3  -3    1.00    0.80
   2   3  -3    0.40    0.60
   2   3  -3    0.10    0.70
   1   3  -3  171.18    6.10
   1   3  -3  156.38    6.20
   1   3  -3  168.68    6.20
  -1  -3   3  162.48    6.10
  -1  -3   3  164.28    5.80
   0   3  -3  167.98    6.10
   0   3  -3  172.08    6.20
   0   3  -3  175.48    6.10
   0   3  -3  166.98    5.90
   0   3  -3  162.58    6.10
   0  -3   3  166.68    5.90
   0  -3   3  168.98    6.20
   0  -3   3  162.98    5.90
  -1   3  -3  499.55   16.90
  -1   3  -3  494.95   16.80
  -1   3  -3  511.75   17.00
  -1   3  -3  527.85   16.70
  -1   3  -3  484.55   16.80
  -1   3  -3  476.95   16.70
   1  -3   3  459.75   17.50
   1  -3   3  482.85   16.90
   1  -3   3  495.85   17.00
   1  -3   3  492.25   16.70
  -3   3  -3  477.95   16.20
  -3   3  -3  467.15   16.20
  -3   3  -3  470.45   15.90
  -3   3  -3  490.65   15.60
   3  -3   3  438.86   19.10
   3  -3   3  445.36   15.80
   3  -3   3  445.16   16.10
  -4   3  -3 1809.22   61.59
  -4   3  -3 1726.53   61.29
   4  -3   3 1741.43   61.19
   4  -3   3 1787.12   61.49
   4  -3   3 2054.59   66.99
  -5   3  -3   17.30    1.60
  -5   3  -3   15.50    1.90
   5  -3   3   19.40    1.80
  -6   3  -3  159.98    6.50
  -6   3  -3  164.08    6.80
   6  -3   3  163.38    6.60
   6  -3   3  160.78   11.70
  -7   3  -3   25.40    2.80
  -7   3  -3   24.30    2.40
   7  -3   3   29.00    2.40
  -8   3  -3  156.98    6.90
  -8   3  -3  162.38    7.20
   8  -3   3  153.88    6.80
   7   2  -3    1.80    1.30
  -7  -2   3   -2.30    4.70
  -7  -2   3    0.00    1.20
   6   2  -3    0.70    1.30
   6   2  -3    3.60    1.20
  -6  -2   3    5.30    5.40
  -6  -2   3    1.30    1.20
   5   2  -3   57.89    3.60
   5   2  -3   57.79    3.20
  -5  -2   3   57.99    3.20
   4   2  -3   77.49    3.90
   4   2  -3   78.49    3.60
  -4  -2   3   72.69    3.50
   3   2  -3  161.28    6.30
   3   2  -3  164.08    6.30
   3   2  -3  170.08    6.60
   2   2  -3 1435.36   48.30
   2   2  -3 1398.36   48.10
   2   2  -3 1355.36   48.30
   2   2  -3 1378.26   48.10
  -2  -2   3 1435.56   48.10
  -2  -2   3 1564.84   51.59
   1   2  -3 1214.28   40.20
   1   2  -3 1247.28   40.30
   1   2  -3 1148.09   40.20
  -1  -2   3 1182.08   39.90
  -1  -2   3 1144.99   40.00
  -1  -2   3 1212.98   43.00
   0   2  -3  619.04   21.10
   0   2  -3  597.24   21.10
   0   2  -3  641.34   20.90
   0   2  -3  615.54   21.00
   0   2  -3  669.43   21.10
   0   2  -3  612.34   21.10
   0  -2   3  632.24   21.10
   0  -2   3  608.44   20.90
   0  -2   3  591.44   21.00
   0  -2   3  626.94   21.10
   0  -2   3  639.14   21.00
  -1   2  -3   73.69    2.90
  -1   2  -3   72.39    2.80
  -1   2  -3   71.99    2.70
  -1   2  -3   75.49    2.90
  -1   2  -3   74.19    2.80
   1  -2   3   71.59    3.90
   1  -2   3   71.59    2.70
   1  -2   3   70.49    2.80
   1  -2   3   69.09    2.80
  -2   2  -3  994.60   34.00
  -2   2  -3 1002.10   33.90
  -2   2  -3 1044.20   34.00
   2  -2   3 1052.09   36.50
   2  -2   3 1005.00   33.70
   2  -2   3  961.70   34.00
   2  -2   3  977.00   33.90
  -3   2  -3 1731.73   58.79
  -3   2  -3 1680.83   58.69
  -3   2  -3 1680.43   58.49
  -3   2  -3 1774.12   58.89
   3  -2   3 1992.20   62.79
   3  -2   3 1722.03   58.79
   3  -2   3 1652.43   58.49
  -4   2  -3   74.79    3.50
   4  -2   3   83.99    7.50
   4  -2   3   75.39    3.40
  -5   2  -3   69.59    7.10
  -5   2  -3   59.79    3.20
  -5   2  -3   58.49    3.00
   5  -2   3   59.19    3.00
   5  -2   3   61.69    7.50
  -6   2  -3  580.04   20.50
   6  -2   3  588.14   20.50
  -8   2  -3   89.29    4.90
  -8   2  -3   96.99    4.90
   8  -2   3   93.19    4.80
  -8  -1   3   10.20    2.10
   7   1  -3    4.90    1.30
  -7  -1   3    4.90    1.50
  -7  -1   3   -3.00    5.60
   6   1  -3  262.97    9.70
   6   1  -3  240.98   10.10
  -6  -1   3  256.97    9.80
   5   1  -3    6.50    1.40
   5   1  -3    9.10    1.30
  -5  -1   3    9.20    1.30
   4   1  -3   51.49    2.60
   4   1  -3   54.39    2.90
  -4  -1   3   55.09    2.70
   3   1  -3  483.15   16.60
   3   1  -3  478.05   16.90
   2   1  -3  143.69    5.60
   2   1  -3  156.08    5.60
  -2  -1   3  147.99    7.20
   1   1  -3 1872.21   60.09
   1   1  -3 1670.53   64.99
   1   1  -3 1837.72   59.99
   1   1  -3 1871.21   59.99
   1   1  -3 1856.41   59.99
  -1  -1   3 1704.93   63.39
  -1  -1   3 1775.22   60.19
  -1  -1   3 1830.52   59.69
  -1  -1   3 1628.14   59.99
  -1  -1   3 1799.72   60.09
   0   1  -3  942.21   31.40
   0   1  -3  915.71   31.50
   0   1  -3  937.71   33.10
   0   1  -3 1052.79   32.90
   0   1  -3  893.01   31.70
   0   1  -3  932.11   31.50
   0   1  -3  957.30   31.50
   0  -1   3  941.01   31.50
   0  -1   3  912.21   31.50
   0  -1   3  884.61   33.70
   0  -1   3  930.51   31.50
   0  -1   3  889.41   31.60
   0  -1   3  996.80   31.60
   0  -1   3  958.80   32.60
  -1   1  -3  792.92   27.90
  -1   1  -3  873.31   27.70
  -1   1  -3  829.22   27.90
  -1   1  -3  815.02   27.80
  -1   1  -3  835.32   27.90
   1  -1   3  859.41   29.60
   1  -1   3  836.62   27.80
   1  -1   3  809.02   27.90
   1  -1   3  772.22   29.60
  -2   1  -3  306.27   11.00
  -2   1  -3  330.57   11.20
  -2   1  -3  303.87   10.90
  -2   1  -3  328.87   11.10
   2  -1   3  324.67   13.60
   2  -1   3  307.27   10.90
  -3   1  -3  377.26   13.20
  -3   1  -3  384.16   13.40
  -3   1  -3  397.46   13.50
   3  -1   3  370.56   13.30
   3  -1   3  381.06   16.50
  -4   1  -3  333.77   11.90
  -4   1  -3  331.27   11.80
   4  -1   3  325.87   11.80
   4  -1   3  346.97   16.10
  -6   1  -3  100.19    4.60
  -6   1  -3   96.59    4.50
   6  -1   3   98.19    4.60
  -8   1  -3   11.30    1.90
  -8   1  -3    9.40    1.70
   8  -1   3   11.80    1.90
  -8   0   3   19.80    2.20
  -8   0   3   14.20    2.10
   7   0  -3   -0.30    0.80
   7   0  -3    2.10    1.10
  -7   0   3    0.70    0.90
  -7   0   3   10.80    6.80
  -7   0   3    0.00    1.10
   6   0  -3  113.09    5.50
   6   0  -3  123.19    5.10
  -6   0   3  129.29    5.10
  -6   0   3  121.89    5.40
   5   0  -3  341.37   12.10
   5   0  -3  349.17   12.60
  -5   0   3  351.16   12.20
  -5   0   3  336.57   12.20
  -5   0   3  328.07   12.30
   4   0  -3  139.99    5.10
   4   0  -3  124.49    5.50
   4   0  -3  142.09    5.20
  -4   0   3  149.19    5.30
  -4   0   3  133.99    5.40
  -4   0   3  137.09    5.30
  -4   0   3  142.29    5.20
   3   0  -3   51.29    2.10
   3   0  -3   52.39    2.20
   3   0  -3   43.70    2.40
  -3   0   3   51.69    2.10
  -3   0   3   53.69    2.30
  -3   0   3   52.39    2.40
   2   0  -3 4320.27  139.19
   2   0  -3 3778.12  139.89
  -2   0   3 4087.19  138.49
  -2   0   3 4168.08  138.29
  -2   0   3 4284.97  138.89
  -2   0   3 3911.11  138.99
  -2   0   3 4384.16  138.09
   1   0  -3 2894.51   92.89
   1   0  -3 2736.93   92.79
   1   0  -3 2838.02   92.89
  -1   0   3 2473.75   95.99
  -1   0   3 2937.51   92.89
  -1   0   3 2788.62   92.79
  -1   0   3 2632.34   92.89
   0   0  -3 2796.62   92.19
   0   0  -3 2867.31   97.89
   0   0  -3 2782.52   91.79
   0   0  -3 2737.33   92.09
   0   0   3 2668.63   92.09
   0   0   3 2798.12   91.79
   0   0   3 2796.72   91.59
   0   0   3 2677.13   91.89
   0   0   3 2582.54   99.29
   0   0   3 2640.84   96.89
  -1   0  -3  467.25   15.20
  -1   0  -3  481.05   15.40
  -1   0  -3  397.76   16.80
   1   0   3  482.35   15.20
   1   0   3  455.05   17.50
   1   0   3  449.76   15.30
   1   0   3  417.06   15.30
  -2   0  -3  940.31   31.20
  -2   0  -3  929.91   31.30
  -2   0  -3  946.81   31.30
   2   0   3  948.71   34.30
   2   0   3  872.11   31.30
   2   0   3  925.91   31.30
  -3   0  -3   68.89    2.90
  -3   0  -3   64.69    2.70
   3   0   3   66.89    2.80
   3   0   3   62.19    2.90
  -4   0  -3  131.99    5.10
  -4   0  -3  133.99    5.20
   4   0   3  138.19    5.10
   4   0   3  127.99    5.30
   4   0   3  130.19    5.30
  -5   0  -3  185.88    7.00
  -5   0  -3  180.98    7.10
   5   0   3  183.68    7.30
  -6   0  -3   18.60    2.00
  -6   0  -3    8.80    5.40
  -6   0  -3   19.70    2.00
   6   0   3   17.70    2.00
  -7   0  -3  108.99    5.20
  -7   0  -3  116.79    5.40
   7   0   3  118.49    5.60
  -8   0  -3    2.80    1.30
  -8   0  -3    0.90    1.10
   8   0   3   -0.50    1.30
  -9   1   3    2.90    1.20
  -8   1   3  139.49    6.00
  -8   1   3  129.89    6.30
   7  -1  -3  300.27   12.10
  -7   1   3  315.37   12.00
  -7   1   3  329.17   11.80
   6  -1  -3  165.08    6.90
   6  -1  -3  170.58    6.40
  -6   1   3  168.88    6.90
  -6   1   3  173.28    6.80
   5  -1  -3  864.01   29.30
   5  -1  -3  832.12   29.60
   5  -1  -3  879.61   29.10
  -5   1   3  853.31   29.50
  -5   1   3  875.91   29.30
  -5   1   3  841.32   29.50
   4  -1  -3   42.80    2.30
   4  -1  -3   48.20    1.90
   4  -1  -3   44.20    2.30
  -4   1   3   46.20    2.00
  -4   1   3   42.20    2.30
   3  -1  -3  217.88    7.20
   3  -1  -3  213.28    7.20
   3  -1  -3  214.48    7.60
   3  -1  -3  212.18    7.60
  -3   1   3  206.88    7.50
  -3   1   3  198.58    7.60
  -3   1   3  216.68    7.60
  -3   1   3  193.18    7.30
   2  -1  -3   71.69    2.50
   2  -1  -3   72.39    2.90
   2  -1  -3   67.49    2.50
  -2   1   3   63.79    2.60
  -2   1   3   75.49    2.90
  -2   1   3   73.49    2.50
  -2   1   3   66.49    2.80
   1  -1  -3   21.60    1.00
   1  -1  -3   23.10    1.20
   1  -1  -3   24.30    1.00
  -1   1   3   23.40    1.00
  -1   1   3   26.20    1.00
  -1   1   3   22.70    1.20
   0  -1  -3 1343.97   45.60
   0  -1  -3 1377.26   45.40
   0  -1  -3 1383.16   46.80
   0   1   3 1350.66   45.30
   0   1   3 1303.07   45.40
  -1  -1  -3  106.19    4.00
  -1  -1  -3  113.99    4.00
  -1  -1  -3   99.89    5.60
  -1  -1  -3  101.79    3.70
   1   1   3  107.79    3.80
   1   1   3   96.29    4.00
   1   1   3  104.89    4.00
  -2  -1  -3 1408.26   47.50
  -2  -1  -3 1426.66   47.30
  -2  -1  -3 1478.05   47.50
   2   1   3 1422.66   47.60
   2   1   3 1312.77   47.60
   2   1   3 1419.16   47.40
  -3  -1  -3   45.50    2.20
  -3  -1  -3   47.50    2.20
  -3  -1  -3   46.40    2.10
   3   1   3   45.80    2.50
   3   1   3   47.20    2.20
   3   1   3   47.60    2.40
  -4  -1  -3  260.47    9.40
  -4  -1  -3  261.17    9.40
   4   1   3  264.67    9.70
   4   1   3  260.57    9.30
   4   1   3  251.07    9.80
  -5  -1  -3   -1.80    3.20
  -5  -1  -3    0.00    0.70
  -5  -1  -3    0.70    0.80
   5   1   3    0.30    1.00
   5   1   3    1.90    1.00
  -7  -1  -3   12.60    1.60
  -7  -1  -3   17.90    2.10
   7   1   3   14.90    2.20
  -9   2   3   16.30    2.10
   8  -2  -3   19.10    2.30
  -8   2   3   18.90    2.30
  -8   2   3   21.40    2.70
   6  -2  -3   24.00    2.00
   6  -2  -3   26.70    1.50
   6  -2  -3   22.80    1.90
  -6   2   3   26.80    2.10
  -6   2   3   20.30    2.30
   5  -2  -3  288.87   10.70
   5  -2  -3  306.37   10.20
   5  -2  -3  304.97   10.80
  -5   2   3  286.27   10.90
  -5   2   3  290.67   10.70
  -5   2   3  289.67   10.50
   4  -2  -3  140.09    5.60
   4  -2  -3  161.98    5.90
   4  -2  -3  155.58    5.40
  -4   2   3  141.69    5.90
  -4   2   3  151.28    5.60
  -4   2   3  146.49    5.70
   3  -2  -3  727.63   24.40
   3  -2  -3  701.03   24.50
   3  -2  -3  750.42   24.90
  -3   2   3  734.13   24.60
  -3   2   3  710.73   24.50
  -3   2   3  717.43   24.80
   2  -2  -3   41.10    1.60
   2  -2  -3   38.80    1.70
   2  -2  -3   40.30    2.00
  -2   2   3   38.50    1.80
  -2   2   3   41.20    2.00
  -2   2   3   42.20    1.70
   1  -2  -3   18.50    1.10
   1  -2  -3   20.50    1.20
   1  -2  -3   20.20    2.40
  -1   2   3   20.20    1.00
  -1   2   3   21.80    0.90
  -1   2   3   20.70    1.20
  -1  -2  -3  381.76   13.20
  -1  -2  -3  398.16   15.60
  -1  -2  -3  380.86   13.30
   1   2   3  371.76   13.30
   1   2   3  395.76   13.30
   1   2   3  369.76   13.50
  -2  -2  -3  779.52   26.20
  -2  -2  -3  829.92   26.20
  -2  -2  -3  657.43   28.90
  -2  -2  -3  807.22   26.00
   2   2   3  740.73   26.50
   2   2   3  764.52   26.40
   2   2   3  804.62   26.20
  -3  -2  -3   36.50    1.80
  -3  -2  -3   35.10    2.00
   3   2   3   33.40    2.40
   3   2   3   37.50    1.90
   3   2   3   35.10    2.20
  -4  -2  -3  436.96   15.00
  -4  -2  -3  418.16   15.10
   4   2   3  433.56   15.70
   4   2   3  425.96   15.50
  -5  -2  -3    6.60    1.10
  -5  -2  -3    4.80    4.70
  -5  -2  -3    7.00    1.10
   5   2   3    6.50    1.50
   5   2   3    9.70    1.70
  -6  -2  -3   19.90    2.10
   6   2   3   22.30    2.60
   7   2   3   11.80    2.30
  -9   3   3    2.20    5.40
  -9   3   3   12.20    2.40
  -9   3   3   10.70    1.90
  -8   3   3   51.89    3.50
  -8   3   3   55.29    3.90
   7  -3  -3   77.89    3.90
  -7   3   3   83.89    4.20
  -7   3   3   84.49    4.50
   6  -3  -3   25.70    1.80
   6  -3  -3   24.90    2.10
  -6   3   3   20.10    2.30
  -6   3   3   24.70    2.10
   5  -3  -3  266.17    9.90
   5  -3  -3  262.27    9.50
   5  -3  -3  251.97    9.50
   5  -3  -3  262.37    9.30
  -5   3   3  256.37    9.50
  -5   3   3  266.37    9.60
  -5   3   3  267.07   10.00
   4  -3  -3  431.76   15.10
   4  -3  -3  417.86   14.60
   4  -3  -3  425.96   14.50
   4  -3  -3  416.06   14.60
  -4   3   3  425.36   15.10
  -4   3   3  422.26   14.70
  -4   3   3  408.76   14.70
   3  -3  -3  462.75   16.00
   3  -3  -3  468.65   15.50
   3  -3  -3  448.56   15.70
  -3   3   3  461.35   15.60
  -3   3   3  428.16   15.90
  -3   3   3  450.55   15.70
   2  -3  -3 1607.74   52.99
   2  -3  -3 1573.34   53.19
   2  -3  -3 1606.74   53.39
  -2   3   3 1619.74   52.89
  -2   3   3 1591.64   52.99
  -2   3   3 1505.55   53.19
  -2   3   3 1562.04   53.39
   1  -3  -3 1278.07   43.20
   1  -3  -3 1283.77   43.50
   1  -3  -3 1239.98   43.50
  -1   3   3 1333.27   43.50
  -1   3   3 1292.27   43.20
   0  -3  -3  461.15   15.60
   0  -3  -3  433.66   15.70
   0  -3  -3  470.85   17.70
   0  -3  -3  453.05   16.00
   0   3   3  460.35   15.80
   0   3   3  445.06   15.70
  -1  -3  -3   45.50    4.50
  -1  -3  -3   39.30    2.10
  -1  -3  -3   41.70    2.00
  -1  -3  -3   40.30    2.40
   1   3   3   44.00    2.20
   1   3   3   43.00    2.00
   1   3   3   39.20    2.40
  -2  -3  -3   35.50    5.20
  -2  -3  -3   36.60    2.00
  -2  -3  -3   37.20    1.60
   2   3   3   38.80    1.90
   2   3   3   37.00    2.40
   2   3   3   36.00    2.30
  -3  -3  -3   64.99    2.70
  -3  -3  -3   60.19    3.00
   3   3   3   64.09    3.40
   3   3   3   62.89    3.60
  -4  -3  -3   76.99    3.60
  -4  -3  -3   75.49    3.60
   4   3   3   80.29    4.60
   4   3   3   78.19    4.20
  -5  -3  -3   17.20    1.90
   5   3   3   22.20    3.00
   5   3   3   16.10    2.10
  -6  -3  -3    5.70    6.30
   6   3   3   -1.40    1.20
   6   3   3   -1.20    1.60
  -9   4   3   -0.60    1.10
  -9   4   3   -2.50    5.00
  -9   4   3   -1.50    1.40
   7  -4  -3    1.60    1.00
  -7   4   3    3.10    1.10
  -7   4   3    1.00    1.40
   6  -4  -3  315.17   11.60
   6  -4  -3  329.27   12.30
   6  -4  -3  315.97   11.50
  -6   4   3  335.17   12.40
  -6   4   3  322.77   11.80
   5  -4  -3   84.49    4.10
   5  -4  -3   89.69    3.50
   5  -4  -3   80.09    3.50
   5  -4  -3   87.59    3.70
  -5   4   3   75.39    3.90
  -5   4   3   84.49    3.70
  -5   4   3   85.79    4.20
   4  -4  -3 1050.99   35.00
   4  -4  -3 1028.20   35.40
   4  -4  -3 1047.20   34.70
  -4   4   3 1044.50   34.80
  -4   4   3  987.20   35.10
  -4   4   3 1003.00   35.30
   3  -4  -3  518.35   17.40
   3  -4  -3  486.55   17.60
   3  -4  -3  503.55   17.10
  -3   4   3  499.65   17.00
  -3   4   3  468.25   17.60
  -3   4   3  515.25   17.50
   2  -4  -3  182.88    7.00
   2  -4  -3  178.98    6.90
   2  -4  -3  178.18    6.50
  -2   4   3  177.68    7.00
  -2   4   3  185.58    6.30
  -2   4   3  179.88    6.90
  -2   4   3  183.28    6.40
   1  -4  -3   75.69    3.50
   1  -4  -3   76.19    3.10
   1  -4  -3   76.89    3.50
  -1   4   3   80.59    2.90
  -1   4   3   78.69    3.50
  -1   4   3   78.19    3.20
   0  -4  -3   -0.10    2.20
   0  -4  -3    1.70    0.80
   0  -4  -3    0.90    0.60
   0  -4  -3    0.90    0.50
   0   4   3    1.30    0.60
   0   4   3    1.90    0.70
   0   4   3    1.10    0.80
  -1  -4  -3   55.99    5.10
  -1  -4  -3   53.29    3.00
  -1  -4  -3   50.99    2.50
  -1  -4  -3   50.39    2.60
   1   4   3   50.59    2.50
   1   4   3   50.09    2.70
   1   4   3   48.00    3.00
  -2  -4  -3   64.99    3.10
  -2  -4  -3   63.49    3.70
  -2  -4  -3   67.89    6.70
   2   4   3   61.99    3.70
   2   4   3   59.19    3.40
  -3  -4  -3  188.88    7.10
  -3  -4  -3  168.68   11.60
   3   4   3  189.58    7.70
   3   4   3  187.78    8.00
  -4  -4  -3   37.70    2.50
   4   4   3   42.10    3.70
   4   4   3   38.50    3.10
  -5  -4  -3   -0.20    5.30
   5   4   3    8.30    1.90
   5   4   3    9.30    2.20
   6   4   3    8.40    2.70
  -9   5   3    8.40    1.70
  -8   5   3   53.79    3.60
  -8   5   3   66.19    4.40
   7  -5  -3   22.20    1.80
   7  -5  -3   26.20    2.80
  -7   5   3   25.90    3.20
  -7   5   3   22.90    2.30
   6  -5  -3  442.16   16.40
   6  -5  -3  438.96   15.90
   6  -5  -3  438.16   15.60
  -6   5   3  457.45   16.60
  -6   5   3  443.66   15.80
   5  -5  -3   41.20    2.10
   5  -5  -3   41.40    2.40
   5  -5  -3   40.80    2.00
   5  -5  -3   39.20    2.90
  -5   5   3   42.20    3.10
  -5   5   3   41.60    2.30
   4  -5  -3   79.19    3.90
   4  -5  -3   74.29    3.50
   4  -5  -3   77.49    3.30
  -4   5   3   77.49    3.20
  -4   5   3   75.69    4.00
   3  -5  -3  154.98    6.20
   3  -5  -3  146.39    5.80
   3  -5  -3  152.38    6.40
  -3   5   3  156.38    5.50
  -3   5   3  157.18    6.40
   2  -5  -3  983.60   34.00
   2  -5  -3  993.20   34.40
  -2   5   3 1013.90   34.40
  -2   5   3 1016.30   33.90
   1  -5  -3   10.10    1.30
   1  -5  -3   14.10    1.60
   1  -5  -3   13.30    1.20
   1  -5  -3   16.30    3.70
  -1   5   3   13.30    0.90
  -1   5   3   11.90    1.50
  -1   5   3   11.80    1.30
   0  -5  -3  631.24   21.60
   0  -5  -3  601.84   21.10
   0  -5  -3  541.85   23.20
   0  -5  -3  607.84   20.90
   0   5   3  615.24   21.00
   0   5   3  609.44   21.60
   0   5   3  613.14   21.10
  -1  -5  -3  170.58    6.70
  -1  -5  -3  180.58    7.50
  -1  -5  -3  180.68    9.90
  -1  -5  -3  173.38    6.80
   1   5   3  170.18    7.00
   1   5   3  168.58    7.50
  -2  -5  -3  256.47   10.70
  -2  -5  -3  259.87    9.90
  -2  -5  -3  304.47   14.90
  -2  -5  -3  248.28    9.70
   2   5   3  260.47   10.20
   2   5   3  247.18   10.60
  -3  -5  -3   -1.10    0.70
  -3  -5  -3   -1.80    4.00
   3   5   3    1.40    1.20
   3   5   3   -1.70    1.40
  -4  -5  -3    2.20    4.80
   4   5   3    4.60    1.60
   4   5   3    4.80    2.00
  -5  -5  -3   -2.80    5.30
   5   5   3   -0.20    1.80
  -9   6   3   14.60    2.10
   8  -6  -3   45.60    2.70
  -8   6   3   41.10    3.10
  -8   6   3   49.40    4.10
   7  -6  -3   53.39    3.90
   7  -6  -3   53.69    3.20
   7  -6  -3   60.99    3.00
  -7   6   3   56.19    3.20
  -7   6   3   56.39    8.00
  -7   6   3   58.69    4.30
   6  -6  -3   11.00    1.50
   6  -6  -3    9.70    1.70
   6  -6  -3    8.70    1.10
  -6   6   3   11.60    1.30
  -6   6   3    9.40    1.80
   5  -6  -3  166.58   10.10
   5  -6  -3  143.59    5.70
   5  -6  -3  135.59    6.50
   5  -6  -3  143.09    6.10
  -5   6   3  143.59    5.60
  -5   6   3  135.99    6.60
   2  -6  -3   40.70    2.20
   2  -6  -3   39.30    2.60
  -2   6   3   36.90    2.60
  -2   6   3   36.70    1.90
   1  -6  -3   80.59    3.60
   1  -6  -3   80.09    4.00
   1  -6  -3   81.39    4.20
  -1   6   3   80.89    3.90
  -1   6   3   80.99    3.70
  -1   6   3   80.09    4.40
   0  -6  -3    1.90    0.70
   0  -6  -3    2.70    1.20
   0  -6  -3    2.30    0.90
   0  -6  -3    0.40    2.20
   0   6   3    3.30    1.30
   0   6   3    2.20    1.00
  -1  -6  -3   67.19    3.50
  -1  -6  -3   70.69    6.80
  -1  -6  -3   68.79    3.60
  -1  -6  -3   76.49    5.60
   1   6   3   66.29    3.80
   1   6   3   66.19    4.40
  -2  -6  -3   28.70    2.40
  -2  -6  -3   29.20    7.50
  -2  -6  -3   25.00    2.40
   2   6   3   33.20    3.60
   2   6   3   29.80    2.80
  -3  -6  -3   12.10    1.80
   3   6   3   12.40    2.50
   3   6   3   12.50    2.20
   4   6   3   -0.60    1.90
   8  -7  -3   19.60    2.50
   8  -7  -3   17.40    1.90
  -8   7   3   18.80    2.60
  -8   7   3   17.10    2.00
   7  -7  -3   61.39    3.30
   7  -7  -3   64.29    4.50
  -7   7   3   70.49    4.80
  -7   7   3   62.79    3.40
   6  -7  -3   -1.80    1.00
   6  -7  -3   -0.80    0.70
   6  -7  -3   -0.10    0.60
  -6   7   3    0.50    0.70
  -6   7   3   -0.40    1.30
   5  -7  -3   29.10    1.90
   5  -7  -3   23.00    5.40
   5  -7  -3   29.50    2.90
   5  -7  -3   29.50    2.30
  -5   7   3   27.30    2.90
   4  -7  -3  134.49    6.10
   4  -7  -3  129.09    5.80
   4  -7  -3  120.39    5.20
  -4   7   3  130.29    6.00
   3  -7  -3  425.06   15.90
   3  -7  -3  442.76   15.90
   3  -7  -3  419.56   15.20
  -3   7   3  431.26   15.80
  -3   7   3  419.06   15.10
   2  -7  -3   60.09    3.80
   2  -7  -3   65.59    3.70
   2  -7  -3   60.89    3.10
  -2   7   3   67.49    4.10
   1  -7  -3   26.50    2.60
   1  -7  -3   28.30    2.60
   1  -7  -3   26.60    2.10
  -1   7   3   24.50    2.20
  -1   7   3   27.50    3.00
   0  -7  -3   -0.60    0.80
   0  -7  -3    0.10    0.90
   0   7   3    0.20    1.30
   0   7   3    0.70    0.90
  -1  -7  -3    6.30    1.30
  -1  -7  -3    6.50    1.40
   1   7   3    8.80    2.20
   1   7   3    8.90    1.80
  -2  -7  -3    8.10    1.50
  -2  -7  -3    8.60    1.50
   2   7   3   11.20    1.90
   2   7   3   11.80    2.70
   8  -8  -3   79.29    4.10
   8  -8  -3   83.39    5.30
  -8   8   3   86.09    7.20
   7  -8  -3    4.80    1.70
   7  -8  -3    2.70    1.00
  -7   8   3    1.20    1.60
   6  -8  -3    5.10    1.70
   6  -8  -3    7.20    1.30
  -6   8   3    5.70    1.70
   5  -8  -3   42.30    7.30
   5  -8  -3   33.20    3.30
   5  -8  -3   30.70    2.30
  -5   8   3   33.40    3.30
   4  -8  -3    3.20    0.90
   4  -8  -3   -0.70    4.50
   4  -8  -3    1.20    1.20
  -4   8   3    1.60    1.20
   3  -8  -3   98.49   13.00
   3  -8  -3  112.09    5.70
   3  -8  -3  117.19    4.90
   2  -8  -3   50.19    3.00
   2  -8  -3   48.10    3.60
  -2   8   3   53.89    4.10
   1  -8  -3   -1.00    1.00
   1  -8  -3    0.40    0.80
  -1   8   3    1.00    1.50
   0  -8  -3    1.50    1.20
   0  -8  -3    1.50    1.00
   0   8   3   -0.30    1.10
   0   8   3    0.30    1.70
  -1  -8  -3   11.10    1.80
  -1  -8  -3    8.90    1.60
   1   8   3   11.40    2.60
   1   8   3    7.10    1.70
   7  -9  -3    3.10    1.20
  -7   9   3    2.30    1.60
   6  -9  -3   74.49    5.20
   6  -9  -3   71.09    3.80
  -6   9   3   72.79    5.20
   5  -9  -3   92.09    4.50
   5  -9  -3  103.69    5.80
   4  -9  -3   30.90    3.40
   4  -9  -3   31.30    2.40
   3  -9  -3    0.50    0.80
   3  -9  -3    3.80    6.20
   3  -9  -3   -0.10    1.20
  -3   9   3    1.30    1.60
   2  -9  -3    2.10    1.00
   2  -9  -3   -0.50    1.20
   2  -9  -3    5.40    6.60
  -2   9   3    2.10    1.80
   1  -9  -3   28.90    2.60
   1  -9  -3   25.50    3.00
  -1   9   3   30.80    4.00
   0  -9  -3    8.40    1.70
   4 -10  -3    8.60    6.40
  -4  10   3    9.50    2.60
   3 -10  -3    0.50    6.40
  -4  11  -4   -1.00    1.10
  -5  11  -4    8.20    1.60
   0  10  -4    2.40    2.00
   0 -10   4    0.30    1.40
  -1  10  -4   22.80    3.00
  -1  10  -4   16.90    2.80
   1 -10   4   18.10    2.10
   1 -10   4    8.70    9.00
  -2  10  -4   14.90    2.40
  -2  10  -4   11.60    1.90
   2 -10   4   13.50    1.70
  -3  10  -4    7.20    1.50
  -3  10  -4   12.00    2.30
   3 -10   4    7.70    1.30
   3 -10   4   -0.70    5.30
  -4  10  -4   33.80    2.90
   4 -10   4   40.30    2.60
  -5  10  -4   -0.10    1.00
   5 -10   4   -0.30    0.80
   5 -10   4    3.50    5.40
  -6  10  -4   22.10    2.60
   6 -10   4   18.30    2.00
   1   9  -4    1.20    1.90
  -1  -9   4    3.20    7.10
  -1  -9   4    2.60    1.10
   0   9  -4    3.10    1.80
   0   9  -4    3.80    1.20
   0  -9   4    3.60    6.60
   0  -9   4    3.60    1.10
  -1   9  -4    4.20    1.20
  -1   9  -4    5.60    1.90
   1  -9   4    4.30    1.10
   1  -9   4    1.20    5.80
  -3   9  -4    1.70    1.10
  -3   9  -4    2.30    1.20
   3  -9   4    1.60    1.20
   3  -9   4    2.80    0.90
  -4   9  -4   54.79    3.40
   4  -9   4   52.59    3.00
   4  -9   4   53.49    3.70
  -5   9  -4   11.00    1.80
  -5   9  -4   10.20    1.40
   5  -9   4   10.20    1.40
   5  -9   4   15.70    6.10
  -6   9  -4   88.29    5.10
  -6   9  -4   78.69    4.10
   6  -9   4   81.09    4.10
  -7   9  -4   10.40    1.60
  -7   9  -4   10.90    2.10
   7  -9   4   10.80    1.60
   7  -9   4    3.50    5.10
  -8   9  -4   -0.50    1.90
  -8   9  -4   -0.30    1.20
   3   8  -4    8.30    2.90
  -3  -8   4    2.10    7.50
  -3  -8   4    8.40    1.60
   2   8  -4    0.20    0.90
   2   8  -4    0.60    1.80
  -2  -8   4   -0.30    0.90
  -2  -8   4   -0.80    6.40
   0   8  -4   33.40    2.60
   0   8  -4   40.90    3.50
   0  -8   4   35.00    2.40
  -2   8  -4  104.39    4.90
  -2   8  -4   92.29    4.60
   2  -8   4  100.39    4.30
   2  -8   4   94.79    4.90
   2  -8   4   96.79    4.60
  -3   8  -4   64.29    3.60
  -3   8  -4   74.89    3.80
   3  -8   4   59.39   10.60
   3  -8   4   68.19    3.30
   3  -8   4   70.19    3.90
   3  -8   4   69.99    3.80
  -4   8  -4  121.29    5.20
  -4   8  -4  127.29    5.40
  -4   8  -4  120.49    5.60
  -4   8  -4  127.09    5.70
   4  -8   4  129.89    5.80
   4  -8   4  119.89    6.10
   4  -8   4  125.59    5.20
  -6   8  -4   19.80    2.10
  -6   8  -4   24.90    3.00
   6  -8   4   35.00    8.70
   6  -8   4   22.40    2.00
  -7   8  -4    0.30    1.60
  -7   8  -4    0.70    0.90
   7  -8   4   -0.70    0.80
   7  -8   4   -1.90    1.10
   7  -8   4    7.00    5.90
  -8   8  -4  144.79    7.20
  -8   8  -4  124.99    6.30
   8  -8   4  141.29    7.10
   8  -8   4  136.79    6.30
   4   7  -4   22.40    3.50
  -4  -7   4   24.60    2.50
   3   7  -4    3.20    1.20
   3   7  -4    3.50    2.00
  -3  -7   4    2.70    1.10
  -3  -7   4    1.30    7.50
   2   7  -4   17.60    2.00
   2   7  -4   16.50    2.50
  -2  -7   4   17.80    1.90
  -1   7  -4   54.99    3.10
  -1   7  -4   62.69    3.50
   1  -7   4   58.09    2.90
   1  -7   4   58.29    3.40
   1  -7   4   56.89    2.80
  -2   7  -4   35.60    2.40
  -2   7  -4   40.90    2.50
  -2   7  -4   43.50    2.70
   2  -7   4   36.80    2.70
   2  -7   4   37.00    2.20
   2  -7   4   37.20    2.50
  -5   7  -4  188.58    7.80
  -5   7  -4  182.58    7.30
   5  -7   4  186.88    7.80
   5  -7   4  187.78    7.20
  -6   7  -4    1.40    1.10
  -7   7  -4   35.20    2.70
  -7   7  -4   34.90    3.40
   7  -7   4   34.00    2.40
   7  -7   4   37.20    3.30
  -8   7  -4   53.89    4.30
  -8   7  -4   53.59    3.60
   8  -7   4   57.79    4.20
   4   6  -4    5.60    2.20
  -4  -6   4    4.40    1.20
  -4  -6   4   -1.30    7.30
   3   6  -4   65.79    4.40
   3   6  -4   55.39    3.40
  -3  -6   4   62.29    3.30
  -3  -6   4   62.49    4.00
  -3  -6   4   60.29    3.30
  -3  -6   4   70.09    9.20
   2   6  -4    7.40    1.30
   2   6  -4    7.80    1.70
  -2  -6   4    8.30    1.20
  -2  -6   4    1.00    6.80
  -2  -6   4    8.80    3.60
  -2  -6   4    8.20    1.60
   1   6  -4    1.00    0.80
   1   6  -4    1.20    1.20
   1   6  -4    0.50    1.00
  -1  -6   4    0.90    0.90
  -1  -6   4    1.10    0.70
  -1  -6   4   -1.30    5.70
   0   6  -4  252.47    9.00
   0   6  -4  240.58    9.30
   0   6  -4  226.18    9.00
   0  -6   4  244.58    9.30
   0  -6   4  233.88    8.70
  -1   6  -4    1.60    0.60
  -1   6  -4    1.40    0.70
  -1   6  -4    1.20    0.80
  -1   6  -4    2.10    0.70
   1  -6   4    1.20    0.60
   1  -6   4   -3.50    3.90
   1  -6   4    0.20    0.70
  -2   6  -4   51.19    2.70
  -2   6  -4   55.89    2.70
  -2   6  -4   52.29    2.60
   2  -6   4   52.69    2.40
   2  -6   4   41.80    2.70
   2  -6   4   55.89    2.90
  -3   6  -4   86.19    3.70
  -3   6  -4   83.79    3.90
  -3   6  -4   86.59    3.70
  -3   6  -4   83.69    4.00
   3  -6   4   89.99    4.10
   3  -6   4   85.99    3.60
  -5   6  -4   19.20    1.80
  -5   6  -4   26.60    2.40
   5  -6   4   18.40    1.60
   5  -6   4   19.70    2.00
   6  -6   4   22.80    1.90
   6  -6   4   29.50    8.60
  -7   6  -4   25.40    2.80
  -7   6  -4   25.50    2.30
   7  -6   4   23.30    2.70
   7  -6   4   20.70    1.90
  -8   6  -4    5.70    1.50
  -8   6  -4    4.20    1.60
   8  -6   4    4.30    1.50
   6   5  -4   50.09    5.40
   5   5  -4   32.50    3.20
  -5  -5   4   29.80    2.50
  -5  -5   4   36.80    3.00
   4   5  -4   63.09    4.30
   4   5  -4   57.69    3.80
  -4  -5   4   57.69    3.30
  -4  -5   4   61.39    3.10
  -4  -5   4   43.90    8.20
  -4  -5   4   62.59    3.80
   3   5  -4  113.09    5.30
   3   5  -4  124.79    6.00
   3   5  -4  121.59    5.60
   3   5  -4  125.59    5.80
  -3  -5   4  127.69    9.90
  -3  -5   4  125.59    5.70
  -3  -5   4  124.89    5.00
   2   5  -4   17.40    1.70
   2   5  -4   17.10    2.20
   2   5  -4   18.40    2.00
  -2  -5   4   17.40    1.40
  -2  -5   4   17.10    1.90
   1   5  -4   37.90    2.60
   1   5  -4   45.40    2.50
   1   5  -4   44.20    2.80
  -1  -5   4   45.50    2.60
  -1  -5   4   43.70    2.10
   0   5  -4  371.36   13.80
   0   5  -4  413.86   13.80
   0   5  -4  376.76   13.90
   0  -5   4  391.46   14.00
   0  -5   4  395.46   13.50
   0  -5   4  381.46   13.50
  -1   5  -4    2.10    0.70
  -1   5  -4    2.30    0.90
  -1   5  -4    1.80    0.70
  -1   5  -4    1.60    0.50
  -1   5  -4    4.30    0.70
   1  -5   4    0.70    0.40
   1  -5   4    0.70    0.90
   1  -5   4   -2.60    3.00
   1  -5   4    1.70    0.50
   1  -5   4    1.00    0.70
  -2   5  -4  350.36   12.50
  -2   5  -4  379.46   12.20
  -2   5  -4  350.76   12.50
  -2   5  -4  349.57   12.60
  -2   5  -4  348.77   12.70
   2  -5   4  354.96   12.80
   2  -5   4  359.06   12.40
  -3   5  -4   93.89    5.80
  -3   5  -4   92.89    3.90
  -3   5  -4   93.59    3.70
  -3   5  -4   92.99    4.20
   3  -5   4   96.39    3.80
   3  -5   4   98.09    4.20
  -4   5  -4 1521.65   52.19
  -4   5  -4 1567.74   52.59
   4  -5   4 1573.64   52.09
   4  -5   4 1517.75   52.49
  -5   5  -4   66.39    3.60
  -5   5  -4   65.69    3.20
   5  -5   4   60.89    2.90
   5  -5   4   62.09    3.50
   5  -5   4   64.39    3.40
  -6   5  -4   92.79    4.40
  -6   5  -4  108.59    8.50
  -6   5  -4   92.59    4.80
   6  -5   4   88.59    4.10
   6  -5   4   92.69    4.70
   6   4  -4   24.40    2.80
  -6  -4   4   31.50    2.90
   5   4  -4   46.00    3.70
   5   4  -4   44.60    3.30
  -5  -4   4   40.80    4.10
  -5  -4   4   44.30    3.10
   4   4  -4    8.40    1.60
   4   4  -4    8.50    1.50
  -4  -4   4    7.60    1.50
  -4  -4   4    9.20    1.40
   3   4  -4   25.40    2.00
   3   4  -4   24.90    2.50
   3   4  -4   23.30    2.10
   3   4  -4   25.50    2.20
  -3  -4   4   24.10    1.70
  -3  -4   4   23.10    2.00
   2   4  -4   51.29    3.00
   2   4  -4   53.39    2.80
   2   4  -4   56.39    3.00
  -2  -4   4   53.79    2.40
  -2  -4   4   56.99    2.90
   1   4  -4  498.75   18.10
   1   4  -4  522.65   18.00
   1   4  -4  532.55   18.10
  -1  -4   4  504.75   17.60
  -1  -4   4  524.05   18.10
   0   4  -4  195.68    6.90
   0   4  -4  183.78    6.90
   0   4  -4  194.78    7.00
   0   4  -4  179.88    6.90
   0  -4   4  177.28    6.50
   0  -4   4  185.58    6.90
   0  -4   4  178.68    6.60
   0  -4   4  184.68    6.60
  -1   4  -4   91.59    3.40
  -1   4  -4   88.19    3.70
  -1   4  -4   88.19    3.50
  -1   4  -4   86.69    3.60
  -1   4  -4   83.69    3.50
   1  -4   4   88.89    3.30
   1  -4   4   85.29    3.70
   1  -4   4   89.19    4.50
   1  -4   4   90.49    3.60
  -2   4  -4    8.60    0.70
  -2   4  -4    8.10    1.00
  -2   4  -4    9.60    0.90
  -2   4  -4    6.60    0.80
  -2   4  -4   11.20    0.70
  -2   4  -4    8.10    0.90
   2  -4   4    8.20    0.70
   2  -4   4    8.40    1.00
  -3   4  -4  280.07   10.20
  -3   4  -4  280.67   10.00
  -3   4  -4  288.77   10.30
   3  -4   4  265.77   10.10
   3  -4   4  281.77    9.80
  -4   4  -4  240.58    8.90
  -4   4  -4  249.38    9.20
  -4   4  -4  246.48    8.30
   4  -4   4  237.78    8.70
   4  -4   4  235.58    9.10
   4  -4   4  245.88    9.10
  -5   4  -4   41.90    2.30
  -5   4  -4   40.70    2.80
   5  -4   4   38.30    2.60
   5  -4   4   38.50    2.10
  -6   4  -4  162.68    6.90
  -6   4  -4  154.58    6.50
   6  -4   4  164.48    6.80
  -7   4  -4   23.60    3.00
  -7   4  -4   32.30    2.50
   7  -4   4   30.20    2.90
  -8   4  -4   41.40    3.20
  -8   4  -4   46.90    3.60
   8  -4   4   41.20    3.10
   7   3  -4   -1.90    1.20
  -7  -3   4   -2.40    5.90
  -7  -3   4   -1.20    1.20
   6   3  -4    5.50    1.80
   6   3  -4    3.60    1.40
  -6  -3   4    4.50    1.50
  -6  -3   4    2.70    5.60
   5   3  -4   45.30    3.30
   5   3  -4   46.90    3.10
  -5  -3   4   45.80    3.00
  -5  -3   4   43.30    3.00
   4   3  -4   -1.10    0.90
   4   3  -4   -0.20    0.90
  -4  -3   4   -1.90    3.10
  -4  -3   4   -0.60    0.90
  -4  -3   4    0.60    0.90
   3   3  -4   39.50    2.30
   3   3  -4   36.20    2.30
   3   3  -4   33.80    2.40
  -3  -3   4   38.90    2.30
  -3  -3   4   36.00    6.10
   2   3  -4   97.19    4.40
   2   3  -4  100.69    4.40
   2   3  -4   96.29    4.10
  -2  -3   4  104.59    3.80
  -2  -3   4   99.99    4.10
  -2  -3   4  102.49    8.20
   1   3  -4  916.81   30.00
   1   3  -4  909.41   30.20
   1   3  -4  854.81   30.10
   1   3  -4  890.41   30.10
  -1  -3   4  839.72   29.70
  -1  -3   4  889.81   30.00
   0   3  -4 1267.57   43.30
   0   3  -4 1369.86   43.30
   0   3  -4 1256.47   43.10
   0   3  -4 1298.77   43.30
   0   3  -4 1265.07   43.30
   0  -3   4 1283.47   43.30
   0  -3   4 1272.07   43.10
   0  -3   4 1277.67   43.00
   0  -3   4 1272.77   43.20
  -1   3  -4   91.29    3.30
  -1   3  -4   87.19    3.40
  -1   3  -4   81.79    3.20
  -1   3  -4   90.49    3.50
  -1   3  -4   83.29    3.40
   1  -3   4   85.79    3.20
   1  -3   4   85.89    3.40
   1  -3   4   85.19    3.40
   1  -3   4   81.79    3.30
  -2   3  -4  138.29    5.30
  -2   3  -4  147.09    5.20
  -2   3  -4  146.49    5.30
   2  -3   4  134.59    5.30
   2  -3   4  138.19    5.00
   2  -3   4  130.49    5.20
  -3   3  -4 1612.34   52.99
  -3   3  -4 1561.74   52.69
  -3   3  -4 1579.74   52.89
   3  -3   4 1527.35   52.89
   3  -3   4 1568.74   56.39
   3  -3   4 1552.44   52.89
   3  -3   4 1559.34   52.59
  -4   3  -4   58.19    2.80
  -4   3  -4   58.89    3.10
   4  -3   4   75.79    7.70
   4  -3   4   58.69    3.00
  -6   3  -4   52.09    2.90
  -6   3  -4   51.59    3.20
   6  -3   4   50.09    8.90
   6  -3   4   55.19    3.10
  -8   3  -4    1.10    1.30
  -8   3  -4    0.00    1.10
  -8   3  -4   11.70    5.90
   8  -3   4    2.10    1.30
   7   2  -4   25.50    2.70
  -7  -2   4   26.70    2.90
   6   2  -4   30.60    2.50
   6   2  -4   27.70    2.80
  -6  -2   4   25.90    2.70
   5   2  -4    1.50    1.10
   5   2  -4    1.30    0.90
  -5  -2   4    2.40    4.10
  -5  -2   4    2.20    1.10
   4   2  -4   85.09    4.10
   4   2  -4   81.09    3.70
  -4  -2   4   72.79    3.80
  -4  -2   4   85.69    3.70
  -4  -2   4   84.29    7.20
   3   2  -4  269.57   10.20
   3   2  -4  278.87    9.90
   3   2  -4  262.57   10.00
  -3  -2   4  271.17    9.80
  -3  -2   4  291.17   13.40
   2   2  -4 4316.47  150.28
   2   2  -4 4555.04  150.48
  -2  -2   4 4834.12  159.78
  -2  -2   4 4211.88  151.08
   1   2  -4  375.06   13.20
   1   2  -4  382.56   13.40
   1   2  -4  401.86   13.50
  -1  -2   4  380.66   13.10
  -1  -2   4  379.76   13.20
  -1  -2   4  394.26   13.10
  -1  -2   4  391.76   15.80
  -1  -2   4  379.36   13.00
   0   2  -4 1966.20   64.59
   0   2  -4 1835.12   64.59
   0   2  -4 1979.50   67.99
   0   2  -4 1908.41   64.79
   0   2  -4 2017.00   64.69
   0   2  -4 1965.80   65.29
   0  -2   4 1931.91   64.59
   0  -2   4 1980.90   67.19
   0  -2   4 1969.00   64.49
   0  -2   4 1694.33   69.39
   0  -2   4 1916.41   64.49
   0  -2   4 1892.41   64.49
   0  -2   4 1983.20   64.79
  -1   2  -4  363.36   12.40
  -1   2  -4  365.06   12.40
  -1   2  -4  354.06   14.00
  -1   2  -4  359.06   12.40
  -1   2  -4  351.06   12.40
   1  -2   4  355.06   12.40
   1  -2   4  361.06   14.80
   1  -2   4  357.66   12.40
   1  -2   4  366.96   12.20
  -2   2  -4    3.30    0.60
  -2   2  -4    0.70    0.50
  -2   2  -4   -0.40    1.40
  -2   2  -4    1.40    0.40
   2  -2   4    2.50    2.10
   2  -2   4    1.60    0.30
   2  -2   4    1.80    0.50
   2  -2   4    0.40    0.40
  -3   2  -4  116.59    4.60
  -3   2  -4  106.39    4.00
  -3   2  -4  110.09    4.30
  -3   2  -4  115.39    4.50
   3  -2   4  109.49    4.40
   3  -2   4  113.99    7.80
  -4   2  -4  148.79    5.80
  -4   2  -4  159.28    6.10
   4  -2   4  151.78    9.90
   4  -2   4  155.18    6.00
  -5   2  -4  145.19    6.10
  -5   2  -4  144.29    5.90
  -5   2  -4  151.78   10.70
   5  -2   4  144.79    6.00
   5  -2   4  160.18   11.40
  -6   2  -4   40.00    2.80
  -6   2  -4   36.30    2.50
   6  -2   4   39.10    2.60
  -7   2  -4  103.69    5.00
  -7   2  -4  103.59    4.80
  -7   2  -4   75.49   10.70
   7  -2   4   97.19    4.80
  -8   2  -4    0.80    5.60
  -8   2  -4    4.70    1.40
  -8   2  -4    3.50    1.40
   8  -2   4    4.30    1.50
  -8  -1   4    1.40    1.50
   7   1  -4    7.50    1.70
   7   1  -4    8.20    1.50
  -7  -1   4   -2.60    6.00
  -7  -1   4    7.50    1.70
   6   1  -4   11.30    1.50
   6   1  -4    9.20    1.70
  -6  -1   4    9.50    1.50
   5   1  -4    0.60    0.70
   5   1  -4    1.10    1.10
  -5  -1   4   -0.10    0.90
   4   1  -4  164.68    6.40
   4   1  -4  157.68    5.90
  -4  -1   4  147.09    6.10
  -4  -1   4  145.69    7.90
  -4  -1   4  161.48    5.70
   3   1  -4 1596.14   54.39
   3   1  -4 1678.83   53.99
  -3  -1   4 1676.33   53.79
  -3  -1   4 1461.75   55.59
  -3  -1   4 1613.54   53.79
   2   1  -4  835.42   26.30
   2   1  -4  816.42   26.60
  -2  -1   4  820.82   26.30
  -2  -1   4  740.93   26.20
  -2  -1   4  767.42   26.30
  -2  -1   4  704.83   27.80
   1   1  -4 1237.88   42.20
   1   1  -4 1296.47   42.30
   1   1  -4 1186.48   43.90
   1   1  -4 1341.97   42.20
  -1  -1   4 1214.78   42.20
  -1  -1   4 1285.57   42.30
  -1  -1   4 1184.58   44.30
  -1  -1   4 1318.37   42.20
   0   1  -4  160.78    5.50
   0   1  -4  165.08    5.80
   0   1  -4  157.38    5.80
   0   1  -4  184.08    7.50
   0   1  -4  157.68    5.70
   0  -1   4  161.68    5.80
   0  -1   4  157.48    7.40
   0  -1   4  162.58    5.80
   0  -1   4  166.08    5.70
  -1   1  -4 1840.62   59.59
  -1   1  -4 1818.02   59.99
  -1   1  -4 1916.01   59.59
  -1   1  -4 1541.95   62.39
  -1   1  -4 1768.32   59.79
  -1   1  -4 1820.12   59.59
   1  -1   4 1816.42   59.59
   1  -1   4 1700.43   67.09
  -2   1  -4 4498.75  151.48
  -2   1  -4 4612.24  151.08
  -2   1  -4 4628.14  152.18
   2  -1   4 4204.08  150.98
   2  -1   4 4629.44  163.38
   2  -1   4 4470.75  151.28
  -3   1  -4  851.81   28.30
  -3   1  -4  827.22   28.20
  -3   1  -4  790.72   28.00
   3  -1   4  853.61   32.10
   3  -1   4  796.62   27.90
   3  -1   4  829.02   28.10
  -4   1  -4  597.74   21.20
  -4   1  -4  604.54   21.10
   4  -1   4  606.24   21.10
   4  -1   4  636.24   26.10
  -5   1  -4  500.05   18.10
  -5   1  -4  521.35   18.30
   5  -1   4  527.15   18.10
  -7   1  -4   74.99    4.00
  -7   1  -4   78.19    4.20
   7  -1   4   73.39    4.20
  -8   1  -4   -0.40    1.00
  -8   1  -4   -0.90    1.10
   8  -1   4   -0.10    1.20
   8   0  -4   12.90    2.20
  -8   0   4    8.00    1.90
  -8   0   4   23.30    8.10
  -8   0   4   12.90    1.60
   7   0  -4    8.20    1.70
  -7   0   4    8.90    1.40
  -7   0   4    7.20    1.70
   6   0  -4   60.39    3.70
   6   0  -4   72.29    3.30
  -6   0   4   69.49    3.80
  -6   0   4   76.19    3.60
   5   0  -4   20.90    1.50
   5   0  -4   19.40    1.90
  -5   0   4   18.40    1.30
  -5   0   4   19.70    1.80
  -5   0   4   13.30    1.50
   4   0  -4  140.69    5.20
   4   0  -4  132.69    5.50
   4   0  -4  139.79    5.10
  -4   0   4  145.29    5.30
  -4   0   4  133.19    5.30
  -4   0   4  131.79    5.40
  -4   0   4  133.69    5.00
   3   0  -4 1032.50   33.50
   3   0  -4  885.81   33.60
  -3   0   4 1032.60   33.40
  -3   0   4 1016.80   33.10
  -3   0   4  972.30   33.40
  -3   0   4  988.50   33.20
   2   0  -4   95.49    3.60
   2   0  -4   94.49    3.60
   2   0  -4   90.19    3.70
  -2   0   4   91.49    3.40
  -2   0   4   98.49    3.60
   1   0  -4  177.08    6.10
   1   0  -4  177.28    6.10
  -1   0   4  171.78    6.10
  -1   0   4  171.38    6.10
  -1   0   4  160.58    7.20
   0   0  -4 1963.10   66.39
   0   0  -4 2033.10   71.19
   0   0  -4 2006.60   66.69
   0   0   4 1952.00   66.09
   0   0   4 2075.59   66.19
   0   0   4 1813.32   73.69
  -1   0  -4  540.25   17.40
  -1   0  -4  520.25   17.20
  -1   0  -4  457.35   19.20
   1   0   4  526.65   17.40
   1   0   4  492.65   19.80
  -2   0  -4 1134.49   38.40
  -2   0  -4 1155.68   38.60
   2   0   4 1088.59   38.50
   2   0   4 1175.38   42.30
   2   0   4 1154.48   38.50
  -3   0  -4  146.99    5.60
  -3   0  -4  147.69    5.40
   3   0   4  144.99    5.60
   3   0   4  145.79    5.50
  -4   0  -4  229.38    8.50
  -4   0  -4  226.48    8.30
   4   0   4  226.98    8.40
   4   0   4  230.78    8.60
  -5   0  -4   45.80    2.70
  -5   0  -4   45.80    2.50
   5   0   4   44.20    2.80
  -7   0  -4    4.10    5.50
  -7   0  -4    0.10    1.00
  -7   0  -4   -1.50    1.00
   7   0   4   -0.40    1.10
  -8   0  -4    3.70    1.30
  -8   0  -4    3.40    1.90
   8   0   4    1.60    1.60
  -9   1   4    6.20    1.50
   8  -1  -4   41.30    3.40
  -8   1   4   54.89    3.40
  -8   1   4   48.30    3.60
   7  -1  -4   14.30    2.00
  -7   1   4   18.40    2.20
  -7   1   4   14.50    1.80
   6  -1  -4    2.40    1.00
   6  -1  -4    2.70    0.70
  -6   1   4    3.00    1.00
  -6   1   4    2.80    1.00
   5  -1  -4   55.49    2.80
   5  -1  -4   55.79    3.00
   5  -1  -4   60.99    2.50
  -5   1   4   50.19    3.00
  -5   1   4   56.39    2.50
  -5   1   4   57.99    2.90
   4  -1  -4   18.90    1.40
   4  -1  -4   19.90    1.50
  -4   1   4   16.50    1.50
  -4   1   4   17.60    1.10
  -4   1   4   17.20    1.40
   3  -1  -4  530.05   17.10
   3  -1  -4  538.45   17.60
   3  -1  -4  471.85   17.50
  -3   1   4  514.75   17.40
  -3   1   4  482.85   17.10
  -3   1   4  501.95   17.50
   2  -1  -4   31.40    1.30
   2  -1  -4   33.60    1.30
   2  -1  -4   34.70    1.70
  -2   1   4   31.00    1.70
  -2   1   4   30.00    1.30
  -2   1   4   34.20    1.30
   1  -1  -4  542.65   19.30
   1  -1  -4  583.34   19.60
   1  -1  -4  568.24   19.20
  -1   1   4  603.04   19.30
  -1   1   4  566.34   19.60
   0  -1  -4    2.00    0.50
   0  -1  -4    3.50    1.60
   0   1   4    2.40    0.30
  -1  -1  -4   40.00    3.80
  -1  -1  -4   41.60    2.00
  -1  -1  -4   41.10    1.70
   1   1   4   40.10    2.00
   1   1   4   41.70    1.90
   1   1   4   44.20    1.70
  -2  -1  -4   58.29    2.60
  -2  -1  -4   59.49    2.30
   2   1   4   54.39    2.60
   2   1   4   58.89    2.60
  -3  -1  -4    8.10    1.00
  -3  -1  -4    6.00    0.80
   3   1   4    7.80    1.10
   3   1   4    6.90    0.90
   3   1   4    7.80    1.10
  -4  -1  -4  383.46   13.30
  -4  -1  -4  363.26   13.50
   4   1   4  386.66   13.80
   4   1   4  370.56   13.70
   4   1   4  390.16   13.40
  -5  -1  -4   -1.40    3.70
  -5  -1  -4   -0.10    0.70
  -5  -1  -4   -0.40    0.70
   5   1   4   -0.60    0.90
   5   1   4    0.40    1.00
  -6  -1  -4  141.59    6.20
  -6  -1  -4  151.88    6.20
   6   1   4  152.18    6.80
  -7  -1  -4    0.60    1.00
   7   1   4    0.60    1.40
  -9   2   4    3.90    1.50
   8  -2  -4   26.70    2.60
  -8   2   4   21.20    6.70
  -8   2   4   25.10    2.80
  -8   2   4   25.70    2.90
   7  -2  -4   14.30    1.80
  -7   2   4   11.00    1.80
  -7   2   4   12.10    1.70
   6  -2  -4   77.09    3.80
   6  -2  -4   89.49    4.90
  -6   2   4   78.29    3.90
  -6   2   4   76.29    4.10
   5  -2  -4  199.38    7.20
   5  -2  -4  167.48    7.00
  -5   2   4  183.68    7.10
  -5   2   4  180.68    7.30
  -5   2   4  187.78    6.80
   4  -2  -4  226.78    8.00
   4  -2  -4  210.48    8.30
   4  -2  -4  242.78    8.60
  -4   2   4  231.18    8.60
  -4   2   4  231.48    8.20
  -4   2   4  232.18    8.40
   3  -2  -4 1270.87   41.80
   3  -2  -4 1181.88   41.40
   3  -2  -4 1272.17   41.30
  -3   2   4 1169.38   41.40
  -3   2   4 1216.08   41.80
  -3   2   4 1280.07   41.50
   2  -2  -4   35.90    1.90
   2  -2  -4   34.20    1.60
   2  -2  -4   35.80    1.50
  -2   2   4   37.90    1.90
  -2   2   4   32.90    1.60
  -2   2   4   36.50    1.60
   1  -2  -4 4949.30  172.98
   1  -2  -4 5092.79  172.58
   1  -2  -4 4585.04  180.08
   1  -2  -4 5114.29  171.38
  -1   2   4 5315.77  171.38
  -1   2   4 5555.24  170.78
  -1   2   4 5150.38  172.38
   0  -2  -4  368.16   12.80
   0  -2  -4  371.76   14.80
   0  -2  -4  350.76   12.90
   0   2   4  376.66   12.70
   0   2   4  365.96   12.80
  -1  -2  -4  619.04   21.70
  -1  -2  -4  644.04   24.30
   1   2   4  654.73   21.20
   1   2   4  631.24   21.70
   1   2   4  628.64   21.60
   1   2   4  610.14   21.80
  -2  -2  -4   21.60    4.30
  -2  -2  -4   19.50    1.10
  -2  -2  -4   21.20    1.50
   2   2   4   20.70    1.70
   2   2   4   19.30    1.70
   2   2   4   22.10    1.50
  -3  -2  -4  511.15   17.90
  -3  -2  -4  517.55   17.60
   3   2   4  494.75   18.30
   3   2   4  517.35   18.20
   3   2   4  521.85   17.80
  -4  -2  -4    1.40    0.70
  -4  -2  -4    0.40    0.80
  -4  -2  -4   -4.40    4.00
   4   2   4    0.90    1.00
   4   2   4    2.30    1.20
  -5  -2  -4   57.19    2.90
  -5  -2  -4   52.99    3.10
   5   2   4   60.99    3.90
   5   2   4   57.09    3.60
  -6  -2  -4   20.20    2.20
   6   2   4   18.60    2.50
   7  -3  -4   12.50    1.60
  -7   3   4   11.90    1.80
  -7   3   4   15.20    1.80
   6  -3  -4  102.99    4.80
   6  -3  -4  102.99    4.50
  -6   3   4   99.29    4.60
  -6   3   4  104.49    5.00
   5  -3  -4   15.70    1.20
   5  -3  -4   15.80    1.10
   5  -3  -4   15.70    1.40
   5  -3  -4   16.50    1.80
  -5   3   4   18.70    2.00
  -5   3   4   13.30    1.30
  -5   3   4   15.50    1.60
   4  -3  -4   91.29    3.70
   4  -3  -4   95.89    4.20
   4  -3  -4   93.59    3.80
   4  -3  -4   96.39    3.60
  -4   3   4   92.49    3.80
  -4   3   4   92.29    4.20
  -4   3   4   90.79    3.80
   3  -3  -4  792.62   25.70
   3  -3  -4  735.13   25.90
   3  -3  -4  757.92   26.20
  -3   3   4  748.83   25.90
  -3   3   4  785.62   25.80
  -3   3   4  737.43   26.20
   2  -3  -4  157.08    6.40
   2  -3  -4  171.38    6.00
   2  -3  -4  163.78    6.20
  -2   3   4  163.98    6.20
  -2   3   4  167.28    5.80
  -2   3   4  166.08    6.40
  -2   3   4  175.48    5.90
   1  -3  -4   17.40    1.00
   1  -3  -4   14.20    1.30
   1  -3  -4   15.40    1.20
   1  -3  -4   14.90    2.80
  -1   3   4   15.00    1.30
  -1   3   4   16.20    1.00
   0  -3  -4   57.99    2.80
   0  -3  -4   58.29    2.50
   0  -3  -4   54.19    2.70
   0  -3  -4   59.79    4.60
   0   3   4   56.69    2.70
   0   3   4   56.79    2.60
  -1  -3  -4  185.18    7.40
  -1  -3  -4  204.18   10.10
  -1  -3  -4  181.98    7.00
   1   3   4  184.28    7.10
   1   3   4  186.38    7.00
   1   3   4  183.28    7.40
  -2  -3  -4   55.19    2.20
  -2  -3  -4   54.89    2.80
  -2  -3  -4   63.79    6.40
   2   3   4   47.60    2.90
   2   3   4   58.49    2.70
   2   3   4   52.49    3.10
  -3  -3  -4  299.47   16.50
  -3  -3  -4  340.17   11.20
  -3  -3  -4  315.07   11.50
   3   3   4  313.67   12.10
   3   3   4  313.77   11.90
  -4  -3  -4   84.69    4.00
   4   3   4   87.29    4.80
   4   3   4   83.09    4.50
  -5  -3  -4   53.09    3.20
   5   3   4   56.19    3.90
   5   3   4   58.89    4.20
  -6  -3  -4    3.00    6.00
   6   3   4   14.80    2.70
   6   3   4   12.90    2.10
  -9   4   4   11.90    2.30
  -9   4   4    8.60    3.10
  -8   4   4   30.00    3.30
  -8   4   4   30.30    2.80
  -7   4   4   45.10    3.10
  -7   4   4   50.69    3.80
   6  -4  -4   40.30    2.10
   6  -4  -4   38.50    2.30
   6  -4  -4   38.00    2.80
  -6   4   4   41.20    3.20
  -6   4   4   39.30    2.60
   5  -4  -4   87.89    4.30
   5  -4  -4   87.99    3.60
   5  -4  -4   82.59    3.70
   5  -4  -4   97.99    5.10
   5  -4  -4   87.39    3.80
  -5   4   4   87.79    3.80
  -5   4   4   83.69    3.90
  -5   4   4   91.09    4.40
   3  -4  -4   62.49    3.30
   3  -4  -4   68.49    2.80
   3  -4  -4   63.99    3.00
  -3   4   4   69.59    2.70
  -3   4   4   62.39    3.10
  -3   4   4   67.39    3.40
   2  -4  -4 1300.17   43.80
   2  -4  -4 1326.17   44.10
   2  -4  -4 1262.37   44.20
  -2   4   4 1340.37   43.70
  -2   4   4 1261.47   44.20
   1  -4  -4    7.40    0.80
   1  -4  -4    5.10    1.80
   1  -4  -4    5.70    0.90
   1  -4  -4    9.60    1.20
  -1   4   4    7.30    1.00
  -1   4   4    8.80    0.90
   0  -4  -4    7.40    0.90
   0  -4  -4    7.70    2.60
   0  -4  -4    5.50    1.00
   0  -4  -4    7.60    1.20
   0   4   4    8.50    1.30
   0   4   4    5.50    0.90
   0   4   4    8.10    1.10
  -1  -4  -4  422.46   14.90
  -1  -4  -4  440.96   15.60
  -1  -4  -4  411.16   15.00
  -1  -4  -4  440.86   18.30
   1   4   4  429.06   15.60
   1   4   4  406.86   15.10
   1   4   4  413.26   14.90
  -2  -4  -4   81.09    3.80
  -2  -4  -4   71.09    4.20
  -2  -4  -4   89.59    7.90
   2   4   4   77.19    4.00
   2   4   4   77.59    4.30
  -3  -4  -4   17.70    5.00
  -3  -4  -4   13.80    2.50
  -3  -4  -4   25.50    2.10
   3   4   4   25.20    2.40
   3   4   4   22.60    2.80
  -4  -4  -4   -3.30    4.20
  -4  -4  -4   -0.20    0.80
   4   4   4   -1.10    1.40
   4   4   4   -0.80    1.20
   5   4   4   14.30    2.60
   5   4   4   10.70    2.00
  -9   5   4    2.80    1.70
  -8   5   4    0.50    4.20
  -8   5   4    0.80    1.20
  -8   5   4    2.40    1.50
   7  -5  -4  417.96   15.20
   7  -5  -4  426.16   16.20
  -7   5   4  416.96   15.60
  -7   5   4  457.65   16.50
   6  -5  -4   36.00    2.90
   6  -5  -4   38.70    2.30
   6  -5  -4   36.30    2.10
  -6   5   4   37.30    2.40
  -6   5   4   34.90    3.30
   5  -5  -4  280.57    9.90
   5  -5  -4  275.57    9.90
   5  -5  -4  277.37   10.20
   5  -5  -4  269.67   10.70
  -5   5   4  268.27   10.80
  -5   5   4  272.97    9.90
   4  -5  -4  128.89    5.30
   4  -5  -4  131.59    5.00
   4  -5  -4  127.19    5.70
  -4   5   4  130.99    5.80
  -4   5   4  133.39    5.00
   3  -5  -4  544.35   18.70
   3  -5  -4  543.25   19.10
  -3   5   4  546.55   18.40
  -3   5   4  534.65   19.30
   2  -5  -4  322.77   12.00
   2  -5  -4  329.37   11.50
   2  -5  -4  320.77   11.90
  -2   5   4  330.07   11.40
  -2   5   4  313.77   11.90
   1  -5  -4    2.90    0.90
   1  -5  -4    1.70    2.60
   1  -5  -4    3.80    1.10
   1  -5  -4    4.60    0.80
  -1   5   4    3.40    0.80
  -1   5   4    3.90    1.00
   0  -5  -4   72.29    3.40
   0  -5  -4   72.69    6.40
   0  -5  -4   71.49    3.60
   0  -5  -4   76.29    3.90
   0   5   4   73.49    3.50
   0   5   4   67.89    3.50
   0   5   4   74.49    4.10
  -1  -5  -4    1.70    2.90
  -1  -5  -4    3.00    1.40
  -1  -5  -4    2.60    0.90
  -1  -5  -4    3.40    1.00
   1   5   4    3.00    1.40
   1   5   4    2.60    1.00
  -2  -5  -4   88.69    4.30
  -2  -5  -4   83.19    4.30
  -2  -5  -4  100.49    8.70
   2   5   4   92.49    5.10
   2   5   4   90.89    4.60
  -3  -5  -4    1.00    1.00
  -3  -5  -4   -1.80    3.70
  -3  -5  -4    1.30    1.10
   3   5   4    1.80    1.30
   3   5   4    1.00    1.60
  -4  -5  -4    0.30    5.40
  -4  -5  -4    3.90    1.80
   4   5   4    5.90    2.10
   4   5   4    4.90    1.60
   8  -6  -4    8.60    1.30
  -8   6   4    9.40    1.60
  -8   6   4   12.10    2.20
   7  -6  -4   21.10    2.50
   7  -6  -4   20.70    1.80
  -7   6   4   18.10    2.50
  -7   6   4   20.80    2.00
   6  -6  -4    9.40    1.40
   6  -6  -4   10.20    1.20
   6  -6  -4    4.90    1.40
  -6   6   4    6.30    1.60
  -6   6   4    6.50    1.10
   4  -6  -4  110.49    4.60
   4  -6  -4  114.09    5.00
   4  -6  -4  115.39    5.40
  -4   6   4  108.99    4.30
  -4   6   4  112.19    5.40
   3  -6  -4  684.93   24.30
   3  -6  -4  685.63   23.60
   3  -6  -4  675.53   24.10
  -3   6   4  686.43   24.20
   2  -6  -4   31.90    2.00
   2  -6  -4   31.50    2.50
   2  -6  -4   32.90    2.40
  -2   6   4   34.30    2.00
  -2   6   4   31.20    2.40
   1  -6  -4   76.39    4.10
   1  -6  -4   80.39    3.60
   1  -6  -4   76.49    4.20
  -1   6   4   81.29    3.70
  -1   6   4   79.79    4.10
  -1   6   4   81.79    4.50
   0  -6  -4  124.89    6.00
   0  -6  -4  125.69    5.60
   0  -6  -4  121.59    5.20
   0   6   4  131.49    6.30
   0   6   4  125.19    5.50
  -1  -6  -4   72.79    7.70
  -1  -6  -4   71.89    3.70
  -1  -6  -4   71.39    3.90
   1   6   4   69.29    3.90
   1   6   4   74.49    4.70
  -2  -6  -4   -0.40    1.00
  -2  -6  -4    1.70    1.00
   2   6   4    0.10    1.00
   2   6   4    0.70    1.50
  -3  -6  -4   14.10    1.90
  -3  -6  -4   11.70    1.80
   3   6   4   18.60    3.00
   3   6   4   11.80    1.90
   8  -7  -4  123.09    6.40
   8  -7  -4  113.89    5.10
  -8   7   4  108.19    5.30
  -8   7   4  118.89    6.70
   7  -7  -4    1.80    0.80
   7  -7  -4    1.40    1.30
  -7   7   4    3.00    1.20
  -7   7   4    1.80    1.60
   6  -7  -4   11.70    1.60
   6  -7  -4    8.80    1.80
   6  -7  -4   11.80    1.40
  -6   7   4   12.30    2.30
   5  -7  -4   25.90    5.70
   5  -7  -4   36.90    3.20
   5  -7  -4   36.10    2.50
   5  -7  -4   37.70    2.20
  -5   7   4   38.20    3.30
   4  -7  -4   63.79    4.00
   4  -7  -4   67.19    3.70
   4  -7  -4   66.09    3.20
  -4   7   4   65.59    4.10
   2  -7  -4   -0.50    0.90
   2  -7  -4    0.40    0.90
   2  -7  -4   -0.20    0.60
   1  -7  -4   22.80    2.70
   1  -7  -4   29.50    2.20
  -1   7   4   26.40    3.10
  -1   7   4   27.10    2.20
   0  -7  -4    3.10    1.00
   0  -7  -4    4.40    1.30
   0   7   4    7.40    1.50
   0   7   4    4.60    1.90
  -1  -7  -4    6.60    1.30
  -1  -7  -4    4.70    1.40
   1   7   4    8.20    2.20
   1   7   4   10.40    1.80
  -2  -7  -4   12.90    1.80
  -2  -7  -4   17.80    2.20
   2   7   4   16.20    2.90
   2   7   4   15.70    2.40
   8  -8  -4    2.20    1.60
   8  -8  -4    1.40    1.00
   7  -8  -4   56.29    3.20
   7  -8  -4   55.79    4.50
  -7   8   4   60.49    4.80
   6  -8  -4    7.00    1.70
   6  -8  -4    6.40    1.30
  -6   8   4    7.50    2.00
   5  -8  -4    0.50    1.40
   5  -8  -4    1.40    0.80
   5  -8  -4    4.90    3.80
  -5   8   4    0.50    1.40
   4  -8  -4   21.30    1.90
   4  -8  -4   20.90    2.70
  -4   8   4   22.30    2.80
   2  -8  -4    0.70    1.20
   2  -8  -4    0.70    0.80
  -2   8   4    0.70    1.50
   1  -8  -4   10.90    1.60
   1  -8  -4   10.80    1.90
  -1   8   4   14.60    1.90
  -1   8   4   18.50    2.90
   0  -8  -4    9.20    1.60
   0  -8  -4    8.70    1.70
   0   8   4    8.60    2.40
   0   8   4    8.00    1.70
  -1  -8  -4   25.30    2.90
   1   8   4   19.90    2.50
   1   8   4   27.20    4.10
  -7   9   4   89.69    6.20
   6  -9  -4   20.50    3.10
   6  -9  -4   19.60    2.00
  -6   9   4   27.60    4.70
   5  -9  -4   16.30    1.80
   5  -9  -4   17.40    2.70
   4  -9  -4    0.60    0.90
   4  -9  -4    6.70    6.10
   4  -9  -4   -0.90    1.30
   3  -9  -4    0.30    1.30
   3  -9  -4    0.00    0.90
   3  -9  -4   -0.20    6.00
  -3   9   4    1.80    1.80
   2  -9  -4   16.60    1.90
   2  -9  -4   23.10    2.90
  -2   9   4   30.00    3.70
   1  -9  -4   41.60    4.50
  -1   9   4   58.99    6.30
   4 -10  -4    0.20    5.70
   3 -10  -4   -5.70    7.80
  -3  11  -5   20.40    2.50
  -4  11  -5    6.00    1.70
   0  10  -5   -0.20    1.80
   0 -10   5    0.30    1.00
  -1  10  -5    6.10    1.50
  -1  10  -5   10.60    2.20
   1 -10   5   11.50    2.30
   1 -10   5    1.90   10.50
   1 -10   5    9.00    1.50
  -2  10  -5    0.70    1.70
  -2  10  -5   -0.30    0.90
   2 -10   5   -1.90    5.40
   2 -10   5    1.20    1.00
   2 -10   5    1.30    1.00
  -3  10  -5   -0.40    1.00
   3 -10   5   -0.20    0.90
   3 -10   5    2.10    5.60
   4 -10   5   16.70    6.90
  -5  10  -5    5.00    1.50
   5 -10   5    9.10    6.20
   5 -10   5    4.50    1.20
  -6  10  -5    6.30    1.40
  -6  10  -5    6.50    1.70
   6 -10   5   13.90    3.80
   6 -10   5    7.60    1.40
   6 -10   5   -0.30    5.50
  -7  10  -5    0.00    1.00
  -2  -9   5    2.40    1.10
   0   9  -5    4.60    1.90
   0   9  -5    3.40    1.30
   0  -9   5    2.40    6.80
   0  -9   5    5.00    1.20
  -2   9  -5   27.90    2.50
  -2   9  -5   27.10    2.90
   2  -9   5   15.30    7.40
   2  -9   5   25.60    2.10
  -3   9  -5    9.40    1.60
  -3   9  -5   12.90    2.60
   3  -9   5    9.30    1.30
  -4   9  -5    1.90    1.10
   4  -9   5    2.00    0.90
   4  -9   5    3.80    5.30
  -5   9  -5   16.50    1.80
  -5   9  -5   17.20    2.10
   5  -9   5   16.20    1.70
  -6   9  -5    0.10    0.90
  -6   9  -5   -1.40    1.30
  -6   9  -5   -1.40    1.10
   6  -9   5   -2.50    1.40
   6  -9   5    7.70    6.30
   6  -9   5   -0.30    0.80
  -7   9  -5    8.40    2.00
  -7   9  -5    7.70    1.50
   7  -9   5    7.40    1.90
   7  -9   5    6.60    1.40
   3   8  -5   12.30    2.70
   3   8  -5    6.60    1.50
  -3  -8   5    6.40    6.90
   2   8  -5    0.80    1.70
   1   8  -5   42.60    3.20
   1   8  -5   49.40    4.00
  -1  -8   5   43.80    2.70
   0   8  -5  140.49    6.40
   0   8  -5  159.18    7.10
   0  -8   5  149.79    6.10
  -1   8  -5   33.70    2.60
  -1   8  -5   42.70    3.20
   1  -8   5   37.40    2.40
   1  -8   5   37.30    2.50
   1  -8   5   35.10    2.80
  -2   8  -5  120.19    5.30
  -2   8  -5  109.19    5.20
   2  -8   5  114.79    5.50
   2  -8   5  114.19    4.80
  -3   8  -5   48.80    2.90
  -3   8  -5   46.00    3.00
   3  -8   5   48.00    2.60
   3  -8   5   48.40    3.20
  -5   8  -5   75.49    3.80
  -5   8  -5   71.49    4.10
  -5   8  -5   73.49    4.20
   5  -8   5   74.59    3.60
  -6   8  -5   29.50    3.10
  -6   8  -5   30.90    2.50
   6  -8   5   30.30    3.10
   6  -8   5   29.40    2.20
  -7   8  -5    5.30    1.80
  -7   8  -5    5.90    1.30
   7  -8   5    4.60    1.60
   7  -8   5    6.10    1.20
  -8   8  -5    5.80    1.70
  -8   8  -5    8.90    2.10
   8  -8   5    9.20    2.00
   3   7  -5    1.80    1.10
   3   7  -5    3.10    1.90
  -3  -7   5    1.70    1.00
  -3  -7   5    0.70    6.00
   2   7  -5   -0.30    0.90
   2   7  -5    0.30    1.50
  -2  -7   5    0.90    0.90
  -2  -7   5   -1.20    5.60
  -2  -7   5   -0.40    1.20
   1   7  -5  158.18    7.00
   1   7  -5  144.79    6.40
  -1  -7   5  148.99    6.70
  -1  -7   5  150.68    6.00
   0   7  -5  102.29    4.90
   0   7  -5  112.39    5.30
   0  -7   5  108.69    5.20
   0  -7   5  109.79    4.50
   0  -7   5  108.09    4.40
  -1   7  -5   18.80    1.90
  -1   7  -5   22.40    2.20
   1  -7   5   21.80    1.70
   1  -7   5   20.00    2.00
  -2   7  -5   25.40    2.10
  -2   7  -5   28.70    2.10
   2  -7   5   25.50    2.20
   2  -7   5   26.00    1.80
  -3   7  -5   80.69    4.00
  -3   7  -5   87.59    3.80
  -3   7  -5   79.99    4.00
   3  -7   5   84.69    4.20
   3  -7   5   83.29    3.60
  -4   7  -5  188.98    7.80
  -4   7  -5  188.88    7.50
  -4   7  -5  191.78    7.80
  -4   7  -5  193.38    7.80
   4  -7   5  197.18    7.40
   4  -7   5  201.18    8.00
  -5   7  -5   -0.70    0.70
  -5   7  -5    1.60    1.00
   5  -7   5    0.60    1.00
   5  -7   5   -0.30    0.60
   5  -7   5    3.70    5.20
   5  -7   5   -1.00    0.90
  -6   7  -5   15.80    2.10
  -6   7  -5   16.70    1.90
   6  -7   5   13.00    1.80
   6  -7   5   15.20    1.60
   6  -7   5   13.20    6.10
  -7   7  -5  123.79    5.90
  -7   7  -5  135.19    6.60
   7  -7   5  133.39    6.50
   7  -7   5  127.69    5.60
  -8   7  -5    6.10    1.60
  -8   7  -5    9.20    2.00
   8  -7   5    8.00    1.80
  -4  -6   5   -3.00    5.70
  -4  -6   5    2.50    1.10
  -4  -6   5    3.70    1.60
   3   6  -5   22.80    2.60
   3   6  -5   23.50    2.40
   3   6  -5   27.50    3.40
  -3  -6   5   25.80    6.80
  -3  -6   5   25.10    2.60
  -3  -6   5   23.20    2.00
   2   6  -5   25.20    2.50
   2   6  -5   17.50    2.10
   2   6  -5   24.20    2.80
  -2  -6   5   20.60    2.10
  -2  -6   5   22.20    5.00
  -2  -6   5   17.40    1.60
   1   6  -5    0.00    0.80
   1   6  -5   -0.60    0.90
   1   6  -5   -1.30    1.10
  -1  -6   5   -0.10    0.80
  -1  -6   5    0.70    0.60
   0   6  -5   11.50    1.60
   0   6  -5   12.90    1.50
   0   6  -5   13.30    1.60
   0  -6   5   13.80    1.30
   0  -6   5   15.00    1.70
   0  -6   5   11.40    1.20
  -1   6  -5   13.80    1.30
  -1   6  -5   15.60    1.70
  -1   6  -5   13.10    1.40
  -1   6  -5   15.10    1.40
   1  -6   5   13.00    1.20
   1  -6   5   12.80    1.60
   1  -6   5   12.80    1.50
  -2   6  -5   88.19    3.30
  -2   6  -5   77.59    3.50
  -2   6  -5   73.89    3.70
  -2   6  -5   78.39    3.60
   2  -6   5   83.19    3.90
   2  -6   5   81.49    3.40
  -3   6  -5  390.86   14.30
  -3   6  -5  392.06   14.10
  -3   6  -5  399.46   13.90
  -3   6  -5  389.16   14.30
   3  -6   5  418.96   14.60
   3  -6   5  397.56   13.90
  -4   6  -5  899.11   31.20
  -4   6  -5  908.11   31.50
  -4   6  -5  898.01   30.80
   4  -6   5  936.71   31.60
   4  -6   5  904.71   31.00
   4  -6   5  906.81   31.50
  -5   6  -5   35.50    2.70
  -5   6  -5   33.40    2.30
   5  -6   5   38.80    2.80
   5  -6   5   31.40    2.10
   5  -6   5   31.80    2.40
  -6   6  -5   49.80    3.00
  -6   6  -5   50.59    3.50
   6  -6   5   50.19    2.70
   6  -6   5   47.50    4.10
   6  -6   5   32.30    9.70
   6  -6   5   49.50    3.50
  -7   6  -5   23.60    2.70
  -7   6  -5   20.00    2.20
   7  -6   5   19.00    2.30
  -8   6  -5   57.39    3.90
  -8   6  -5   61.09    4.40
   8  -6   5   65.59    4.60
  -6  -5   5   10.50    6.20
  -5  -5   5    0.10    1.20
  -5  -5   5    0.20    5.30
   4   5  -5   10.40    2.00
  -4  -5   5    9.80    1.90
  -4  -5   5   10.20    1.30
  -4  -5   5   10.70    1.70
   3   5  -5   -0.70    0.80
   3   5  -5    1.10    1.40
   3   5  -5   -1.10    1.00
  -3  -5   5    0.50    0.90
  -3  -5   5    0.20    0.70
  -3  -5   5   -1.30    5.00
   2   5  -5   31.40    2.50
   2   5  -5   28.30    2.20
   2   5  -5   30.40    2.70
  -2  -5   5   33.20    2.30
  -2  -5   5   29.10    1.70
   1   5  -5  536.75   18.50
   1   5  -5  526.45   18.60
   1   5  -5  495.75   18.40
  -1  -5   5  520.75   18.40
  -1  -5   5  526.25   17.90
   0   5  -5  171.38    6.70
   0   5  -5  180.98    6.70
   0   5  -5  163.88    6.60
   0  -5   5  172.78    6.70
   0  -5   5  169.88    6.30
   0  -5   5  176.18    6.40
   0  -5   5  170.38    6.30
  -1   5  -5   -0.20    0.50
  -1   5  -5    0.10    0.80
  -1   5  -5    0.40    0.60
  -1   5  -5    0.40    0.50
  -1   5  -5   -0.10    0.50
   1  -5   5    0.50    0.50
   1  -5   5    0.40    0.60
   1  -5   5    0.00    0.50
   1  -5   5   -0.20    3.10
   1  -5   5   -0.30    1.20
  -2   5  -5   18.20    1.20
  -2   5  -5   18.60    1.50
  -2   5  -5   17.30    1.60
  -2   5  -5   18.60    1.10
   2  -5   5   19.40    1.50
   2  -5   5   19.70    1.20
   2  -5   5   15.80    1.60
  -3   5  -5   82.69    3.10
  -3   5  -5   80.29    3.60
  -3   5  -5   83.19    3.00
  -3   5  -5   80.79    3.80
   3  -5   5   81.49    3.30
   3  -5   5   79.49    3.80
   3  -5   5   83.59    3.80
  -4   5  -5    6.80    1.00
  -4   5  -5    6.80    1.30
   4  -5   5    6.20    0.90
   4  -5   5    6.40    1.30
   4  -5   5    9.20    1.30
  -5   5  -5    5.60    1.20
  -5   5  -5    7.50    1.10
   5  -5   5    6.60    1.00
   5  -5   5    7.10    1.30
   5  -5   5    6.20    1.30
  -6   5  -5  110.19    5.40
  -6   5  -5  109.39    8.70
  -6   5  -5  106.39    4.90
   6  -5   5  111.19    5.30
  -7   5  -5    2.60    1.10
  -7   5  -5    1.30    1.30
   7  -5   5   -0.20    6.00
   7  -5   5    1.90    1.20
  -8   5  -5   85.99    5.10
  -8   5  -5   77.99    4.40
  -6  -4   5    7.60    1.70
  -6  -4   5    6.20    6.30
   5   4  -5    1.10    1.40
  -5  -4   5   -2.90    5.50
  -5  -4   5    1.90    1.30
   4   4  -5    1.20    1.10
  -4  -4   5    0.20    0.80
  -4  -4   5   -1.00    3.90
  -4  -4   5    2.70    1.00
  -4  -4   5    1.30    1.10
   3   4  -5   11.80    1.70
   3   4  -5    9.20    1.30
  -3  -4   5    7.00    4.30
  -3  -4   5   14.80    1.60
  -3  -4   5   13.60    1.20
   2   4  -5   -0.40    0.90
   2   4  -5    0.80    0.90
   2   4  -5   -0.30    0.60
  -2  -4   5    0.80    0.70
  -2  -4   5    1.80    3.30
  -2  -4   5    0.70    0.40
   1   4  -5  236.28    8.90
   1   4  -5  235.58    8.90
   1   4  -5  243.18    9.00
  -1  -4   5  238.98    8.40
  -1  -4   5  243.98    8.80
   0   4  -5    4.30    0.80
   0   4  -5    4.50    0.70
   0   4  -5    4.10    0.50
   0   4  -5    4.10    0.70
   0   4  -5    4.30    0.80
   0  -4   5    3.80    0.60
   0  -4   5    3.90    0.80
   0  -4   5    3.50    0.60
   0  -4   5    4.00    0.50
  -1   4  -5  625.64   22.10
  -1   4  -5  625.24   21.90
  -1   4  -5  639.54   22.00
  -1   4  -5  688.33   22.00
  -1   4  -5  667.63   22.20
   1  -4   5  642.54   21.80
   1  -4   5  617.94   22.00
   1  -4   5  639.74   22.20
  -2   4  -5  423.56   14.60
  -2   4  -5  436.16   14.20
  -2   4  -5  422.96   14.70
  -2   4  -5  397.26   16.40
  -2   4  -5  408.16   14.10
  -2   4  -5  411.06   14.60
  -2   4  -5  413.06   14.50
   2  -4   5  420.96   14.30
   2  -4   5  397.66   14.50
   2  -4   5  418.66   14.60
  -3   4  -5  914.21   30.30
  -3   4  -5  876.01   30.50
   3  -4   5  867.81   30.50
   3  -4   5  910.01   30.10
   3  -4   5  878.81   30.50
  -4   4  -5   36.80    2.10
  -4   4  -5   32.40    2.40
   4  -4   5   34.80    1.90
   4  -4   5   36.10    2.50
   4  -4   5   36.30    6.50
   4  -4   5   36.70    2.30
  -5   4  -5  124.79    5.50
  -5   4  -5  117.09    5.10
   5  -4   5  122.49    5.40
   5  -4   5  128.29   11.40
  -6   4  -5  232.18    9.50
  -6   4  -5  218.98    9.10
   6  -4   5  240.98    9.40
   6  -4   5  267.57   17.50
  -7   4  -5  239.98    9.80
  -7   4  -5  229.98    9.40
   7  -4   5  241.08   17.20
   7  -4   5  247.48    9.60
  -8   4  -5   36.20    3.40
  -8   4  -5   35.80    3.00
  -7  -3   5   -1.50    6.20
  -7  -3   5    0.20    1.30
   6   3  -5   15.30    2.00
   6   3  -5   14.00    2.30
  -6  -3   5   13.30    2.00
   5   3  -5   29.80    2.90
   5   3  -5   25.70    2.40
  -5  -3   5   26.30    2.60
   4   3  -5    7.00    1.30
   4   3  -5    5.20    1.40
  -4  -3   5    8.80    1.50
  -4  -3   5    9.10    3.80
  -4  -3   5    8.60    1.30
   3   3  -5  318.37   12.20
   3   3  -5  330.17   12.50
  -3  -3   5  333.27   12.10
  -3  -3   5  369.96   16.90
   2   3  -5  211.88    8.10
   2   3  -5  220.38    8.30
  -2  -3   5  213.88    7.90
  -2  -3   5  218.28    7.60
  -2  -3   5  228.08   12.00
   1   3  -5  382.16   13.50
   1   3  -5  395.46   13.40
   1   3  -5  394.26   13.60
  -1  -3   5  388.56   13.20
  -1  -3   5  385.46   13.10
  -1  -3   5  363.86   13.10
  -1  -3   5  381.16   13.40
   0   3  -5   19.40    1.30
   0   3  -5   19.50    1.20
   0   3  -5   19.80    1.30
   0   3  -5   17.80    1.10
   0  -3   5   21.40    1.20
   0  -3   5   19.00    0.90
   0  -3   5   18.60    1.20
   0  -3   5   13.10    3.30
   0  -3   5   17.90    1.20
  -1   3  -5  261.67    9.10
  -1   3  -5  267.17    9.20
  -1   3  -5  249.97    9.20
   1  -3   5  236.08    9.10
   1  -3   5  264.27    9.20
   1  -3   5  260.17    8.80
   1  -3   5  262.67    8.90
   1  -3   5  256.17   12.30
  -2   3  -5  746.13   25.00
  -2   3  -5  736.03   25.00
  -2   3  -5  727.73   24.90
   2  -3   5  715.63   25.00
   2  -3   5  739.63   24.70
   2  -3   5  734.03   28.60
   2  -3   5  707.93   24.90
  -3   3  -5   13.30    1.60
  -3   3  -5   16.80    1.40
  -3   3  -5   16.40    1.20
   3  -3   5   14.40    4.50
   3  -3   5   13.10    1.40
   3  -3   5   15.50    1.00
   3  -3   5   16.00    1.30
  -5   3  -5  499.75   18.60
  -5   3  -5  498.75   18.30
   5  -3   5  507.65   18.50
   5  -3   5  582.64   25.00
  -6   3  -5  116.49   10.60
  -6   3  -5  130.89    5.90
  -6   3  -5  130.29    5.60
   6  -3   5  134.89    5.80
   6  -3   5  148.59   13.00
  -7   3  -5  187.58    7.80
  -7   3  -5  191.18    8.10
  -8   3  -5   19.40    2.50
  -8   3  -5   19.70    2.40
   8  -3   5   17.60    2.30
   9  -3   5   17.30    3.20
   7   2  -5   47.20    3.90
   7   2  -5   51.39    3.40
  -7  -2   5   47.90    3.60
   6   2  -5    8.00    1.70
   6   2  -5    6.90    1.40
  -6  -2   5    4.80    1.50
   5   2  -5   54.69    3.10
   5   2  -5   54.69    3.50
  -5  -2   5   53.99    3.30
  -5  -2   5   56.99    3.00
   4   2  -5  174.78    7.20
  -4  -2   5  181.78    9.80
  -4  -2   5  168.58    6.60
  -4  -2   5  166.78    6.80
   3   2  -5    1.50    0.70
   3   2  -5    1.60    0.90
  -3  -2   5    1.70    0.60
  -3  -2   5    1.70    2.20
   2   2  -5  460.85   16.40
   2   2  -5  456.25   16.30
  -2  -2   5  462.65   16.00
  -2  -2   5  469.35   15.90
  -2  -2   5  492.25   15.80
  -2  -2   5  460.35   18.90
   1   2  -5    2.20    0.40
   1   2  -5    4.90    0.70
   1   2  -5    2.40    0.40
   1   2  -5    2.70    0.60
  -1  -2   5    1.90    0.40
  -1  -2   5    3.60    0.50
  -1  -2   5    1.50    1.90
  -1  -2   5    2.00    0.40
   0   2  -5  437.96   14.00
   0   2  -5  406.36   14.20
   0   2  -5  402.66   14.30
   0   2  -5  398.06   14.20
   0   2  -5  448.96   16.40
   0  -2   5  408.76   14.30
   0  -2   5  448.46   14.40
   0  -2   5  394.96   14.20
   0  -2   5  412.46   13.90
   0  -2   5  402.36   14.10
   0  -2   5  398.06   16.80
  -1   2  -5  775.52   26.30
  -1   2  -5  783.12   26.30
  -1   2  -5  767.32   26.30
  -1   2  -5  726.43   28.30
  -1   2  -5  782.42   26.30
   1  -2   5  798.72   26.40
   1  -2   5  761.82   29.10
   1  -2   5  813.92   26.10
   1  -2   5  764.12   26.30
  -2   2  -5  411.96   14.40
  -2   2  -5  428.16   14.60
  -2   2  -5  434.16   14.60
   2  -2   5  397.76   17.60
   2  -2   5  421.06   14.60
  -3   2  -5  752.12   25.80
  -3   2  -5  704.43   25.50
  -3   2  -5  725.53   25.70
   3  -2   5  720.73   25.60
   3  -2   5  837.22   30.70
  -4   2  -5   42.80    2.60
  -4   2  -5   43.10    2.20
   4  -2   5   47.80    6.70
   4  -2   5   39.90    2.40
  -5   2  -5  136.59    5.80
  -5   2  -5  129.49    5.50
   5  -2   5  136.19    5.70
   5  -2   5  145.99   11.70
  -7   2  -5   57.09    3.40
  -7   2  -5   57.49    3.70
   7  -2   5   57.69    3.60
  -8   2  -5    0.90    1.30
  -8   2  -5    0.90    1.20
   8  -2   5    1.60    1.40
   8   1  -5    6.70    1.90
  -8  -1   5   10.10    3.10
   7   1  -5   25.00    2.80
  -7  -1   5   20.30    2.50
   6   1  -5    1.60    0.90
   6   1  -5    2.00    1.20
  -6  -1   5    3.10    1.30
   5   1  -5  199.38    7.50
   5   1  -5  180.98    8.00
  -5  -1   5  207.48    7.40
  -5  -1   5  199.48    7.80
   4   1  -5   23.70    1.90
  -4  -1   5   22.90    2.00
  -4  -1   5   24.30    2.80
  -4  -1   5   24.90    1.60
   3   1  -5 1687.53   53.29
   3   1  -5 1595.94   53.79
   3   1  -5 1589.24   53.59
  -3  -1   5 1612.74   53.29
  -3  -1   5 1524.25   53.29
  -3  -1   5 1544.65   53.09
  -3  -1   5 1458.25   54.69
  -3  -1   5 1682.13   52.99
   2   1  -5  562.34   18.20
   2   1  -5  531.65   18.50
   2   1  -5  551.84   18.40
  -2  -1   5  546.75   18.20
  -2  -1   5  493.65   19.60
  -2  -1   5  487.85   17.90
  -2  -1   5  569.04   18.20
   1   1  -5 1006.70   33.20
   1   1  -5  929.51   33.00
   1   1  -5 1029.50   33.30
  -1  -1   5  952.50   35.00
  -1  -1   5 1008.60   33.20
  -1  -1   5  986.60   33.20
   0   1  -5   26.50    1.30
   0   1  -5   27.10    1.40
   0   1  -5   26.20    1.20
   0   1  -5   26.10    1.00
   0   1  -5   27.20    3.20
   0  -1   5   26.30    1.40
   0  -1   5   22.70    2.90
  -1   1  -5  181.58    6.70
  -1   1  -5  193.78    6.60
  -1   1  -5  190.38    9.10
  -1   1  -5  183.98    6.80
  -1   1  -5  194.78    6.80
   1  -1   5  182.78    9.40
  -2   1  -5  107.69    4.00
  -2   1  -5  114.69    4.20
  -2   1  -5  103.49    4.10
   2  -1   5   98.49    3.80
   2  -1   5   96.79    7.10
   2  -1   5  104.09    4.10
  -3   1  -5   41.70    2.20
  -3   1  -5   39.00    2.00
   3  -1   5   41.40    2.20
   3  -1   5   38.10    5.80
   3  -1   5   38.40    1.80
  -4   1  -5  530.25   18.70
  -4   1  -5  515.55   18.40
   4  -1   5  529.45   18.60
   4  -1   5  553.74   24.40
  -5   1  -5   36.20    2.30
  -5   1  -5   37.30    2.60
   5  -1   5   39.10    2.40
  -6   1  -5  206.28    8.10
  -6   1  -5  200.08    7.90
   6  -1   5  195.38    8.10
  -7   1  -5   15.30    1.90
  -7   1  -5   15.60    2.00
  -7   1  -5   12.30    6.30
   7  -1   5   17.90    2.30
  -8   1  -5   10.60    1.70
  -8   1  -5   11.80    2.20
   8  -1   5   10.30    2.10
   8   0  -5   43.50    3.60
  -8   0   5   49.40    4.10
  -8   0   5   43.50    3.60
   7   0  -5   35.40    3.00
  -7   0   5   29.50    2.80
  -7   0   5   29.80    2.60
   6   0  -5   82.89    4.30
  -6   0   5   77.59    4.10
  -6   0   5   78.19    3.90
   5   0  -5   47.60    2.80
  -5   0   5   48.90    2.70
  -5   0   5   49.00    2.80
   4   0  -5   23.50    1.80
   4   0  -5   25.00    1.60
  -4   0   5   19.80    1.80
  -4   0   5   22.80    1.60
  -4   0   5   21.40    1.70
  -4   0   5   20.70    1.10
   3   0  -5  244.58    8.40
   3   0  -5  227.58    8.60
  -3   0   5  250.37    8.40
  -3   0   5  241.88    8.00
  -3   0   5  226.28    8.40
  -3   0   5  211.58    7.90
   2   0  -5   70.99    2.90
   2   0  -5   75.89    2.90
  -2   0   5   69.09    2.90
  -2   0   5   66.79    2.90
  -2   0   5   73.09    3.00
   1   0  -5 2219.28   86.09
   1   0  -5 2566.24   80.89
   1   0  -5 2567.04   80.69
  -1   0   5 2433.56   81.19
  -1   0   5 2214.78   84.29
   0   0  -5  908.21   31.80
   0   0  -5  872.11   29.30
   0   0  -5  828.32   29.60
   0   0   5  826.82   29.60
   0   0   5  926.91   29.30
  -1   0  -5  776.52   25.60
  -1   0  -5  730.73   28.10
  -1   0  -5  776.52   25.80
  -1   0  -5  799.32   25.50
   1   0   5  789.82   25.80
   1   0   5  667.53   28.60
  -2   0  -5  330.67   10.90
  -2   0  -5  316.77   11.10
   2   0   5  309.97   11.00
   2   0   5  286.87   14.70
   2   0   5  324.37   11.10
  -3   0  -5   90.49    3.50
  -3   0  -5   80.59    3.70
   3   0   5   90.69    3.70
   3   0   5   82.39    3.60
  -4   0  -5  163.68    6.20
  -4   0  -5  162.68    6.40
   4   0   5  163.08    6.40
   4   0   5  163.38    6.40
  -5   0  -5   80.39    3.60
  -5   0  -5   77.59    3.80
  -5   0  -5   72.19    9.20
   5   0   5   73.49    3.80
   5   0   5   74.59    3.90
  -6   0  -5  123.39    5.30
  -6   0  -5  118.99    5.50
   6   0   5  122.99    5.80
   7  -1  -5   15.20    2.00
  -7   1   5   16.20    2.00
  -7   1   5   13.70    1.90
   6  -1  -5   41.70    2.80
  -6   1   5   39.50    2.80
  -6   1   5   41.30    2.80
   5  -1  -5   81.49    4.00
   5  -1  -5   94.49    3.90
  -5   1   5   87.69    4.00
  -5   1   5   79.89    3.80
  -5   1   5   94.69    4.10
   4  -1  -5   17.20    1.40
   4  -1  -5   14.10    1.40
  -4   1   5   14.70    1.50
  -4   1   5   15.00    1.50
  -4   1   5   12.90    0.90
   3  -1  -5  877.31   32.20
   3  -1  -5  983.10   31.80
   3  -1  -5 1003.10   32.40
  -3   1   5  923.91   32.30
  -3   1   5  997.20   31.80
  -3   1   5  904.61   31.80
   2  -1  -5   45.90    1.60
   2  -1  -5   41.20    1.60
   2  -1  -5   44.70    2.10
  -2   1   5   44.40    1.70
   1  -1  -5 1244.48   41.80
   1  -1  -5 1169.68   43.70
   1  -1  -5 1267.57   41.30
   1  -1  -5 1172.98   41.80
  -1   1   5 1245.98   41.80
  -1   1   5 1314.77   41.40
   0  -1  -5   19.30    3.10
   0  -1  -5   18.30    1.30
   0   1   5   17.70    1.30
   0   1   5   20.40    1.00
  -1  -1  -5  803.52   30.20
  -1  -1  -5  814.12   26.80
  -1  -1  -5  798.32   27.20
   1   1   5  770.52   27.20
  -2  -1  -5   80.79    3.00
  -2  -1  -5   77.69    3.40
  -2  -1  -5   73.99    6.10
   2   1   5   76.49    3.40
   2   1   5   78.39    3.30
  -3  -1  -5  601.74   20.30
  -3  -1  -5  578.34   20.60
   3   1   5  591.64   20.70
   3   1   5  597.84   20.60
   3   1   5  597.34   20.80
  -4  -1  -5   13.90    1.80
  -4  -1  -5   15.90    1.40
   4   1   5   18.00    1.90
   4   1   5   16.00    1.90
  -5  -1  -5    5.30    5.00
  -5  -1  -5    2.90    1.10
  -5  -1  -5    3.30    0.90
   5   1   5    2.90    1.30
   5   1   5    1.20    1.10
  -6  -1  -5   93.59    4.30
  -6  -1  -5   84.09    4.40
   6   1   5   87.79    4.90
  -7  -1  -5   20.20    2.50
   7   1   5   24.10    2.90
   8  -2  -5   44.90    3.30
  -8   2   5   44.20    3.40
  -8   2   5   43.30    3.50
   7  -2  -5   20.90    2.10
  -7   2   5   16.50    2.10
  -7   2   5   23.10    2.40
   6  -2  -5   66.89    3.50
  -6   2   5   67.09    3.60
  -6   2   5   76.09    3.90
   5  -2  -5  154.38    6.00
   5  -2  -5  140.69    5.80
  -5   2   5  142.69    5.80
  -5   2   5  138.99    5.50
  -5   2   5  143.29    6.00
   4  -2  -5   12.50    0.90
   4  -2  -5   15.20    1.30
   4  -2  -5   12.70    1.50
  -4   2   5   14.50    1.60
  -4   2   5   12.70    1.00
  -4   2   5   12.90    1.30
   3  -2  -5   20.80    1.60
   3  -2  -5   17.80    1.00
   3  -2  -5   20.90    1.00
  -3   2   5   20.30    1.70
  -3   2   5   21.40    1.40
  -3   2   5   20.70    1.10
   2  -2  -5 1238.68   41.80
   2  -2  -5 1227.18   41.50
   2  -2  -5 1268.67   41.30
  -2   2   5 1218.88   41.20
  -2   2   5 1208.68   41.80
   1  -2  -5   95.29    4.00
   1  -2  -5   91.29    3.80
   1  -2  -5   95.39    3.60
   1  -2  -5  105.09    6.40
   0  -2  -5  101.79    6.40
   0  -2  -5   97.09    4.10
   0  -2  -5   98.79    4.10
   0   2   5  100.09    3.90
   0   2   5  102.69    4.10
  -1  -2  -5  215.68    8.30
  -1  -2  -5  243.78   11.40
   1   2   5  226.28    8.30
   1   2   5  225.78    8.30
   1   2   5  218.98    8.40
  -2  -2  -5  273.87    9.80
  -2  -2  -5  275.67    9.30
  -2  -2  -5  245.08   13.50
   2   2   5  274.47    9.70
   2   2   5  268.67    9.90
   2   2   5  267.17   10.00
  -3  -2  -5  114.99    4.30
  -3  -2  -5  105.69    4.70
   3   2   5  106.19    5.00
   3   2   5  107.19    4.60
   3   2   5  113.79    4.90
  -4  -2  -5   28.20    2.20
  -4  -2  -5   29.00    1.80
   4   2   5   27.40    2.50
   4   2   5   29.30    2.60
  -5  -2  -5    2.60    4.40
  -5  -2  -5    3.30    1.10
   5   2   5   -0.20    1.10
   5   2   5    1.80    1.40
  -6  -2  -5   31.00    2.80
   6   2   5   36.10    3.50
   6   2   5   36.50    3.50
  -9   3   5   22.70    7.70
  -8   3   5   50.79    3.80
  -8   3   5   47.60    3.50
   7  -3  -5  157.98    6.80
  -7   3   5  160.88    6.90
  -7   3   5  173.68    7.30
   6  -3  -5   94.29    4.40
   6  -3  -5   97.99    4.60
  -6   3   5   98.69    4.90
  -6   3   5   97.99    4.50
   5  -3  -5  516.65   18.10
   5  -3  -5  545.25   18.90
   5  -3  -5  539.35   18.60
  -5   3   5  526.85   18.50
  -5   3   5  517.85   18.90
   4  -3  -5  326.57   11.90
   4  -3  -5  328.07   11.20
   4  -3  -5  310.87   11.30
  -4   3   5  312.47   11.90
  -4   3   5  322.37   11.40
  -4   3   5  327.57   11.40
   3  -3  -5    7.50    0.80
   3  -3  -5    7.00    0.80
   3  -3  -5    6.40    1.10
  -3   3   5    6.30    1.00
  -3   3   5    6.20    0.80
  -3   3   5    6.00    0.80
   2  -3  -5  305.87   11.30
   2  -3  -5  298.27   11.00
   2  -3  -5  324.97   10.80
  -2   3   5  326.77   10.70
  -2   3   5  310.77   10.70
  -2   3   5  301.57   11.30
   1  -3  -5  114.49    4.80
   1  -3  -5  113.99    7.20
   1  -3  -5  122.49    4.50
   1  -3  -5  128.49    5.00
  -1   3   5  125.19    4.60
  -1   3   5  121.39    4.90
   0  -3  -5  320.97   11.30
   0  -3  -5  317.77   11.80
   0  -3  -5  335.77   14.40
   0  -3  -5  319.77   11.70
   0   3   5  328.47   11.50
   0   3   5  316.27   11.60
  -1  -3  -5    1.70    2.60
  -1  -3  -5    1.40    0.60
  -1  -3  -5    2.70    0.90
   1   3   5   -0.70    0.80
   1   3   5    1.40    0.90
   1   3   5    1.50    0.70
  -2  -3  -5 1286.37   44.90
  -2  -3  -5 1114.59   40.00
   2   3   5 1180.18   40.00
   2   3   5 1157.08   40.20
   2   3   5 1131.69   40.40
  -3  -3  -5  122.49   10.60
  -3  -3  -5  147.59    5.80
   3   3   5  141.09    6.30
   3   3   5  141.19    6.10
  -4  -3  -5   41.70    2.90
   4   3   5   43.60    3.20
   4   3   5   44.10    3.50
  -5  -3  -5   12.10    1.70
  -5  -3  -5    2.60    5.70
   5   3   5   13.90    2.20
   5   3   5   15.60    2.50
   6   3   5    1.10    1.90
  -9   4   5   -4.50    5.00
  -8   4   5   82.39    5.00
  -8   4   5   68.09    4.20
  -7   4   5  256.97   10.30
  -7   4   5  277.77   10.90
   6  -4  -5   88.79    3.70
   6  -4  -5   84.69    4.00
   6  -4  -5   86.09    4.50
  -6   4   5   93.89    4.90
  -6   4   5   90.89    4.10
   5  -4  -5   85.09    3.70
   5  -4  -5   91.89    3.60
   5  -4  -5   91.09    4.40
   5  -4  -5   85.09    3.80
  -5   4   5   86.49    3.90
  -5   4   5   86.89    4.50
   4  -4  -5  233.28    8.30
   4  -4  -5  236.78    9.20
   4  -4  -5  233.28    8.60
  -4   4   5  233.38    9.10
  -4   4   5  230.18    8.70
  -4   4   5  237.38    8.50
   3  -4  -5 1033.00   34.80
   3  -4  -5 1029.90   35.10
  -3   4   5  995.80   35.40
  -3   4   5 1031.10   35.10
  -3   4   5 1048.40   34.70
   2  -4  -5    4.60    1.00
   2  -4  -5    5.70    0.70
   2  -4  -5    7.10    1.10
  -2   4   5    5.40    1.10
  -2   4   5    6.80    0.70
   1  -4  -5  581.64   21.00
   1  -4  -5  598.14   20.60
   1  -4  -5  616.64   21.10
  -1   4   5  605.24   20.60
  -1   4   5  597.14   21.00
   0  -4  -5  397.76   14.80
   0  -4  -5  430.86   14.50
   0  -4  -5  421.96   15.10
   0  -4  -5  413.66   17.90
   0   4   5  409.16   14.70
   0   4   5  411.66   14.60
   0   4   5  401.36   15.10
  -1  -4  -5  169.78    6.80
  -1  -4  -5  165.98    7.20
  -1  -4  -5  192.88   10.80
  -1  -4  -5  167.98    6.60
   1   4   5  166.98    6.90
   1   4   5  163.08    7.20
   1   4   5  172.08    6.70
  -2  -4  -5   71.79    7.50
  -2  -4  -5   70.09    4.10
  -2  -4  -5   71.79    3.70
   2   4   5   68.29    4.10
   2   4   5   73.49    3.80
  -3  -4  -5    7.20    4.50
  -3  -4  -5    8.90    1.40
   3   4   5   11.40    1.90
   3   4   5   10.20    2.10
  -4  -4  -5    6.10    5.80
  -4  -4  -5    4.50    1.30
   4   4   5    5.70    1.60
   4   4   5    6.00    1.90
  -5  -4  -5    1.70    1.20
  -5  -4  -5   -1.50    6.00
   5   4   5    2.00    1.90
   5   4   5    3.50    1.60
  -8   5   5    9.70    2.10
  -8   5   5    7.70    1.60
   7  -5  -5   13.90    2.10
   7  -5  -5   18.80    1.60
  -7   5   5   16.00    2.30
  -7   5   5   17.70    1.90
   6  -5  -5   22.60    1.50
   6  -5  -5   15.40    2.00
  -6   5   5   13.80    2.10
  -6   5   5   17.50    1.80
   5  -5  -5    4.50    0.80
   5  -5  -5    3.30    0.90
   5  -5  -5    3.10    0.80
   5  -5  -5    2.40    1.10
  -5   5   5    3.70    0.90
  -5   5   5    1.90    1.10
   4  -5  -5  137.59    5.30
   4  -5  -5  146.49    9.80
   4  -5  -5  137.19    5.60
   4  -5  -5  133.69    6.10
  -4   5   5  138.29    6.20
  -4   5   5  135.19    5.20
   3  -5  -5  333.77   11.80
   3  -5  -5  337.37   12.20
  -3   5   5  324.47   12.50
  -3   5   5  334.27   11.40
   2  -5  -5  200.58    8.20
   2  -5  -5  210.68    7.60
   2  -5  -5  200.88    8.00
  -2   5   5  206.08    7.50
  -2   5   5  200.68    8.10
   1  -5  -5   47.00    2.90
   1  -5  -5   47.90    2.40
   1  -5  -5   44.90    2.90
  -1   5   5   48.50    2.50
  -1   5   5   46.00    2.80
   0  -5  -5  149.99    6.30
   0  -5  -5  150.08    6.00
   0  -5  -5  148.09    6.60
   0   5   5  151.68    6.80
   0   5   5  154.08    6.30
   0   5   5  150.38    6.10
  -1  -5  -5   65.79    3.90
  -1  -5  -5   63.39    3.60
  -1  -5  -5   65.89    7.60
  -1  -5  -5   62.09    3.30
   1   5   5   63.59    4.10
   1   5   5   65.29    3.60
  -2  -5  -5   12.00    1.50
  -2  -5  -5   12.30    1.60
  -2  -5  -5   14.20    4.60
   2   5   5   13.00    2.20
   2   5   5   14.00    2.00
  -3  -5  -5   -0.60    3.80
  -3  -5  -5    2.60    1.30
  -3  -5  -5    0.90    1.10
   3   5   5    1.50    1.30
   3   5   5    1.50    1.60
  -4  -5  -5   17.30    2.10
  -4  -5  -5   15.20    5.30
   4   5   5   17.50    2.50
   4   5   5   23.90    3.30
   8  -6  -5  117.29    5.30
  -8   6   5  114.49    5.50
  -8   6   5  127.29    6.80
   7  -6  -5   11.30    1.90
   7  -6  -5   12.80    1.40
  -7   6   5   13.40    2.30
  -7   6   5   13.90    1.60
   6  -6  -5   11.70    1.30
   6  -6  -5   10.70    1.80
  -6   6   5   11.40    1.90
  -6   6   5   14.90    1.60
   5  -6  -5   73.89    3.60
   5  -6  -5   70.29    4.20
   5  -6  -5   69.99    3.30
  -5   6   5   69.39    3.40
  -5   6   5   74.29    4.40
   4  -6  -5  130.39    5.60
   4  -6  -5  131.19    6.10
   4  -6  -5  107.99   10.10
   4  -6  -5  136.99    5.20
  -4   6   5  136.19    6.20
   3  -6  -5   -0.40    0.80
   3  -6  -5    0.10    0.70
   3  -6  -5    0.40    0.50
  -3   6   5   -0.10    0.90
   2  -6  -5   36.30    2.90
   2  -6  -5   40.40    2.30
   2  -6  -5   41.80    2.80
  -2   6   5   36.80    2.80
  -2   6   5   40.40    2.20
   1  -6  -5   32.00    2.60
   1  -6  -5   30.10    2.10
   1  -6  -5   28.90    2.60
  -1   6   5   28.90    2.10
  -1   6   5   26.20    3.00
   0  -6  -5   34.40    2.30
   0  -6  -5   27.00    5.80
   0  -6  -5   38.00    3.10
   0  -6  -5   34.50    2.90
   0   6   5   36.00    3.40
   0   6   5   36.90    2.60
  -1  -6  -5   68.99    4.00
  -1  -6  -5   66.49    9.90
  -1  -6  -5   67.89    3.70
   1   6   5   73.29    4.80
   1   6   5   73.19    4.00
  -2  -6  -5   10.30    1.60
  -2  -6  -5    9.20    1.70
   2   6   5   11.60    2.40
   2   6   5    8.90    1.70
  -3  -6  -5    8.50    1.60
  -3  -6  -5   11.00    2.00
   3   6   5   12.20    2.70
   3   6   5    8.00    1.80
   8  -7  -5   11.60    1.70
   7  -7  -5   54.59    3.00
   7  -7  -5   54.29    4.20
  -7   7   5   63.29    4.70
   6  -7  -5    2.00    0.80
   6  -7  -5    1.50    1.30
  -6   7   5    0.30    1.30
   5  -7  -5    1.00    1.20
   5  -7  -5    1.50    0.90
   5  -7  -5    1.50    0.80
  -5   7   5    1.70    1.30
   4  -7  -5   68.79    9.50
   4  -7  -5   58.39    3.10
   4  -7  -5   61.89    3.50
   4  -7  -5   58.29    3.90
  -4   7   5   61.69    4.10
   3  -7  -5    6.70    1.40
   3  -7  -5    3.30    1.40
   3  -7  -5    5.60    1.00
  -3   7   5    5.10    1.40
   2  -7  -5    0.20    1.00
   2  -7  -5    0.50    0.70
   1  -7  -5   34.00    3.10
   1  -7  -5   34.30    2.50
  -1   7   5   34.90    2.50
  -1   7   5   39.70    3.60
   0  -7  -5   22.10    2.20
   0  -7  -5   21.60    2.50
   0   7   5   27.80    3.50
   0   7   5   28.80    2.50
  -1  -7  -5    9.40    1.90
  -1  -7  -5   12.60    1.80
   1   7   5   13.20    2.10
   1   7   5   12.40    2.60
  -2  -7  -5   14.50    2.10
   2   7   5   19.60    3.20
   2   7   5   15.80    2.40
   7  -8  -5    2.30    1.60
   7  -8  -5    1.50    0.90
  -7   8   5    3.80    1.90
   6  -8  -5   80.59    4.00
   6  -8  -5   82.29    5.30
  -6   8   5   85.99    5.50
   5  -8  -5   74.29    3.70
   5  -8  -5   73.59    4.90
  -5   8   5   73.19    4.90
   4  -8  -5    0.30    0.70
   4  -8  -5    9.10    5.80
   4  -8  -5    0.10    1.20
   3  -8  -5    7.40    1.80
   3  -8  -5    9.60    1.40
   3  -8  -5    2.10    5.00
   2  -8  -5    7.50    1.80
   2  -8  -5    7.60    1.30
  -2   8   5    8.80    2.30
   1  -8  -5   65.19    4.60
   1  -8  -5   73.89    4.00
  -1   8   5   79.39    5.40
   0  -8  -5   83.69    5.10
   0  -8  -5   78.79    4.40
   0   8   5   80.09    4.70
   0   8   5   89.09    6.00
   1   8   5   15.70    2.30
   6  -9  -5   -0.40    0.80
   5  -9  -5   44.20    2.90
   4  -9  -5    1.30    1.90
   4  -9  -5    2.50    1.10
   4  -9  -5    1.90    5.80
   3  -9  -5   -3.30    5.90
   3  -9  -5    3.90    1.30
  -3   9   5    6.20    2.20
   2  -9  -5   -0.60    5.80
  -2   9   5   17.10    3.80
   4 -10  -5   -2.40    6.20
  -2  11  -6   -0.50    1.90
  -3  11  -6   -0.10    1.20
  -4  11  -6    1.30    2.10
   0  10  -6    0.60    1.70
   0  10  -6    1.70    1.30
   0 -10   6    1.60    1.00
  -1  10  -6   -0.10    1.10
   1 -10   6   -0.20    0.80
  -2  10  -6    1.70    1.20
   2 -10   6    0.60    1.10
   2 -10   6    0.40    6.00
   2 -10   6    1.60    1.00
  -3  10  -6    0.10    1.10
   3 -10   6    0.40    0.80
   3 -10   6    3.60    5.80
   3 -10   6   -1.80    1.10
  -4  10  -6   15.20    2.10
   4 -10   6   20.20    2.10
   4 -10   6   34.30   11.20
   4 -10   6   18.80    2.40
  -5  10  -6   12.00    1.90
   5 -10   6   12.80    1.60
   5 -10   6    8.70    2.00
  -6  10  -6   -0.50    1.20
   6 -10   6   -0.20    1.20
   2   9  -6    4.20    1.50
   1   9  -6   32.10    3.80
   1   9  -6   28.50    2.90
  -1  -9   6   32.20    2.50
   0   9  -6    1.30    1.20
   0   9  -6    1.40    1.50
   0  -9   6    4.50    6.90
   0  -9   6    0.80    0.90
  -1   9  -6   34.40    3.30
  -1   9  -6   32.50    2.80
   1  -9   6   24.50    8.90
   1  -9   6   34.20    2.40
   1  -9   6   32.40    2.60
  -2   9  -6   10.90    1.80
  -2   9  -6   16.20    2.80
   2  -9   6   10.30    1.60
   2  -9   6   13.70    1.50
   2  -9   6    5.90    6.20
  -3   9  -6   20.60    2.50
   3  -9   6   23.80    2.80
   3  -9   6   21.20    1.90
  -6   9  -6    4.30    1.20
  -6   9  -6    5.20    1.70
   6  -9   6    7.70    2.20
   6  -9   6    9.10    6.20
   6  -9   6    6.50    1.30
  -7   9  -6   37.90    3.10
  -7   9  -6   50.89    4.10
   7  -9   6   36.00   11.20
   7  -9   6   45.70    4.10
   7  -9   6   42.60    3.10
   3   8  -6   11.30    2.60
   3   8  -6   11.00    1.90
   2   8  -6   22.20    3.00
   2   8  -6   21.10    2.50
  -2  -8   6   22.60    2.10
   0   8  -6   38.40    3.40
   0   8  -6   35.20    2.90
   0  -8   6   39.20    2.40
  -1   8  -6   12.00    1.80
  -1   8  -6    8.20    1.50
   1  -8   6    9.00    1.20
   1  -8   6   10.90    1.40
   1  -8   6    9.60    1.70
  -2   8  -6    4.10    1.30
  -2   8  -6    3.20    1.20
   2  -8   6    1.80    1.10
   2  -8   6    3.60    0.90
   2  -8   6    5.80    1.40
  -3   8  -6    9.80    1.50
   3  -8   6   10.40    1.30
   3  -8   6    9.50    1.60
   3  -8   6   10.00    1.60
  -4   8  -6  108.19    5.30
  -4   8  -6  114.29    5.80
   4  -8   6  112.29    4.80
   4  -8   6  121.09    5.60
  -5   8  -6    5.60    1.20
  -5   8  -6    5.10    1.50
  -5   8  -6    5.90    1.40
   5  -8   6    6.30    1.20
   5  -8   6    5.40    1.40
   5  -8   6   -0.80    4.70
  -6   8  -6   83.99    4.40
  -6   8  -6   87.99    5.00
   6  -8   6   81.99    4.10
   6  -8   6   90.99    5.10
  -7   8  -6   21.10    2.60
  -7   8  -6   21.50    2.30
   7  -8   6   20.80    2.20
   7  -8   6   11.70    7.40
   7  -8   6   19.00    2.60
  -8   8  -6   19.50    3.10
   8  -8   6   33.90    3.70
   3   7  -6   -1.40    1.60
   3   7  -6   -1.00    1.10
  -3  -7   6    1.70    5.90
   2   7  -6    2.10    1.60
   2   7  -6    1.70    1.40
   2   7  -6    0.00    1.10
  -2  -7   6   -0.60    0.70
  -2  -7   6    7.40    6.40
  -2  -7   6   -0.20    1.00
   1   7  -6  103.39    4.90
   1   7  -6   93.19    4.80
   1   7  -6  105.59    5.30
  -1  -7   6   94.19    4.90
  -1  -7   6   95.99    4.20
   0   7  -6   -0.70    0.70
   0   7  -6    0.40    1.20
   0   7  -6   -0.30    0.80
   0  -7   6    0.90    5.70
   0  -7   6    0.10    0.90
   0  -7   6    0.60    0.70
   0  -7   6    1.10    0.70
  -1   7  -6    9.30    1.40
  -1   7  -6    8.70    1.40
  -1   7  -6    8.70    1.20
   1  -7   6    1.00    5.50
   1  -7   6    8.80    1.10
   1  -7   6    8.30    1.20
   1  -7   6   10.70    1.60
  -2   7  -6   14.80    1.70
  -2   7  -6   15.50    1.90
  -2   7  -6   15.70    1.40
   2  -7   6    9.60    5.60
   2  -7   6   16.20    1.40
   2  -7   6    9.70    1.40
   2  -7   6   15.70    1.90
  -3   7  -6   40.50    2.80
  -3   7  -6   46.10    2.50
  -3   7  -6   42.90    2.90
   3  -7   6   42.60    3.00
   3  -7   6   44.20    2.90
   3  -7   6   52.69    9.10
   3  -7   6   48.90    2.40
  -4   7  -6   -0.30    0.80
  -4   7  -6   -0.70    0.70
  -4   7  -6   -0.30    0.90
   4  -7   6   -0.20    0.90
   4  -7   6    0.30    0.70
   4  -7   6   -0.40    0.90
  -5   7  -6    6.80    1.50
  -5   7  -6    4.40    1.20
   5  -7   6    5.30    1.60
   5  -7   6    5.90    1.10
   5  -7   6    4.50    1.40
   5  -7   6   -1.20    4.30
  -6   7  -6   12.30    2.00
  -6   7  -6   15.00    1.80
   6  -7   6   20.30    6.90
   6  -7   6   14.40    1.60
   6  -7   6   16.60    2.30
  -7   7  -6    2.50    1.20
  -7   7  -6    3.40    1.50
   7  -7   6    3.80    1.80
   7  -7   6    0.90    1.00
   7  -7   6    5.90    7.30
  -8   7  -6  137.89    6.80
  -8   7  -6  148.59    7.40
   8  -7   6  158.48    7.50
   4   6  -6   10.10    2.10
  -4  -6   6   11.30    1.80
   3   6  -6    8.90    1.80
   3   6  -6    5.10    1.40
  -3  -6   6    7.20    1.10
  -3  -6   6    1.70    6.00
  -3  -6   6    0.30    4.90
   2   6  -6   71.69    4.30
   2   6  -6   67.99    3.80
   2   6  -6   71.59    4.00
  -2  -6   6   69.69    3.20
  -2  -6   6   72.89    3.80
   1   6  -6  244.68    9.40
   1   6  -6  224.58    9.20
   1   6  -6  246.88    9.50
  -1  -6   6  234.88    8.70
  -1  -6   6  246.08    9.40
   0   6  -6    2.00    1.00
   0   6  -6    1.70    0.80
   0   6  -6    1.60    0.80
   0  -6   6    0.70    0.60
   0  -6   6   -3.30    4.40
   0  -6   6    1.40    0.80
   0  -6   6    1.00    0.60
  -1   6  -6  100.29    4.10
  -1   6  -6   94.99    4.50
  -1   6  -6  104.69    4.40
  -1   6  -6  107.69    4.30
   1  -6   6  100.89    4.00
   1  -6   6  102.89    4.60
   1  -6   6   98.09    4.30
  -2   6  -6   -0.60    0.60
  -2   6  -6    0.00    0.50
  -2   6  -6   -0.70    0.70
  -2   6  -6    0.20    0.60
   2  -6   6   -0.50    0.80
   2  -6   6    0.10    0.70
   2  -6   6    0.90    3.30
   2  -6   6    0.30    0.40
  -3   6  -6  442.46   15.00
  -3   6  -6  427.16   15.60
  -3   6  -6  426.26   15.40
  -3   6  -6  427.66   15.60
   3  -6   6  445.26   15.80
   3  -6   6  443.86   15.20
   3  -6   6  434.86   15.60
  -4   6  -6   39.00    2.40
  -4   6  -6   40.80    2.80
   4  -6   6   35.30    2.60
   4  -6   6   40.50    2.80
   4  -6   6   36.70    2.20
  -5   6  -6    6.90    1.50
  -5   6  -6    6.60    1.20
   5  -6   6   12.20    1.30
   5  -6   6    6.50    1.40
   5  -6   6    1.30    4.60
   5  -6   6    6.30    1.40
  -7   6  -6    0.60    1.30
  -7   6  -6    0.90    1.00
   7  -6   6   15.20    7.90
   7  -6   6    1.80    1.30
  -8   6  -6   32.40    3.60
  -8   6  -6   25.70    2.90
  -6  -5   6    2.80    6.10
  -6  -5   6    2.10    1.60
   5   5  -6    1.30    1.60
  -5  -5   6   -3.40    5.00
  -5  -5   6    3.20    1.50
   4   5  -6    4.90    1.80
  -4  -5   6    6.30    1.50
  -4  -5   6    2.10    5.00
   3   5  -6    9.50    1.60
   3   5  -6    9.80    1.70
  -3  -5   6   10.40    1.10
  -3  -5   6    9.40    1.50
   2   5  -6    1.60    1.10
   2   5  -6    0.60    1.20
   2   5  -6    0.30    0.80
  -2  -5   6    0.30    0.70
  -2  -5   6    1.40    4.10
  -2  -5   6    0.70    0.50
   1   5  -6   23.00    2.00
   1   5  -6   23.90    2.30
   1   5  -6   25.80    2.00
  -1  -5   6   24.20    1.40
  -1  -5   6   26.60    1.90
   0   5  -6    1.90    0.70
   0   5  -6    1.60    0.80
   0   5  -6    1.80    0.80
   0   5  -6    2.00    0.80
   0   5  -6    2.40    0.50
   0  -5   6   -1.80    3.10
   0  -5   6    2.00    0.80
   0  -5   6    2.10    0.70
   0  -5   6    1.90    0.50
  -1   5  -6   31.30    1.90
  -1   5  -6   31.80    1.90
  -1   5  -6   32.80    2.10
  -1   5  -6   33.50    1.90
   1  -5   6   33.80    1.70
   1  -5   6   30.00    1.90
   1  -5   6   37.10    2.10
  -2   5  -6  113.59    4.30
  -2   5  -6  110.29    4.60
  -2   5  -6  108.69    4.10
  -2   5  -6  110.09    4.70
   2  -5   6  113.49    4.20
   2  -5   6  106.19    4.60
   2  -5   6  110.59    4.70
  -3   5  -6  168.38    6.50
  -3   5  -6  152.58    6.30
  -3   5  -6  161.38    6.50
  -3   5  -6  165.08    8.90
  -3   5  -6  168.08    5.80
   3  -5   6  162.58    6.50
   3  -5   6  167.08    6.10
   3  -5   6  158.38    6.50
  -4   5  -6   49.40    2.60
  -4   5  -6   42.20    2.90
   4  -5   6   46.90    2.30
   4  -5   6   47.80    2.80
   4  -5   6   43.20    3.00
  -5   5  -6   30.30    2.50
  -5   5  -6   28.30    2.10
   5  -5   6   30.10    2.50
   5  -5   6   26.60    1.80
  -6   5  -6  116.89    5.70
  -6   5  -6  115.19    5.20
  -6   5  -6  124.89    9.80
   6  -5   6  105.19   12.80
   6  -5   6  115.59    5.60
  -7   5  -6   33.40    7.80
  -7   5  -6   22.30    2.30
  -7   5  -6   20.30    2.50
   7  -5   6   24.50    2.80
   7  -5   6   12.50    7.20
  -8   5  -6   50.59    3.60
  -8   5  -6   53.79    4.20
   6   4  -6   17.70    2.80
  -6  -4   6   17.60    2.30
   5   4  -6    8.50    1.90
  -5  -4   6    8.40    1.70
   4   4  -6    4.10    1.50
  -4  -4   6    1.40    3.40
  -4  -4   6    3.10    0.80
   3   4  -6   56.59    3.30
   3   4  -6   60.39    3.50
  -3  -4   6   62.29    3.10
  -3  -4   6   60.09    2.60
   2   4  -6   83.69    4.00
   2   4  -6   80.69    3.80
  -2  -4   6   80.29    3.20
  -2  -4   6   83.49    3.60
  -2  -4   6   77.09    7.80
   1   4  -6    5.10    0.80
   1   4  -6    4.40    0.80
   1   4  -6    3.90    0.90
  -1  -4   6    3.80    0.50
  -1  -4   6    3.60    0.80
  -1  -4   6    0.80    3.10
  -1  -4   6    4.40    0.60
   0   4  -6  153.48    5.90
   0   4  -6  150.68    6.00
   0   4  -6  153.88    5.70
   0   4  -6  159.38    6.00
   0   4  -6  159.88    6.00
   0  -4   6  159.28    6.00
   0  -4   6  152.68    5.80
   0  -4   6  159.68    5.90
   0  -4   6  157.48    5.60
  -1   4  -6  253.47    9.30
  -1   4  -6  268.37    9.50
  -1   4  -6  251.07    9.40
  -1   4  -6  273.17    9.30
   1  -4   6  245.48    9.30
   1  -4   6  261.37    9.00
   1  -4   6  260.67    9.40
  -2   4  -6 1091.99   38.20
  -2   4  -6 1163.98   38.20
  -2   4  -6 1130.89   38.30
  -2   4  -6 1112.19   38.10
   2  -4   6 1108.99   38.20
   2  -4   6 1122.29   38.20
   2  -4   6 1132.69   37.80
  -3   4  -6   67.49    3.00
  -3   4  -6   66.39    3.20
   3  -4   6   64.49    3.10
   3  -4   6   58.69    7.00
   3  -4   6   61.39    3.20
   3  -4   6   66.09    2.70
  -4   4  -6  124.09    5.00
  -4   4  -6  120.09    5.40
   4  -4   6  122.49    5.40
   4  -4   6  122.69    4.80
   4  -4   6  126.09   10.70
  -8   4  -6   16.50    2.50
  -8   4  -6   14.10    6.60
  -8   4  -6   17.30    2.20
   7   3  -6    2.40    2.30
  -7  -3   6    1.70    1.50
  -7  -3   6   -1.00    5.70
   6   3  -6    3.80    1.70
  -6  -3   6    4.00    1.60
   5   3  -6   48.30    3.50
  -5  -3   6   49.40    3.30
   4   3  -6   14.70    1.90
  -4  -3   6   18.00    1.60
  -4  -3   6   20.20    4.40
   3   3  -6  563.74   20.10
   3   3  -6  537.65   19.90
  -3  -3   6  580.04   19.20
  -3  -3   6  588.54   23.90
  -3  -3   6  551.14   19.50
   2   3  -6   50.09    2.80
   2   3  -6   50.99    2.70
  -2  -3   6   49.70    2.00
  -2  -3   6   49.99    2.30
  -2  -3   6   55.09    5.70
   1   3  -6   53.89    2.30
   1   3  -6   56.99    2.70
   1   3  -6   52.59    2.20
   1   3  -6   54.19    2.60
  -1  -3   6   56.49    2.10
  -1  -3   6   51.99    2.40
  -1  -3   6   52.59    2.40
  -1  -3   6   53.89    2.40
  -1  -3   6   54.29    5.60
   0   3  -6   80.09    3.20
   0   3  -6   75.79    3.40
   0   3  -6   86.39    2.90
   0   3  -6   80.79    3.20
   0   3  -6   81.09    3.40
   0  -3   6   74.89    5.90
   0  -3   6   79.99    2.90
   0  -3   6   85.09    3.30
   0  -3   6   77.29    3.20
   0  -3   6   76.29    3.20
  -1   3  -6  559.24   19.00
  -1   3  -6  560.04   19.00
  -1   3  -6  496.95   21.30
  -1   3  -6  554.44   19.00
   1  -3   6  550.14   18.60
   1  -3   6  553.54   18.90
   1  -3   6  557.84   22.70
   1  -3   6  562.54   19.00
   1  -3   6  563.94   18.60
  -2   3  -6  373.26   12.90
  -2   3  -6  375.16   13.00
  -2   3  -6  378.46   13.00
  -2   3  -6  355.06   12.80
   2  -3   6  351.46   12.90
   2  -3   6  366.16   13.00
   2  -3   6  369.16   12.60
   2  -3   6  364.46   16.70
  -4   3  -6  475.95   17.50
  -4   3  -6  477.15   17.80
   4  -3   6  485.05   17.70
   4  -3   6  569.14   24.40
  -5   3  -6   81.59    4.10
  -5   3  -6   75.89    3.70
   5  -3   6   89.29   10.20
   5  -3   6   77.29    3.90
  -6   3  -6  101.49    4.90
  -6   3  -6  117.19    5.50
   6  -3   6  106.59    5.20
   6  -3   6  122.59   12.70
  -7   3  -6   15.00    1.90
  -7   3  -6   16.90    2.30
  -8   3  -6    0.60    1.20
  -8   3  -6    2.20    1.50
   8  -3   6    0.10    1.40
   6   2  -6   25.10    2.90
  -6  -2   6   24.10    2.50
   5   2  -6   33.10    2.70
  -5  -2   6   30.30    2.70
   4   2  -6  585.64   21.20
  -4  -2   6  600.84   23.40
  -4  -2   6  591.94   20.40
   3   2  -6  196.88    7.90
   3   2  -6  201.08    7.70
  -3  -2   6  199.38    7.20
  -3  -2   6  208.48   10.20
   2   2  -6  473.85   16.90
   2   2  -6  476.05   16.80
   2   2  -6  480.65   16.40
  -2  -2   6  478.25   16.30
  -2  -2   6  489.15   19.30
  -2  -2   6  495.55   16.50
  -2  -2   6  462.35   16.40
   1   2  -6  122.29    4.80
   1   2  -6  122.89    4.70
   1   2  -6  120.99    4.40
   1   2  -6  122.69    4.50
  -1  -2   6  117.39    4.60
  -1  -2   6  124.09    4.60
  -1  -2   6  120.99    7.20
  -1  -2   6  119.09    4.30
   0   2  -6  389.06   13.40
   0   2  -6  427.96   16.20
   0   2  -6  380.56   13.20
   0   2  -6  372.96   13.40
   0   2  -6  400.26   13.00
   0  -2   6  372.66   13.20
   0  -2   6  374.66   16.20
   0  -2   6  367.36   13.40
  -1   2  -6 1153.58   38.20
  -1   2  -6 1156.88   38.10
  -1   2  -6 1159.88   38.10
  -1   2  -6 1058.79   40.40
   1  -2   6 1125.39   38.20
   1  -2   6 1118.29   41.50
  -2   2  -6 1405.06   47.70
  -2   2  -6 1393.36   47.90
  -2   2  -6 1460.35   47.70
  -2   2  -6 1472.95   47.90
   2  -2   6 1376.66   47.90
   2  -2   6 1392.66   51.89
  -3   2  -6  328.87   11.90
  -3   2  -6  333.07   12.10
   3  -2   6  353.16   16.90
   3  -2   6  332.27   12.10
  -4   2  -6 1254.47   43.80
  -4   2  -6 1254.97   44.10
   4  -2   6 1252.87   44.00
   4  -2   6 1408.76   50.69
   5  -2   6    4.70    5.00
  -6   2  -6  179.08    7.50
  -6   2  -6  202.78   14.40
  -6   2  -6  184.28    7.80
  -7   2  -6    2.10    5.00
  -7   2  -6   -0.30    1.00
  -7   2  -6   -1.70    1.00
   7  -2   6   -0.20    1.20
  -8   2  -6   30.50    2.80
   8  -2   6   25.30    2.90
   8   1  -6    2.70    1.60
   7   1  -6    4.00    1.50
  -7  -1   6    2.20    1.50
   6   1  -6    3.10    1.30
  -6  -1   6    0.90    0.90
  -6  -1   6    0.90    1.20
   5   1  -6    0.20    0.90
  -5  -1   6   -1.00    0.70
  -5  -1   6   -0.30    1.00
   4   1  -6   59.39    3.30
  -4  -1   6   55.89    2.40
  -4  -1   6   59.39    2.80
  -4  -1   6   57.59    2.30
   3   1  -6    4.70    0.70
   3   1  -6    3.80    0.90
   3   1  -6    3.70    0.80
  -3  -1   6    4.00    0.70
  -3  -1   6    5.20    0.40
  -3  -1   6    2.10    1.60
  -3  -1   6    3.80    0.60
   2   1  -6    0.00    0.40
   2   1  -6   -0.50    0.50
  -2  -1   6    0.70    0.40
  -2  -1   6   -0.60    1.50
  -2  -1   6    0.30    0.50
   1   1  -6 1090.19   34.80
   1   1  -6  994.80   34.40
   1   1  -6 1077.89   34.80
  -1  -1   6  934.71   36.70
  -1  -1   6 1045.20   34.80
   0   1  -6  446.86   15.30
   0   1  -6  454.35   15.50
   0   1  -6  447.16   15.00
   0   1  -6  436.86   15.20
   0   1  -6  496.85   18.20
   0  -1   6  400.06   17.80
   0  -1   6  447.86   15.50
  -1   1  -6  465.45   15.80
  -1   1  -6  466.25   15.70
  -1   1  -6  448.16   18.70
  -1   1  -6  477.45   16.00
   1  -1   6  442.16   19.20
   1  -1   6  455.05   15.90
  -2   1  -6  650.83   22.30
  -2   1  -6  680.83   22.30
  -2   1  -6  652.73   22.10
   2  -1   6  612.54   26.00
   2  -1   6  653.13   22.30
   2  -1   6  630.94   21.90
  -3   1  -6  134.09    5.10
  -3   1  -6  133.29    5.40
   3  -1   6  133.19    5.30
   3  -1   6  133.39    9.60
   3  -1   6  133.99    5.00
  -4   1  -6    4.40    0.90
  -4   1  -6    4.40    1.10
   4  -1   6    3.90    0.90
   4  -1   6    1.80    4.70
   4  -1   6    5.80    0.90
  -6   1  -6   46.50    9.50
  -6   1  -6   59.09    3.10
  -6   1  -6   49.00    3.40
   6  -1   6   51.09    3.40
  -8   1  -6   31.30    2.90
   7   0  -6    0.60    1.20
  -7   0   6   -0.60    1.10
  -7   0   6    0.00    1.00
   6   0  -6   35.60    2.80
  -6   0   6   37.80    2.70
  -6   0   6   38.90    2.80
   5   0  -6    1.40    0.90
  -5   0   6    0.70    0.80
  -5   0   6    1.90    1.00
   4   0  -6   30.30    2.10
   4   0  -6   34.10    1.90
  -4   0   6   31.80    2.10
  -4   0   6   30.10    1.30
   3   0  -6  144.59    5.40
  -3   0   6  135.79    5.40
   2   0  -6   -0.10    0.40
   2   0  -6    0.40    0.40
   2   0  -6    0.20    1.40
  -2   0   6    0.50    0.50
  -2   0   6    0.20    1.20
   1   0  -6  228.58   10.70
   1   0  -6  223.08    7.80
   1   0  -6  232.68    8.30
   1   0  -6  233.58    8.10
  -1   0   6  228.98    8.30
   0   0  -6   32.90    3.70
   0   0  -6   33.30    1.50
   0   0  -6   32.00    1.80
   0   0   6   35.10    1.80
  -1   0  -6  420.26   14.50
  -1   0  -6  432.16   14.10
  -1   0  -6  377.06   16.90
   1   0   6  419.46   14.40
  -2   0  -6    7.30    0.80
  -2   0  -6    4.10    2.60
  -2   0  -6    5.40    0.90
   2   0   6    1.50    3.10
   2   0   6    6.30    0.90
   2   0   6    6.40    0.90
  -3   0  -6  862.11   28.70
   3   0   6  828.12   28.90
   3   0   6  834.72   28.80
  -4   0  -6    0.70    0.80
  -4   0  -6    0.30    3.40
  -4   0  -6    1.30    0.70
   4   0   6    2.60    0.80
   4   0   6    1.40    0.80
  -5   0  -6  200.48    7.40
  -5   0  -6  193.18    7.60
   5   0   6  186.68    7.60
   5   0   6  180.48    7.70
  -6   0  -6   21.30    2.10
  -6   0  -6   13.30    1.90
   6   0   6   16.40    2.20
  -7   0  -6   21.90    2.70
   7   0   6   21.70    2.70
   8  -1  -6   42.60    3.40
  -8   1   6   34.20    3.30
  -8   1   6   41.80    3.20
   7  -1  -6   38.50    3.00
  -7   1   6   35.80    3.10
  -7   1   6   38.20    3.00
   6  -1  -6  161.78    6.90
  -6   1   6  164.38    6.80
  -6   1   6  164.78    6.80
   5  -1  -6  268.87   10.00
   5  -1  -6  268.67    9.70
  -5   1   6  252.27    9.80
  -5   1   6  252.67    9.70
   4  -1  -6  122.99    5.10
   4  -1  -6  133.99    5.10
  -4   1   6  116.99    4.30
  -4   1   6  118.39    5.00
  -4   1   6  121.79    5.10
   3  -1  -6   22.20    1.60
  -3   1   6   21.60    1.00
  -3   1   6   21.70    1.00
  -3   1   6   22.70    1.70
   2  -1  -6 1335.37   45.50
   2  -1  -6 1419.16   45.40
   2  -1  -6 1366.16   45.90
  -2   1   6 1304.87   45.90
   1  -1  -6   32.00    1.50
   1  -1  -6   33.90    4.00
   1  -1  -6   33.80    1.40
  -1   1   6   31.10    1.90
   0  -1  -6  208.48    7.70
   0  -1  -6  212.98   10.20
   0   1   6  207.78    7.70
  -1  -1  -6  577.04   20.50
  -1  -1  -6  612.04   23.60
   1   1   6  588.04   20.50
  -2  -1  -6  924.81   29.70
  -2  -1  -6  785.32   33.50
  -2  -1  -6  893.71   30.10
   2   1   6  854.01   30.10
   2   1   6  930.11   30.10
  -3  -1  -6   16.40    1.70
  -3  -1  -6   15.30    1.20
   3   1   6   16.30    1.70
   3   1   6   16.70    1.70
   3   1   6   14.20    1.50
  -4  -1  -6   89.69    3.70
  -4  -1  -6   81.29    4.10
   4   1   6   85.59    4.20
   4   1   6   85.39    4.20
  -5  -1  -6   42.60    2.50
  -5  -1  -6   41.90    9.40
  -5  -1  -6   39.00    2.80
   5   1   6   34.60    3.00
   5   1   6   37.90    2.90
  -6  -1  -6   36.90    3.00
  -6  -1  -6   21.80    7.40
   6   1   6   37.30    3.30
   8  -2  -6   22.30    2.50
  -8   2   6   18.20    2.30
  -8   2   6   17.80    2.30
   7  -2  -6   44.80    3.10
  -7   2   6   50.09    3.30
  -7   2   6   52.99    3.60
   6  -2  -6   63.89    3.50
  -6   2   6   65.79    3.60
  -6   2   6   68.99    3.80
   5  -2  -6    0.30    0.70
   5  -2  -6    0.20    0.70
  -5   2   6    0.30    0.90
  -5   2   6   -0.20    0.70
   4  -2  -6  284.67    9.80
   4  -2  -6  301.37   10.60
   4  -2  -6  265.07   10.30
  -4   2   6  279.57    9.90
  -4   2   6  285.27   10.60
  -4   2   6  287.77   10.30
   3  -2  -6  102.49    4.30
   3  -2  -6   96.19    3.70
   3  -2  -6  103.49    3.60
  -3   2   6   98.19    4.40
  -3   2   6   99.49    4.00
   2  -2  -6   10.30    1.30
   2  -2  -6    7.90    0.60
   2  -2  -6    7.60    0.70
  -2   2   6    8.00    1.00
   1  -2  -6    0.90    2.10
   1  -2  -6    1.20    0.50
   1  -2  -6    0.90    0.30
   1  -2  -6    0.00    0.50
  -1   2   6    0.50    0.50
   0  -2  -6   63.29    3.00
   0  -2  -6   70.09    5.90
   0  -2  -6   66.39    3.10
   0   2   6   71.19    3.20
   0   2   6   65.99    2.50
  -1  -2  -6  868.31   31.60
  -1  -2  -6 1020.30   35.80
   1   2   6  898.71   31.80
   1   2   6  930.71   31.60
   1   2   6  899.91   31.60
  -2  -2  -6 1064.19   35.00
  -2  -2  -6  998.90   39.90
  -2  -2  -6 1033.70   35.60
   2   2   6 1061.89   35.50
   2   2   6 1041.10   35.60
   2   2   6 1030.80   35.80
  -3  -2  -6  257.27   10.00
  -3  -2  -6  273.07    9.50
   3   2   6  265.07   10.30
   3   2   6  269.37   10.20
  -4  -2  -6  236.38    9.10
   4   2   6  241.98    9.50
   4   2   6  223.08    9.30
  -5  -2  -6   48.50    3.30
   5   2   6   50.59    3.70
   5   2   6   52.79    3.80
  -6  -2  -6   79.19    4.40
   6   2   6   81.19    5.00
  -9   3   6   16.50   10.50
  -8   3   6    1.10    1.30
  -8   3   6    2.80    1.30
   7  -3  -6    1.10    0.90
  -7   3   6    1.30    1.30
  -7   3   6    1.90    1.10
   6  -3  -6    6.60    1.30
   6  -3  -6    6.30    1.20
  -6   3   6    4.30    1.30
  -6   3   6    7.40    1.30
   5  -3  -6    1.80    0.90
   5  -3  -6    3.40    0.60
   5  -3  -6    1.00    0.70
  -5   3   6    1.50    0.90
  -5   3   6    2.00    1.10
   4  -3  -6  205.88    7.60
   4  -3  -6  212.88    7.50
   4  -3  -6  216.78    8.30
  -4   3   6  208.38    7.70
  -4   3   6  213.48    8.40
  -4   3   6  212.18    7.80
   3  -3  -6 2259.27   72.99
   3  -3  -6 2134.89   73.69
   3  -3  -6 2180.58   73.19
  -3   3   6 2120.09   73.69
  -3   3   6 2207.18   73.09
   2  -3  -6   20.60    1.90
   2  -3  -6   24.40    1.30
   2  -3  -6   22.90    1.50
  -2   3   6   23.00    1.20
  -2   3   6   23.10    1.30
  -2   3   6   22.00    2.00
   1  -3  -6   11.40    0.90
   1  -3  -6    9.10    1.10
   1  -3  -6    6.60    3.00
  -1   3   6    9.10    1.00
  -1   3   6    6.70    1.10
   0  -3  -6  254.87   12.40
   0  -3  -6  247.28    8.80
   0  -3  -6  249.48    9.30
   0  -3  -6  237.18    9.20
   0   3   6  246.38    9.20
   0   3   6  244.88    9.00
  -1  -3  -6   -3.40    3.10
  -1  -3  -6    1.00    0.80
  -1  -3  -6    0.10    0.70
   1   3   6   -0.90    0.90
   1   3   6   -0.90    0.80
   1   3   6    0.40    0.70
  -2  -3  -6    1.40    0.90
  -2  -3  -6   -1.50    3.30
   2   3   6    2.30    0.90
   2   3   6    1.10    0.90
   2   3   6    1.60    1.10
  -3  -3  -6    9.40    4.60
  -3  -3  -6   14.30    1.70
   3   3   6   11.50    1.90
   3   3   6   12.40    1.70
  -4  -3  -6   75.49    3.90
  -4  -3  -6   56.19    9.10
   4   3   6   72.39    4.20
   4   3   6   72.69    4.40
  -5  -3  -6    2.70    1.30
  -5  -3  -6   -4.80    5.00
   5   3   6    4.90    1.70
   5   3   6    3.20    1.70
  -8   4   6  236.08   10.00
  -8   4   6  219.78    9.30
  -7   4   6   15.10    1.90
  -7   4   6   17.60    2.40
   6  -4  -6   83.59    4.50
   6  -4  -6   84.19    3.50
   6  -4  -6   82.69    4.00
  -6   4   6   87.49    4.70
  -6   4   6   83.69    4.00
   5  -4  -6  121.19    4.90
   5  -4  -6  115.49    4.50
   5  -4  -6  113.39    4.60
   5  -4  -6  113.29    5.40
  -5   4   6  115.09    4.80
  -5   4   6  115.49    5.50
   4  -4  -6   76.59    3.40
   4  -4  -6   80.39    3.20
   4  -4  -6   81.19    4.10
  -4   4   6   77.69    3.40
  -4   4   6   82.69    4.20
   3  -4  -6    6.30    1.00
   3  -4  -6    6.00    1.20
   3  -4  -6    5.70    0.70
  -3   4   6    5.60    1.20
  -3   4   6    6.70    0.80
   2  -4  -6   33.50    1.80
   2  -4  -6   33.80    2.10
   2  -4  -6   32.90    2.40
  -2   4   6   30.10    2.40
  -2   4   6   33.40    1.70
   1  -4  -6   64.99    3.40
   1  -4  -6   64.79    2.90
   1  -4  -6   64.29    3.30
  -1   4   6   63.69    3.00
  -1   4   6   67.89    3.40
   0  -4  -6    0.70    0.70
   0  -4  -6   -0.70    0.80
   0  -4  -6    0.00    3.00
   0  -4  -6    0.70    0.60
   0   4   6   -0.10    1.00
   0   4   6    0.60    0.70
   0   4   6    0.90    0.70
  -1  -4  -6  198.88    8.10
  -1  -4  -6  222.78   12.40
  -1  -4  -6  198.98    7.80
  -1  -4  -6  207.78    8.50
   1   4   6  195.28    8.50
   1   4   6  215.08    8.30
   1   4   6  201.38    8.10
  -2  -4  -6    0.70    1.00
  -2  -4  -6    2.60    3.60
  -2  -4  -6    1.90    1.30
   2   4   6    1.20    1.00
   2   4   6    1.70    1.20
  -3  -4  -6    0.30    4.10
  -3  -4  -6    0.50    1.00
   3   4   6   -0.70    1.10
   3   4   6    1.10    1.30
  -4  -4  -6   65.39    4.10
  -4  -4  -6   78.39   10.00
   4   4   6   76.99    5.00
   4   4   6   73.29    4.60
  -5  -4  -6   -1.50    1.10
   5   4   6   -2.10    1.60
  -8   5   6   75.69    4.30
  -8   5   6   79.29    5.20
   7  -5  -6    4.40    0.90
   7  -5  -6    2.20    1.30
  -7   5   6    1.90    1.60
  -7   5   6    2.30    1.20
   6  -5  -6   16.60    2.20
   6  -5  -6   18.60    1.50
  -6   5   6   15.20    1.70
  -6   5   6   16.70    2.30
   5  -5  -6  133.49    6.20
   5  -5  -6  136.19    5.20
   5  -5  -6  135.59    5.70
  -5   5   6  131.39    5.40
  -5   5   6  137.89    6.40
   4  -5  -6  743.73   25.20
   4  -5  -6  729.93   24.80
   4  -5  -6  705.43   25.70
  -4   5   6  708.63   25.70
  -4   5   6  727.23   24.70
   3  -5  -6    6.50    0.90
   3  -5  -6    3.90    1.00
   3  -5  -6    6.20    1.10
  -3   5   6    5.60    1.40
   2  -5  -6  145.09    6.30
   2  -5  -6  142.89    5.50
   2  -5  -6  143.69    6.00
  -2   5   6  135.19    6.20
  -2   5   6  141.89    5.40
   1  -5  -6  313.57   11.90
   1  -5  -6  315.17   11.90
   1  -5  -6  314.57   11.30
  -1   5   6  310.37   11.90
  -1   5   6  317.87   11.40
   0  -5  -6  102.29    4.80
   0  -5  -6   81.49    8.20
   0  -5  -6  107.09    4.40
   0  -5  -6  103.29    5.00
   0   5   6  105.99    5.30
   0   5   6  100.79    4.60
  -1  -5  -6   29.40    2.70
  -1  -5  -6   32.50    2.30
  -1  -5  -6   31.50    3.10
  -1  -5  -6   29.30    6.70
   1   5   6   32.30    2.50
   1   5   6   30.50    3.10
  -2  -5  -6    0.50    3.70
  -2  -5  -6    0.30    1.10
  -2  -5  -6    1.50    1.00
   2   5   6    2.00    1.40
   2   5   6    2.00    1.30
  -3  -5  -6    5.60    1.50
  -3  -5  -6   10.70    5.20
  -3  -5  -6    5.40    1.40
   3   5   6   11.20    2.40
   3   5   6    6.50    1.80
  -4  -5  -6    3.00    4.40
  -4  -5  -6    1.70    1.30
   4   5   6    0.40    1.80
  -8   6   6   11.00    2.60
  -8   6   6   12.20    1.70
   7  -6  -6   17.50    1.60
   7  -6  -6   13.00    2.00
  -7   6   6   16.40    2.50
  -7   6   6   19.10    2.00
   6  -6  -6   76.59    4.70
   6  -6  -6   76.49    3.50
  -6   6   6   72.99    4.90
   5  -6  -6   58.69    3.90
   5  -6  -6   61.69    2.90
  -5   6   6   62.49    4.20
   4  -6  -6   21.70    1.90
   4  -6  -6   16.40    2.10
   4  -6  -6   20.60    1.60
  -4   6   6   17.90    2.10
   3  -6  -6    1.30    0.70
   3  -6  -6    0.80    1.00
   3  -6  -6    0.70    0.80
  -3   6   6   -0.40    1.00
   2  -6  -6    2.60    1.10
   2  -6  -6    6.30    1.30
   2  -6  -6    3.30    0.90
  -2   6   6    5.30    1.30
   1  -6  -6    4.10    1.00
   1  -6  -6   -3.40    4.40
   1  -6  -6    5.10    1.40
   1  -6  -6    3.40    1.20
  -1   6   6    3.60    1.60
  -1   6   6    4.30    1.10
   0  -6  -6   15.70    2.10
   0  -6  -6   18.80    1.90
   0   6   6   18.90    2.10
   0   6   6   16.60    2.50
  -1  -6  -6    3.10    1.40
  -1  -6  -6    5.60    1.30
   1   6   6    7.90    1.60
   1   6   6    7.80    2.00
  -2  -6  -6    2.70    1.40
  -2  -6  -6    2.80    1.20
   2   6   6    4.80    1.80
   2   6   6    2.60    1.40
  -3  -6  -6   12.40    2.00
   3   6   6   17.70    3.50
   3   6   6   13.00    2.80
   7  -7  -6    2.80    0.90
   7  -7  -6    2.00    1.30
  -7   7   6    0.40    1.80
   6  -7  -6   65.09    4.50
   6  -7  -6   58.59    3.10
  -6   7   6   64.59    4.70
   5  -7  -6   90.09    4.00
   5  -7  -6   92.09    5.30
  -5   7   6   86.39    5.30
   4  -7  -6   26.30    2.00
   4  -7  -6   25.00    2.90
   4  -7  -6   23.70    2.20
  -4   7   6   25.20    3.10
   3  -7  -6   33.40    2.20
   3  -7  -6   31.80    3.10
   3  -7  -6   32.90    2.60
  -3   7   6   29.90    3.00
   2  -7  -6    6.70    1.20
   2  -7  -6    5.30    1.50
   1  -7  -6   13.80    1.70
   1  -7  -6   13.80    2.10
  -1   7   6   16.20    2.70
   0  -7  -6   20.40    2.50
   0  -7  -6   24.10    2.30
   0   7   6   27.40    3.70
   0   7   6   24.40    2.50
  -1  -7  -6   11.30    2.10
  -1  -7  -6   10.10    1.70
   1   7   6   11.20    1.90
   1   7   6   17.30    3.00
   7  -8  -6    8.00    2.80
   6  -8  -6    1.40    0.90
   6  -8  -6    1.30    1.50
  -6   8   6    1.60    1.60
   5  -8  -6   11.80    2.40
   5  -8  -6   12.50    1.50
  -5   8   6   11.20    2.20
   4  -8  -6    5.30    2.00
   4  -8  -6    6.40    1.20
   3  -8  -6  166.88    8.00
   3  -8  -6  167.58    6.90
   2  -8  -6   97.59    4.80
   2  -8  -6   97.99    5.80
  -2   8   6  111.59    6.50
   1  -8  -6   89.49    4.60
   1  -8  -6   87.09    5.50
  -1   8   6   95.49    6.20
   5  -9  -6   16.00    2.70
   4  -9  -6    4.30    1.80
   4  -9  -6   -4.90    6.50
   3  -9  -6   -2.30    5.40
   0  10  -7    0.80    1.30
  -1  10  -7   -2.00    1.00
   1 -10   7    0.20    0.90
  -2  10  -7    0.40    1.20
   2 -10   7    3.40    8.30
   2 -10   7    2.60    1.20
   2 -10   7    1.60    0.90
  -3  10  -7    9.20    1.90
   3 -10   7   17.10    8.00
   3 -10   7    8.80    1.80
   3 -10   7   10.10    1.50
  -4  10  -7   26.90    3.00
   4 -10   7   32.70    3.40
   4 -10   7   26.40    2.30
  -5  10  -7    0.80    1.30
   5 -10   7   -0.30    0.90
   5 -10   7    0.30    1.60
   2   9  -7    1.00    1.70
   2   9  -7   -1.00    2.70
   1   9  -7   30.20    3.80
   1   9  -7   27.90    3.00
   0   9  -7    2.90    1.40
   0   9  -7    5.10    1.80
   0  -9   7    3.00    1.10
  -1   9  -7   14.00    2.00
   1  -9   7   14.40    1.60
   1  -9   7   18.20    2.20
  -2   9  -7    3.40    1.30
   2  -9   7    0.40    5.90
   2  -9   7    4.10    1.10
   2  -9   7    1.90    1.20
  -3   9  -7   55.89    3.80
   3  -9   7   57.29    3.80
   3  -9   7   55.69    3.10
  -4   9  -7   96.79    5.30
   4  -9   7  101.99    4.70
   4  -9   7  112.79    5.50
  -6   9  -7   10.20    1.70
  -6   9  -7    6.20    1.80
   6  -9   7   10.60    2.20
   6  -9   7   16.00    7.30
   6  -9   7   11.70    1.60
  -7   9  -7   18.40    2.30
  -7   9  -7   25.90    4.20
  -7   9  -7   16.20    2.40
   3   8  -7    0.50    1.20
  -3  -8   7   -3.00    8.50
   2   8  -7   52.09    3.70
   2   8  -7   66.79    4.80
   1   8  -7   31.60    3.40
   1   8  -7   30.10    2.90
  -1  -8   7   29.30    2.20
   0   8  -7    1.90    1.20
   0   8  -7    2.80    1.50
   0   8  -7    3.10    1.30
   0  -8   7    8.60    7.80
   0  -8   7    3.80    0.90
   0  -8   7    2.70    0.90
  -1   8  -7   42.00    3.00
  -1   8  -7   39.70    3.00
   1  -8   7   38.30    2.70
   1  -8   7   39.10    2.40
   1  -8   7   41.70    3.10
  -2   8  -7   11.80    1.70
   2  -8   7   14.50    1.40
   2  -8   7    5.60    5.90
   2  -8   7   12.30    1.70
   2  -8   7   14.30    1.80
  -3   8  -7   -0.60    1.00
   3  -8   7    1.30    5.70
   3  -8   7    0.40    0.70
   3  -8   7    0.20    1.40
   3  -8   7   -0.10    1.00
  -4   8  -7   25.50    2.60
   4  -8   7   24.70    2.00
   4  -8   7   27.60    2.90
  -5   8  -7    1.90    1.20
  -5   8  -7    0.60    1.20
  -5   8  -7    1.20    0.90
   5  -8   7    0.50    0.80
   5  -8   7    7.90    6.50
   5  -8   7    2.00    1.20
  -6   8  -7  152.48    6.90
  -6   8  -7  153.58    7.20
   6  -8   7  154.78    6.60
   6  -8   7  181.18    7.70
  -7   8  -7   14.80    2.10
  -7   8  -7   13.40    2.40
   7  -8   7   13.80    1.70
   7  -8   7   15.30    2.50
   3   7  -7    0.20    1.40
  -3  -7   7   13.80    7.80
   2   7  -7   12.50    2.20
   2   7  -7   15.80    2.20
   2   7  -7   12.10    1.90
  -2  -7   7    7.90    6.40
   1   7  -7    0.80    1.10
   1   7  -7   -1.30    0.90
   1   7  -7   -0.30    1.30
  -1  -7   7   -2.20    5.90
  -1  -7   7    0.90    1.00
  -1  -7   7    0.30    0.70
   0   7  -7   -0.20    0.80
   0   7  -7   -0.40    1.10
   0   7  -7    0.50    0.90
   0  -7   7   -0.60    0.80
   0  -7   7   -0.30    0.70
   0  -7   7   -3.00    5.60
   0  -7   7    0.70    0.70
  -1   7  -7    3.00    1.10
  -1   7  -7    2.20    0.90
  -1   7  -7    1.80    0.90
   1  -7   7    2.30    1.00
   1  -7   7    1.60    5.30
   1  -7   7    1.90    0.90
   1  -7   7    1.60    0.70
  -2   7  -7  194.78    7.40
  -2   7  -7  185.88    7.90
   2  -7   7  195.38    7.90
   2  -7   7  199.78    7.70
   2  -7   7  194.98    7.30
  -3   7  -7  308.07   11.60
  -3   7  -7  300.97   11.80
   3  -7   7  315.47   11.20
   3  -7   7  310.97   11.90
   3  -7   7  322.67   11.80
  -4   7  -7   36.80    2.50
  -4   7  -7   32.60    2.70
  -4   7  -7   38.60    2.80
   4  -7   7   34.60    2.70
   4  -7   7   33.80    2.20
   4  -7   7   38.40    3.00
  -5   7  -7   -0.50    0.90
  -5   7  -7   -1.80    0.90
  -5   7  -7   -0.80    0.70
   5  -7   7    0.10    0.70
   5  -7   7    4.70    4.90
   5  -7   7    0.10    1.10
  -6   7  -7   32.60    3.20
  -6   7  -7   31.20    2.60
   6  -7   7   35.80    3.30
   6  -7   7   33.40    2.40
  -7   7  -7    9.70    1.80
  -7   7  -7    9.30    2.00
   7  -7   7   -0.10    7.30
   7  -7   7   11.50    2.20
   8  -7   7    4.60    1.60
  -5  -6   7   14.50    2.70
   4   6  -7    1.70    1.50
  -4  -6   7    2.30    1.40
   3   6  -7    0.20    1.00
   3   6  -7    0.90    1.30
  -3  -6   7    0.90    5.10
   2   6  -7   52.59    3.40
   2   6  -7   47.50    3.20
  -2  -6   7   47.40    3.00
  -2  -6   7   48.20    2.40
   1   6  -7   31.70    2.80
   1   6  -7   34.00    2.60
   1   6  -7   33.50    2.50
  -1  -6   7   31.90    1.80
  -1  -6   7   32.60    2.30
   0   6  -7   14.30    1.80
   0   6  -7   10.70    1.40
   0   6  -7   14.20    1.60
   0  -6   7   14.90    1.20
   0  -6   7   11.30    1.20
   0  -6   7   11.70    1.60
  -1   6  -7    5.30    1.10
  -1   6  -7    8.20    1.20
  -1   6  -7    7.00    1.10
   1  -6   7    0.80    4.40
   1  -6   7    9.00    0.90
   1  -6   7    7.10    1.20
   1  -6   7    7.20    1.10
  -2   6  -7    4.10    0.90
  -2   6  -7    5.10    0.80
  -2   6  -7    3.50    1.00
  -2   6  -7    5.00    1.00
   2  -6   7    4.40    1.00
   2  -6   7    1.00    3.70
   2  -6   7    5.70    1.20
   2  -6   7    5.70    0.80
  -4   6  -7    4.00    1.20
  -4   6  -7    4.60    1.20
  -4   6  -7    5.20    1.00
   4  -6   7    2.50    1.10
   4  -6   7    3.10    0.80
   4  -6   7    0.00    4.40
   4  -6   7    2.40    1.10
  -5   6  -7   24.70    2.60
  -5   6  -7   24.80    2.20
   5  -6   7   24.90    2.70
   5  -6   7   26.20    2.40
   5  -6   7   26.90    1.90
  -6   6  -7    7.90    1.40
  -6   6  -7    7.70    4.30
  -6   6  -7    7.30    1.50
   6  -6   7    6.10    6.10
   6  -6   7    9.40    1.70
  -7   6  -7   74.79    4.30
  -7   6  -7   76.69    4.80
   7  -6   7   78.09    4.70
  -8   6  -7    4.20    1.80
  -8   6  -7    5.30    1.80
  -6  -5   7   -1.20    9.70
   5   5  -7    3.10    1.70
  -5  -5   7    3.40    1.50
  -5  -5   7   -4.20    5.00
   4   5  -7    3.20    1.30
   4   5  -7    3.70    1.50
   3   5  -7    2.40    1.10
   3   5  -7    3.30    1.30
  -3  -5   7    2.20    4.20
   2   5  -7   17.80    2.20
   2   5  -7   18.20    2.00
  -2  -5   7   18.60    1.30
  -2  -5   7   19.50    1.80
   1   5  -7    5.90    1.20
   1   5  -7    5.30    1.00
  -1  -5   7    7.50    0.80
  -1  -5   7    0.80    4.30
  -1  -5   7    6.50    1.10
   0   5  -7   28.50    2.10
   0   5  -7   27.70    2.00
   0   5  -7   30.90    1.70
   0   5  -7   30.80    2.10
   0  -5   7   31.40    1.50
   0  -5   7   27.90    1.90
   0  -5   7   30.40    2.00
  -1   5  -7  423.76   14.40
  -1   5  -7  408.76   14.30
   1  -5   7  412.56   14.60
   1  -5   7  393.76   14.40
   1  -5   7  402.66   14.10
  -2   5  -7  423.56   14.20
  -2   5  -7  385.26   14.50
  -2   5  -7  411.06   14.40
   2  -5   7  389.46   14.40
   2  -5   7  416.66   14.10
   2  -5   7  409.86   14.60
  -3   5  -7  159.68    5.70
  -3   5  -7  151.58    6.30
  -3   5  -7  151.08    6.20
   3  -5   7  155.48    6.30
   3  -5   7  153.78    6.30
   3  -5   7  159.28    5.80
  -4   5  -7  163.68    6.80
  -4   5  -7  170.78    6.60
   4  -5   7  168.88    6.30
   4  -5   7  166.98    6.90
   4  -5   7  158.98    6.80
  -5   5  -7  163.38    7.10
  -5   5  -7  166.08    6.80
   5  -5   7  175.78   14.30
   5  -5   7  168.28    7.10
  -6   5  -7  132.09    5.90
  -6   5  -7  135.59    6.30
   6  -5   7  137.79    6.30
   6  -5   7  132.39   14.40
  -7   5  -7   37.20    3.50
  -7   5  -7   34.20    8.20
  -7   5  -7   37.90    3.00
   7  -5   7   40.20    3.30
   7  -5   7   37.20    9.10
  -8   5  -7   10.60    2.20
  -8   5  -7   13.10    2.10
   6   4  -7    1.20    1.70
  -6  -4   7    0.30    6.00
  -6  -4   7    0.80    1.40
   5   4  -7    7.00    1.90
  -5  -4   7    8.00    1.80
   4   4  -7   82.89    4.50
   4   4  -7   90.69    4.80
   3   4  -7   97.69    4.70
   3   4  -7   91.99    4.50
  -3  -4   7   93.49    4.10
  -3  -4   7   91.79    8.60
  -3  -4   7   93.19    3.60
   2   4  -7   23.80    2.00
   2   4  -7   25.40    2.00
  -2  -4   7   22.40    1.30
  -2  -4   7   24.10    1.70
   1   4  -7   13.60    1.60
   1   4  -7   14.30    1.20
   1   4  -7   15.00    1.60
  -1  -4   7   11.40    1.30
  -1  -4   7   10.70    4.20
  -1  -4   7   16.00    0.90
  -1  -4   7   16.00    1.30
   0   4  -7   21.50    1.40
   0   4  -7   18.70    1.40
   0   4  -7   18.40    1.60
   0   4  -7   17.50    1.60
   0  -4   7   19.10    1.40
   0  -4   7   20.10    1.00
   0  -4   7   15.70    1.50
   0  -4   7   19.10    4.70
  -1   4  -7    5.30    3.80
  -1   4  -7    0.40    0.60
  -1   4  -7    1.30    0.60
  -1   4  -7    0.20    0.60
  -1   4  -7    0.10    0.60
   1  -4   7    0.00    0.50
   1  -4   7   -0.80    0.60
   1  -4   7    0.40    2.90
   1  -4   7    0.20    0.40
  -2   4  -7   -0.10    0.70
  -2   4  -7    1.90    0.90
  -2   4  -7   -1.20    3.00
  -2   4  -7    2.30    0.70
   2  -4   7    1.50    2.90
   2  -4   7    1.00    0.90
   2  -4   7    2.10    0.80
   2  -4   7    1.80    0.50
  -3   4  -7  255.77    9.90
  -3   4  -7  290.47   13.40
  -3   4  -7  257.27    9.70
  -3   4  -7  268.87    9.80
   3  -4   7  252.17    9.80
   3  -4   7  276.37   15.20
   3  -4   7  265.37    9.40
   3  -4   7  250.77    9.80
  -4   4  -7  517.35   18.90
  -4   4  -7  494.95   18.50
   4  -4   7  511.35   18.80
   4  -4   7  594.34   26.10
  -5   4  -7  274.87   10.70
  -5   4  -7  295.87   11.10
   5  -4   7  289.27   10.90
  -6   4  -7  226.48    9.30
  -6   4  -7  236.38    9.70
   6  -4   7  258.07   17.80
   6  -4   7  233.98    9.60
  -7   4  -7   44.70    3.60
  -7   4  -7   48.60    3.30
   7  -4   7   45.50   10.60
  -8   4  -7   30.40    3.00
  -8   4  -7   42.10    5.20
   6   3  -7   -0.50    1.30
  -6  -3   7    0.60    1.40
   5   3  -7   51.39    3.70
  -5  -3   7   47.40    3.40
   4   3  -7   31.00    2.70
   3   3  -7   19.90    2.20
   3   3  -7   20.50    1.90
  -3  -3   7   18.00    1.10
  -3  -3   7   17.00    1.40
  -3  -3   7   20.70    5.10
   2   3  -7   24.00    1.90
   2   3  -7   24.60    2.00
  -2  -3   7   26.40    1.40
  -2  -3   7   24.70    1.60
  -2  -3   7   27.70    4.90
   1   3  -7  394.86   13.70
   1   3  -7  385.76   14.10
   1   3  -7  395.56   14.10
   1   3  -7  405.06   13.70
  -1  -3   7  392.66   13.80
  -1  -3   7  402.46   13.80
  -1  -3   7  393.96   13.70
  -1  -3   7  398.76   17.70
   0   3  -7   16.80    1.40
   0   3  -7   15.60    1.30
   0   3  -7   16.60    1.10
   0   3  -7   17.30    0.80
   0  -3   7   17.50    4.10
   0  -3   7   16.40    1.10
   0  -3   7   14.80    1.40
   0  -3   7   15.90    0.80
  -1   3  -7   46.40    2.30
  -1   3  -7   48.70    2.40
  -1   3  -7   47.80    2.40
  -1   3  -7   54.69    6.10
   1  -3   7   46.70    1.90
   1  -3   7   47.00    2.20
   1  -3   7   47.80    1.90
   1  -3   7   46.40    2.40
   1  -3   7   47.20    5.70
  -2   3  -7  386.56   13.60
  -2   3  -7  378.06   13.50
  -2   3  -7  377.76   13.60
  -2   3  -7  374.56   13.50
   2  -3   7  400.66   18.30
   2  -3   7  375.46   13.60
  -3   3  -7  289.17   10.80
  -3   3  -7  294.37   11.10
  -3   3  -7  310.67   14.90
   3  -3   7  297.17   11.10
   3  -3   7  316.67   16.30
  -4   3  -7  225.08    8.90
  -4   3  -7  230.48    9.20
   4  -3   7  233.08    9.10
   4  -3   7  271.47   16.40
  -5   3  -7  100.39    4.80
  -5   3  -7   95.19    4.40
   5  -3   7  104.89   11.60
   5  -3   7   92.79    4.60
  -6   3  -7  210.88    8.70
  -6   3  -7  217.58    9.10
   6  -3   7  255.37   17.60
   6  -3   7  208.98    8.90
  -8   3  -7  161.48    7.00
   8  -3   7  134.29    6.90
   7   2  -7   -0.20    1.30
  -7  -2   7   -1.40    1.30
   6   2  -7   69.49    4.30
  -6  -2   7   62.59    4.00
   5   2  -7   -0.50    1.10
  -5  -2   7    0.40    1.10
   4   2  -7  191.98    8.50
  -4  -2   7  228.98   13.10
   3   2  -7  272.47   10.10
   3   2  -7  276.57   10.30
  -3  -2   7  264.77    9.30
  -3  -2   7  271.47   12.40
  -3  -2   7  271.37    9.70
   2   2  -7  161.68    6.50
   2   2  -7  171.98    6.10
  -2  -2   7  167.28    6.10
  -2  -2   7  160.78    8.80
  -2  -2   7  161.68    6.10
  -2  -2   7  160.08    5.70
   1   2  -7  235.68    8.50
   1   2  -7  241.88    8.70
   1   2  -7  238.88    8.70
   1   2  -7  236.98    8.20
  -1  -2   7  231.88    8.10
  -1  -2   7  237.78    8.50
  -1  -2   7  234.48   11.40
   0   2  -7  200.68    7.10
   0   2  -7  195.68    7.10
   0   2  -7  194.48    6.90
   0   2  -7  208.38   10.30
   0  -2   7  184.48    7.10
   0  -2   7  178.78    9.90
  -1   2  -7  107.49    4.20
  -1   2  -7  110.39    4.10
  -1   2  -7   96.19    7.10
   1  -2   7  104.79    4.30
   1  -2   7  104.49    7.50
  -2   2  -7   34.40    2.10
  -2   2  -7   32.50    1.90
  -2   2  -7   32.50    1.90
  -2   2  -7   33.20    1.90
   2  -2   7   34.40    2.10
   2  -2   7   35.70    6.00
  -3   2  -7  299.27   10.90
  -3   2  -7  287.27   10.50
   3  -2   7  305.37   16.10
   3  -2   7  283.97   10.80
  -4   2  -7   37.70    2.40
  -4   2  -7   31.50    2.10
   4  -2   7   26.30    7.30
   4  -2   7   31.20    2.30
  -5   2  -7   54.39    3.30
  -5   2  -7   53.29    2.90
   5  -2   7   54.39    3.20
   5  -2   7   52.29    9.70
  -6   2  -7  175.58    7.50
  -6   2  -7  167.78    7.00
   7   1  -7    4.10    1.60
  -7  -1   7    4.30    1.60
   6   1  -7   34.40    3.00
  -6  -1   7   26.70    2.80
  -6  -1   7   32.80    2.50
   5   1  -7   11.00    1.70
  -5  -1   7   10.30    1.70
  -5  -1   7   12.50    1.40
   4   1  -7    5.10    1.20
  -4  -1   7    6.80    1.00
   3   1  -7  228.08    8.80
   3   1  -7  248.58    8.40
   3   1  -7  241.98    8.70
  -3  -1   7  200.28    9.70
  -3  -1   7  236.48    8.50
   2   1  -7  678.23   23.20
   2   1  -7  693.13   23.00
   2   1  -7  714.73   22.90
  -2  -1   7  571.74   24.60
  -2  -1   7  685.63   23.00
   1   1  -7   71.99    3.00
   1   1  -7   72.49    3.00
   1   1  -7   69.79    2.50
  -1  -1   7   70.59    3.10
  -1  -1   7   58.09    5.10
   0   1  -7  288.97    9.50
   0   1  -7  289.67   10.10
   0   1  -7  283.77    9.90
   0   1  -7  295.47   13.10
   0   1  -7  283.77    9.80
   0  -1   7  248.38   12.90
   0  -1   7  274.97   10.10
  -1   1  -7  743.83   29.70
  -1   1  -7  819.62   26.50
  -1   1  -7  783.92   26.70
  -1   1  -7  837.02   26.40
   1  -1   7  792.42   26.70
   1  -1   7  690.13   30.10
  -2   1  -7   69.79    2.80
  -2   1  -7   65.49    3.20
  -2   1  -7   67.99    3.10
  -2   1  -7   68.99    2.90
   2  -1   7   69.99    3.20
   2  -1   7   60.09    6.60
   2  -1   7   65.69    2.70
  -3   1  -7  385.16   12.90
  -3   1  -7  380.66   13.20
   3  -1   7  367.46   12.70
   3  -1   7  316.37   18.00
   3  -1   7  379.56   13.20
  -4   1  -7   84.79    4.00
  -4   1  -7   62.39    8.10
  -4   1  -7   88.89    3.60
   4  -1   7   85.99    3.90
   4  -1   7   86.49    3.50
   4  -1   7   66.09    8.80
  -5   1  -7   97.19    4.30
  -5   1  -7   91.39    4.60
   5  -1   7   93.59    4.40
  -6   1  -7   43.00    2.90
  -6   1  -7   42.30    3.30
   6  -1   7   40.20    3.20
  -7   1  -7  106.99    5.00
  -7   1  -7  100.99    5.30
   7  -1   7   94.69    5.40
   8   0  -7   27.90    3.10
   7   0  -7    0.80    1.10
  -7   0   7    1.50    1.20
  -7   0   7    1.30    1.30
   6   0  -7   79.29    4.30
  -6   0   7   71.29    4.10
  -6   0   7   80.49    4.00
   5   0  -7    4.90    1.20
  -5   0   7    5.60    1.10
  -5   0   7    5.40    1.30
   4   0  -7  356.26   13.40
   4   0  -7  385.16   13.20
  -4   0   7  359.36   13.20
   3   0  -7   15.30    1.50
   3   0  -7   18.70    1.50
  -3   0   7   17.30    1.60
   2   0  -7  898.31   29.90
   2   0  -7  896.91   30.00
  -2   0   7  842.72   30.00
   1   0  -7    1.30    0.30
   1   0  -7    1.70    0.50
   1   0  -7    0.60    2.20
  -1   0   7    0.50    0.60
  -1   0   7   -0.60    2.50
   0   0  -7  160.28    8.70
   0   0  -7  144.99    5.30
   0   0  -7  146.79    5.70
   0   0   7  141.89    5.70
  -1   0  -7  490.25   20.80
  -1   0  -7  493.55   17.70
  -1   0  -7  530.35   17.20
   1   0   7  505.45   17.60
  -2   0  -7  884.71   29.70
  -2   0  -7  870.81   30.00
  -2   0  -7  912.01   29.50
   2   0   7  818.42   29.70
   2   0   7  883.31   30.00
  -3   0  -7    7.70    1.10
  -4   0  -7   12.10    1.60
  -4   0  -7   12.60    1.40
   4   0   7    8.50    1.30
   4   0   7   12.60    1.60
  -5   0  -7  136.39    6.10
  -5   0  -7  148.19    5.80
   5   0   7  132.89    6.20
  -6   0  -7   34.70    2.60
  -6   0  -7   28.90    2.90
   6   0   7   26.40    3.10
   7   0   7   17.10    2.80
   8  -1  -7    0.20    1.20
  -8   1   7    1.00    1.40
  -8   1   7    1.50    1.20
   7  -1  -7    0.90    1.10
  -7   1   7    0.30    1.20
  -7   1   7   -0.30    1.10
   6  -1  -7    2.10    1.10
  -6   1   7    2.40    1.10
  -6   1   7    0.10    1.00
   5  -1  -7   -0.50    0.70
  -5   1   7    0.50    0.90
  -5   1   7    1.60    0.90
   4  -1  -7  167.88    6.90
   4  -1  -7  184.18    6.90
  -4   1   7  174.48    7.00
  -4   1   7  173.28    6.80
   3  -1  -7  979.80   34.20
  -3   1   7 1115.39   33.90
  -3   1   7  905.01   34.20
   2  -1  -7   13.20    0.70
   2  -1  -7   13.90    1.40
  -2   1   7   12.20    1.40
   1  -1  -7  111.09    7.40
   1  -1  -7  105.59    4.20
   1  -1  -7  113.09    4.60
   1  -1  -7  114.99    4.00
  -1   1   7  106.69    4.60
   0  -1  -7   77.79    3.50
   0  -1  -7   80.19    6.20
   0   1   7   77.49    3.50
  -1  -1  -7   21.80    1.80
  -1  -1  -7   20.50    4.70
   1   1   7   24.10    1.80
  -2  -1  -7    7.00    0.80
  -2  -1  -7    3.80    1.00
  -2  -1  -7    4.70    3.20
   2   1   7    7.60    1.10
   2   1   7    6.20    1.10
  -3  -1  -7  119.09    4.50
  -3  -1  -7  108.89    5.00
   3   1   7  110.89    4.90
   3   1   7  112.39    4.90
  -4  -1  -7    3.90    4.40
  -4  -1  -7    4.00    0.90
  -4  -1  -7    3.80    1.10
   4   1   7    1.90    1.20
   4   1   7    3.60    1.20
  -5  -1  -7  129.79    5.90
   5   1   7  129.39    6.20
  -6  -1  -7   54.49    3.70
   6   1   7   52.39    4.00
   8  -2  -7   52.19    3.70
  -8   2   7   53.39    3.80
  -8   2   7   55.09    4.10
   7  -2  -7    8.20    1.60
  -7   2   7    6.50    1.60
  -7   2   7    8.10    1.70
   6  -2  -7   61.69    3.50
  -6   2   7   59.79    3.70
  -6   2   7   56.19    3.40
   5  -2  -7   82.89    4.10
   5  -2  -7   88.59    4.20
  -5   2   7   93.09    4.40
  -5   2   7   81.99    4.00
   4  -2  -7  269.37    9.60
   4  -2  -7  287.07   10.50
  -4   2   7  275.47   10.50
  -4   2   7  281.67   10.20
   3  -2  -7  819.92   28.00
   3  -2  -7  828.92   28.80
   3  -2  -7  851.91   28.00
  -3   2   7  826.62   28.80
   2  -2  -7  224.68    8.30
   2  -2  -7  244.18    8.10
   2  -2  -7  230.68    8.80
  -2   2   7  231.28    8.80
   1  -2  -7  795.92   25.70
   1  -2  -7  749.13   26.00
   1  -2  -7  759.02   29.50
   1  -2  -7  740.43   26.20
  -1   2   7  746.33   26.20
   0  -2  -7    7.20    3.00
   0  -2  -7   12.30    1.50
   0  -2  -7   13.20    1.30
   0   2   7   13.20    1.60
  -1  -2  -7 1689.23   58.09
  -1  -2  -7 1834.42   62.39
   1   2   7 1715.53   58.09
   1   2   7 1688.03   57.89
   1   2   7 1645.54   58.19
  -2  -2  -7  252.97    9.40
  -2  -2  -7  234.48   13.60
   2   2   7  249.18    9.30
   2   2   7  239.48    9.40
   2   2   7  244.88    9.30
  -3  -2  -7   18.90    2.10
   3   2   7   15.10    2.00
   3   2   7   14.70    1.90
  -4  -2  -7   34.20    9.00
  -4  -2  -7   54.39    3.40
   4   2   7   49.10    3.40
   4   2   7   56.79    3.60
  -5  -2  -7   -0.30    1.00
  -5  -2  -7    5.30    5.80
   5   2   7    1.30    1.30
  -6  -2  -7    2.50    2.30
  -8   3   7  155.08    7.30
  -8   3   7  142.99    6.80
   7  -3  -7    5.90    1.40
  -7   3   7    4.00    1.50
  -7   3   7    7.80    1.60
   6  -3  -7    3.20    1.40
   6  -3  -7    3.90    1.10
  -6   3   7    2.70    1.30
  -6   3   7    3.60    1.10
   5  -3  -7   57.29    3.40
   5  -3  -7   58.79    2.50
   5  -3  -7   60.09    3.10
  -5   3   7   54.59    3.60
  -5   3   7   58.39    3.10
   4  -3  -7   93.09    3.70
   4  -3  -7   97.79    3.70
   4  -3  -7   96.29    4.60
  -4   3   7   97.19    4.70
  -4   3   7   93.79    4.00
   3  -3  -7   34.90    1.80
   3  -3  -7   37.70    1.70
   3  -3  -7   37.50    2.60
  -3   3   7   36.40    2.60
  -3   3   7   37.80    2.00
   2  -3  -7  121.09    4.80
   2  -3  -7  121.49    4.60
   2  -3  -7  121.89    5.30
  -2   3   7  123.39    4.60
  -2   3   7  123.59    5.30
  -2   3   7  120.29    4.50
   1  -3  -7 1054.59   35.10
   1  -3  -7 1021.40   35.50
   1  -3  -7 1017.10   35.70
  -1   3   7 1044.50   35.70
  -1   3   7 1051.29   35.20
   0  -3  -7   79.89    3.90
   0  -3  -7   80.39    3.40
   0  -3  -7   82.59    7.50
   0  -3  -7   78.49    3.90
   0   3   7   78.09    3.90
   0   3   7   80.89    3.60
  -1  -3  -7  386.76   14.30
  -1  -3  -7  422.06   18.80
   1   3   7  378.76   14.20
   1   3   7  379.76   14.50
   1   3   7  395.56   14.20
  -2  -3  -7    0.40    0.90
  -2  -3  -7   -2.40    3.60
   2   3   7    0.90    1.10
   2   3   7    1.40    1.00
  -3  -3  -7   -0.70    4.00
  -3  -3  -7    1.70    1.10
   3   3   7    3.10    1.20
   3   3   7    1.00    1.20
  -4  -3  -7   -0.40    4.40
  -4  -3  -7   -0.90    1.00
   4   3   7    0.70    1.20
   4   3   7    0.00    1.30
  -5  -3  -7    2.70    1.40
   5   3   7    2.80    1.70
  -8   4   7    1.30    1.30
  -8   4   7    0.40    1.40
  -7   4   7   21.10    2.40
  -7   4   7   23.40    2.70
   6  -4  -7    5.00    1.40
   6  -4  -7    5.40    1.20
  -6   4   7    6.10    1.60
  -6   4   7    5.60    1.20
   5  -4  -7  104.89    5.10
   5  -4  -7   97.89    4.00
   5  -4  -7  101.69    4.50
  -5   4   7  105.99    5.30
  -5   4   7   94.99    4.40
   4  -4  -7  152.18    5.60
   4  -4  -7  146.79    5.80
   4  -4  -7  151.78    6.60
  -4   4   7  147.49    5.80
  -4   4   7  160.78    6.80
   3  -4  -7  434.96   16.10
   3  -4  -7  436.36   15.50
   3  -4  -7  450.35   15.20
  -3   4   7  427.86   16.10
  -3   4   7  442.76   15.10
   2  -4  -7    9.80    1.40
   2  -4  -7   13.50    1.50
   2  -4  -7   12.90    1.20
  -2   4   7   11.30    1.50
  -2   4   7   12.80    1.20
   1  -4  -7  586.14   20.60
   1  -4  -7  594.64   20.00
   1  -4  -7  573.44   20.50
  -1   4   7  558.34   20.60
  -1   4   7  577.24   20.10
   0  -4  -7   77.09    7.40
   0  -4  -7   79.09    4.10
   0  -4  -7   84.89    3.60
   0  -4  -7   81.99    4.10
   0   4   7   73.79    4.00
   0   4   7   80.19    3.80
   0   4   7   77.19    4.30
  -1  -4  -7   22.00    1.80
  -1  -4  -7   18.80    2.20
  -1  -4  -7   21.80    5.30
  -1  -4  -7   14.60    1.80
   1   4   7   18.70    2.00
   1   4   7   20.60    2.50
  -2  -4  -7   52.59    7.30
  -2  -4  -7   50.39    3.40
   2   4   7   47.00    3.30
   2   4   7   48.50    3.50
  -3  -4  -7   59.29    3.90
  -3  -4  -7   72.29    9.60
   3   4   7   61.59    4.30
   3   4   7   58.99    4.00
  -4  -4  -7    9.40    1.70
  -4  -4  -7    5.30    5.10
   4   4   7   13.80    2.40
   4   4   7   11.80    2.40
  -8   5   7    0.00    1.10
  -8   5   7    1.40    1.80
  -7   5   7   18.90    2.60
  -7   5   7   20.20    2.30
   6  -5  -7   53.29    3.80
   6  -5  -7   57.99    2.90
  -6   5   7   54.29    3.10
  -6   5   7   56.89    4.10
   5  -5  -7   67.39    3.00
   5  -5  -7   67.79    4.10
  -5   5   7   69.19    4.30
  -5   5   7   63.29    3.20
   4  -5  -7    2.20    0.80
   4  -5  -7    4.60    1.40
   4  -5  -7    8.80    1.00
  -4   5   7    1.80    1.20
   3  -5  -7   49.80    2.80
   3  -5  -7   53.89    2.50
  -3   5   7   51.79    3.50
   1  -5  -7    3.20    0.80
   1  -5  -7    3.90    1.30
   1  -5  -7    3.80    1.10
   1  -5  -7    3.50    3.50
  -1   5   7    3.10    0.90
  -1   5   7    3.30    1.20
   0  -5  -7  112.09    4.70
   0  -5  -7  105.69    5.30
   0  -5  -7  105.49    5.20
   0   5   7  109.99    5.70
   0   5   7  108.39    4.90
  -1  -5  -7    4.20    1.40
  -1  -5  -7    3.90    1.10
  -1  -5  -7    3.80    4.00
   1   5   7    4.40    1.30
   1   5   7    5.40    1.70
  -2  -5  -7   55.19    3.30
  -2  -5  -7   60.49    8.50
  -2  -5  -7   48.90    3.70
   2   5   7   51.39    3.60
   2   5   7   58.59    4.20
  -3  -5  -7    2.30    4.20
  -3  -5  -7    0.50    1.20
  -3  -5  -7    1.20    1.30
   3   5   7    2.80    1.60
   3   5   7   -0.30    1.60
   7  -6  -7    2.80    1.50
  -7   6   7    0.10    1.60
   6  -6  -7   40.20    3.50
   6  -6  -7   37.50    2.40
  -6   6   7   39.60    3.80
   5  -6  -7   51.49    2.60
   5  -6  -7   46.80    3.70
  -5   6   7   52.09    4.00
   4  -6  -7   30.90    3.00
   4  -6  -7   33.30    2.00
  -4   6   7   29.10    3.20
   3  -6  -7   35.40    3.20
   3  -6  -7   37.10    2.20
   3  -6  -7   36.40    2.50
  -3   6   7   37.70    3.10
   2  -6  -7   42.60    2.90
   2  -6  -7   45.70    2.50
   2  -6  -7   38.90    3.30
  -2   6   7   41.60    3.20
   1  -6  -7    7.70    1.60
   1  -6  -7    9.00    1.30
  -1   6   7    8.30    2.10
  -1   6   7   10.40    2.10
   0  -6  -7   46.80    2.90
   0  -6  -7   50.19    3.70
   0   6   7   52.19    4.10
   0   6   7   46.90    3.10
  -1  -6  -7    9.50    1.90
  -1  -6  -7    9.00    1.50
   1   6   7   12.40    2.50
   1   6   7    9.80    1.70
  -2  -6  -7    6.80    1.90
  -2  -6  -7   11.70    1.80
   2   6   7    7.70    1.80
   2   6   7   12.10    2.50
   7  -7  -7    9.40    1.90
  -7   7   7    7.20    2.20
   6  -7  -7   15.90    2.00
   6  -7  -7   14.70    2.50
  -6   7   7   14.90    2.50
   5  -7  -7    0.10    0.70
   5  -7  -7    0.30    1.20
  -5   7   7    0.00    1.30
   4  -7  -7    1.90    0.80
   4  -7  -7    0.50    1.20
   4  -7  -7    4.00    3.90
  -4   7   7    0.00    1.30
   3  -7  -7   38.40    3.60
   3  -7  -7   40.90    2.50
   2  -7  -7   86.89    5.20
   2  -7  -7   87.39    4.20
   1  -7  -7  146.29    7.30
   1  -7  -7  150.48    6.40
  -1   7   7  153.68    7.70
   0  -7  -7   32.30    2.60
   0  -7  -7   21.50    2.70
   0   7   7   37.60    4.00
   1   7   7   87.39    5.20
   1   7   7  111.39    7.10
  -6   8   7   18.20    2.70
   5  -8  -7    3.00    1.70
   5  -8  -7    4.30    1.10
  -5   8   7    3.30    1.80
   4  -8  -7   25.40    2.10
   4  -8  -7   15.50    2.40
   3  -8  -7    9.00    1.90
   3  -8  -7   15.80    1.80
   2  -8  -7  116.59    5.50
  -2   8   7  130.59    7.30
   3  -9  -7    2.90    6.40
  -1  10  -8   -0.40    1.20
  -2  10  -8    3.10    1.50
   2 -10   8    3.40    1.30
   2 -10   8    2.30    1.00
  -3  10  -8    9.00    1.90
   3 -10   8   11.60    1.60
   3 -10   8   13.60    2.10
  -4  10  -8    1.10    1.30
   4 -10   8    1.20    1.00
   4 -10   8    1.10    1.40
  -5  10  -8    8.30    1.90
   5 -10   8    9.50    1.50
   1   9  -8    1.10    1.70
   1   9  -8    0.60    1.30
   0  -9   8   47.70   14.20
  -1   9  -8    0.10    1.20
   1  -9   8    2.60    0.90
   1  -9   8   14.60    8.20
   1  -9   8    0.80    1.00
  -2   9  -8    2.60    1.40
   2  -9   8   10.50    7.70
   2  -9   8    2.50    1.30
   2  -9   8    2.10    0.90
  -4   9  -8   10.30    2.00
   4  -9   8   12.70    1.60
   4  -9   8   17.90    2.40
   4  -9   8    7.80    7.20
  -5   9  -8  137.49    7.10
   5  -9   8  147.39    6.40
   5  -9   8  172.38    7.40
  -6   9  -8    8.70    1.70
  -6   9  -8   13.10    2.20
   6  -9   8   14.30    1.80
   6  -9   8    9.30    7.70
   6  -9   8   12.70    2.30
  -7   9  -8   80.79    7.80
   2   8  -8    5.40    1.60
   2   8  -8    5.10    1.80
  -2  -8   8    6.40    7.50
   1   8  -8    7.40    1.60
   1   8  -8   10.80    1.90
  -1  -8   8    4.00    7.60
   0   8  -8    8.20    1.60
   0   8  -8    8.00    1.80
   0   8  -8    5.10    1.40
   0  -8   8    7.20    1.20
   0  -8   8    5.60    2.10
   0  -8   8    6.10    1.00
   0  -8   8   17.10    8.30
  -4   8  -8    7.40    1.70
   4  -8   8    6.60    1.50
   4  -8   8   -1.40    5.60
   4  -8   8    7.20    1.20
  -5   8  -8    3.60    1.20
  -5   8  -8    5.70    1.70
  -5   8  -8    4.50    1.30
   5  -8   8    4.70    1.10
   5  -8   8    7.30    1.80
   5  -8   8    3.30    6.20
  -6   8  -8    4.10    1.50
  -6   8  -8    1.60    1.50
  -6   8  -8    2.40    1.20
   6  -8   8    2.30    1.70
   6  -8   8    1.70    1.10
   6  -8   8   -0.60    6.10
  -7   8  -8   58.69    4.40
  -7   8  -8   47.50    3.70
  -7   8  -8   57.89    4.00
   7  -8   8   64.39    4.50
   7  -8   8   47.50    3.30
   3   7  -8   11.90    2.30
   3   7  -8   13.20    2.10
  -3  -7   8    7.30    9.50
   2   7  -8   26.70    2.80
   2   7  -8   24.80    2.80
   1   7  -8    3.40    1.30
   1   7  -8    2.20    1.20
  -1  -7   8    5.20    1.30
  -1  -7   8   -0.50    5.70
   0   7  -8   17.60    2.30
   0   7  -8   14.90    1.90
   0   7  -8   18.30    2.00
   0  -7   8   18.70    2.00
   0  -7   8   16.20    1.90
   0  -7   8   19.00    1.50
  -1   7  -8   -1.00    0.80
  -1   7  -8    0.20    1.00
  -1   7  -8    0.20    0.80
   1  -7   8    0.90    0.60
   1  -7   8    0.00    0.80
   1  -7   8    0.40    0.80
   1  -7   8    5.70    6.10
  -2   7  -8  153.18    6.80
   2  -7   8  163.38    6.60
   2  -7   8  156.68    6.70
   2  -7   8  162.58    6.10
  -3   7  -8    9.60    1.50
  -3   7  -8   10.10    1.50
   3  -7   8    1.70    6.00
   3  -7   8    8.90    1.60
   3  -7   8    8.10    1.60
   3  -7   8    8.80    1.10
  -4   7  -8   13.50    1.70
  -4   7  -8   17.70    2.20
   4  -7   8   17.60    2.10
   4  -7   8   14.40    1.90
   4  -7   8   15.40    1.60
  -5   7  -8   23.00    2.60
  -5   7  -8   21.90    2.20
  -5   7  -8   23.00    2.60
   5  -7   8   27.10    2.90
   5  -7   8   22.40    1.90
  -6   7  -8   24.50    3.10
  -6   7  -8   22.80    2.50
   6  -7   8   25.10    3.20
   6  -7   8   22.60    2.10
   6  -7   8   15.40    7.60
  -7   7  -8    3.80    1.70
  -7   7  -8    5.60    1.70
   7  -7   8    6.30    1.80
   7  -7   8   -3.40    7.80
   8  -7   8   29.70    3.50
  -5  -6   8    0.20    1.70
   4   6  -8    0.80    1.30
   4   6  -8    1.30    1.60
   3   6  -8    3.00    1.50
   3   6  -8    2.20    1.20
  -3  -6   8    0.10    5.50
   2   6  -8    7.50    1.60
   2   6  -8    7.30    1.50
  -2  -6   8    1.40    5.30
   1   6  -8    1.00    1.10
   1   6  -8    0.10    0.90
  -1  -6   8    1.30    0.60
  -1  -6   8    1.70    0.90
  -1  -6   8   -1.00    5.50
   0   6  -8    2.30    1.00
   0   6  -8    0.90    0.90
   0  -6   8    2.50    0.60
   0  -6   8    2.80    0.90
   0  -6   8   -0.30    4.80
   0  -6   8    1.30    0.80
  -1   6  -8  136.29    5.50
  -1   6  -8  131.29    5.80
   1  -6   8  137.99    5.10
   1  -6   8  129.99    5.60
   1  -6   8  133.49    5.50
  -2   6  -8   72.69    3.20
  -2   6  -8   64.09    3.40
  -2   6  -8   67.99    3.60
   2  -6   8   67.19    3.50
   2  -6   8   70.39    3.60
   2  -6   8   67.69    3.00
  -3   6  -8  135.39    5.80
  -3   6  -8  135.59    5.90
   3  -6   8  138.39    6.00
   3  -6   8  139.79    5.30
   3  -6   8  134.79    5.90
  -4   6  -8   42.10    2.80
  -4   6  -8   40.60    2.90
   4  -6   8   36.70    2.70
   4  -6   8   40.40    2.90
   4  -6   8   35.70    2.20
  -5   6  -8   64.59    3.90
  -5   6  -8   65.39    3.60
   5  -6   8   61.59    3.20
   5  -6   8   69.79    4.10
  -6   6  -8   11.00    1.70
  -6   6  -8    9.40    1.90
   6  -6   8   10.90    1.90
   6  -6   8    2.40    6.80
  -7   6  -8   28.80    3.30
  -7   6  -8   28.70    2.90
   7  -6   8   27.00    3.30
   8  -6   8   -1.50    9.30
   5   5  -8    7.70    2.00
  -5  -5   8    9.20    1.90
   4   5  -8   35.30    3.20
   4   5  -8   34.20    3.10
   3   5  -8   11.10    1.80
   3   5  -8   11.10    1.70
  -3  -5   8    6.20    4.80
   2   5  -8   14.80    1.90
   2   5  -8   17.80    2.10
  -2  -5   8   18.10    1.90
   1   5  -8  133.99    5.80
   1   5  -8  133.59    5.80
  -1  -5   8  131.19    5.20
  -1  -5   8  136.79    5.40
  -1  -5   8  132.49    4.90
   0   5  -8    4.00    1.00
   0   5  -8    2.80    0.90
   0   5  -8    3.50    1.00
   0  -5   8    2.80    0.50
   0  -5   8    1.20    3.60
   0  -5   8    2.90    0.80
   0  -5   8    2.90    0.80
  -1   5  -8  193.48    7.20
  -1   5  -8  178.58    7.30
  -1   5  -8  183.28    7.10
   1  -5   8  188.08    6.70
   1  -5   8  188.88    7.20
   1  -5   8  189.48    7.20
  -5   5  -8   25.30    6.30
  -5   5  -8   25.90    2.70
  -5   5  -8   16.90    2.00
   5  -5   8   24.80    2.60
   5  -5   8   28.40    8.40
  -7   5  -8   36.30    3.00
  -7   5  -8   33.40    3.50
   7  -5   8   35.80   11.40
   7  -5   8   32.20    3.40
   8  -5   8   13.10    9.50
   6   4  -8   12.00    2.40
  -6  -4   8   10.50    2.10
   5   4  -8    7.10    2.00
  -5  -4   8    8.60    1.80
   4   4  -8   12.20    2.00
   4   4  -8   12.60    1.80
   3   4  -8    3.70    1.30
   3   4  -8    6.10    1.30
  -3  -4   8    4.10    3.60
   2   4  -8   33.10    2.60
   2   4  -8   34.80    2.50
  -2  -4   8   34.70    2.00
  -2  -4   8   34.30    1.90
  -2  -4   8   41.60    6.60
   1   4  -8  120.39    5.20
   1   4  -8  117.59    5.20
   1   4  -8  119.59    4.70
  -1  -4   8  128.69    9.50
  -1  -4   8  117.19    4.80
  -1  -4   8  121.49    4.70
   0   4  -8  249.88    9.20
   0   4  -8  250.27    9.10
   0   4  -8  240.08    9.00
   0   4  -8  236.98    9.20
   0  -4   8  246.88    9.00
   0  -4   8  260.37   14.30
   0  -4   8  249.38    9.10
   0  -4   8  251.37    8.60
  -1   4  -8  200.38    7.50
  -1   4  -8  192.78    7.60
  -1   4  -8  163.98   11.60
  -1   4  -8  207.88    7.50
  -1   4  -8  201.58    7.50
   1  -4   8  195.78    7.50
   1  -4   8  197.88    7.40
   1  -4   8  215.78   12.90
   1  -4   8  201.38    7.00
  -2   4  -8    3.70    1.00
  -2   4  -8   11.50    4.80
  -2   4  -8    3.30    0.90
   2  -4   8    4.60    0.60
   2  -4   8    3.00    1.00
   2  -4   8    3.10    3.40
   2  -4   8    4.60    0.90
  -3   4  -8  324.37   12.30
  -3   4  -8  319.97   12.10
  -3   4  -8  336.37   12.20
   3  -4   8  326.77   12.30
   3  -4   8  365.26   18.70
  -4   4  -8   70.29    3.40
  -4   4  -8   53.79    7.20
  -4   4  -8   71.69    3.80
   4  -4   8   72.69    9.60
   4  -4   8   68.99    3.70
  -5   4  -8    7.70    1.40
  -5   4  -8    7.90    1.40
   5  -4   8   14.90    7.40
   5  -4   8    8.60    1.50
  -6   4  -8   89.09    5.00
  -6   4  -8   80.39    4.50
   6  -4   8   91.59    4.90
   6  -4   8  109.69   12.80
   6   3  -8   14.40    2.50
  -6  -3   8   17.10    2.30
   5   3  -8   61.29    4.20
  -5  -3   8   60.99    3.80
   4   3  -8    3.50    1.20
   4   3  -8    2.20    1.30
   3   3  -8  125.69    5.50
   3   3  -8  121.29    5.70
  -3  -3   8  125.09    4.90
  -3  -3   8  130.99    8.70
   2   3  -8    3.00    1.00
   2   3  -8    2.20    0.90
  -2  -3   8    3.40    0.50
  -2  -3   8    3.60    3.00
  -2  -3   8    2.80    0.80
   1   3  -8  217.08    7.70
   1   3  -8  214.08    8.20
   1   3  -8  216.18    8.20
   1   3  -8  214.68    7.90
  -1  -3   8  210.58    7.60
  -1  -3   8  226.98   12.10
  -1  -3   8  213.98    7.90
   0   3  -8  105.39    4.10
   0   3  -8  102.69    4.20
   0   3  -8  100.69    4.30
   0  -3   8   98.89    4.30
   0  -3   8  109.79    8.50
   0  -3   8  103.69    4.00
  -1   3  -8 1291.87   43.20
  -1   3  -8 1277.37   43.20
  -1   3  -8 1245.88   47.30
  -1   3  -8 1284.57   43.10
   1  -3   8 1263.57   47.80
   1  -3   8 1265.27   43.20
  -2   3  -8  137.59    5.40
  -2   3  -8  127.49    5.80
  -2   3  -8  137.89    5.60
   2  -3   8  145.79   10.10
   2  -3   8  139.99    5.60
  -3   3  -8 1282.87   43.10
  -3   3  -8 1262.47   42.80
  -3   3  -8 1216.08   42.80
   3  -3   8 1229.38   43.00
   3  -3   8 1306.97   49.40
  -4   3  -8    0.70    0.70
  -4   3  -8    0.20    0.90
  -4   3  -8    5.20    3.60
   4  -3   8   -3.30    4.90
   4  -3   8   -0.20    0.80
  -5   3  -8   48.90    3.00
  -5   3  -8   53.29    3.50
   5  -3   8   51.29    3.30
   5  -3   8   50.79    9.70
  -6   3  -8   29.10    3.00
  -6   3  -8   24.60    2.40
   6  -3   8   24.40    2.80
   6  -3   8   32.40   10.00
  -7   3  -8   28.50    3.30
  -7   3  -8   32.90    2.80
   7   2  -8   -0.50    1.30
  -7  -2   8   -1.50    1.30
   6   2  -8    0.00    1.20
  -6  -2   8   -3.60    1.20
   5   2  -8   32.90    2.80
  -5  -2   8   28.50    2.80
   4   2  -8   49.20    3.30
  -4  -2   8   51.59    2.80
   3   2  -8    3.30    1.00
   3   2  -8    3.80    1.10
  -3  -2   8    4.30    0.80
  -3  -2   8    2.60    2.40
   2   2  -8   55.59    2.60
   2   2  -8   52.19    2.90
   2   2  -8   55.39    2.80
  -2  -2   8   55.59    2.70
  -2  -2   8   51.89    5.30
   1   2  -8  378.96   13.20
   1   2  -8  382.16   13.10
   1   2  -8  363.06   12.70
  -1  -2   8  361.46   16.30
  -1  -2   8  373.56   13.10
   0   2  -8    2.80    0.50
   0   2  -8    1.90    0.70
   0   2  -8    2.10    0.60
   0   2  -8   -2.00    2.90
   0  -2   8    3.50    0.80
   0  -2   8    2.70    2.70
  -1   2  -8 1421.56   49.20
  -1   2  -8 1473.75   49.00
  -1   2  -8 1465.95   49.00
  -1   2  -8 1495.85   52.79
   1  -2   8 1409.76   53.49
   1  -2   8 1443.86   49.20
  -2   2  -8   56.59    2.70
  -2   2  -8   56.19    3.10
  -2   2  -8   54.59    2.60
   2  -2   8   51.99    7.10
   2  -2   8   54.49    2.90
  -3   2  -8   19.40    1.60
  -3   2  -8   21.40    1.70
   3  -2   8   21.70    2.00
   3  -2   8   15.90    5.80
  -4   2  -8    0.20    0.60
  -4   2  -8   -1.10    0.80
   4  -2   8   -3.30    4.20
   4  -2   8   -1.10    0.70
  -5   2  -8   83.69    4.40
  -5   2  -8   86.69    4.00
   5  -2   8   82.79   11.20
   5  -2   8   79.09    4.20
  -7   2  -8   74.39    4.10
  -7   2  -8   75.99    4.70
   7  -2   8   69.19    4.50
   7   1  -8    7.40    1.90
  -7  -1   8    4.40    1.70
   6   1  -8    1.90    1.30
  -6  -1   8    3.50    1.10
  -6  -1   8    4.90    1.60
   5   1  -8   18.20    2.20
  -5  -1   8   16.30    2.00
  -5  -1   8   17.20    2.00
   4   1  -8   73.69    3.90
  -4  -1   8   79.29    3.70
   3   1  -8    0.90    0.80
   3   1  -8    1.60    0.80
   3   1  -8    1.40    0.70
  -3  -1   8    0.90    1.60
  -3  -1   8    2.00    0.80
   2   1  -8   35.70    2.10
   2   1  -8   35.50    2.00
  -2  -1   8   36.80    2.20
   1   1  -8   20.30    1.50
   1   1  -8   19.10    0.90
   1   1  -8   20.40    1.50
  -1  -1   8   18.70    1.60
   0   1  -8   34.40    1.30
   0   1  -8   33.40    1.60
   0   1  -8   29.80    4.80
   0   1  -8   32.60    1.80
   0   1  -8   32.80    2.00
   0  -1   8   34.30    2.10
  -1   1  -8  122.59    8.30
  -1   1  -8  130.79    5.10
  -1   1  -8  136.69    5.00
  -1   1  -8  133.79    5.30
   1  -1   8  129.39    5.30
  -2   1  -8  955.70   33.30
  -2   1  -8  995.40   33.00
  -2   1  -8 1007.70   32.90
   2  -1   8  940.31   32.80
   2  -1   8  952.90   33.30
  -3   1  -8   17.70    1.30
  -3   1  -8   17.30    1.80
  -3   1  -8   20.00    1.50
   3  -1   8   17.60    1.20
   3  -1   8   17.30    1.80
  -4   1  -8  294.97   10.80
  -4   1  -8  298.77   11.20
   4  -1   8  290.67   11.00
  -5   1  -8  109.69    4.80
  -5   1  -8  104.69    5.20
  -6   1  -8   81.99    4.10
  -6   1  -8   78.19    4.50
   6  -1   8   67.19    4.40
  -7   1  -8   12.30    2.00
   7  -1   8   10.40    2.20
   8   0  -8   11.90    2.20
   7   0  -8   29.20    3.00
  -7   0   8   28.10    3.00
  -7   0   8   29.20    2.80
   6   0  -8   65.79    3.90
  -6   0   8   61.79    3.60
  -6   0   8   59.39    3.80
   5   0  -8    0.70    0.90
  -5   0   8    0.40    1.00
  -5   0   8   -0.30    0.90
   4   0  -8   96.89    4.70
   4   0  -8  107.69    4.50
  -4   0   8   99.79    4.50
   3   0  -8  559.24   19.40
   3   0  -8  552.74   19.60
  -3   0   8  555.04   19.50
   2   0  -8   -0.30    0.50
   2   0  -8    0.50    0.60
  -2   0   8   -0.40    0.60
  -2   0   8   -2.10    2.70
   1   0  -8  166.88    9.80
   1   0  -8  161.48    5.80
   1   0  -8  166.88    6.40
   1   0  -8  169.88    6.10
  -1   0   8  155.48    6.40
   0   0  -8  364.76   12.40
   0   0  -8  341.47   12.30
   0   0  -8  385.36   16.50
   0   0  -8  344.07   12.80
   0   0   8  342.87   12.70
  -1   0  -8  349.17   16.00
  -1   0  -8  329.47   12.00
  -1   0  -8  323.17   11.40
   1   0   8  320.77   12.00
  -2   0  -8   30.80    2.40
  -2   0  -8   37.30    1.60
  -2   0  -8   26.80    5.10
   2   0   8   34.70    1.90
   2   0   8   32.40    2.40
  -3   0  -8   -1.90    3.40
  -3   0  -8    1.60    0.50
  -3   0  -8    1.50    0.60
  -3   0  -8    0.50    0.90
   3   0   8    2.10    0.70
   3   0   8    1.30    0.90
  -4   0  -8  101.09    4.90
  -4   0  -8  107.89    4.50
   4   0   8  110.29    4.90
  -5   0  -8   -0.90    0.80
  -5   0  -8   10.70    5.70
  -5   0  -8   -0.50    1.00
   5   0   8    1.10    1.30
  -6   0  -8   44.10    3.30
   6   0   8   33.80    3.40
   8  -1  -8   32.40    3.20
  -8   1   8   30.40    3.20
   7  -1  -8   13.60    2.10
  -7   1   8   15.70    2.00
  -7   1   8   12.60    2.00
   6  -1  -8    3.60    1.30
  -6   1   8    2.00    1.20
  -6   1   8    2.00    1.20
   5  -1  -8   20.60    2.10
  -5   1   8   22.70    2.40
  -5   1   8   19.60    2.00
   4  -1  -8   25.90    2.10
   4  -1  -8   26.40    2.10
  -4   1   8   26.20    2.30
   3  -1  -8   23.90    2.00
  -3   1   8   24.30    2.10
   2  -1  -8   78.59    3.80
   2  -1  -8   82.59    3.00
   1  -1  -8  126.49    5.00
   1  -1  -8  145.89    4.80
   1  -1  -8  135.29    8.80
  -1   1   8  126.79    5.50
   0  -1  -8 1260.47   45.40
   0  -1  -8 1223.48   41.70
   0   1   8 1179.08   41.60
  -1  -1  -8 1393.96   51.59
  -1  -1  -8 1385.76   47.10
   1   1   8 1368.66   47.10
  -2  -1  -8  230.28    8.80
  -2  -1  -8  222.88   13.10
   2   1   8  236.18    8.80
   2   1   8  222.78    8.60
  -3  -1  -8  201.58    8.00
  -3  -1  -8  198.58    7.30
   3   1   8  202.78    7.90
   3   1   8  188.98    7.80
  -4  -1  -8  138.09    6.00
   4   1   8  127.79    6.10
   4   1   8  135.39    6.70
  -6  -1  -8    1.70    1.30
   6   1   8    5.50    1.80
   8  -2  -8   17.80    2.50
  -8   2   8   15.00    2.30
  -8   2   8   18.10    2.50
   7  -2  -8    9.70    1.70
  -7   2   8    7.50    1.80
  -7   2   8    6.60    1.60
   6  -2  -8   12.50    1.80
  -6   2   8   12.30    1.80
  -6   2   8   12.60    1.80
   5  -2  -8   29.10    2.40
   5  -2  -8   28.90    2.30
  -5   2   8   26.80    2.30
  -5   2   8   29.10    2.70
   4  -2  -8  814.82   28.30
   4  -2  -8  813.82   27.40
  -4   2   8  819.92   28.40
  -4   2   8  797.32   27.90
   3  -2  -8   34.70    2.50
   3  -2  -8   39.20    1.60
   3  -2  -8   38.00    1.60
  -3   2   8   37.10    2.60
   2  -2  -8   20.60    1.10
   2  -2  -8   18.10    1.20
   2  -2  -8   18.50    1.90
  -2   2   8   17.70    2.00
   1  -2  -8  163.68    6.60
   1  -2  -8  156.78    6.10
   1  -2  -8  147.79   10.10
   1  -2  -8  172.58    5.80
  -1   2   8  158.58    6.50
   0  -2  -8  131.79    4.90
   0  -2  -8  130.39    5.40
   0  -2  -8  124.69    9.40
   0  -2  -8  127.99    5.50
   0   2   8  133.29    5.60
  -1  -2  -8   67.29    3.60
  -1  -2  -8   67.49    7.60
   1   2   8   69.29    3.60
   1   2   8   70.39    3.60
   1   2   8   69.39    3.40
  -2  -2  -8    0.90    3.90
  -2  -2  -8    5.00    1.20
   2   2   8    6.20    1.30
   2   2   8    5.70    1.30
   2   2   8    4.90    1.10
  -3  -2  -8   91.29    4.50
  -3  -2  -8   76.09    9.40
   3   2   8   87.79    4.50
   3   2   8   88.09    4.40
  -4  -2  -8   -0.10    1.10
  -4  -2  -8   -1.90    4.70
   4   2   8   -0.60    1.10
   4   2   8    1.00    1.10
  -5  -2  -8   50.09    3.80
   5   2   8   54.09    3.90
  -8   3   8    4.80    1.60
  -8   3   8    3.10    1.60
   7  -3  -8   28.20    2.50
  -7   3   8   25.90    3.30
  -7   3   8   27.50    2.60
   6  -3  -8  130.79    5.90
  -6   3   8  134.59    6.30
  -6   3   8  125.99    5.70
   5  -3  -8   25.20    2.10
   5  -3  -8   25.40    2.50
  -5   3   8   26.00    2.70
  -5   3   8   24.40    2.10
   4  -3  -8   18.90    1.20
   4  -3  -8   22.50    2.30
  -4   3   8   21.00    2.50
  -4   3   8   21.00    1.80
   3  -3  -8  109.89    5.10
   3  -3  -8  109.09    4.30
   3  -3  -8  115.39    4.20
  -3   3   8  112.29    4.50
  -3   3   8  107.09    5.20
   2  -3  -8  190.28    7.20
   2  -3  -8  191.38    7.70
   2  -3  -8  195.28    6.90
  -2   3   8  190.08    7.80
  -2   3   8  185.48    6.90
   1  -3  -8   35.70    1.80
   1  -3  -8   34.60    2.20
   1  -3  -8   34.50    2.50
  -1   3   8   35.70    2.10
  -1   3   8   35.40    2.60
   0  -3  -8  121.59    9.50
   0  -3  -8  130.39    5.60
   0  -3  -8  127.69    5.70
   0  -3  -8  135.29    5.10
   0   3   8  128.79    5.30
   0   3   8  123.29    5.60
  -1  -3  -8   94.59    8.90
  -1  -3  -8   81.49    4.30
  -1  -3  -8   81.59    4.40
   1   3   8   88.29    4.30
   1   3   8   86.69    4.10
   1   3   8   83.39    4.40
  -2  -3  -8   22.40    2.40
  -2  -3  -8   23.50    5.80
   2   3   8   23.90    2.20
   2   3   8   22.00    2.50
  -3  -3  -8  172.08    7.30
  -3  -3  -8  161.18   12.90
   3   3   8  168.68    7.40
   3   3   8  168.18    7.50
  -4  -3  -8    0.60    1.20
  -4  -3  -8   -1.70    5.00
   4   3   8   -0.50    1.30
   4   3   8    0.50    1.30
  -8   4   8   27.60    2.90
  -7   4   8   -2.20    1.00
  -7   4   8   -1.30    1.20
   6  -4  -8  256.67   10.50
   6  -4  -8  261.17   10.10
  -6   4   8  254.37    9.90
  -6   4   8  259.97   10.70
   5  -4  -8  590.04   21.40
  -5   4   8  610.64   21.60
  -5   4   8  566.24   20.60
   4  -4  -8   22.40    2.60
   4  -4  -8   25.80    1.50
  -4   4   8   24.30    1.80
  -4   4   8   24.40    2.80
   3  -4  -8  427.96   14.60
   3  -4  -8  405.76   14.80
   3  -4  -8  417.96   15.60
  -3   4   8  421.26   15.60
   2  -4  -8  165.48    6.50
   2  -4  -8  167.68    6.10
   2  -4  -8  158.68    7.00
  -2   4   8  154.38    6.90
   1  -4  -8   51.79    3.30
   1  -4  -8   53.49    2.60
   1  -4  -8   49.70    2.90
  -1   4   8   52.99    2.80
  -1   4   8   55.89    3.40
   0  -4  -8   36.70    2.20
   0  -4  -8   30.80    6.60
   0  -4  -8   37.30    2.70
   0  -4  -8   36.00    2.90
   0   4   8   37.80    2.80
   0   4   8   37.60    2.40
   0   4   8   38.30    3.00
  -1  -4  -8   22.60    1.90
  -1  -4  -8   19.80    5.10
  -1  -4  -8   21.90    2.60
  -1  -4  -8   23.00    2.50
   1   4   8   22.80    2.60
   1   4   8   21.90    2.20
  -2  -4  -8    8.50    5.20
  -2  -4  -8    6.90    1.60
  -2  -4  -8    6.80    1.30
   2   4   8    8.80    1.80
   2   4   8    8.70    2.00
  -3  -4  -8   -2.10    4.00
  -3  -4  -8    1.50    1.30
   3   4   8    0.60    1.40
   3   4   8   -0.20    1.30
   4   4   8   53.59    6.40
  -8   5   8    2.90    1.40
  -7   5   8    4.00    1.80
  -7   5   8    5.50    1.40
   6  -5  -8    3.80    1.30
  -6   5   8    4.30    1.70
  -6   5   8    4.40    1.50
   5  -5  -8   40.40    3.40
  -5   5   8   34.70    3.50
   4  -5  -8   57.29    2.70
   4  -5  -8   58.09    3.80
  -4   5   8   59.49    4.00
   3  -5  -8   51.59    2.50
   3  -5  -8   52.59    3.60
   3  -5  -8   46.80    3.30
  -3   5   8   51.09    3.60
   2  -5  -8   25.80    2.10
   2  -5  -8   22.50    2.60
   2  -5  -8   25.50    1.80
  -2   5   8   22.50    2.60
   1  -5  -8   48.00    2.60
   1  -5  -8   47.00    3.10
   1  -5  -8   46.40    3.40
  -1   5   8   49.60    3.40
  -1   5   8   45.60    2.70
   0  -5  -8    1.00    3.40
   0  -5  -8    4.40    1.50
   0  -5  -8    4.70    1.10
   0  -5  -8    4.30    1.50
   0   5   8    4.60    1.60
   0   5   8    4.90    1.30
  -1  -5  -8    1.00    3.80
  -1  -5  -8    2.10    1.30
  -1  -5  -8    1.70    0.90
   1   5   8    2.10    1.50
   1   5   8    2.80    1.30
  -2  -5  -8   16.40    2.00
  -2  -5  -8   17.80    2.40
  -2  -5  -8   18.20    5.80
   2   5   8   17.20    2.40
   2   5   8   18.00    2.70
  -3  -5  -8   34.80    8.90
   3   5   8   23.10    3.10
   3   5   8   33.40    3.90
  -7   6   8   31.20    4.00
   6  -6  -8   37.50    3.50
  -6   6   8   37.30    3.90
   5  -6  -8   27.50    3.10
  -5   6   8   23.50    2.80
   4  -6  -8    5.30    0.90
   4  -6  -8    5.10    1.50
  -4   6   8    3.50    1.50
   3  -6  -8   49.80    3.90
   3  -6  -8   57.29    2.90
  -3   6   8   55.79    4.00
   2  -6  -8    3.70    1.00
   2  -6  -8    3.40    1.30
   2  -6  -8    4.20    1.20
  -2   6   8    4.90    1.60
   1  -6  -8    1.60    1.30
   1  -6  -8    3.10    1.00
  -1   6   8    2.20    1.70
   0  -6  -8    7.50    1.90
   0  -6  -8    5.10    1.20
   0   6   8    8.80    2.10
   0   6   8    7.90    1.60
  -1  -6  -8    9.90    2.20
  -1  -6  -8    8.00    1.50
   1   6   8   13.10    2.50
   1   6   8   11.20    1.90
   2   6   8    0.00    1.30
   2   6   8    0.60    1.60
   7  -7  -8   -1.20    1.30
   6  -7  -8   12.20    2.20
  -6   7   8   17.30    2.80
   5  -7  -8   10.60    2.30
  -5   7   8    7.60    2.00
   4  -7  -8  156.38    7.90
   4  -7  -8  161.58    6.50
  -4   7   8  168.18    8.00
   3  -7  -8   96.59    5.70
   3  -7  -8   89.69    4.30
   2  -7  -8   42.90    2.80
   2  -7  -8   45.50    4.10
  -2   7   8   39.90    4.10
   1  -7  -8   22.70    2.30
   1  -7  -8   15.50    2.40
  -1   7   8   20.30    3.10
   0  -7  -8    0.80    1.00
   0   7   8    2.60    1.90
   4  -8  -8  160.28    6.70
   3  -8  -8    2.50    1.00
  -2  10  -9   11.20    2.00
   2 -10   9   14.90    1.90
  -3  10  -9   45.10    3.80
   3 -10   9   49.99    3.80
   3 -10   9   45.90    2.90
  -4  10  -9   23.50    2.90
   4 -10   9   24.40    2.40
   5 -10   9    1.70    1.00
   1   9  -9    2.50    1.70
  -1   9  -9    7.70    1.90
   1  -9   9    7.00    1.50
   1  -9   9    1.40    6.90
  -2   9  -9    6.20    1.80
   2  -9   9   12.30    8.50
   2  -9   9    4.50    1.00
   2  -9   9    5.10    1.40
  -3   9  -9   47.00    3.80
   3  -9   9   49.99    2.90
   3  -9   9   52.69    3.70
  -4   9  -9    4.50    1.70
   4  -9   9    3.60    7.60
   4  -9   9   10.80    1.90
   4  -9   9    5.90    1.30
  -5   9  -9   72.79    4.70
   5  -9   9   66.79    3.70
   5  -9   9   80.69    4.90
  -6   9  -9    7.00    2.30
   6  -9   9    6.30    1.40
   2   8  -9    4.20    1.70
   2   8  -9    0.60    1.30
  -2  -8   9   13.50    7.40
   1   8  -9    3.40    1.60
  -1  -8   9   22.70    9.40
   0   8  -9   13.50    1.90
   0   8  -9   12.80    2.00
   0  -8   9    2.30    7.30
   0  -8   9   13.50    1.50
  -1   8  -9   96.79    5.00
   1  -8   9   87.49    4.10
   1  -8   9   78.89    4.80
   1  -8   9   64.89   14.20
   1  -8   9   99.29    4.50
  -2   8  -9   52.39    3.60
   2  -8   9   52.19    3.40
   2  -8   9   44.80    2.60
  -3   8  -9   67.29    4.20
   3  -8   9   73.59    4.20
   3  -8   9   68.49    3.40
  -4   8  -9    2.10    1.30
   4  -8   9   -3.10    6.20
   4  -8   9   -0.40    1.10
   4  -8   9   -0.50    0.80
  -5   8  -9    7.70    1.80
   5  -8   9    5.60    1.60
   5  -8   9    6.00    1.30
  -6   8  -9   -0.20    1.50
  -6   8  -9    2.30    1.50
  -6   8  -9   -0.60    1.10
   6  -8   9   -1.20    6.90
   6  -8   9    2.60    1.60
   6  -8   9    0.50    1.00
  -7   8  -9    4.80    1.70
   3   7  -9   12.50    2.20
   3   7  -9   16.40    2.40
   2   7  -9   11.90    2.10
   2   7  -9    7.10    1.70
  -2  -7   9    6.80    6.90
   1   7  -9    1.60    1.20
   1   7  -9   -0.80    1.00
  -1  -7   9   -0.90    5.40
   0   7  -9   22.10    2.30
   0   7  -9   16.20    2.10
   0  -7   9   26.60    2.10
   0  -7   9   23.90    2.10
  -1   7  -9   61.99    3.30
  -1   7  -9   54.69    3.60
   1  -7   9   64.89    2.90
   1  -7   9   63.49    3.50
   1  -7   9   60.69    3.50
  -2   7  -9   10.60    1.70
   2  -7   9   13.90    1.80
   2  -7   9   10.40    1.20
   2  -7   9   10.20    1.60
  -3   7  -9   58.09    3.50
   3  -7   9   52.19    2.80
   3  -7   9   53.89    3.30
   3  -7   9   57.49    3.60
  -4   7  -9   12.40    1.80
  -4   7  -9   12.80    1.90
   4  -7   9   10.00    1.70
   4  -7   9   11.90    1.30
  -5   7  -9   28.00    2.80
  -5   7  -9   28.30    2.90
  -5   7  -9   27.10    2.60
   5  -7   9   26.80    2.20
   5  -7   9   30.00    3.10
  -6   7  -9   79.59    4.60
  -6   7  -9   70.89    4.30
  -6   7  -9   74.79    4.80
   6  -7   9   80.19    4.90
  -7   7  -9   10.30    2.00
  -7   7  -9   12.40    2.10
   7  -7   9   12.70    2.10
   4   6  -9   -0.40    1.30
   4   6  -9    1.90    1.50
   3   6  -9    2.70    1.60
   3   6  -9    1.60    1.30
  -3  -6   9    1.20    9.20
   2   6  -9    6.10    1.50
   2   6  -9    6.40    1.50
  -2  -6   9   -1.90    5.60
   1   6  -9   21.20    2.30
   1   6  -9   17.80    2.10
  -1  -6   9   20.40    1.80
   0   6  -9   43.10    2.80
   0   6  -9   43.20    3.00
   0  -6   9   43.10    2.60
   0  -6   9   45.60    2.70
   0  -6   9   43.60    2.10
  -1   6  -9  101.29    4.50
  -1   6  -9   98.19    4.80
   1  -6   9   99.99    4.50
   1  -6   9  100.19    3.90
   1  -6   9   99.09    4.50
  -2   6  -9   17.50    2.10
  -2   6  -9   16.00    2.00
  -2   6  -9   17.90    1.60
   2  -6   9   18.10    1.40
   2  -6   9   16.40    1.80
   2  -6   9   14.30    1.80
  -3   6  -9   32.10    2.60
  -3   6  -9   29.90    2.40
   3  -6   9   30.80    2.80
   3  -6   9   30.80    1.90
   3  -6   9   30.40    2.40
  -4   6  -9   49.30    3.40
  -4   6  -9   50.09    3.20
  -4   6  -9   51.49    3.10
   4  -6   9   49.30    2.60
   4  -6   9   47.00    3.20
   4  -6   9   54.49    3.50
  -5   6  -9    1.30    1.10
  -5   6  -9    1.50    1.20
  -5   6  -9    1.80    1.10
   5  -6   9    0.10    5.80
   5  -6   9    0.40    1.10
  -6   6  -9   52.39    3.50
  -6   6  -9   54.19    4.00
   6  -6   9   45.80    4.00
   6  -6   9   54.29   12.90
  -7   6  -9    1.20    1.60
  -7   6  -9   -0.70    1.10
   7  -6   9   -2.00    1.40
   7  -6   9   -3.30    6.50
   5   5  -9    3.60    1.70
  -5  -5   9    5.80    1.80
   4   5  -9    8.50    1.70
   4   5  -9    9.40    1.90
   3   5  -9    0.80    1.00
   3   5  -9    1.30    1.20
  -3  -5   9   -0.70    4.20
   2   5  -9    4.70    1.40
   2   5  -9    1.00    1.00
  -2  -5   9    3.30    4.50
   1   5  -9    9.10    1.60
   1   5  -9    6.70    1.30
  -1  -5   9    9.30    1.20
  -1  -5   9    7.80    1.10
  -1  -5   9    7.30    5.10
   0   5  -9   19.80    1.90
   0   5  -9   18.40    1.90
   0  -5   9   19.30    1.90
   0  -5   9   19.20    1.60
   0  -5   9   19.00    1.10
  -1   5  -9   -0.20    0.70
  -1   5  -9   -0.40    0.70
  -1   5  -9   -0.40    0.70
   1  -5   9   -0.50    0.70
   1  -5   9   -0.10    0.40
   1  -5   9   -0.50    0.80
   1  -5   9   -2.40    3.90
  -2   5  -9  194.08    7.60
  -2   5  -9  194.78    7.70
  -2   5  -9  194.98    7.40
   2  -5   9  191.88    7.00
   2  -5   9  193.18   14.20
   2  -5   9  191.98    7.60
   2  -5   9  194.48    7.70
  -3   5  -9  204.08    8.10
  -3   5  -9  202.68    8.20
   3  -5   9  207.98    7.50
   3  -5   9  204.88    8.30
   3  -5   9  214.78   15.00
   3  -5   9  198.18    8.10
  -4   5  -9  140.89    6.20
  -4   5  -9  148.69    6.50
  -4   5  -9  142.39    6.20
   4  -5   9  152.58   13.40
   4  -5   9  151.68    6.60
  -5   5  -9   26.00    2.50
  -5   5  -9   28.40    2.80
  -5   5  -9   26.70    2.50
   5  -5   9   30.30    9.50
   5  -5   9   25.40    2.90
  -6   5  -9  116.59    5.70
  -6   5  -9  126.59    6.30
   6  -5   9  140.79   15.70
   6  -5   9  125.59    6.30
  -7   5  -9   18.00    5.70
  -7   5  -9    7.50    1.60
  -7   5  -9    3.30    1.60
   7  -5   9    3.40    7.10
   7  -5   9    8.20    2.00
   5   4  -9    2.00    1.50
  -5  -4   9    1.20    1.60
   4   4  -9    2.30    1.20
   4   4  -9    2.70    1.40
   3   4  -9    1.90    1.10
   3   4  -9    2.20    1.10
  -3  -4   9    1.50    3.40
   2   4  -9   76.29    4.00
   2   4  -9   70.69    4.00
  -2  -4   9   84.79    8.80
  -2  -4   9   76.29    3.50
   1   4  -9    0.00    0.70
   1   4  -9   -0.10    0.80
  -1  -4   9    0.50    0.50
  -1  -4   9   -0.80    3.70
  -1  -4   9    0.40    0.70
   0   4  -9    8.40    1.30
   0   4  -9    6.10    1.10
   0   4  -9    7.50    1.10
   0   4  -9    8.80    1.00
   0  -4   9    9.10    0.70
   0  -4   9    8.80    1.20
   0  -4   9    9.30    1.10
   0  -4   9    9.80    4.40
  -1   4  -9  184.48   13.60
  -1   4  -9  227.58    8.50
  -1   4  -9  226.28    8.40
  -1   4  -9  219.78    8.50
   1  -4   9  233.08    7.80
   1  -4   9  220.58    8.30
   1  -4   9  217.48    8.50
   1  -4   9  256.07   14.70
  -2   4  -9  229.38    8.90
  -2   4  -9  227.18    8.90
   2  -4   9  234.58    9.00
   2  -4   9  249.68   14.90
  -3   4  -9  193.18    7.70
  -3   4  -9  188.98    7.70
  -3   4  -9  208.38    8.00
   3  -4   9  216.18   14.60
   3  -4   9  195.08    8.00
  -4   4  -9   55.19    3.50
  -4   4  -9   60.89    3.20
  -4   4  -9   57.29    3.20
   4  -4   9   55.39    3.50
   4  -4   9   60.69    9.70
  -5   4  -9   81.79    4.30
  -5   4  -9   92.19    4.80
   5  -4   9   86.99    4.80
   5  -4   9   94.79   12.00
  -7   4  -9  128.89    6.40
  -7   4  -9  132.99    6.80
   7  -4   9  159.68   16.00
   6   3  -9    6.20    2.00
  -6  -3   9    6.50    1.90
   5   3  -9   50.09    3.80
   4   3  -9   85.19    4.60
   4   3  -9   87.79    4.70
   3   3  -9   62.69    3.60
   3   3  -9   61.39    3.60
  -3  -3   9   61.49    3.10
  -3  -3   9   61.39    6.60
   2   3  -9   51.59    3.10
   2   3  -9   56.39    3.10
  -2  -3   9   51.09    2.80
  -2  -3   9   50.69    6.30
   1   3  -9  148.69    5.40
   1   3  -9  144.29    6.00
   1   3  -9  144.99    6.00
   1   3  -9  148.59    5.70
  -1  -3   9  147.79    5.80
  -1  -3   9  144.99    5.30
  -1  -3   9  153.08   10.40
   0   3  -9  359.76   12.60
   0   3  -9  353.06   12.40
   0   3  -9  345.77   12.70
   0  -3   9  336.77   12.60
   0  -3   9  365.56   17.40
  -1   3  -9   20.40    1.70
  -1   3  -9   23.20    1.90
  -1   3  -9   12.80    4.60
  -1   3  -9   19.90    1.50
   1  -3   9   22.20    2.00
   1  -3   9   18.80    5.00
  -2   3  -9   73.39    3.50
  -2   3  -9   74.19    3.70
   2  -3   9   74.19    3.80
   2  -3   9   79.59    8.80
  -3   3  -9    1.00    0.70
  -3   3  -9    0.50    0.80
  -3   3  -9    0.70    0.70
  -3   3  -9    3.70    3.20
   3  -3   9   -0.10    5.00
   3  -3   9    1.20    0.90
  -4   3  -9   18.50    2.10
  -4   3  -9   19.30    1.90
  -4   3  -9   19.60    1.80
   4  -3   9   20.10    2.20
   4  -3   9   24.00    7.00
  -5   3  -9  240.58   10.00
  -5   3  -9  240.68    9.60
   5  -3   9  278.27   18.40
   5  -3   9  236.48    9.80
  -7   3  -9    3.90    1.70
  -7   3  -9    8.50    1.80
   7   2  -9    0.10    1.70
   6   2  -9   24.00    2.90
  -6  -2   9   22.80    2.70
   5   2  -9    7.40    1.60
  -5  -2   9    5.90    1.20
   4   2  -9  284.77   11.40
  -4  -2   9  297.67   10.70
   3   2  -9  315.27   11.60
   3   2  -9  319.97   11.80
  -3  -2   9  280.57   13.80
  -3  -2   9  323.17   11.30
   2   2  -9   -1.00    0.80
   2   2  -9   -0.90    0.70
   2   2  -9   -0.70    0.50
  -2  -2   9    0.20    2.10
  -2  -2   9   -0.20    0.70
   1   2  -9  270.47    9.80
   1   2  -9  269.37    9.20
   1   2  -9  278.57    9.80
  -1  -2   9  279.07    9.80
  -1  -2   9  236.88   13.00
   0   2  -9  161.98    5.90
   0   2  -9  160.38    6.30
   0   2  -9  173.88   10.40
   0   2  -9  156.18    6.20
   0  -2   9  154.98    6.30
  -1   2  -9    2.10    0.80
  -1   2  -9    0.40    0.60
  -1   2  -9    1.90    3.40
  -1   2  -9    0.90    0.60
  -2   2  -9  328.97   11.50
  -2   2  -9  323.07   11.90
   2  -2   9  300.57   17.00
   2  -2   9  331.97   11.90
  -3   2  -9  205.88    7.70
  -3   2  -9  205.58    7.60
  -3   2  -9  204.38    8.10
   3  -2   9  195.78    8.00
  -4   2  -9   66.39    3.30
  -4   2  -9   69.39    3.20
  -4   2  -9   64.39    3.70
   4  -2   9   63.79    3.60
   4  -2   9   57.79    9.60
  -5   2  -9  150.98    6.70
  -5   2  -9  160.78    6.30
   5  -2   9  128.79   14.50
   5  -2   9  151.78    6.60
  -6   2  -9  210.68    8.50
  -6   2  -9  213.18    9.00
  -7   2  -9    8.90    1.70
   7  -2   9    8.70    2.20
   7   1  -9    7.00    1.80
  -7  -1   9    1.80    1.60
   6   1  -9   -0.30    1.10
  -6  -1   9   -0.90    1.30
  -6  -1   9    0.30    1.00
   5   1  -9   19.00    2.40
  -5  -1   9   15.60    2.00
  -5  -1   9   14.50    1.70
   4   1  -9   63.99    3.70
  -4  -1   9   70.89    3.60
   3   1  -9  484.45   17.20
   3   1  -9  502.25   17.10
   3   1  -9  463.55   17.40
  -3  -1   9  485.55   17.20
   2   1  -9   23.70    1.80
   2   1  -9   24.30    1.80
  -2  -1   9   19.70    1.90
   1   1  -9  126.99    4.60
   1   1  -9  129.79    5.30
   1   1  -9  135.59    5.20
  -1  -1   9  126.69    5.30
   0   1  -9  481.05   20.40
   0   1  -9  444.16   15.50
   0   1  -9  433.16   15.40
   0   1  -9  443.46   15.80
   0  -1   9  427.56   15.80
  -1   1  -9  625.34   21.50
  -1   1  -9  605.94   25.50
  -1   1  -9  606.14   21.20
  -1   1  -9  625.54   21.00
   1  -1   9  601.74   21.40
  -2   1  -9   71.19    3.60
  -2   1  -9   70.19    3.00
   2  -1   9   68.79    2.90
   2  -1   9   69.09    3.60
  -3   1  -9    4.90    1.10
  -3   1  -9    2.00    3.70
  -3   1  -9    4.10    0.90
  -3   1  -9    7.30    0.90
   3  -1   9    2.90    1.00
   3  -1   9   -0.60    4.30
  -4   1  -9  117.29    5.50
  -4   1  -9  117.89    5.00
   4  -1   9  117.29    5.30
  -6   1  -9   88.09    5.00
  -6   1  -9   90.99    4.40
   6  -1   9   81.09    4.90
   7   0  -9   -0.30    1.20
  -7   0   9    0.50    1.50
  -7   0   9    0.10    1.10
   6   0  -9    2.90    1.30
  -6   0   9    2.00    1.40
  -6   0   9    3.30    1.20
   5   0  -9   38.70    2.90
  -5   0   9   46.60    3.10
  -5   0   9   40.90    2.90
   4   0  -9   82.89    4.20
  -4   0   9   85.79    4.20
   3   0  -9   -0.40    0.60
  -3   0   9    0.60    0.80
   2   0  -9   11.30    1.30
   2   0  -9   12.20    1.50
  -2   0   9    9.70    1.20
   1   0  -9   90.19    4.00
   1   0  -9   83.39    3.30
   1   0  -9   88.79    8.00
   1   0  -9   89.09    3.60
  -1   0   9   91.39    4.10
   0   0  -9   75.39    3.60
   0   0  -9   73.79    3.10
   0   0  -9   68.89    3.00
   0   0  -9   77.09    7.00
   0   0   9   70.69    3.60
  -1   0  -9  145.59    5.40
  -1   0  -9  142.59    6.10
  -1   0  -9  154.28    9.90
   1   0   9  143.49    6.10
  -2   0  -9   48.60    7.00
  -2   0  -9   58.49    3.20
   2   0   9   55.19    2.70
   2   0   9   54.59    3.10
  -3   0  -9    4.00    0.80
  -3   0  -9    3.20    1.00
  -3   0  -9    1.40    3.80
   3   0   9    4.10    1.10
  -4   0  -9  189.68    8.10
  -4   0  -9  190.48    7.50
   4   0   9  205.08    8.40
  -5   0  -9   42.10    3.30
   5   0   9   37.10    3.20
  -6   0  -9    7.20    1.80
   6   0   9    9.40    2.00
   8  -1  -9    8.30    1.90
  -8   1   9    7.10    1.80
   7  -1  -9    5.60    1.50
  -7   1   9    2.70    1.40
  -7   1   9    3.80    1.60
   6  -1  -9   30.60    2.80
  -6   1   9   36.90    3.00
  -6   1   9   32.00    3.00
   5  -1  -9  139.09    6.50
  -5   1   9  149.29    6.30
  -5   1   9  155.88    6.60
   4  -1  -9  409.26   15.50
   4  -1  -9  427.76   15.40
  -4   1   9  433.36   15.50
   3  -1  -9   39.80    2.70
  -3   1   9   39.70    2.80
   2  -1  -9  203.58    8.10
   2  -1  -9  211.28    7.20
  -2   1   9  212.98    8.20
   1  -1  -9   73.29    2.60
   1  -1  -9   53.99    7.20
   1  -1  -9   67.09    2.90
  -1   1   9   71.49    3.60
   0  -1  -9  890.01   34.00
   0  -1  -9  813.12   29.50
   0   1   9  850.81   29.50
  -1  -1  -9   18.90    4.80
  -1  -1  -9   17.20    2.00
   1   1   9   17.60    2.10
  -2  -1  -9   23.00    5.40
  -2  -1  -9   31.20    2.50
   2   1   9   27.50    2.10
   2   1   9   31.40    2.50
  -3  -1  -9   94.29   10.40
  -3  -1  -9  111.69    5.20
   3   1   9  112.69    5.10
   3   1   9  110.09    4.90
  -4  -1  -9   -6.30    5.30
  -4  -1  -9   -0.90    1.00
   4   1   9   -0.80    1.20
  -5  -1  -9   11.50    1.90
  -5  -1  -9    1.20    6.00
   5   1   9   20.10    2.60
   8  -2  -9    2.90    1.40
   7  -2  -9    5.70    1.60
  -7   2   9    6.40    1.70
  -7   2   9    7.80    1.70
   6  -2  -9   49.10    3.40
  -6   2   9   48.50    3.30
  -6   2   9   52.99    3.80
   5  -2  -9    2.00    1.00
   5  -2  -9    0.60    1.00
  -5   2   9    3.80    1.30
  -5   2   9    0.80    1.00
   4  -2  -9  108.79    5.20
  -4   2   9  112.99    4.80
  -4   2   9  110.29    5.30
   3  -2  -9   59.19    3.40
  -3   2   9   59.69    3.50
   2  -2  -9  598.84   19.60
   2  -2  -9  587.94   20.60
   2  -2  -9  567.84   19.80
  -2   2   9  558.54   20.60
   1  -2  -9    0.00    0.50
   1  -2  -9    0.80    0.90
   1  -2  -9    0.40    0.40
   1  -2  -9    0.10    3.80
  -1   2   9    0.20    0.90
   0  -2  -9  282.97   11.10
   0  -2  -9  321.67   15.80
   0  -2  -9  276.67   10.80
   0  -2  -9  299.47   10.30
   0   2   9  279.07   11.00
  -1  -2  -9  102.79    4.90
  -1  -2  -9  110.49    9.40
   1   2   9  102.99    4.90
   1   2   9  103.09    4.80
   1   2   9   99.29    4.60
  -2  -2  -9    1.10    4.20
  -2  -2  -9    2.60    1.00
   2   2   9    4.90    1.30
   2   2   9    1.80    1.00
   2   2   9    4.00    1.20
  -3  -2  -9   54.79    3.60
  -3  -2  -9   42.80    9.20
   3   2   9   55.79    3.50
   3   2   9   50.39    3.30
  -4  -2  -9   25.90    2.80
   4   2   9   28.10    2.90
   5   2   9   -0.90    1.60
  -8   3   9   16.10    3.10
   7  -3  -9   43.70    3.20
  -7   3   9   42.00    3.20
  -7   3   9   44.70    3.90
   6  -3  -9  133.79    6.30
  -6   3   9  145.19    6.80
  -6   3   9  133.09    6.00
   5  -3  -9   23.80    2.60
   5  -3  -9   25.40    2.30
  -5   3   9   23.60    2.10
  -5   3   9   19.90    2.40
   4  -3  -9  741.83   26.30
  -4   3   9  740.63   26.40
  -4   3   9  739.73   25.60
   3  -3  -9   54.29    3.50
   3  -3  -9   58.89    2.40
  -3   3   9   53.79    3.60
  -3   3   9   54.29    2.80
   2  -3  -9  604.64   21.40
   2  -3  -9  570.74   20.70
   2  -3  -9  610.44   20.40
  -2   3   9  593.84   21.40
   1  -3  -9   85.99    4.40
   1  -3  -9   87.19    3.50
   1  -3  -9   83.89    3.90
  -1   3   9   83.29    4.40
  -1   3   9   81.59    3.80
   0  -3  -9   16.10    1.40
   0  -3  -9   13.60    1.80
   0  -3  -9   15.90    1.80
   0  -3  -9   17.60    4.70
   0   3   9   14.30    1.80
   0   3   9   16.10    1.80
  -1  -3  -9   26.90    1.90
  -1  -3  -9   28.70    2.50
  -1  -3  -9   30.80    6.50
  -1  -3  -9   25.80    2.60
   1   3   9   26.10    2.50
   1   3   9   25.40    2.40
   1   3   9   28.20    2.60
  -2  -3  -9   85.99   10.00
  -2  -3  -9   74.59    4.50
   2   3   9   81.59    4.30
   2   3   9   80.59    4.50
  -3  -3  -9    0.70    1.20
  -3  -3  -9   -0.90    4.80
   3   3   9   -0.40    1.10
   3   3   9    0.20    1.20
  -4  -3  -9  101.39   14.80
  -4  -3  -9   75.99    4.90
   4   3   9   73.59    4.80
  -8   4   9   48.00    3.70
  -7   4   9    1.00    1.20
  -7   4   9    1.00    1.50
   6  -4  -9    4.70    2.60
   6  -4  -9    4.10    1.30
  -6   4   9    2.40    1.40
  -6   4   9    3.20    1.20
   5  -4  -9   20.40    2.50
  -5   4   9   16.90    2.30
  -5   4   9   17.90    1.90
   4  -4  -9   17.80    2.20
  -4   4   9   15.20    2.10
   3  -4  -9   12.10    1.90
   3  -4  -9   12.40    1.10
  -3   4   9    9.80    1.70
   2  -4  -9   15.00    2.00
   2  -4  -9   16.00    1.30
   2  -4  -9   12.50    1.60
  -2   4   9   12.00    1.70
   1  -4  -9  180.88    7.70
   1  -4  -9  181.78    6.80
   1  -4  -9  172.38    7.30
  -1   4   9  176.78    7.70
  -1   4   9  177.68    7.00
   0  -4  -9   32.20    6.90
   0  -4  -9   44.70    2.50
   0  -4  -9   44.70    3.30
   0  -4  -9   43.70    3.00
   0   4   9   44.50    3.20
   0   4   9   43.70    3.40
   0   4   9   39.70    2.70
  -1  -4  -9  123.69   10.50
  -1  -4  -9  112.59    5.70
  -1  -4  -9  112.99    4.90
   1   4   9  107.69    5.30
   1   4   9  107.39    5.70
  -2  -4  -9    2.30    4.40
  -2  -4  -9    1.50    1.10
  -2  -4  -9    2.40    1.40
   2   4   9    3.30    1.60
   2   4   9    1.50    1.30
  -3  -4  -9   26.40    2.70
  -3  -4  -9   28.00    7.20
  -3  -4  -9   27.40    3.40
   3   4   9   29.70    3.30
   3   4   9   25.90    3.10
  -7   5   9    5.40    1.90
   6  -5  -9   27.60    3.10
  -6   5   9   27.40    3.50
   5  -5  -9   18.70    2.50
  -5   5   9   16.60    2.40
   4  -5  -9   10.50    1.80
  -4   5   9   11.90    2.00
   3  -5  -9   40.70    3.40
   3  -5  -9   40.70    2.20
  -3   5   9   41.80    3.50
   2  -5  -9   18.10    1.60
   2  -5  -9   22.40    2.70
  -2   5   9   17.50    2.20
   1  -5  -9  178.08    6.80
   1  -5  -9  171.78    7.70
   1  -5  -9  169.78    7.40
  -1   5   9  168.98    7.70
   0  -5  -9   -0.10    1.20
   0  -5  -9   -0.50    0.70
   0  -5  -9   -1.00    3.20
   0   5   9   -0.20    1.00
   0   5   9    0.60    1.40
  -1  -5  -9  101.49   10.30
  -1  -5  -9   97.39    4.60
  -1  -5  -9   86.09    5.40
   1   5   9  103.19    5.80
   1   5   9   91.49    5.00
  -2  -5  -9   12.70    3.20
  -2  -5  -9   11.10    5.30
  -2  -5  -9   13.20    1.80
   2   5   9   13.00    2.30
   2   5   9   12.10    2.10
   6  -6  -9    8.00    2.00
  -6   6   9    8.00    2.20
   5  -6  -9   -0.80    1.20
  -5   6   9    0.20    1.50
   4  -6  -9   47.20    4.00
  -4   6   9   48.60    4.10
   3  -6  -9   19.80    1.70
   3  -6  -9   13.90    2.10
  -3   6   9   18.40    2.40
   2  -6  -9   29.90    2.20
   2  -6  -9   28.20    3.30
   1  -6  -9  105.69    4.70
   1  -6  -9   93.59    5.70
  -1   6   9  103.39    6.00
   0  -6  -9   85.39    5.50
   0  -6  -9   85.19    4.40
   0   6   9  102.59    5.90
  -1  -6  -9    3.30    1.50
   1   6   9    4.10    1.90
   5  -7  -9    6.30    2.00
  -5   7   9    9.40    2.20
   4  -7  -9    0.30    1.30
  -4   7   9    1.50    1.60
   3  -7  -9   82.99    4.10
   3  -7  -9   83.89    5.50
   2  -7  -9    2.90    1.00
  -2   7   9    0.60    1.90
   1  -7  -9   13.90    1.80
  -1   7   9   16.20    3.20
   0   9 -10   -1.30    1.40
  -1   9 -10   -0.80    1.30
   1  -9  10   13.50    9.90
  -2   9 -10    3.90    1.70
   2  -9  10   21.00    9.70
   2  -9  10    3.30    1.50
  -3   9 -10    1.20    1.40
   3  -9  10   -1.20    7.00
   3  -9  10    2.90    1.40
  -4   9 -10    2.00    1.50
   4  -9  10    4.50    1.50
   4  -9  10    2.80    1.10
   4  -9  10   -2.90    8.60
  -5   9 -10   -0.30    1.40
   5  -9  10   -0.10    1.00
   6  -9  10   21.80    2.90
   2   8 -10   10.40    2.10
   2   8 -10   10.50    2.30
  -2  -8  10    1.20    8.90
   1   8 -10   18.40    2.50
   1   8 -10   24.20    2.70
  -1  -8  10   10.50    8.00
   0   8 -10    1.80    1.40
   0  -8  10   12.30    8.60
   0  -8  10    5.90    1.20
  -1   8 -10   56.49    4.10
   1  -8  10   59.19    3.60
  -2   8 -10   25.30    2.80
   2  -8  10   17.30    8.80
   2  -8  10   25.40    2.90
  -3   8 -10    1.10    1.30
   3  -8  10    0.60    0.80
   3  -8  10    0.90    1.30
   3  -8  10   -0.20    6.60
  -4   8 -10    0.60    1.20
   4  -8  10    0.60    0.80
   4  -8  10    1.00    1.30
   4  -8  10   -2.20    6.60
  -5   8 -10   56.09    4.00
   5  -8  10   56.19    3.30
   5  -8  10   64.09    4.30
  -6   8 -10    3.20    1.60
  -6   8 -10    6.20    1.80
  -6   8 -10    2.80    1.70
   6  -8  10    5.80    2.00
   3   7 -10    1.50    1.50
   3   7 -10   -1.00    1.40
   2   7 -10   14.30    2.20
   2   7 -10   18.60    2.50
   1   7 -10   11.10    2.00
   1   7 -10   14.40    2.10
   0   7 -10   47.20    3.20
   0   7 -10   41.90    3.50
   0  -7  10   50.09    2.90
  -1   7 -10   46.10    3.30
  -1   7 -10   46.60    2.90
   1  -7  10   45.80    3.10
   1  -7  10   46.00    3.00
  -2   7 -10   42.30    3.10
   2  -7  10   39.40    2.20
   2  -7  10   37.60    2.80
   2  -7  10   42.00    3.20
  -3   7 -10   21.90    2.50
   3  -7  10   18.00    1.70
   3  -7  10   17.70    2.20
   3  -7  10   19.00    2.40
  -4   7 -10   -0.20    1.00
  -4   7 -10   -0.60    1.00
   4  -7  10   -4.30    5.90
   4  -7  10   -1.80    1.20
   4  -7  10    0.30    0.80
  -5   7 -10    2.60    1.40
  -5   7 -10    1.70    1.30
  -5   7 -10    3.00    1.30
   5  -7  10    1.40    6.60
   5  -7  10    1.90    1.50
  -6   7 -10   16.10    2.30
  -6   7 -10   13.80    2.00
  -6   7 -10    8.00    1.90
   6  -7  10    0.70    8.40
   6  -7  10    9.50    2.40
  -7   7 -10    1.60    1.40
   7  -7  10    1.00    1.70
   4   6 -10    0.70    1.50
   4   6 -10    0.30    1.40
   3   6 -10    0.30    1.30
   3   6 -10    0.70    1.30
   2   6 -10    9.70    1.80
   2   6 -10   10.60    1.90
  -2  -6  10    1.90    6.50
   1   6 -10    0.00    1.00
   1   6 -10    0.10    1.00
  -1  -6  10   -0.70    5.90
  -1  -6  10   -0.20    0.80
   0   6 -10    4.00    1.30
   0   6 -10    3.50    1.30
   0  -6  10   -1.90    6.20
   0  -6  10    4.40    1.10
  -1   6 -10    1.40    1.00
  -1   6 -10    0.00    1.00
   1  -6  10    0.70    1.00
   1  -6  10    1.60    0.90
   1  -6  10    1.80    5.90
  -2   6 -10    1.10    0.90
  -2   6 -10    0.50    0.90
   2  -6  10    0.60    6.50
   2  -6  10   -1.90    1.00
   2  -6  10    1.00    0.60
   2  -6  10    0.80    0.90
  -4   6 -10   -0.50    1.00
  -4   6 -10   -1.90    4.90
  -4   6 -10   -0.30    1.00
   4  -6  10   -1.90    5.30
   4  -6  10   -0.50    1.10
  -5   6 -10   11.90    2.00
  -5   6 -10    9.80    1.70
  -5   6 -10   11.90    1.90
   5  -6  10   10.30    2.00
   5  -6  10   17.60    8.10
  -6   6 -10   45.20    3.40
  -6   6 -10   39.50    3.30
  -6   6 -10   41.00    3.90
   6  -6  10   42.00   12.70
   6  -6  10   39.40    3.90
  -7   6 -10    1.70    1.30
  -7   6 -10    0.80    1.50
   7  -6  10   -1.90    7.10
   7  -6  10    0.40    1.50
   4   5 -10   -0.90    1.20
   4   5 -10    1.00    1.30
   3   5 -10   19.50    2.60
   3   5 -10   13.00    2.00
   2   5 -10   22.40    2.60
   2   5 -10   23.20    2.50
  -2  -5  10   15.50    5.90
  -2  -5  10   24.50    2.00
   1   5 -10   44.60    3.00
   1   5 -10   43.10    3.00
  -1  -5  10   30.40    9.20
  -1  -5  10   45.40    2.70
   0   5 -10    1.50    1.00
   0   5 -10    2.30    1.10
   0  -5  10    1.90    5.30
   0  -5  10    2.50    0.80
   0  -5  10    0.10    0.90
  -1   5 -10   68.39    3.40
  -1   5 -10   65.39    3.40
  -1   5 -10   65.39    3.60
   1  -5  10   66.19    3.20
   1  -5  10   54.69    9.80
   1  -5  10   65.69    2.70
   1  -5  10   66.19    3.50
  -2   5 -10  117.59    5.20
  -2   5 -10  106.99    5.10
  -2   5 -10  117.19    5.00
   2  -5  10  115.19    5.10
   2  -5  10  122.49   12.20
   2  -5  10  120.29    4.50
   2  -5  10  113.79    5.30
   3  -5  10    2.70    1.30
   3  -5  10   -0.20    5.30
  -4   5 -10    9.40    1.70
  -4   5 -10    6.40    1.30
  -4   5 -10    5.90    1.40
   4  -5  10   12.90    7.10
   4  -5  10    8.10    1.60
  -5   5 -10   74.39    4.50
  -5   5 -10   69.99    9.10
  -5   5 -10   64.79    3.90
  -5   5 -10   73.09    4.00
   5  -5  10   73.09    4.50
   5  -5  10   88.89   12.70
  -7   5 -10   35.70    3.80
   7  -5  10   44.00   12.90
   5   4 -10    1.10    1.50
   4   4 -10   50.99    3.80
   4   4 -10   51.19    3.70
   3   4 -10    0.40    1.00
   3   4 -10    0.90    1.20
  -3  -4  10   -0.30    0.80
  -3  -4  10    0.70    4.70
   2   4 -10   47.90    3.20
   2   4 -10   45.50    3.20
  -2  -4  10   56.39    8.10
  -2  -4  10   47.90    2.90
   1   4 -10   33.60    2.60
   1   4 -10   36.30    2.70
  -1  -4  10   33.20    2.50
  -1  -4  10   42.90    8.10
   0   4 -10  170.88    6.80
   0   4 -10  171.98    7.10
   0   4 -10  166.58    7.00
   0  -4  10  166.78    6.50
   0  -4  10  176.18    6.90
   0  -4  10  203.18   13.40
  -1   4 -10   -3.00    4.80
  -1   4 -10   -0.30    0.80
  -1   4 -10   -0.50    0.70
   1  -4  10    3.50    4.50
   1  -4  10    0.40    0.90
  -2   4 -10  496.85   18.30
  -2   4 -10  500.35   18.40
   2  -4  10  504.15   18.40
   2  -4  10  559.24   25.70
  -3   4 -10   12.60    1.70
  -3   4 -10   11.60    1.40
   3  -4  10   16.60    2.00
   3  -4  10   10.30    5.60
   4  -4  10    5.00    6.40
  -5   4 -10  110.59    5.20
  -5   4 -10  104.69    5.20
  -5   4 -10  111.69    5.80
   5  -4  10  111.79    5.70
   5  -4  10  129.89   14.20
  -6   4 -10   53.89    3.50
  -6   4 -10   47.40    4.10
   6  -4  10   57.49   13.40
   6  -4  10   51.29    4.00
  -7   4 -10    7.30    1.70
   6   3 -10   12.20    2.40
  -6  -3  10   11.60    2.30
   5   3 -10   90.09    5.20
   4   3 -10   33.70    3.10
   4   3 -10   42.50    3.20
  -4  -3  10   41.10    2.70
   3   3 -10    2.10    1.20
   3   3 -10    1.90    1.10
  -3  -3  10    1.30    2.80
  -3  -3  10    0.40    1.00
   2   3 -10  225.78    8.70
   2   3 -10  223.98    8.90
  -2  -3  10  210.28   12.30
  -2  -3  10  223.38    8.40
   1   3 -10   -0.60    0.80
   1   3 -10    0.50    0.70
   1   3 -10    0.30    0.80
  -1  -3  10   -0.40    0.80
  -1  -3  10    1.90    3.30
   0   3 -10  647.24   22.30
   0   3 -10  615.64   22.60
   0   3 -10  630.04   22.20
   0  -3  10  662.83   27.80
   0  -3  10  626.74   22.20
  -1   3 -10    4.20    0.90
  -1   3 -10    2.20    0.80
  -1   3 -10    2.10    0.90
  -1   3 -10    7.70    5.20
   1  -3  10    4.00    1.10
   1  -3  10    2.10    4.20
  -2   3 -10    1.60    0.70
  -2   3 -10    0.40    3.60
  -2   3 -10   -0.30    0.90
   2  -3  10   -0.60    0.90
  -3   3 -10   51.39    2.70
   3  -3  10   46.10    3.10
   3  -3  10   46.60    9.20
  -4   3 -10   47.90    8.80
  -4   3 -10   55.09    3.10
  -4   3 -10   55.39    3.00
  -4   3 -10   56.89    3.60
   4  -3  10   55.59    9.70
   4  -3  10   55.09    3.50
  -5   3 -10   45.10    2.90
  -5   3 -10   40.40    3.00
  -5   3 -10   46.90    3.60
   5  -3  10   42.40    3.40
   5  -3  10   44.40   10.70
  -6   3 -10  227.18    9.30
  -6   3 -10  236.18    9.90
  -7   3 -10   38.80    3.20
   6   2 -10   20.80    2.70
  -6  -2  10   31.30    3.20
   5   2 -10    1.60    1.30
  -5  -2  10    1.40    1.00
   4   2 -10   12.50    1.90
  -4  -2  10   18.00    2.20
   3   2 -10    0.70    0.90
   3   2 -10   -1.20    1.00
  -3  -2  10    0.70    0.90
   2   2 -10   83.59    4.00
   2   2 -10   87.79    3.90
  -2  -2  10   84.59    4.10
   1   2 -10    2.90    0.80
   1   2 -10    2.40    0.90
  -1  -2  10    3.50    1.00
  -1  -2  10    0.90    2.60
   0   2 -10  218.08    8.10
   0   2 -10  224.58    8.40
   0   2 -10  218.18    8.60
   0   2 -10  254.37   14.20
   0  -2  10  218.48    8.60
  -1   2 -10  832.42   28.30
  -1   2 -10  840.92   28.30
  -1   2 -10  794.42   28.60
  -1   2 -10  864.01   33.30
   1  -2  10  793.02   28.60
  -2   2 -10   -0.30    0.60
  -2   2 -10   -0.10    0.70
  -2   2 -10   -3.90    3.20
   2  -2  10   -0.50    0.70
   2  -2  10   -2.80    3.30
  -3   2 -10  117.09    4.80
  -3   2 -10  115.19    5.40
   3  -2  10  116.89    5.30
  -4   2 -10  112.39    4.70
  -4   2 -10  110.79    5.50
  -4   2 -10  117.89    5.00
   4  -2  10  107.69    5.30
  -6   2 -10    0.90    1.30
  -6   2 -10   -0.20    1.00
  -7   2 -10   37.50    4.40
   7   1 -10   11.60    2.40
   6   1 -10    1.70    1.40
  -6  -1  10    0.60    1.00
  -6  -1  10    0.20    1.40
   5   1 -10    5.40    1.50
  -5  -1  10    6.30    1.30
   4   1 -10  103.19    5.20
  -4  -1  10  110.49    5.00
   3   1 -10   21.00    2.00
   3   1 -10   14.40    1.80
  -3  -1  10   16.70    2.10
   2   1 -10    0.40    0.60
   2   1 -10   -0.20    0.70
  -2  -1  10   -2.50    3.20
  -2  -1  10   -0.30    0.70
   1   1 -10   98.19    4.40
   1   1 -10   98.29    4.20
  -1  -1  10   99.29    4.50
   0   1 -10    6.40    0.90
   0   1 -10    4.50    0.80
   0   1 -10    5.80    1.30
   0   1 -10   10.30    4.60
   0  -1  10    6.10    1.10
  -1   1 -10  163.98    6.80
  -1   1 -10  162.68    6.50
  -1   1 -10  168.38    6.20
  -1   1 -10  179.98   11.20
   1  -1  10  158.18    6.80
  -2   1 -10   30.00    2.60
  -2   1 -10   26.60    6.90
  -2   1 -10   34.30    1.80
   2  -1  10   31.10    2.60
  -3   1 -10   44.20    8.30
  -4   1 -10    7.70    1.30
  -4   1 -10    1.60    4.90
  -4   1 -10    8.00    1.60
   4  -1  10   10.30    1.70
  -5   1 -10   66.39    3.60
  -5   1 -10   65.79    4.20
  -6   1 -10   -1.30    1.50
   6  -1  10   -2.90    1.30
   7   0 -10   -1.10    1.10
  -7   0  10    0.10    1.40
  -7   0  10   -0.50    1.10
   6   0 -10   10.00    2.00
  -6   0  10   10.20    1.90
  -6   0  10    7.90    1.60
   5   0 -10   24.70    2.60
  -5   0  10   26.90    2.60
  -5   0  10   25.00    2.80
   4   0 -10   73.59    4.10
  -4   0  10   72.89    4.00
   3   0 -10    1.80    0.90
  -3   0  10    2.40    1.10
   2   0 -10   10.30    1.30
   2   0 -10   11.60    1.40
  -2   0  10    9.30    1.40
   1   0 -10  608.34   26.10
   1   0 -10  585.74   20.40
  -1   0  10  582.74   20.90
   0   0 -10  449.46   20.10
   0   0 -10  412.16   14.60
   0   0 -10  406.56   14.70
   0   0 -10  420.66   15.30
   0   0  10  414.46   15.30
  -1   0 -10  391.46   18.60
  -1   0 -10  366.66   13.80
   1   0  10  365.36   13.70
  -2   0 -10   85.69    9.40
  -2   0 -10   97.89    4.70
   2   0  10   98.89    4.60
   2   0  10   95.19    5.10
  -3   0 -10  273.37   10.80
   3   0  10  282.07   10.80
  -5   0 -10   30.70    3.20
   5   0  10   35.90    3.20
   7  -1 -10   -0.30    1.10
  -7   1  10   -0.70    1.30
  -7   1  10   -0.60    1.20
   6  -1 -10   22.50    2.70
  -6   1  10   18.20    2.20
  -6   1  10   15.30    2.10
   5  -1 -10  159.28    7.10
  -5   1  10  161.98    6.80
  -5   1  10  159.28    7.10
   4  -1 -10    7.30    1.40
   4  -1 -10    5.90    1.40
  -4   1  10    7.00    1.40
   3  -1 -10    1.50    1.00
  -3   1  10    1.90    1.00
   2  -1 -10   35.70    2.60
  -2   1  10   34.00    2.70
   1  -1 -10  134.69    4.60
   1  -1 -10  119.09   10.20
   1  -1 -10  123.39    4.90
   1  -1 -10  127.89    5.70
  -1   1  10  127.49    5.70
   0  -1 -10    9.60    0.90
   0  -1 -10    8.20    1.40
   0  -1 -10    7.70    4.10
   0   1  10   10.00    1.60
  -1  -1 -10   54.09    3.40
  -1  -1 -10   60.89    7.80
   1   1  10   57.29    3.40
   1   1  10   53.59    3.00
  -2  -1 -10   23.20    2.50
  -2  -1 -10   19.10    5.50
   2   1  10   21.80    1.90
   2   1  10   22.10    2.40
  -3  -1 -10   55.49    3.80
  -3  -1 -10   56.29   10.40
   3   1  10   55.69    3.50
   3   1  10   59.09    4.70
  -4  -1 -10   49.80    3.70
   4   1  10   42.90    3.40
   5   1  10   49.10    3.90
   8  -2 -10   19.40    2.60
   7  -2 -10    6.30    1.70
  -7   2  10    6.40    1.80
  -7   2  10    8.40    1.80
   6  -2 -10    1.00    1.20
  -6   2  10    0.70    1.20
  -6   2  10    0.80    1.40
   5  -2 -10   -0.20    0.90
  -5   2  10    0.00    1.00
  -5   2  10    1.00    1.30
   4  -2 -10    0.50    0.90
  -4   2  10    0.90    1.20
  -4   2  10    3.00    1.00
   3  -2 -10   55.79    3.50
  -3   2  10   56.09    3.70
   2  -2 -10  115.59    5.30
  -2   2  10  104.49    5.30
   1  -2 -10  166.48    6.40
   1  -2 -10  174.08    6.00
   1  -2 -10  141.89   11.40
   1  -2 -10  174.58    7.10
  -1   2  10  164.38    7.10
   0  -2 -10  133.59   10.50
   0  -2 -10  123.89    5.50
   0  -2 -10  132.09    5.00
   0  -2 -10  136.39    6.00
   0   2  10  125.59    5.90
  -1  -2 -10   74.29    8.60
  -1  -2 -10   69.59    4.00
   1   2  10   65.29    3.70
   1   2  10   67.39    3.90
   1   2  10   65.69    3.60
  -2  -2 -10   82.69   10.00
  -2  -2 -10   88.49    4.80
   2   2  10   91.19    4.60
   2   2  10   92.39    4.80
   2   2  10   90.09    4.60
  -3  -2 -10   44.30    9.70
  -3  -2 -10   36.00    3.30
   3   2  10   34.90    3.10
  -4  -2 -10    8.00    8.30
  -4  -2 -10   13.70    2.30
   4   2  10   13.10    2.20
   7  -3 -10   72.39    4.50
  -7   3  10   80.29    5.10
  -7   3  10   75.59    4.30
   6  -3 -10  285.57   11.10
  -6   3  10  280.67   11.40
  -6   3  10  252.77   10.50
   5  -3 -10    0.50    1.10
   5  -3 -10    2.60    1.20
  -5   3  10    0.50    1.00
  -5   3  10   -0.30    1.30
   4  -3 -10  167.68    7.50
  -4   3  10  164.88    6.70
  -4   3  10  176.78    7.70
   3  -3 -10   50.59    3.50
  -3   3  10   53.99    3.70
  -3   3  10   51.19    2.70
   2  -3 -10   12.10    1.80
  -2   3  10   10.90    1.70
   1  -3 -10  118.19    4.50
   1  -3 -10  113.89    5.50
   1  -3 -10  103.99    5.30
  -1   3  10  116.39    5.50
  -1   3  10  116.69    4.80
   0  -3 -10   71.49    8.70
   0  -3 -10   68.79    3.20
   0  -3 -10   65.99    3.70
   0  -3 -10   72.99    4.20
   0   3  10   66.39    3.60
   0   3  10   65.39    4.00
  -1  -3 -10   53.09    2.90
  -1  -3 -10   51.89    3.50
  -1  -3 -10   54.39    8.10
  -1  -3 -10   53.59    3.80
   1   3  10   51.89    3.60
   1   3  10   54.59    3.60
   1   3  10   51.09    3.40
  -2  -3 -10    3.80    5.00
  -2  -3 -10    3.40    1.40
   2   3  10    6.00    1.70
   2   3  10    3.90    1.40
  -3  -3 -10   22.70    2.70
  -3  -3 -10   27.10    7.70
   3   3  10   26.30    2.90
  -7   4  10   19.10    2.20
   6  -4 -10   57.79    3.70
  -6   4  10   61.59    4.60
  -6   4  10   53.09    3.70
   5  -4 -10   52.49    3.90
  -5   4  10   53.89    4.20
   4  -4 -10   34.60    3.20
  -4   4  10   35.10    3.50
   3  -4 -10    9.00    1.80
  -3   4  10    9.20    1.80
   2  -4 -10    1.70    1.30
   2  -4 -10    1.00    0.70
  -2   4  10   -0.70    1.00
   1  -4 -10   12.60    1.30
   1  -4 -10   12.60    2.00
  -1   4  10   12.90    2.00
   0  -4 -10    6.20    1.40
   0  -4 -10    3.10    0.90
   0  -4 -10    5.00    1.60
   0  -4 -10    0.50    3.70
   0   4  10    4.50    1.60
   0   4  10    5.90    1.30
   0   4  10    2.10    1.40
  -1  -4 -10   94.39   10.40
  -1  -4 -10   90.69    5.20
  -1  -4 -10   92.99    4.30
   1   4  10   80.59    4.60
   1   4  10   94.39    5.20
  -2  -4 -10   26.50    2.50
  -2  -4 -10   29.20    3.60
  -2  -4 -10   37.10    8.60
   2   4  10   26.30    3.00
   2   4  10   35.20    3.40
   3   4  10   98.79    7.80
   6  -5 -10   55.79    4.50
  -6   5  10   57.69    4.70
   5  -5 -10    0.10    1.30
  -5   5  10    1.20    1.60
   4  -5 -10  115.29    6.20
  -4   5  10  114.39    6.30
   3  -5 -10   15.60    2.20
  -3   5  10   17.80    2.40
   2  -5 -10    2.00    1.10
   2  -5 -10    0.90    1.20
  -2   5  10    2.00    1.30
   1  -5 -10   17.60    2.50
   1  -5 -10   21.20    1.90
   0  -5 -10   10.90    2.20
   0  -5 -10   11.50    1.50
   0  -5 -10    4.90    4.00
   0   5  10   14.20    2.50
  -1  -5 -10   -2.30    3.90
  -1  -5 -10   -1.20    1.50
  -1  -5 -10    0.20    0.90
   1   5  10    1.60    1.20
   1   5  10    0.50    1.50
  -2  -5 -10   -0.30    7.30
   2   5  10   -0.30    1.20
   2   5  10   -0.50    1.40
   6  -6 -10   55.99    4.50
   5  -6 -10   85.39    5.60
  -5   6  10   90.79    5.90
   4  -6 -10    4.60    1.70
  -4   6  10    7.10    1.90
   3  -6 -10   44.20    4.10
  -3   6  10   48.00    4.20
   2  -6 -10    1.40    1.40
   1  -6 -10    3.10    1.00
   1  -6 -10    1.20    1.90
  -1   6  10    3.20    1.90
   0  -6 -10   -0.30    0.70
   0   6  10    2.30    1.80
  -1   9 -11    7.30    2.00
   1  -9  11    8.70    1.60
  -2   9 -11   10.20    2.10
   2  -9  11    8.50    1.80
  -3   9 -11    1.00    1.40
   3  -9  11    1.70    1.40
  -4   9 -11    0.60    1.50
   2   8 -11    2.70    1.50
   1   8 -11   15.40    2.30
   1   8 -11   11.80    2.30
   0   8 -11   48.00    4.10
   0  -8  11   52.49    3.20
  -1   8 -11    3.70    1.60
   1  -8  11    4.10    8.80
   1  -8  11    4.20    1.30
  -2   8 -11   26.00    3.00
   2  -8  11   26.90    3.00
  -3   8 -11    9.80    1.90
   3  -8  11   13.10    2.10
  -4   8 -11   -0.60    1.20
   4  -8  11    0.00    1.00
   4  -8  11   -1.60    1.20
   4  -8  11   -1.10    7.50
  -5   8 -11   10.30    2.00
   5  -8  11   11.00    2.40
   5  -8  11    7.30    1.30
   5  -8  11   -2.80    9.80
   3   7 -11    0.70    1.50
   2   7 -11    3.80    1.70
   2   7 -11    3.50    1.60
   1   7 -11    1.80    1.40
   1   7 -11   -0.20    1.30
  -1  -7  11    0.80    0.90
  -1  -7  11   -5.00    7.00
   0   7 -11    4.40    1.50
   0   7 -11    1.50    1.30
   0  -7  11    0.10    8.00
   0  -7  11    3.40    1.10
  -1   7 -11    5.20    1.40
  -1   7 -11    4.50    1.40
   1  -7  11   -1.50    7.80
   1  -7  11    2.50    1.30
  -2   7 -11    1.00    1.10
   2  -7  11   -0.30    1.20
   2  -7  11    1.40    1.10
   2  -7  11   -5.30    6.90
  -3   7 -11   28.90    2.90
   3  -7  11   28.30    3.10
  -4   7 -11    0.30    1.20
   4  -7  11   -0.70    1.20
   4  -7  11   -0.40    6.90
   4  -7  11   -0.90    0.70
  -5   7 -11    8.90    1.90
  -5   7 -11   10.40    1.90
   5  -7  11    7.90    1.90
   5  -7  11    0.70    6.30
  -6   7 -11   -0.40    1.20
  -6   7 -11   -0.70    1.40
  -6   7 -11   -1.40    1.80
   6  -7  11   -0.10    1.60
   3   6 -11   -0.90    1.30
   3   6 -11   -2.20    1.20
   2   6 -11    2.50    1.50
   2   6 -11    0.40    1.30
  -2  -6  11    1.10    6.90
   1   6 -11   -0.50    1.10
   1   6 -11    0.40    1.20
  -1  -6  11   -0.10    0.90
  -1  -6  11   -2.10    6.40
   0   6 -11   26.90    2.70
   0   6 -11   23.40    2.60
   0  -6  11   29.60    2.50
   0  -6  11   16.60    7.70
  -1   6 -11  115.89    5.40
  -1   6 -11  117.39    5.20
   1  -6  11   89.79   14.00
   1  -6  11  116.39    5.20
  -2   6 -11   18.20    1.90
  -2   6 -11   21.70    2.40
   2  -6  11   18.20    2.20
   2  -6  11    8.10    7.20
   2  -6  11   19.90    2.00
  -3   6 -11   94.89    4.80
  -3   6 -11   91.59    4.80
   3  -6  11   96.59   12.40
   3  -6  11  102.39    5.10
  -4   6 -11    0.30    1.20
  -4   6 -11    0.10    1.00
   4  -6  11   -0.70    5.60
   4  -6  11   -0.30    1.20
  -5   6 -11  142.29    6.80
  -5   6 -11  128.29    6.30
   5  -6  11  138.19    6.80
   5  -6  11  143.89   16.50
  -6   6 -11    2.90    1.50
  -6   6 -11    3.00    1.60
  -6   6 -11    2.90    1.40
   6  -6  11    3.20    1.80
   6  -6  11    2.80    8.50
  -7   6 -11   15.70    2.40
   4   5 -11    6.40    1.90
   4   5 -11    6.80    1.80
   3   5 -11   16.80    2.30
   3   5 -11   18.70    2.50
   2   5 -11    0.50    1.20
   2   5 -11    1.40    1.30
  -2  -5  11    1.20    1.00
  -2  -5  11    1.30    5.20
   1   5 -11    2.20    1.20
   1   5 -11    2.40    1.30
  -1  -5  11    6.90    6.30
  -1  -5  11    4.00    1.10
   0   5 -11    6.50    1.50
   0   5 -11   10.20    1.70
   0  -5  11    7.00    1.30
   0  -5  11   14.50    6.70
  -1   5 -11   85.19    4.30
  -1   5 -11   85.99    4.40
   1  -5  11   85.79    4.40
   1  -5  11   84.99    4.10
   1  -5  11  106.39   12.40
  -2   5 -11   13.00    1.70
  -2   5 -11    8.60    1.40
   2  -5  11   11.30    1.80
   2  -5  11   17.60    7.70
  -3   5 -11   43.70    2.90
  -3   5 -11   43.90    3.20
   3  -5  11   44.20    3.30
   3  -5  11   45.60    9.60
  -5   5 -11   61.99    3.80
  -5   5 -11   59.89    3.70
  -5   5 -11   63.79    4.40
   5  -5  11   60.69    4.30
   5  -5  11   68.59   13.20
  -6   5 -11  105.59    5.50
  -6   5 -11  111.89    6.10
  -6   5 -11  100.19    5.40
   6  -5  11  128.29   16.20
   6  -5  11  106.69    5.90
   5   4 -11    1.90    1.50
   4   4 -11    1.20    1.30
   4   4 -11    1.30    1.40
   3   4 -11    3.80    1.40
   3   4 -11    5.70    1.60
  -3  -4  11    2.20    1.10
   2   4 -11   15.00    2.00
   2   4 -11   14.20    2.00
  -2  -4  11   12.60    1.50
  -2  -4  11   13.20    5.00
   1   4 -11  111.69    5.40
   1   4 -11  115.49    5.50
  -1  -4  11  140.59   11.40
  -1  -4  11  118.39    5.30
   0   4 -11   27.30    2.40
   0   4 -11   26.70    2.40
   0  -4  11   30.80    8.50
   0  -4  11   30.30    2.50
  -1   4 -11   71.69    3.60
  -1   4 -11   66.39    3.60
  -1   4 -11   54.89    9.40
   1  -4  11   72.89    9.30
   1  -4  11   69.29    3.80
  -2   4 -11   25.20    2.10
  -2   4 -11   20.20    2.20
   2  -4  11   22.10    7.10
   2  -4  11   21.40    2.50
  -3   4 -11    0.70    1.10
  -3   4 -11    0.60    0.80
   3  -4  11    0.80    1.10
   3  -4  11   -1.60    5.30
  -4   4 -11   56.09    8.90
  -4   4 -11   62.59    3.50
  -4   4 -11   69.59    4.20
   4  -4  11   60.49    3.90
   4  -4  11   71.79   11.20
  -5   4 -11   49.90    3.40
  -5   4 -11   55.09    4.10
  -5   4 -11   47.00    3.20
   5  -4  11   51.09    3.80
   5  -4  11   59.19   13.50
  -6   4 -11   14.00    2.40
  -6   4 -11   25.50   10.20
  -6   4 -11   12.30    2.00
   6  -4  11   13.20    2.20
   6  -4  11    9.10    8.40
   5   3 -11   58.99    4.20
   4   3 -11   68.79    4.40
  -4  -3  11   73.49    3.90
   3   3 -11    0.20    1.10
   3   3 -11    0.80    1.10
  -3  -3  11   -0.10    1.00
   2   3 -11   41.20    3.00
   2   3 -11   44.10    3.00
  -2  -3  11   42.70    6.50
  -2  -3  11   47.80    3.00
   1   3 -11   17.40    2.10
   1   3 -11   17.60    2.10
  -1  -3  11   23.30    2.20
  -1  -3  11   18.40    4.90
   0   3 -11   89.49    4.20
   0   3 -11   85.39    4.10
   0  -3  11   95.89    4.30
   0  -3  11   79.59    8.70
  -1   3 -11  409.26   15.10
  -1   3 -11  419.86   21.10
  -1   3 -11  421.36   14.90
   1  -3  11  418.76   15.20
   1  -3  11  411.76   21.40
  -2   3 -11   78.59    3.60
  -2   3 -11   75.49    3.90
   2  -3  11   62.89   10.00
   2  -3  11   77.79    4.00
  -3   3 -11   38.60    2.40
  -3   3 -11   35.30    8.20
   3  -3  11   39.20    3.00
   3  -3  11   37.80    9.20
  -4   3 -11   63.19    3.40
  -4   3 -11   68.49    4.30
   4  -3  11   68.99    4.10
   4  -3  11   65.79   11.00
  -5   3 -11  107.49    5.30
  -5   3 -11  111.99    5.90
   5  -3  11  104.49    5.60
   5  -3  11  119.89   14.90
  -6   3 -11   16.10    2.10
  -6   3 -11   11.30    2.10
   6   2 -11    0.40    1.40
  -6  -2  11    2.70    1.90
   5   2 -11   41.80    3.70
  -5  -2  11   50.49    3.40
   4   2 -11  202.68    8.90
  -4  -2  11  213.88    8.40
   3   2 -11   -0.50    0.90
   3   2 -11    0.60    1.10
  -3  -2  11   -0.60    0.90
   2   2 -11    1.90    1.00
   2   2 -11    1.90    1.10
  -2  -2  11    4.50    1.10
  -2  -2  11   -1.90    3.80
   1   2 -11  108.89    4.80
   1   2 -11  107.69    4.80
  -1  -2  11  107.69    4.90
   0   2 -11   32.30    2.50
   0   2 -11   46.80    8.10
   0   2 -11   31.80    2.20
   0  -2  11   29.90    2.60
  -1   2 -11   -2.40    4.60
  -1   2 -11    2.80    1.10
  -1   2 -11    3.40    0.80
   1  -2  11    0.00    3.50
   1  -2  11    2.70    1.10
  -2   2 -11   25.50    1.80
  -2   2 -11   23.50    2.50
   2  -2  11   19.80    2.40
  -3   2 -11  110.79    4.70
  -3   2 -11  110.99    5.30
   3  -2  11  105.39    5.20
  -4   2 -11    9.60    1.90
  -4   2 -11    3.30    5.30
   4  -2  11    3.30    6.00
   4  -2  11    7.40    1.50
  -5   2 -11  133.49    6.10
  -5   2 -11  142.49    6.80
   5  -2  11  143.99    7.00
  -6   2 -11   28.10    2.70
   6   1 -11   19.10    2.80
  -6  -1  11   14.40    2.30
  -6  -1  11   15.30    1.90
   5   1 -11   -0.20    1.20
  -5  -1  11    0.60    1.10
   4   1 -11   32.40    2.90
  -4  -1  11   34.60    2.90
   3   1 -11   -1.60    0.90
  -3  -1  11    0.80    1.00
   2   1 -11   23.70    2.10
   2   1 -11   22.00    2.00
  -2  -1  11   22.50    2.30
   1   1 -11   55.79    2.90
  -1  -1  11   55.99    3.30
   0   1 -11   69.39    3.80
   0   1 -11   88.19    9.10
   0   1 -11   68.49    3.30
   0  -1  11   71.29    3.90
  -1   1 -11   66.69    3.00
  -1   1 -11   69.59    3.80
  -1   1 -11   68.49    8.30
   1  -1  11   62.49    3.70
  -2   1 -11   -0.30    1.00
  -2   1 -11   -0.30    4.10
   2  -1  11   -0.80    1.00
  -3   1 -11  312.37   12.10
   3  -1  11  312.67   12.00
  -4   1 -11   23.90    2.90
   4  -1  11   23.90    2.70
  -5   1 -11   32.20    3.40
   7   0 -11   -0.20    1.40
  -7   0  11   -1.10    1.10
   6   0 -11   49.60    3.80
  -6   0  11   53.19    3.80
  -6   0  11   50.09    3.80
   5   0 -11   51.79    3.70
  -5   0  11   51.89    3.80
  -5   0  11   51.59    3.50
   4   0 -11   72.89    4.20
  -4   0  11   73.69    4.30
   3   0 -11   71.89    3.80
  -3   0  11   66.19    3.90
   2   0 -11   98.59    4.70
  -2   0  11  102.89    4.90
   1   0 -11  428.56   21.20
   1   0 -11  403.56   15.00
   1   0 -11  394.66   14.30
  -1   0  11  402.96   15.00
   0   0 -11    1.60    4.20
   0   0 -11    1.10    0.90
   0   0  11   -0.30    1.00
   0   0  11    6.30    4.90
  -1   0 -11   27.40    6.90
  -1   0 -11   21.90    2.50
   1   0  11   23.60    2.50
  -2   0 -11   20.50    2.50
  -2   0 -11   18.90    6.00
   2   0  11   23.00    2.50
  -3   0 -11   14.80    2.10
  -3   0 -11   14.20    6.30
   3   0  11   17.40    2.20
  -4   0 -11    1.90    6.00
  -4   0 -11   13.60    2.00
   5   0  11   10.90    2.20
   7  -1 -11    0.80    1.30
  -7   1  11   -1.00    1.50
  -7   1  11    1.60    1.40
   6  -1 -11    1.30    1.30
  -6   1  11   -0.70    1.20
  -6   1  11   -1.60    1.20
   5  -1 -11    2.10    1.20
  -5   1  11    2.30    1.30
  -5   1  11    2.40    1.40
   4  -1 -11    6.30    1.50
  -4   1  11    2.90    1.30
   3  -1 -11  126.69    5.80
  -3   1  11  128.89    6.00
   2  -1 -11  148.19    6.40
  -2   1  11  139.99    6.40
   1  -1 -11  227.28    9.10
   1  -1 -11  217.88   14.10
  -1   1  11  224.98    9.10
   0  -1 -11  284.17   11.40
   0  -1 -11  311.47   16.60
   0   1  11  289.27   11.40
  -1  -1 -11   48.80    8.50
  -1  -1 -11   47.60    3.30
   1   1  11   45.10    2.80
   1   1  11   45.60    3.30
  -2  -1 -11   57.09    3.80
  -2  -1 -11   47.20    9.00
   2   1  11   53.19    3.70
  -3  -1 -11   14.20    2.20
  -3  -1 -11   14.60    6.90
   3   1  11   14.40    2.10
  -4  -1 -11    2.50    1.60
  -4  -1 -11    6.00    9.60
   4   1  11    3.90    1.70
   7  -2 -11   58.89    4.10
  -7   2  11   48.90    3.80
   6  -2 -11   18.00    2.40
  -6   2  11   16.40    2.40
  -6   2  11   15.50    2.10
   5  -2 -11  232.88    9.70
  -5   2  11  243.58   10.10
  -5   2  11  230.88    9.30
   4  -2 -11   14.70    1.90
  -4   2  11   14.10    2.10
  -4   2  11   18.50    1.90
   3  -2 -11  140.99    6.50
  -3   2  11  140.19    6.70
   2  -2 -11    2.90    1.10
  -2   2  11    3.30    1.20
   1  -2 -11    8.80    4.90
  -1   2  11   11.50    1.70
   0  -2 -11   11.60    1.70
   0  -2 -11   16.10    1.30
   0  -2 -11   18.80    5.50
   0   2  11   16.90    2.20
  -1  -2 -11  221.18    8.10
  -1  -2 -11  190.98    8.70
  -1  -2 -11  231.68    9.30
  -1  -2 -11  240.18   14.90
   1   2  11  223.18    9.10
   1   2  11  206.18    8.70
   1   2  11  209.18    8.60
  -2  -2 -11    0.00    4.60
  -2  -2 -11    1.10    1.30
   2   2  11    2.00    1.30
  -3  -2 -11  141.59   14.50
  -3  -2 -11  139.29    6.80
   3   2  11  136.69    6.60
   7  -3 -11    4.20    1.60
  -7   3  11    2.80    1.40
   6  -3 -11    4.50    1.50
  -6   3  11    5.00    1.50
  -6   3  11    3.70    1.90
   5  -3 -11   33.80    2.90
  -5   3  11   25.10    2.40
  -5   3  11   30.60    3.50
   4  -3 -11   23.30    2.80
  -4   3  11   25.40    2.60
  -4   3  11   21.00    2.50
   3  -3 -11    0.50    1.00
  -3   3  11    1.50    1.30
   2  -3 -11   12.40    1.80
  -2   3  11   15.70    2.20
   1  -3 -11   96.49    5.20
  -1   3  11   96.29    5.10
   0  -3 -11   14.90    1.50
   0  -3 -11   16.30    5.80
   0  -3 -11   14.40    2.10
   0   3  11   14.60    2.20
   0   3  11   16.00    1.90
  -1  -3 -11   17.50    1.80
  -1  -3 -11   17.50    5.90
  -1  -3 -11   16.40    2.40
   1   3  11   19.10    2.20
   1   3  11   19.70    2.50
  -2  -3 -11   82.29    5.10
  -2  -3 -11   79.89    4.10
  -2  -3 -11   92.69   10.80
   2   3  11   77.49    4.60
   3   3  11    7.20    1.90
   6  -4 -11   43.30    3.40
  -6   4  11   47.60    4.50
   5  -4 -11    3.50    1.50
  -5   4  11    2.60    1.60
   4  -4 -11   95.99    5.60
  -4   4  11  103.39    5.80
   3  -4 -11    2.60    1.40
  -3   4  11    1.00    1.40
   2  -4 -11  101.59    5.60
  -2   4  11  102.79    5.60
   1  -4 -11    1.50    4.70
   1  -4 -11    6.50    1.70
  -1   4  11    5.90    1.60
   0  -4 -11   87.69    5.20
   0  -4 -11   63.39    8.90
   0  -4 -11   88.39    3.90
   0   4  11   86.89    5.00
  -1  -4 -11    8.30    2.00
  -1  -4 -11   13.10    1.70
  -1  -4 -11   13.40    5.70
   1   4  11   11.30    1.90
   1   4  11   15.60    2.40
  -2  -4 -11    7.60    1.40
  -2  -4 -11    0.60    7.90
   2   4  11    7.40    1.80
   5  -5 -11   14.80    2.60
  -5   5  11   14.30    2.60
   4  -5 -11   26.00    3.30
  -4   5  11   25.90    3.20
   3  -5 -11    2.70    1.50
  -3   5  11    0.30    1.50
   2  -5 -11  168.08    8.10
  -2   5  11  167.98    8.10
   1  -5 -11   97.69    5.90
  -1   5  11  104.69    5.90
   0  -5 -11   -2.00    3.90
   0   5  11    3.20    1.70
  -1  -5 -11    5.20    1.20
  -1  -5 -11   -3.20    5.50
   1   5  11    5.50    2.00
  -4   6  11   87.69    5.80
  -3   6  11    2.10    2.30
  -1   6  11   77.59    7.20
   1  -9  12    5.00    1.50
  -1  -8  12    3.40   11.10
   0   8 -12    1.90    1.70
   0  -8  12    2.90    1.30
   0  -8  12   -3.50    8.70
  -1   8 -12   14.00    2.30
   1  -8  12   14.70    2.00
   1  -8  12   -4.20    8.60
  -2   8 -12    1.40    1.30
   2  -8  12   -2.10    8.30
   2  -8  12    0.30    1.20
  -3   8 -12   -0.80    1.20
   3  -8  12    0.10    1.30
   3  -8  12   -6.40    7.20
  -4   8 -12    1.00    1.40
   4  -8  12    1.60    1.70
  -5   8 -12    4.00    1.70
   2   7 -12   -0.30    1.40
   2   7 -12   -0.30    1.50
   1   7 -12    4.50    1.70
   1   7 -12    2.50    1.60
  -1  -7  12    3.20    1.20
  -1  -7  12    1.10    7.30
   0   7 -12   10.50    1.90
   0   7 -12    9.20    1.90
   0  -7  12    8.40    8.30
   0  -7  12    6.10    1.40
  -1   7 -12    3.20    1.50
   1  -7  12    2.00    8.70
   1  -7  12   -1.10    1.10
  -2   7 -12    0.20    1.10
   2  -7  12   -6.20    7.30
   2  -7  12    2.10    1.30
  -3   7 -12   -1.60    1.00
   3  -7  12    0.30    1.20
   3  -7  12   -3.10    6.30
  -4   7 -12   28.40    3.00
   4  -7  12   33.00    3.50
  -5   7 -12   65.89    5.60
  -5   7 -12   59.79    4.10
   5  -7  12   62.39    4.70
  -6   7 -12    0.30    1.50
  -6   7 -12    3.90    1.70
   3   6 -12    1.40    1.50
   3   6 -12    2.10    1.50
   2   6 -12   18.60    2.60
   2   6 -12   18.40    2.40
  -2  -6  12   18.90    2.30
   1   6 -12    0.50    1.40
   1   6 -12    1.20    1.30
  -1  -6  12    0.40    6.80
  -1  -6  12    1.10    1.10
   0   6 -12   33.90    3.20
   0   6 -12   32.20    2.90
   0  -6  12   35.60    3.00
   0  -6  12   38.20   12.10
  -1   6 -12   64.79    4.00
  -1   6 -12   69.49    3.90
   1  -6  12   61.99    4.00
   1  -6  12   72.69   12.70
  -2   6 -12    3.40    1.30
  -2   6 -12    5.90    1.50
   2  -6  12    0.60    6.00
   2  -6  12    3.40    1.30
  -3   6 -12    3.40    1.30
   3  -6  12    5.60    1.60
   3  -6  12    7.30    7.20
  -4   6 -12    2.40    1.40
  -4   6 -12    3.60    1.60
   4  -6  12    3.60    7.10
   4  -6  12    2.20    1.50
  -5   6 -12   20.50    2.80
  -5   6 -12   17.00    2.20
   5  -6  12   20.10    2.80
   5  -6  12   17.10    9.10
  -6   6 -12   36.30    3.90
  -6   6 -12   30.00    3.10
   6  -6  12   34.00    3.80
   4   5 -12    0.10    1.40
   4   5 -12    1.20    1.50
   3   5 -12    0.40    1.30
   3   5 -12    0.40    1.30
  -3  -5  12   -1.70    1.50
   2   5 -12    0.70    1.30
   2   5 -12    1.00    1.30
  -2  -5  12    1.00    5.40
  -2  -5  12   -0.50    1.00
   1   5 -12    8.50    1.80
   1   5 -12    4.70    1.50
  -1  -5  12   10.20    6.00
  -1  -5  12    7.00    1.40
   0   5 -12   46.20    3.30
   0   5 -12   46.00    3.40
   0  -5  12   52.39   10.60
   0  -5  12   47.50    3.30
  -1   5 -12  252.47   10.20
  -1   5 -12  255.87   10.20
   1  -5  12  247.38   10.20
   1  -5  12  300.87   19.00
  -2   5 -12   -0.60    6.30
  -2   5 -12    4.50    1.20
  -2   5 -12    3.40    1.10
   2  -5  12    4.70    1.40
   2  -5  12    0.20    5.50
  -3   5 -12    3.40    5.70
  -3   5 -12    0.50    1.10
  -3   5 -12    0.40    1.00
   3  -5  12   -0.50    1.00
   3  -5  12   -4.70    6.20
  -4   5 -12   39.70    3.00
  -4   5 -12   46.10    3.80
   4  -5  12   49.90   10.80
   4  -5  12   42.90    3.50
  -5   5 -12   15.70    6.30
  -5   5 -12   11.70    2.20
  -5   5 -12    7.20    1.60
   5  -5  12    9.30    2.10
   5  -5  12    8.30    8.80
  -6   5 -12    9.00    2.50
   6  -5  12    5.80    1.90
   4   4 -12    1.90    1.40
   4   4 -12    0.70    1.50
   3   4 -12   19.80    2.70
   3   4 -12   15.90    2.20
  -3  -4  12   20.80    2.50
   2   4 -12    8.50    1.80
   2   4 -12    8.40    1.70
  -2  -4  12   10.10    4.70
  -2  -4  12    6.80    1.40
   1   4 -12   85.09    4.80
   1   4 -12   87.39    4.70
  -1  -4  12  113.29   11.20
  -1  -4  12   97.39    4.70
   0   4 -12   69.59    3.90
   0   4 -12   66.09    3.80
   0  -4  12   70.89    3.90
   0  -4  12   71.79    9.10
  -1   4 -12    9.70    1.50
  -1   4 -12    5.80    6.30
  -1   4 -12    5.90    1.20
   1  -4  12    5.40    5.20
   1  -4  12    6.70    1.40
  -2   4 -12   84.09    4.40
  -2   4 -12   86.09    4.20
   2  -4  12   85.79    4.60
   2  -4  12   89.29   11.70
  -3   4 -12   47.10    3.00
  -3   4 -12   46.50    3.40
   3  -4  12   47.70    3.40
   3  -4  12   48.20   10.30
  -4   4 -12   55.09    3.40
  -4   4 -12   60.09    4.20
   4  -4  12   58.69    4.00
   4  -4  12   57.29   12.10
  -5   4 -12  250.77   11.20
   5  -4  12  258.97   11.10
   5  -4  12  314.07   22.70
  -6   4 -12   15.00    2.20
   6  -4  12   13.90    2.60
   5   3 -12   14.40    2.40
   4   3 -12    6.40    1.70
  -4  -3  12    3.10    1.30
   3   3 -12    3.50    1.50
   3   3 -12    1.60    1.30
  -3  -3  12    1.10    1.20
   2   3 -12    1.60    1.20
   2   3 -12    2.50    1.20
  -2  -3  12    1.80    1.10
  -2  -3  12    1.30    4.40
   1   3 -12   15.40    1.90
   1   3 -12   18.90    2.20
  -1  -3  12   11.80    5.60
  -1  -3  12   21.60    2.30
   0   3 -12  111.69    5.10
   0   3 -12  116.19    5.10
   0  -3  12   99.39   10.70
   0  -3  12  118.79    5.30
  -1   3 -12    0.20    0.90
  -1   3 -12    0.70    0.80
  -1   3 -12    0.30    5.20
   1  -3  12    0.60    1.20
   1  -3  12   -1.10    4.30
  -2   3 -12   -5.20    4.40
  -2   3 -12   -0.40    0.70
  -2   3 -12    0.20    0.90
   2  -3  12   -2.90    4.40
   2  -3  12    0.70    1.20
  -3   3 -12  142.69    6.30
  -3   3 -12  131.89    5.60
   3  -3  12  110.19   12.80
   3  -3  12  135.19    6.10
  -4   3 -12    5.30    1.50
   4  -3  12    6.50    6.50
   4  -3  12    4.40    1.40
  -6   3 -12   27.50    2.90
   5   2 -12    2.10    1.40
  -5  -2  12   -0.60    1.10
   4   2 -12    0.60    1.20
  -4  -2  12    0.40    1.20
   3   2 -12   -0.70    1.00
   3   2 -12   -0.60    1.10
  -3  -2  12   -0.10    1.00
   2   2 -12   34.30    2.80
   2   2 -12   32.70    2.60
  -2  -2  12   37.30    3.00
   1   2 -12    8.30    1.30
   1   2 -12    3.50    1.10
  -1  -2  12    4.40    1.20
  -1  -2  12   -0.20    4.60
   0   2 -12   49.30    3.20
   0   2 -12   47.70    2.70
   0  -2  12   44.30    3.30
  -1   2 -12   31.80    2.80
  -1   2 -12   40.20    2.40
  -1   2 -12   40.90    8.20
   1  -2  12   38.60    3.00
  -2   2 -12    3.10    1.20
  -2   2 -12    0.70    4.50
   2  -2  12    3.70    1.30
   2  -2  12    0.50    4.10
  -5   2 -12   16.60    2.50
   6   1 -12    2.40    1.50
  -6  -1  12    4.20    1.90
  -6  -1  12    1.90    1.40
   5   1 -12    1.90    1.40
  -5  -1  12    1.10    1.40
   4   1 -12   15.70    2.40
  -4  -1  12   15.50    2.00
   3   1 -12   -1.10    1.10
  -3  -1  12    0.00    1.10
   2   1 -12  308.97   11.90
   2   1 -12  312.47   11.70
  -2  -1  12  326.77   12.10
   1   1 -12  139.29    6.10
   1   1 -12  134.39    5.60
  -1  -1  12  138.69    6.20
   0   1 -12  215.78    8.40
   0   1 -12  212.68    9.00
   0   1 -12  266.77   15.50
   0  -1  12  213.78    9.00
  -1   1 -12   79.39    9.50
  -1   1 -12   79.89    4.40
   1  -1  12   80.09    4.40
  -2   1 -12   82.59    4.50
  -2   1 -12   68.79    9.70
   2  -1  12   83.39    4.40
  -3   1 -12    1.60    1.30
  -3   1 -12    3.30    5.50
   3  -1  12    0.60    1.30
  -4   1 -12   25.00    3.00
   4  -1  12   30.10    3.10
   6   0 -12   46.60    3.80
  -6   0  12   42.80    3.70
  -6   0  12   47.50    3.90
   5   0 -12    0.80    1.30
  -5   0  12   -0.90    1.20
   4   0 -12    0.70    1.20
  -4   0  12    0.50    1.20
  -3   0  12   14.90    2.00
   2   0 -12  210.88    8.80
  -2   0  12  224.78    9.00
   1   0 -12    1.70    4.30
   1   0 -12    0.50    0.90
  -1   0  12   -0.50    1.00
   0   0 -12  201.98    8.50
   0   0 -12  231.48   14.70
   0   0  12  192.48    8.50
  -1   0 -12   31.30    2.90
  -1   0 -12   33.10    6.80
   1   0  12   31.80    2.90
  -2   0 -12   54.29    3.80
  -2   0 -12   51.89    9.30
   2   0  12   57.29    3.80
  -3   0 -12   14.10    6.50
  -3   0 -12   10.60    1.90
   3   0  12   12.30    2.00
  -4   0 -12   88.09    5.30
   6  -1 -12    6.60    1.90
  -6   1  12    6.30    1.70
  -6   1  12    4.20    1.70
   5  -1 -12    5.30    1.60
  -5   1  12    6.60    1.70
  -5   1  12    7.00    1.90
   4  -1 -12    1.10    1.20
  -4   1  12   -2.20    1.10
   3  -1 -12    3.30    1.30
  -3   1  12    2.20    1.30
  -2   1  12   29.50    3.00
   1  -1 -12   58.39    3.70
   1  -1 -12   47.50    8.70
  -1   1  12   57.39    3.80
   0  -1 -12    6.70    1.50
   0  -1 -12    8.40    4.70
   0   1  12    7.40    1.70
  -1  -1 -12   80.09   10.00
  -1  -1 -12   82.09    4.70
   1   1  12   75.39    4.50
  -2  -1 -12   87.79   11.30
  -2  -1 -12   85.19    5.00
   2   1  12   85.99    4.90
  -3  -1 -12   21.20    2.60
  -3  -1 -12   28.10    8.00
   3   1  12   23.80    2.80
   4   1  12   25.20    3.70
   6  -2 -12    4.00    1.50
  -6   2  12    2.90    1.40
  -6   2  12    3.00    1.70
   5  -2 -12   26.20    2.80
  -5   2  12   23.90    2.90
  -5   2  12   25.30    2.60
   4  -2 -12   74.79    4.70
  -4   2  12   74.79    4.80
  -4   2  12   73.89    3.90
   3  -2 -12    3.20    1.30
  -3   2  12    1.80    1.40
   2  -2 -12   64.99    4.00
  -2   2  12   60.49    4.10
   1  -2 -12   47.10    3.50
  -1   2  12   48.20    3.60
   0  -2 -12   10.90    2.00
   0  -2 -12   15.30    5.60
   0   2  12   15.20    2.30
   0   2  12   17.20    2.00
  -1  -2 -12   15.70    6.20
  -1  -2 -12   10.60    1.90
   1   2  12   14.70    2.30
   1   2  12   15.10    2.00
  -2  -2 -12   -0.40    5.50
  -2  -2 -12    1.00    1.40
   2   2  12   -0.10    1.30
   3   2  12    5.70    2.00
   6  -3 -12   63.59    4.30
   5  -3 -12   -0.70    1.10
  -5   3  12   -1.10    1.40
   4  -3 -12   59.39    4.20
  -4   3  12   64.19    4.60
   3  -3 -12    3.20    1.50
  -3   3  12    2.20    1.50
   2  -3 -12   74.59    4.60
  -2   3  12   72.69    4.70
   1  -3 -12    1.00    1.10
   1  -3 -12   -0.50    4.40
  -1   3  12   -0.30    1.10
   0  -3 -12   93.49   10.60
   0  -3 -12   96.29    5.50
   0   3  12   93.19    5.30
   0   3  12  103.29    5.30
  -1  -3 -12   12.60    2.20
  -1  -3 -12   13.00    6.40
   1   3  12   13.60    2.00
  -2  -3 -12   81.99   17.00
   2   3  12   58.49    4.00
   6  -4 -12    0.50    1.10
  -5   4  12   14.30    2.40
   4  -4 -12   -0.30    1.20
  -4   4  12    0.30    1.40
   3  -4 -12    0.10    1.30
  -3   4  12   -0.30    1.40
   2  -4 -12  108.29    6.20
  -2   4  12  119.69    6.30
   1  -4 -12   46.10    4.00
  -1   4  12   43.50    4.00
   0  -4 -12    0.60    1.50
   0  -4 -12   -1.70    3.80
   0   4  12    2.20    1.50
  -1  -4 -12   -4.40    5.80
   5  -5 -12    3.10    1.70
   4  -5 -12    7.40    2.00
  -4   5  12    6.30    2.10
   3  -5 -12    5.10    1.70
  -3   5  12    5.30    2.10
   2  -5 -12   32.20    5.00
  -2   5  12   28.00    3.80
   1  -5 -12    6.20    5.60
   0   5  12   23.20    3.20
   0  -8  13    0.10    1.10
  -1   8 -13    2.20    1.70
   1  -8  13    3.70    1.30
  -2   8 -13    0.00    1.30
   2  -8  13    1.00    1.20
  -3   8 -13   -0.20    1.30
  -4   8 -13    6.70    2.90
   2   7 -13    0.30    1.50
   1   7 -13   12.00    2.20
   1   7 -13   10.20    2.20
  -1  -7  13   -0.60    7.90
  -1  -7  13    9.90    1.60
   0   7 -13   60.09    4.30
   0   7 -13   63.89    4.10
   0  -7  13   64.69    3.90
   0  -7  13   41.30   13.10
  -1   7 -13   10.70    2.00
   1  -7  13   10.50    1.80
   1  -7  13   -1.50    7.20
  -2   7 -13   11.30    1.90
   2  -7  13   11.00    1.90
   2  -7  13    0.20    7.10
  -3   7 -13   -1.70    1.10
   3  -7  13   -1.80    6.40
   3  -7  13    0.10    1.30
  -4   7 -13   15.70    2.30
   4  -7  13   17.00    2.50
  -5   7 -13    1.20    1.40
   3   6 -13   -1.20    1.80
   2   6 -13    1.80    1.50
   2   6 -13    1.10    1.60
  -2  -6  13    1.10    1.20
   1   6 -13    8.30    1.90
   1   6 -13    7.20    1.90
  -1  -6  13    5.80    1.50
  -1  -6  13    5.80    6.40
   0   6 -13   62.79    4.20
   0   6 -13   68.09    4.40
   0  -6  13   70.09    4.20
   0  -6  13   81.99   12.30
  -1   6 -13    4.60    1.50
  -1   6 -13    1.90    1.40
   1  -6  13   -0.10    6.60
   1  -6  13    4.90    1.50
  -2   6 -13   10.30    1.80
   2  -6  13   11.40    1.90
   2  -6  13   11.20    7.40
  -3   6 -13   -0.60    1.10
   3  -6  13   -2.00    5.80
   3  -6  13    1.00    1.40
  -4   6 -13   21.70    2.50
  -4   6 -13   17.80    2.50
   4  -6  13   12.50    8.40
   4  -6  13   20.10    2.70
  -5   6 -13   32.70    3.90
  -5   6 -13   28.20    2.90
   5  -6  13   29.50    3.70
   3   5 -13    3.40    1.70
   3   5 -13    6.20    1.80
  -3  -5  13    6.70    1.60
   2   5 -13   16.90    2.40
   2   5 -13   22.00    2.70
  -2  -5  13   16.90    2.00
   1   5 -13   -0.50    1.30
   1   5 -13    1.80    1.40
  -1  -5  13    0.80    1.20
  -1  -5  13    0.60    6.00
   0   5 -13    2.60    1.40
   0   5 -13    3.00    1.30
   0  -5  13    0.50    1.20
   0  -5  13    0.60    4.30
  -1   5 -13   15.20    2.10
  -1   5 -13   16.20    2.00
   1  -5  13   15.00    2.00
   1  -5  13   11.80    6.30
  -2   5 -13    5.60    1.40
  -2   5 -13   -1.50    5.90
   2  -5  13    4.20    1.50
   2  -5  13    3.60    6.10
  -3   5 -13   15.10    1.90
  -3   5 -13    7.90    6.70
   3  -5  13   18.40    2.50
   3  -5  13   11.60    7.00
  -4   5 -13   76.79    4.60
  -4   5 -13   81.69    5.10
  -4   5 -13  108.29   11.70
   4  -5  13   94.89   14.40
   4  -5  13   78.49    5.10
  -5   5 -13   11.60    2.20
   5  -5  13   12.10    2.10
   5  -5  13   16.30   12.80
   4   4 -13    2.90    1.70
   3   4 -13   14.20    2.20
   3   4 -13   19.70    2.80
  -3  -4  13   15.40    1.90
   2   4 -13    8.90    1.90
   2   4 -13    7.40    1.70
  -2  -4  13    8.30    1.60
   1   4 -13   19.00    2.50
   1   4 -13   16.00    2.10
  -1  -4  13   17.30    6.50
  -1  -4  13   20.20    2.50
   0   4 -13  157.38    6.80
   0   4 -13  157.88    7.00
   0  -4  13  162.68    7.00
   0  -4  13  158.18   13.10
  -1   4 -13    3.80    1.20
  -1   4 -13    2.10    5.90
   1  -4  13   -0.60    6.40
   1  -4  13    3.60    1.30
  -2   4 -13    0.90    1.00
  -2   4 -13    3.80    5.90
   2  -4  13   -1.50    5.70
   2  -4  13   -0.20    1.20
  -3   4 -13   19.10    2.30
  -3   4 -13   18.10    2.00
   3  -4  13   16.60    7.80
   3  -4  13   20.40    2.60
  -4   4 -13    9.60    1.90
   4  -4  13   14.90    8.20
   4  -4  13   12.70    2.10
  -5   4 -13    3.30    1.60
   5  -4  13    6.20   11.10
   5  -4  13    2.70    1.50
   4   3 -13    1.10    1.40
  -4  -3  13    1.30    1.30
   3   3 -13    2.00    1.40
   3   3 -13    1.40    1.30
  -3  -3  13    2.50    1.30
   2   3 -13   61.39    3.80
   2   3 -13   59.79    4.00
  -2  -3  13   65.99    4.00
   1   3 -13    0.90    1.10
   1   3 -13    1.20    1.30
  -1  -3  13    1.30    1.20
  -1  -3  13   -1.20    5.10
   0   3 -13    2.40    1.00
   0   3 -13    0.20    1.90
   0  -3  13    0.90    1.20
   0  -3  13   -1.90    5.40
  -1   3 -13   -0.30    0.80
  -1   3 -13   -3.60    5.50
  -1   3 -13   -0.70    1.00
   1  -3  13   -0.70    1.10
  -2   3 -13    4.60    1.10
  -2   3 -13    0.10    6.00
   2  -3  13    5.70    1.50
   2  -3  13   -2.60    5.50
   3  -3  13    7.50    6.70
   4  -3  13   34.40   10.90
   4  -3  13   50.19    3.80
   5  -3  13   71.49    4.80
   5   2 -13    1.60    1.40
  -5  -2  13   -1.00    1.20
   4   2 -13   -1.60    1.20
  -4  -2  13   -1.10    1.10
   3   2 -13    5.80    1.50
   3   2 -13    8.40    2.00
  -3  -2  13    7.50    1.60
   2   2 -13  101.09    5.40
   2   2 -13  104.69    5.00
  -2  -2  13  108.99    5.40
   1   2 -13   21.40    2.20
  -1  -2  13   20.90    2.70
   0   2 -13  113.39    5.00
   0   2 -13  114.69    5.50
   0  -2  13  116.49    5.60
  -1   2 -13   16.10    2.20
  -1   2 -13    8.10    5.40
   1  -2  13   11.60    1.80
  -2   2 -13  134.39    6.10
  -2   2 -13  101.29   11.30
   2  -2  13  132.99    6.10
  -3   2 -13   -2.70    5.00
  -3   2 -13    4.30    1.30
   3  -2  13    7.60    1.80
   3  -2  13    2.50    6.60
  -4   2 -13    0.10    7.20
  -4   2 -13    3.00    1.50
   4  -2  13    5.50    1.60
   5   1 -13   15.70    2.60
  -5  -1  13   10.70    2.00
   4   1 -13   39.80    3.40
  -4  -1  13   43.80    3.60
   3   1 -13   -1.20    1.10
  -3  -1  13    0.30    1.20
   2   1 -13   36.90    2.70
  -2  -1  13   41.10    3.40
   1   1 -13    9.40    1.60
   1   1 -13   11.60    2.20
  -1  -1  13    7.60    1.60
   0   1 -13   21.10    6.70
   0   1 -13   12.00    1.80
   0  -1  13   11.30    1.90
  -1   1 -13   16.70    5.70
  -1   1 -13   21.30    2.70
   1  -1  13   23.80    2.80
  -2   1 -13   36.50    7.70
  -2   1 -13   33.90    3.50
   2  -1  13   39.30    3.40
  -3   1 -13   18.60    2.50
  -3   1 -13   16.80    6.90
   3  -1  13   19.00    2.50
  -4   1 -13    5.40    1.80
   5   0 -13   26.80    3.00
  -5   0  13   21.80    2.70
   4   0 -13   78.59    4.70
  -4   0  13   69.29    4.70
  -3   0  13   48.90    3.80
   2   0 -13   61.69    3.90
  -2   0  13   66.29    4.30
   1   0 -13  166.58   13.80
  -1   0  13  160.28    7.30
   0   0 -13    3.70    1.30
   0   0 -13    2.60    4.60
   0   0  13    4.20    1.40
  -1   0 -13   63.09    9.70
  -1   0 -13   56.59    4.10
   1   0  13   59.89    4.10
  -2   0 -13    2.00    4.90
  -2   0 -13   -0.80    1.20
   2   0  13    0.10    1.30
  -3   0 -13   44.50    4.00
  -3   0 -13   65.99   14.60
   6  -1 -13   66.19    4.90
  -6   1  13   53.79    4.10
   5  -1 -13    1.00    1.40
  -5   1  13    0.10    1.50
  -5   1  13    2.30    1.40
   4  -1 -13   61.09    4.10
  -4   1  13   63.09    4.50
   3  -1 -13    8.00    1.70
  -3   1  13   11.40    2.00
   2  -1 -13    4.60    1.40
  -2   1  13    5.10    1.60
   1  -1 -13   31.40    3.10
   1  -1 -13   27.70    7.60
  -1   1  13   35.20    3.30
   0  -1 -13  139.49   12.40
   0  -1 -13  129.09    6.40
   0   1  13  128.39    6.40
  -1  -1 -13   -1.80    5.30
  -1  -1 -13    0.70    1.30
   1   1  13    1.00    1.40
  -2  -1 -13   43.70    9.50
  -2  -1 -13   45.00    4.00
   2   1  13   43.40    3.70
   3   1  13   76.99    4.70
   6  -2 -13    8.20    2.10
  -6   2  13    7.30    1.70
   5  -2 -13   -0.30    1.10
  -5   2  13   -1.40    1.50
  -5   2  13   -1.40    1.00
  -4   2  13   -1.80    1.20
   3  -2 -13    8.70    1.90
  -3   2  13    8.30    2.00
   2  -2 -13  159.88    7.50
  -2   2  13  156.08    7.50
   1  -2 -13    0.30    1.00
   1  -2 -13    2.00    5.30
  -1   2  13   -0.50    1.20
   0  -2 -13   66.29   10.00
   0   2  13   53.89    4.10
  -1  -2 -13   72.99    4.90
  -1  -2 -13   81.79   11.00
   1   2  13   69.99    4.10
   1   2  13   68.59    4.60
   2   2  13    6.60    1.80
   5  -3 -13   24.50    2.90
   4  -3 -13   -0.40    1.30
  -4   3  13   -2.50    1.20
   3  -3 -13   -0.60    1.10
  -3   3  13   -0.50    1.40
   2  -3 -13   94.29    5.50
  -2   3  13   95.09    5.70
   1  -3 -13   65.09    4.60
  -1   3  13   65.49    4.60
   0  -3 -13   -0.70    1.30
   0  -3 -13   -6.10    4.40
   0   3  13    0.60    1.30
   4  -4 -13   -0.20    1.50
  -4   4  13   -1.60    2.00
   3  -4 -13   23.20    3.00
  -3   4  13   24.20    3.00
   2  -4 -13    9.10    2.00
  -2   4  13    7.70    2.00
   1  -4 -13    0.40    4.30
   1   7 -14    0.80    1.40
  -1  -7  14    1.00    1.10
   0   7 -14    2.90    1.60
   0  -7  14    4.10    1.40
   0  -7  14   -4.30    7.00
  -1   7 -14   -2.70    1.10
   1  -7  14   -4.10    6.90
   1  -7  14    1.30    1.40
  -2   7 -14   -0.60    1.30
   2  -7  14    0.20    1.30
   2  -7  14   -2.30   10.20
  -3   7 -14    1.00    1.40
  -4   7 -14    7.30    1.80
   2   6 -14    0.10    1.50
  -2  -6  14   -0.90    1.20
   1   6 -14    7.00    1.90
   1   6 -14    5.10    1.80
  -1  -6  14    4.70    6.90
  -1  -6  14    6.40    1.50
   0   6 -14   46.80    3.60
   0   6 -14   45.70    3.70
   0  -6  14   45.80    3.50
   0  -6  14   40.30    9.60
  -1   6 -14    0.40    1.20
  -1   6 -14    0.00    1.30
   1  -6  14   -0.70    1.30
   1  -6  14   -2.40    5.30
  -2   6 -14    4.10    1.40
   2  -6  14    7.50    1.70
   2  -6  14    4.30    7.20
  -3   6 -14   13.40    2.10
   3  -6  14   15.40    2.20
   3  -6  14   15.30    8.70
  -4   6 -14    0.10    1.20
   3   5 -14    4.10    2.00
   3   5 -14    1.50    2.50
  -3  -5  14    3.50    1.80
   2   5 -14   16.20    2.50
   2   5 -14   15.40    2.30
  -2  -5  14   15.30    1.90
   1   5 -14   34.50    3.40
   1   5 -14   35.00    3.30
  -1  -5  14   32.80    8.90
  -1  -5  14   34.90    3.10
   0   5 -14    5.30    1.70
   0   5 -14    4.30    1.50
   0  -5  14    1.70    5.00
   0  -5  14    3.70    1.50
  -1   5 -14   12.40    1.90
  -1   5 -14   14.10    2.20
   1  -5  14   14.10    2.10
   1  -5  14   16.20    7.10
  -2   5 -14    0.00    1.10
  -2   5 -14   -8.70    6.70
   2  -5  14    0.90    1.30
   2  -5  14    0.20    5.90
  -3   5 -14   45.10    5.20
  -3   5 -14   36.10    3.20
   3  -5  14   49.20    3.80
   3  -5  14   45.80   12.70
  -4   5 -14   94.29    5.60
   4  -5  14  128.69   20.70
   4  -5  14   97.49    5.70
   3   4 -14   13.20    2.40
   3   4 -14   14.00    2.20
  -3  -4  14   14.00    1.90
   2   4 -14    4.00    1.70
   2   4 -14    4.30    1.50
  -2  -4  14    4.00    1.50
   1   4 -14    7.40    1.70
   1   4 -14    6.20    1.80
  -1  -4  14    5.60    1.50
  -1  -4  14    6.10    6.30
   0   4 -14    1.30    1.40
   0   4 -14   -0.60    1.00
   0  -4  14   -3.50    6.00
   0  -4  14   -0.20    1.20
  -1   4 -14   -1.40    0.90
   1  -4  14   -4.80    6.00
   1  -4  14   -0.60    1.30
  -2   4 -14   29.60    2.70
  -2   4 -14   28.60    3.00
   2  -4  14   31.10    3.30
   2  -4  14   31.30    9.20
  -3   4 -14   27.40    3.30
   3  -4  14   21.20    8.50
   3  -4  14   23.90    2.90
  -4   4 -14    0.20    1.30
   4  -4  14    0.20    1.30
   4  -4  14   -6.10    6.70
   4   3 -14    8.30    2.30
  -4  -3  14    7.60    1.70
   3   3 -14    1.00    1.40
   3   3 -14    0.60    1.30
  -3  -3  14    2.00    1.30
   2   3 -14   10.00    2.10
   2   3 -14    8.10    1.60
  -2  -3  14    8.30    1.70
   1   3 -14    0.30    1.40
   1   3 -14   -0.80    1.10
  -1  -3  14   -0.30    5.40
  -1  -3  14   -0.50    1.30
   0   3 -14   86.49    4.50
   0  -3  14   90.79    5.00
  -1   3 -14   -0.80    1.30
  -1   3 -14   -1.40    1.10
  -1   3 -14   -5.60    5.80
   1  -3  14   -4.20    5.40
   1  -3  14   -1.30    1.10
  -2   3 -14   22.30    7.30
   2  -3  14   18.40    7.50
  -3   3 -14   12.70    1.90
   3  -3  14   10.10    7.60
   3  -3  14   16.90    2.20
  -4   3 -14   10.30    2.00
   4  -3  14   -3.90    7.70
   4  -3  14   12.70    2.20
   4   2 -14   11.20    2.40
  -4  -2  14    9.30    1.90
   3   2 -14   28.40    3.20
  -3  -2  14   28.90    3.30
   2   2 -14   34.20    3.20
   2   2 -14   31.40    2.80
  -2  -2  14   30.50    3.30
   1   2 -14    5.60    1.30
  -1  -2  14    5.50    1.60
  -1  -2  14   -2.70    5.10
   0   2 -14    3.20    5.80
   0   2 -14    2.10    1.20
   0  -2  14    0.70    1.20
   0  -2  14   -4.90    5.30
  -1   2 -14    5.50    5.40
  -1   2 -14    4.80    1.40
   1  -2  14    7.10    1.80
  -2   2 -14    8.70    6.30
   2  -2  14    2.00    6.40
  -3   2 -14   14.00    6.80
   4  -2  14   41.00    4.00
   4   1 -14    0.30    1.30
  -4  -1  14    0.20    1.40
   3   1 -14   63.89    4.30
  -3  -1  14   67.19    4.50
  -2  -1  14   -0.60    1.30
   1   1 -14   73.29    4.50
  -1  -1  14   76.69    4.70
   0   1 -14    4.80    5.70
   0   1 -14    2.50    1.20
   0  -1  14    4.30    1.70
   0  -1  14   -2.80    5.40
  -1   1 -14    6.90    1.60
  -1   1 -14    6.90    5.40
   1  -1  14    5.20    1.80
  -2   1 -14   28.80    7.80
  -2   1 -14   16.10    2.40
   2  -1  14   19.20    2.60
  -3   1 -14  127.19    6.80
   3  -1  14  126.59    6.50
   5   0 -14    0.10    1.60
  -5   0  14   -0.80    1.40
   4   0 -14    0.40    1.30
  -4   0  14    0.50    1.50
  -3   0  14    0.00    1.40
  -2   0  14   49.40    4.00
   1   0 -14    6.60    1.40
  -1   0  14    7.80    1.90
   0   0 -14   32.20    3.40
   0   0 -14   40.10    8.70
   0   0  14   30.90    3.30
  -1   0 -14   18.60    6.20
  -1   0 -14   22.40    2.70
   1   0  14   20.90    2.80
  -2   0 -14   -1.60    6.10
  -2   0 -14    1.10    1.40
   2   0  14   -1.40    1.30
   5  -1 -14   10.00    2.40
  -5   1  14   12.50    2.10
   4  -1 -14   -1.10    1.30
  -4   1  14   -1.90    1.30
  -3   1  14   -1.20    1.30
   2  -1 -14  106.99    5.80
  -2   1  14  102.29    5.80
   1  -1 -14    6.40    1.60
   1  -1 -14    3.70    5.70
  -1   1  14    7.70    1.90
   0  -1 -14    2.10    1.30
   0  -1 -14    5.40    5.60
   0   1  14    2.40    1.50
  -1  -1 -14    5.30    1.80
  -1  -1 -14    4.60    5.20
   1   1  14    4.20    1.60
   2   1  14    3.20    1.60
  -4   2  14   -1.90    1.80
   3  -2 -14    7.30    1.80
  -3   2  14    5.80    1.90
   2  -2 -14    4.70    1.60
  -2   2  14    5.70    1.70
   1  -2 -14   65.29    4.70
  -1   2  14   67.59    4.70
   0  -2 -14   19.30    7.00
   0   2  14   21.30    2.90
   3  -3 -14   62.19    4.70
  -3   3  14   57.29    5.10
   2  -3 -14   18.60    2.60
  -2   3  14   31.80    3.80
   1  -3 -14   -3.30    4.90
  -1   3  14   -2.20    1.20
   1   6 -15   -0.70    1.40
   0   6 -15    0.90    1.40
   0   6 -15    0.50    1.40
   0  -6  15   -0.20    1.60
   0  -6  15   -1.60    5.00
  -1   6 -15    0.40    1.30
   1  -6  15    0.20    5.80
  -2   6 -15   -1.20    1.30
   2  -6  15   -1.70   13.90
  -3   6 -15   24.40    2.90
   2   5 -15    4.90    1.70
   2   5 -15    6.60    2.00
  -2  -5  15    4.60    1.70
   1   5 -15   27.70    3.20
   1   5 -15   31.50    3.20
  -1  -5  15   26.00    3.20
   0   5 -15    4.90    1.70
   0   5 -15    5.30    1.70
   0  -5  15   -1.30    6.60
   0  -5  15    5.50    1.80
  -1   5 -15    0.30    1.30
  -1   5 -15    0.40    1.40
   1  -5  15   -2.70    6.70
   1  -5  15    1.50    1.40
  -2   5 -15   -2.70    1.10
   2  -5  15   -0.70    7.30
   2  -5  15    0.20    1.30
  -3   5 -15    4.30    8.20
   3  -5  15    5.90   13.70
  -4   5 -15   16.60    3.40
   3   4 -15    1.20    1.50
  -3  -4  15    4.90    2.30
   2   4 -15    1.10    1.40
   2   4 -15    0.70    1.50
  -2  -4  15    0.70    1.40
   1   4 -15    0.10    1.50
   1   4 -15    0.60    1.30
  -1  -4  15    1.30    1.40
  -1  -4  15   -2.40    7.40
   0   4 -15    2.70    1.60
   0   4 -15    3.70    1.50
   0  -4  15   -1.00    6.50
   0  -4  15    4.50    1.60
  -1   4 -15   -2.20    1.00
   1  -4  15   -1.50    6.30
   1  -4  15   -0.50    1.20
   2  -4  15   23.60    9.00
   2  -4  15   32.20    3.50
  -3   4 -15   28.70    3.50
   3  -4  15   32.70    4.10
   3   3 -15   24.90    3.20
   3   3 -15   26.90    3.10
  -3  -3  15   29.30    3.40
   2   3 -15   13.70    2.10
   2   3 -15   12.80    2.40
  -2  -3  15   14.60    2.20
   1   3 -15   21.40    2.70
   1   3 -15   23.20    2.70
  -1  -3  15   21.60    2.70
   0  -3  15    9.60    1.90
   0  -3  15   -3.10    5.80
  -1   3 -15   10.10    7.30
   1  -3  15    7.00    1.80
  -2   3 -15    5.40    6.50
  -2   3 -15    0.70    1.50
   2  -3  15    1.40    1.50
   2  -3  15    0.10    6.50
  -3   3 -15   -1.50    1.30
   3  -3  15   -0.90    1.50
   3  -3  15   -3.90    7.40
   3   2 -15   -1.40    1.40
  -3  -2  15    0.10    1.30
   2   2 -15    0.30    1.40
  -2  -2  15    0.70    1.40
  -1  -2  15   -0.60    5.60
  -1  -2  15   11.90    2.20
   0  -2  15   13.40    2.30
   0  -2  15   -2.60    5.80
  -1   2 -15    1.00    5.40
  -1   2 -15    0.40    1.30
   1  -2  15   -0.60    1.30
   1  -2  15   -5.10    5.50
  -2   2 -15   -0.90    1.10
   2  -2  15   -1.50    6.30
   2  -2  15   -0.50    1.50
   3  -2  15    5.80    2.00
   3   1 -15   -0.50    1.40
  -3  -1  15    0.00    1.50
  -2  -1  15  127.99    6.70
  -1  -1  15   -1.50    1.40
   0   1 -15   68.89    4.70
   0   1 -15   83.99   11.90
   0  -1  15   67.79    4.70
  -1   1 -15   -3.40    5.00
  -1   1 -15   -0.90    1.30
   1  -1  15   -2.00    1.40
  -2   1 -15   17.30    2.50
   2  -1  15   15.00    2.40
   3  -1  15   -0.40    1.70
  -3   0  15   33.50    3.90
  -2   0  15   76.19    5.10
  -1   0  15   21.80    2.80
   0   0 -15   32.60    8.50
   0   0  15   17.00    2.50
  -1   0 -15   10.70    2.20
   1   0  15   13.20    2.30
   2   0  15  102.19    6.00
   2  -1 -15    4.00    1.90
  -2   1  15    6.40    1.90
  -1   1  15   16.70    2.40
   0   1  15   97.09    5.80
   1   1  15    0.10    1.50
   2  -2 -15   37.20    3.90
   0   6 -16   14.60    2.70
  -2   6 -16   30.20    5.20
   1   5 -16    4.80    1.90
   0   5 -16    0.70    1.50
   0   5 -16   -0.10    1.40
   0  -5  16   -4.20    6.90
  -1   5 -16   -2.00    1.40
  -1   5 -16    0.20    1.50
   1  -5  16   -6.00    9.80
   2   4 -16    0.40    1.40
   1   4 -16   16.60    2.70
   1   4 -16   16.30    2.30
   0   4 -16    1.30    1.60
   1  -4  16   -4.40    6.20
   1   3 -16   -0.50    1.50
   0  -3  16   -3.90    5.90
   1  -3  16    0.60    6.30
   2  -3  16   -6.40   13.70
   2   2 -16   44.70    5.90
   0  -2  16   -2.00    6.00
  -1   2 -16   20.00    3.50
  -1   1 -16   30.10    3.80
   0   0 -16    5.50    1.80
   0  -3  17   -1.10    6.60
_computing_structure_solution     'SHELXT 2014/4 (Sheldrick, 2014)'
;
_shelx_hkl_checksum              8937
_shelx_res_file
;
    shelx.res created by SHELXL-2014/7
TITL EL16_D334_DRX31_2int_a.res in P-1
CELL  0.71073   6.2383   7.2341  10.8871  103.331   92.329  113.846
ZERR     2.00   0.0023   0.0026   0.0041    0.015    0.016    0.015
LATT   1
SFAC  C    H    N    S
UNIT  12   14   10   2
MERG   2
OMIT     0   0   1
OMIT     5  -3   1
OMIT     5  -4   1
SHEL 50 0.72
EQIV $1 -x+1, -y, -z+1
HTAB  N5 N4_$1
HTAB C2 N3_$2
HTAB C5 N1_$3
EQIV $2 -x, -y, 1-z
EQIV $3 -x, 1-y, 1-z
FMAP   2
PLAN   10
ACTA
BOND
BOND   $H
L.S.  10
TEMP    23.00
WGHT    0.061300    0.176900
FVAR       1.71770
C1    1    0.544369    0.342493    0.760246    11.00000    0.03007    0.02896 =
         0.02731    0.00454    0.00460    0.01530
C2    1    0.345571    0.403385    0.794090    11.00000    0.03262    0.03518 =
         0.02712    0.00449    0.00792    0.01918
AFIX  23
H2A   2    0.195090    0.280685    0.765645    11.00000   -1.20000
H2B   2    0.362659    0.455259    0.886082    11.00000   -1.20000
AFIX   0
C3    1    0.346606    0.569888    0.732915    11.00000    0.03098    0.02855 =
         0.03600    0.00197    0.00737    0.01604
C4    1    0.410460    0.785680    0.816480    11.00000    0.06581    0.03204 =
         0.04767   -0.00370    0.00972    0.02191
AFIX 137
H4A   2    0.569159    0.842458    0.860662    11.00000   -1.50000
H4B   2    0.302491    0.779007    0.877462    11.00000   -1.50000
H4C   2    0.400721    0.874112    0.764965    11.00000   -1.50000
AFIX   0
C5    1    0.109735    0.256583    0.419427    11.00000    0.03446    0.03716 =
         0.03360    0.00586   -0.00100    0.01966
AFIX  43
H5    2    0.021937    0.316954    0.386921    11.00000   -1.20000
AFIX   0
C6    1    0.346542    0.204261    0.542438    11.00000    0.02589    0.02535 =
         0.02706    0.00513    0.00556    0.01404
N1    3    0.295379    0.539999    0.612921    11.00000    0.03694    0.02460 =
         0.03796    0.00416    0.00622    0.01757
N2    3    0.247863    0.339920    0.536193    11.00000    0.02922    0.02571 =
         0.02940    0.00411    0.00269    0.01553
N3    3    0.116493    0.082269    0.359484    11.00000    0.03344    0.03781 =
         0.03075    0.00243   -0.00173    0.01781
N4    3    0.268848    0.047248    0.438255    11.00000    0.03137    0.02870 =
         0.02800    0.00166    0.00215    0.01578
N5    3    0.519284    0.236574    0.636952    11.00000    0.03166    0.03317 =
         0.02607    0.00150    0.00290    0.02117
AFIX   3
H5N   2    0.603607    0.168825    0.614761    11.00000   -1.20000
AFIX   0
S1    4    0.773113    0.395460    0.863279    11.00000    0.04231    0.06948 =
         0.03261   -0.00263   -0.00534    0.03283
HKLF 4
REM  EL16_D334_DRX31_2int_a.res in P-1
REM R1 =  0.0394 for    2038 Fo > 4sig(Fo)  and  0.0443 for all    2287 data
REM    110 parameters refined using      0 restraints
END
WGHT      0.0611      0.1767
REM Highest difference peak  0.469,  deepest hole -0.376,  1-sigma level  0.056
Q1    1   1.0307  1.0327  0.9454  11.00000  0.05    0.47
Q2    1   0.5289  0.2988  0.6957  11.00000  0.05    0.36
Q3    1   0.6532  0.3516  0.8054  11.00000  0.05    0.32
Q4    1   0.3559  0.4925  0.7646  11.00000  0.05    0.31
Q5    1   0.1721  0.3093  0.4794  11.00000  0.05    0.30
Q6    1   0.3469  0.1416  0.4825  11.00000  0.05    0.29
Q7    1   0.3160  0.2863  0.5409  11.00000  0.05    0.27
Q8    1   0.0746  0.1499  0.4033  11.00000  0.05    0.24
Q9    1   0.4407  0.2246  0.5890  11.00000  0.05    0.24
Q10   1   0.3745  0.6767  0.7756  11.00000  0.05    0.24
;
_shelx_res_checksum              76329
loop_
_space_group_symop_operation_xyz
'x, y, z'
'-x, -y, -z'
loop_
_atom_site_type_symbol
_atom_site_label
_atom_site_fract_x
_atom_site_fract_y
_atom_site_fract_z
_atom_site_U_iso_or_equiv
_atom_site_adp_type
_atom_site_calc_flag
_atom_site_occupancy
C C1 0.5444(3) 0.3425(2) 0.76025(13) 0.0284(3) Uani d 1
C C2 0.3456(3) 0.4034(2) 0.79409(13) 0.0306(3) Uani d 1
H H2A 0.1951 0.2807 0.7656 0.037 Uiso calc 1
H H2B 0.3627 0.4553 0.8861 0.037 Uiso calc 1
C C3 0.3466(3) 0.5699(2) 0.73291(14) 0.0318(3) Uani d 1
C C4 0.4105(4) 0.7857(3) 0.81648(19) 0.0507(5) Uani d 1
H H4A 0.5692 0.8425 0.8607 0.076 Uiso calc 1
H H4B 0.3025 0.7790 0.8775 0.076 Uiso calc 1
H H4C 0.4007 0.8741 0.7650 0.076 Uiso calc 1
C C5 0.1097(3) 0.2566(2) 0.41943(15) 0.0344(3) Uani d 1
H H5 0.0219 0.3170 0.3869 0.041 Uiso calc 1
C C6 0.3465(2) 0.2043(2) 0.54244(13) 0.0253(3) Uani d 1
N N1 0.2954(2) 0.54000(18) 0.61292(13) 0.0324(3) Uani d 1
N N2 0.2479(2) 0.33992(17) 0.53619(11) 0.0275(2) Uani d 1
N N3 0.1165(2) 0.0823(2) 0.35948(12) 0.0345(3) Uani d 1
N N4 0.2688(2) 0.04725(18) 0.43825(11) 0.0295(3) Uani d 1
N N5 0.5193(2) 0.23657(19) 0.63695(11) 0.0290(3) Uani d 1
H H5N 0.6036 0.1688 0.6148 0.035 Uiso d 1
S S1 0.77311(8) 0.39546(8) 0.86328(4) 0.04839(17) Uani d 1
loop_
_atom_site_aniso_label
_atom_site_aniso_U_11
_atom_site_aniso_U_22
_atom_site_aniso_U_33
_atom_site_aniso_U_12
_atom_site_aniso_U_13
_atom_site_aniso_U_23
C1 0.0301(7) 0.0290(6) 0.0273(6) 0.0153(5) 0.0046(5) 0.0045(5)
C2 0.0326(7) 0.0352(7) 0.0271(6) 0.0192(6) 0.0079(5) 0.0045(5)
C3 0.0310(7) 0.0285(6) 0.0360(7) 0.0160(5) 0.0074(6) 0.0020(5)
C4 0.0658(12) 0.0320(8) 0.0477(10) 0.0219(8) 0.0097(9) -0.0037(7)
C5 0.0345(7) 0.0372(7) 0.0336(7) 0.0197(6) -0.0010(6) 0.0059(6)
C6 0.0259(6) 0.0253(6) 0.0271(6) 0.0140(5) 0.0056(5) 0.0051(5)
N1 0.0369(6) 0.0246(5) 0.0380(7) 0.0176(5) 0.0062(5) 0.0042(4)
N2 0.0292(6) 0.0257(5) 0.0294(6) 0.0155(4) 0.0027(4) 0.0041(4)
N3 0.0334(6) 0.0378(6) 0.0308(6) 0.0178(5) -0.0017(5) 0.0024(5)
N4 0.0314(6) 0.0287(5) 0.0280(6) 0.0158(5) 0.0022(4) 0.0017(4)
N5 0.0317(6) 0.0332(6) 0.0261(5) 0.0212(5) 0.0029(4) 0.0015(4)
S1 0.0423(3) 0.0695(3) 0.0326(2) 0.0328(2) -0.00534(17) -0.00263(19)
loop_
_atom_type_symbol
_atom_type_description
_atom_type_scat_dispersion_real
_atom_type_scat_dispersion_imag
_atom_type_scat_source
C C 0.0033 0.0016 'International Tables Vol C Tables 4.2.6.8 and 6.1.1.4'
H H 0.0000 0.0000 'International Tables Vol C Tables 4.2.6.8 and 6.1.1.4'
N N 0.0061 0.0033 'International Tables Vol C Tables 4.2.6.8 and 6.1.1.4'
S S 0.1246 0.1234 'International Tables Vol C Tables 4.2.6.8 and 6.1.1.4'
loop_
_geom_angle_atom_site_label_1
_geom_angle_atom_site_label_2
_geom_angle_atom_site_label_3
_geom_angle
N5 C1 C2 114.93(12)
N5 C1 S1 121.53(11)
C2 C1 S1 123.54(10)
C3 C2 C1 111.00(12)
C3 C2 H2A 109.4
C1 C2 H2A 109.4
C3 C2 H2B 109.4
C1 C2 H2B 109.4
H2A C2 H2B 108.0
N1 C3 C4 117.00(15)
N1 C3 C2 124.37(12)
C4 C3 C2 118.62(15)
C3 C4 H4A 109.5
C3 C4 H4B 109.5
H4A C4 H4B 109.5
C3 C4 H4C 109.5
H4A C4 H4C 109.5
H4B C4 H4C 109.5
N3 C5 N2 111.33(13)
N3 C5 H5 124.3
N2 C5 H5 124.3
N4 C6 N2 110.24(12)
N4 C6 N5 124.33(12)
N2 C6 N5 125.12(12)
C3 N1 N2 115.92(12)
C5 N2 C6 104.35(11)
C5 N2 N1 122.64(12)
C6 N2 N1 132.08(12)
C5 N3 N4 106.88(12)
C6 N4 N3 107.19(12)
C1 N5 C6 125.05(12)
C1 N5 H5N 120.1
C6 N5 H5N 114.4
loop_
_geom_bond_atom_site_label_1
_geom_bond_atom_site_label_2
_geom_bond_distance
C1 N5 1.3509(18)
C1 C2 1.5072(19)
C1 S1 1.6343(16)
C2 C3 1.503(2)
C2 H2A 0.9700
C2 H2B 0.9700
C3 N1 1.279(2)
C3 C4 1.495(2)
C4 H4A 0.9600
C4 H4B 0.9600
C4 H4C 0.9600
C5 N3 1.298(2)
C5 N2 1.3636(19)
C5 H5 0.9300
C6 N4 1.3144(17)
C6 N2 1.3647(17)
C6 N5 1.3675(18)
N1 N2 1.3986(16)
N3 N4 1.3898(18)
N5 H5N 0.8599
loop_
_geom_hbond_atom_site_label_D
_geom_hbond_atom_site_label_H
_geom_hbond_atom_site_label_A
_geom_hbond_site_symmetry_A
_geom_hbond_distance_DH
_geom_hbond_distance_HA
_geom_hbond_distance_DA
_geom_hbond_angle_DHA
N5 H5N N4 2_656 0.86 2.01 2.8530(18) 167
C2 H2A N3 2_556 0.97 2.56 3.487(2) 161
C5 H5 N1 2_566 0.93 2.58 3.442(2) 155

_cod_database_fobs_code 1543755
