#------------------------------------------------------------------------------
#$Date: 2016-05-21 04:37:37 +0300 (Sat, 21 May 2016) $
#$Revision: 183058 $
#$URL: svn://www.crystallography.net/cod/cif/1/54/33/1543342.cif $
#------------------------------------------------------------------------------
#
# This file is available in the Crystallography Open Database (COD),
# http://www.crystallography.net/. The original data for this entry
# were provided by IUCr Journals, http://journals.iucr.org/.
#
# The file may be used within the scientific community so long as
# proper attribution is given to the journal article from which the
# data were obtained.
#
data_1543342
loop_
_publ_author_name
'Bouayad, Kaoutar'
'Kandri Rodi, Youssef'
'El Ghadraoui, El Houcine'
'Mague, Joel T.'
'Essassi, El Mokhtar'
'Zouihri, Hafid'
_publ_section_title
;
 6-Bromo-2-methyl-1<i>H</i>-imidazo[4,5-<i>b</i>]pyridine
;
_journal_coeditor_code           HB4043
_journal_issue                   5
_journal_name_full               IUCrData
_journal_page_first              x160766
_journal_paper_doi               10.1107/S2414314616007665
_journal_volume                  1
_journal_year                    2016
_chemical_formula_iupac          'C7 H6 Br N3'
_chemical_formula_moiety         'C7 H6 Br N3'
_chemical_formula_sum            'C7 H6 Br N3'
_chemical_formula_weight         212.06
_chemical_name_systematic
;
6-Bromo-2-methyl-1<i>H</i>-imidazo[4,5-<i>b</i>]pyridine
;
_space_group_crystal_system      monoclinic
_space_group_IT_number           11
_space_group_name_Hall           '-P 2yb'
_space_group_name_H-M_alt        'P 1 21/m 1'
_symmetry_space_group_name_Hall  '-P 2yb'
_symmetry_space_group_name_H-M   'P 1 21/m 1'
_atom_sites_solution_hydrogens   mixed
_atom_sites_solution_primary     direct
_atom_sites_solution_secondary   difmap
_audit_creation_method           'APEX3 v2015.9-0'
_cell_angle_alpha                90
_cell_angle_beta                 98.8890(10)
_cell_angle_gamma                90
_cell_formula_units_Z            4
_cell_length_a                   11.0395(12)
_cell_length_b                   6.4734(7)
_cell_length_c                   11.1397(12)
_cell_measurement_reflns_used    3918
_cell_measurement_temperature    150(2)
_cell_measurement_theta_max      26.6440
_cell_measurement_theta_min      2.8251
_cell_volume                     786.52(15)
_computing_cell_refinement
;
<i>SAINT</i> (Bruker, 2016)
;
_computing_data_collection
;
<i>APEX3</i> (Bruker, 2016)
;
_computing_data_reduction
;
<i>SAINT</i> (Bruker, 2016)
;
_computing_molecular_graphics
;
PLATON (Spek, 2009)
;
_computing_publication_material
;
publCIF (Westrip, 2010)
;
_computing_structure_refinement
;
SHELXL2014 (Sheldrick, 2015b)
;
_computing_structure_solution
;
SHELXT (Sheldrick, 2015a)
;
_diffrn_ambient_temperature      150(2)
_diffrn_detector_area_resol_mean 8.3333
_diffrn_measured_fraction_theta_full 0.994
_diffrn_measured_fraction_theta_max 0.994
_diffrn_measurement_device_type  'Bruker SMART APEX CCD'
_diffrn_measurement_method       '\f and \w scans'
_diffrn_radiation_monochromator  graphite
_diffrn_radiation_type           MoK\a
_diffrn_radiation_wavelength     0.71073
_diffrn_reflns_av_R_equivalents  0.0487
_diffrn_reflns_limit_h_max       14
_diffrn_reflns_limit_h_min       -14
_diffrn_reflns_limit_k_max       8
_diffrn_reflns_limit_k_min       -8
_diffrn_reflns_limit_l_max       14
_diffrn_reflns_limit_l_min       -14
_diffrn_reflns_number            14675
_diffrn_reflns_theta_full        28.300
_diffrn_reflns_theta_max         28.305
_diffrn_reflns_theta_min         1.850
_exptl_absorpt_coefficient_mu    5.158
_exptl_absorpt_correction_T_max  0.73
_exptl_absorpt_correction_T_min  0.39
_exptl_absorpt_correction_type   numerical
_exptl_absorpt_process_details
;
(<i>SADABS</i>; Bruker, 2016)
;
_exptl_crystal_colour            colourless
_exptl_crystal_density_diffrn    1.791
_exptl_crystal_density_method    'not measured'
_exptl_crystal_description       plate
_exptl_crystal_F_000             416
_exptl_crystal_size_max          0.183
_exptl_crystal_size_mid          0.172
_exptl_crystal_size_min          0.064
_refine_diff_density_max         0.709
_refine_diff_density_min         -0.366
_refine_ls_extinction_method     none
_refine_ls_goodness_of_fit_ref   0.994
_refine_ls_hydrogen_treatment    constr
_refine_ls_matrix_type           full
_refine_ls_number_parameters     135
_refine_ls_number_reflns         2117
_refine_ls_number_restraints     0
_refine_ls_restrained_S_all      0.994
_refine_ls_R_factor_all          0.0524
_refine_ls_R_factor_gt           0.0348
_refine_ls_shift/su_max          0.001
_refine_ls_shift/su_mean         0.000
_refine_ls_structure_factor_coef Fsqd
_refine_ls_weighting_details
'w=1/[\s^2^(Fo^2^)+(0.0521P)^2^] where P=(Fo^2^+2Fc^2^)/3'
_refine_ls_weighting_scheme      calc
_refine_ls_wR_factor_gt          0.0842
_refine_ls_wR_factor_ref         0.0901
_reflns_number_gt                1578
_reflns_number_total             2117
_reflns_threshold_expression     'I > 2\s(I)'
_cod_data_source_file            hb4043sup1.cif
_cod_data_source_block           I
_cod_database_code               1543342
_shelx_space_group_comment
;
The symmetry employed for this shelxl refinement is uniquely defined
by the following loop, which should always be used as a source of
symmetry information in preference to the above space-group names.
They are only intended as comments.
;
_shelx_estimated_absorpt_t_min   0.452
_shelx_estimated_absorpt_t_max   0.734
_shelx_hkl_file
;
   1   0   0   11.01    0.79
  -1   0   0   11.83    0.79
  -1   0   0   11.14    0.79
   1   0   0   10.64    0.79
   2   0   0    7.83    0.58
   2   0   0    7.82    0.57
  -2   0   0    7.86    0.57
  -2   0   0    8.23    0.57
  -3   0   0  123.46    8.87
   3   0   0  128.54    8.88
  -3   0   0  125.16    8.88
   3   0   0  123.64    8.87
  -4   0   0    0.57    0.10
  -4   0   0    0.72    0.10
   4   0   0    0.84    0.10
   4   0   0    0.66    0.11
   4   0   0    0.84    0.11
   5   0   0   16.12    1.23
   5   0   0   17.59    1.23
   5   0   0   17.37    1.22
  -5   0   0   17.25    1.22
  -5   0   0   16.08    1.22
   6   0   0    9.14    0.73
   6   0   0    9.06    0.73
  -6   0   0    9.32    0.71
  -6   0   0   10.23    0.72
   6   0   0   10.02    0.72
  -7   0   0    6.08    0.52
   7   0   0    6.85    0.56
   7   0   0    7.52    0.54
   7   0   0    6.15    0.54
  -7   0   0    6.91    0.54
   8   0   0    1.47    0.25
  -8   0   0    1.36    0.21
   8   0   0    2.60    0.26
  -8   0   0    1.85    0.24
   9   0   0    1.63    0.28
  -9   0   0    1.35    0.20
   9   0   0    1.75    0.26
  -9   0   0    1.60    0.25
 -10   0   0    4.02    0.40
 -10   0   0    3.73    0.37
  10   0   0    3.83    0.41
  10   0   0    3.13    0.42
 -11   0   0    0.23    0.28
 -11   0   0    0.08    0.19
  11   0   0    0.33    0.27
  11   0   0    0.16    0.29
 -12   0   0    0.51    0.22
  12   0   0    0.24    0.30
 -12   0   0    0.16    0.27
  12   0   0   -0.34    0.31
  13   0   0    2.52    0.53
 -13   0   0    2.36    0.42
  13   0   0    2.34    0.46
 -13   0   0    2.75    0.36
 -14   0   0    0.39    0.28
  14   0   0    0.36    0.51
 -14   0   0    0.55    0.38
   0  -1   0    0.24    0.04
   0  -1   0    0.40    0.05
   0  -1   0    0.34    0.06
   0  -1   0    0.33    0.05
   0   1   0    0.46    0.06
   0   1   0    0.51    0.06
   0   1   0    0.34    0.04
  -1  -1   0   14.62    1.09
   1  -1   0   15.50    1.09
   1  -1   0   15.07    1.09
   1  -1   0   14.57    1.09
   1  -1   0   14.63    1.09
  -1  -1   0   15.55    1.09
  -1  -1   0   16.15    1.09
  -1   1   0   15.71    1.09
   1   1   0   15.03    1.09
   1   1   0   14.76    1.09
  -1   1   0   15.76    1.09
   2  -1   0  254.68   18.20
   2  -1   0  255.07   18.20
  -2  -1   0  261.68   18.20
   2  -1   0  257.54   18.20
  -2  -1   0  246.84   18.20
   2  -1   0  268.17   18.20
  -2  -1   0  267.37   18.20
  -2   1   0  250.59   18.21
  -2   1   0  256.64   18.20
   2   1   0  261.30   18.20
  -2   1   0  260.29   18.20
   2   1   0  242.94   18.20
   3  -1   0    1.09    0.13
  -3  -1   0    1.31    0.14
   3  -1   0    1.43    0.14
   3  -1   0    1.22    0.14
   3  -1   0    1.42    0.13
  -3  -1   0    1.30    0.13
  -3  -1   0    1.15    0.12
   3   1   0    1.48    0.14
  -3   1   0    1.44    0.15
   3   1   0    1.91    0.17
   3   1   0    1.47    0.14
  -3   1   0    1.48    0.14
  -3   1   0    1.26    0.15
   4  -1   0   26.51    1.80
  -4  -1   0   25.94    1.79
  -4  -1   0   24.16    1.80
  -4  -1   0   23.35    1.80
   4  -1   0   24.62    1.80
   4  -1   0   25.45    1.79
   4  -1   0   25.15    1.80
  -4   1   0   25.56    1.81
   4   1   0   25.09    1.80
  -4   1   0   26.12    1.80
   4   1   0   24.57    1.80
  -4   1   0   24.28    1.80
   4   1   0   25.10    1.81
  -5  -1   0  102.96    7.31
   5  -1   0  103.02    7.32
   5  -1   0  106.30    7.30
  -5  -1   0  100.57    7.31
   5  -1   0  104.65    7.31
  -5  -1   0  104.34    7.30
   5  -1   0  102.64    7.31
   5   1   0  101.81    7.31
   5   1   0  100.41    7.31
   5   1   0  109.25    7.32
  -5   1   0  103.93    7.31
  -5   1   0  102.09    7.32
  -5   1   0   96.17    7.31
  -6  -1   0    0.61    0.08
   6  -1   0    0.30    0.13
   6  -1   0    0.39    0.14
   6  -1   0    0.36    0.12
   6  -1   0    0.35    0.11
  -6  -1   0    0.29    0.11
  -6  -1   0    0.21    0.12
  -6   1   0    0.28    0.12
   6   1   0    0.45    0.14
   6   1   0    0.46    0.16
  -6   1   0    0.35    0.15
  -6   1   0    0.19    0.13
   6   1   0    0.28    0.13
  -7  -1   0    7.52    0.57
   7  -1   0    6.30    0.58
   7  -1   0    7.99    0.60
   7  -1   0    7.19    0.57
  -7  -1   0    6.82    0.56
  -7   1   0    7.67    0.58
  -7   1   0    6.42    0.57
   7   1   0    8.08    0.59
   7   1   0    7.15    0.59
  -8  -1   0   21.93    1.68
  -8  -1   0   23.53    1.70
   8  -1   0   24.41    1.69
   8  -1   0   22.11    1.70
   8   1   0   24.56    1.71
  -8   1   0   23.37    1.69
  -8   1   0   22.75    1.69
   8   1   0   22.60    1.69
  -9  -1   0    0.15    0.20
   9  -1   0    0.23    0.22
  -9  -1   0    0.12    0.15
   9  -1   0    0.23    0.18
  -9   1   0    0.03    0.20
   9   1   0    0.41    0.22
  -9   1   0    0.35    0.18
   9   1   0    0.31    0.20
  10  -1   0    5.58    0.55
 -10  -1   0    5.36    0.48
 -10  -1   0    4.10    0.50
  10  -1   0    5.73    0.52
 -10   1   0    4.67    0.50
 -10   1   0    5.70    0.49
  10   1   0    6.14    0.55
  10   1   0    5.77    0.54
 -11  -1   0   15.44    1.27
  11  -1   0   17.84    1.34
 -11  -1   0   16.54    1.31
  11  -1   0   18.16    1.33
 -11   1   0   16.80    1.29
 -11   1   0   17.32    1.31
  11   1   0   19.24    1.34
  11   1   0   16.95    1.33
  12  -1   0    0.27    0.37
 -12  -1   0    0.32    0.20
 -12  -1   0    0.44    0.29
  12  -1   0    0.21    0.32
 -12   1   0    0.33    0.32
  12   1   0    0.64    0.41
 -12   1   0    0.05    0.22
  12   1   0    0.58    0.34
  13  -1   0    1.24    0.43
  13  -1   0    1.59    0.43
 -13  -1   0    1.54    0.38
 -13  -1   0    1.56    0.30
  13   1   0    1.88    0.47
 -13   1   0    1.86    0.31
  13   1   0    1.74    0.48
 -13   1   0    1.96    0.42
 -14  -1   0    0.55    0.30
 -14  -1   0    0.59    0.42
  14  -1   0    0.92    0.48
 -14   1   0    0.27    0.29
  14   1   0    0.83    0.51
 -14   1   0    0.52    0.45
   0  -2   0  979.12   69.42
   0  -2   0  971.54   69.41
   0  -2   0 1000.00   69.43
   0  -2   0  973.55   69.41
   0   2   0  993.87   69.42
   0   2   0  989.62   69.41
   0   2   0  956.06   69.41
  -1  -2   0    7.10    0.54
   1  -2   0    7.86    0.54
   1  -2   0    7.37    0.56
  -1  -2   0    7.20    0.55
   1  -2   0    7.20    0.55
  -1  -2   0    7.80    0.55
   1  -2   0    7.92    0.54
  -1  -2   0    7.91    0.54
   1  -2   0    7.16    0.54
   1   2   0    7.12    0.54
  -1   2   0    7.53    0.55
   1   2   0    6.95    0.55
  -1   2   0    7.21    0.54
  -1   2   0    7.36    0.56
  -1   2   0    7.31    0.55
   1   2   0    7.01    0.56
  -2  -2   0    2.59    0.21
  -2  -2   0    2.32    0.20
   2  -2   0    2.05    0.20
   2  -2   0    2.17    0.19
  -2  -2   0    2.01    0.20
  -2  -2   0    2.25    0.20
   2  -2   0    2.05    0.21
   2  -2   0    2.43    0.20
  -2   2   0    2.51    0.22
   2   2   0    2.10    0.23
   2   2   0    2.14    0.21
  -2   2   0    2.25    0.20
  -2   2   0    2.36    0.23
   2   2   0    2.47    0.21
   3  -2   0   71.71    5.15
   3  -2   0   75.38    5.15
   3  -2   0   73.57    5.15
  -3  -2   0   70.68    5.15
   3  -2   0   67.86    5.14
  -3  -2   0   72.55    5.15
  -3  -2   0   71.81    5.14
   3   2   0   76.23    5.17
  -3   2   0   71.37    5.14
  -3   2   0   72.86    5.16
  -3   2   0   74.64    5.16
   3   2   0   69.92    5.16
   3   2   0   73.53    5.15
  -4  -2   0    0.01    0.08
   4  -2   0    0.09    0.11
   4  -2   0    0.07    0.09
   4  -2   0    0.05    0.10
  -4  -2   0    0.11    0.10
  -4  -2   0    0.11    0.09
   4  -2   0    0.17    0.10
  -4  -2   0    0.11    0.09
   4   2   0   -0.09    0.12
   4   2   0    0.07    0.15
  -4   2   0    0.11    0.12
  -4   2   0   -0.06    0.14
  -4   2   0    0.12    0.08
   4   2   0    0.10    0.10
   5  -2   0    9.81    0.77
  -5  -2   0    9.15    0.77
  -5  -2   0   10.86    0.76
   5  -2   0   10.63    0.78
   5  -2   0   10.67    0.78
   5  -2   0    9.97    0.76
  -5  -2   0   10.43    0.76
  -5   2   0    9.56    0.78
   5   2   0   10.02    0.77
  -5   2   0    9.94    0.76
  -5   2   0   11.04    0.80
   5   2   0   11.75    0.79
   5   2   0   10.64    0.81
   6  -2   0    6.22    0.48
  -6  -2   0    5.76    0.47
   6  -2   0    5.95    0.50
   6  -2   0    5.75    0.50
  -6  -2   0    5.78    0.49
  -6  -2   0    6.40    0.47
  -6   2   0    6.31    0.47
   6   2   0    5.82    0.51
   6   2   0    5.81    0.55
  -6   2   0    6.12    0.50
   6   2   0    5.22    0.48
   7  -2   0    4.39    0.36
  -7  -2   0    3.28    0.34
  -7  -2   0    3.36    0.36
   7  -2   0    4.53    0.39
   7   2   0    3.53    0.37
   7   2   0    4.41    0.40
  -7   2   0    3.92    0.36
  -7   2   0    3.86    0.39
  -8  -2   0    1.46    0.24
   8  -2   0    1.47    0.26
  -8  -2   0    1.38    0.20
   8  -2   0    1.55    0.24
   8   2   0    1.10    0.26
   8   2   0    1.41    0.27
  -8   2   0    1.75    0.23
  -8   2   0    1.33    0.23
   9  -2   0    1.39    0.24
  -9  -2   0    1.20    0.25
   9  -2   0    1.50    0.27
  -9  -2   0    0.98    0.20
   9   2   0    0.94    0.28
  -9   2   0    1.77    0.26
  -9   2   0    1.03    0.23
   9   2   0    1.62    0.31
 -10  -2   0    2.75    0.30
  10  -2   0    2.44    0.34
 -10  -2   0    2.32    0.34
  10  -2   0    1.78    0.35
  10   2   0    3.45    0.42
  10   2   0    2.55    0.39
 -10   2   0    1.93    0.32
 -10   2   0    2.82    0.33
  11  -2   0    0.16    0.25
 -11  -2   0    0.03    0.20
  11  -2   0    0.34    0.31
 -11  -2   0    0.25    0.26
  11   2   0   -0.39    0.31
 -11   2   0   -0.10    0.23
 -11   2   0   -0.44    0.27
  11   2   0    0.14    0.32
 -12  -2   0   -0.18    0.30
  12  -2   0    0.22    0.33
 -12  -2   0    0.19    0.23
  12  -2   0    0.32    0.38
 -12   2   0    0.38    0.26
  12   2   0    0.22    0.40
  12   2   0    0.42    0.34
 -12   2   0    0.20    0.33
 -13  -2   0    1.85    0.42
  13  -2   0    0.93    0.44
 -13  -2   0    1.24    0.30
 -13   2   0    1.92    0.34
 -13   2   0    1.22    0.42
  13   2   0    0.95    0.47
  13   2   0    2.35    0.49
  14  -2   0    0.62    0.51
 -14  -2   0    0.33    0.28
 -14  -2   0    0.81    0.49
 -14   2   0    0.16    0.45
 -14   2   0    0.51    0.32
  14   2   0   -0.51    0.48
   0  -3   0   -0.11    0.11
   0  -3   0   -0.05    0.07
   0  -3   0    0.03    0.09
   0  -3   0    0.02    0.09
   0  -3   0   -0.03    0.09
   0   3   0   -0.06    0.12
   0   3   0    0.01    0.11
   0   3   0    0.04    0.07
   1  -3   0    3.13    0.33
  -1  -3   0    3.69    0.31
   1  -3   0    3.85    0.32
   1  -3   0    3.90    0.30
  -1  -3   0    3.19    0.31
   1  -3   0    3.84    0.31
  -1  -3   0    4.18    0.33
  -1  -3   0    4.80    0.32
   1  -3   0    3.30    0.31
  -1   3   0    3.31    0.30
   1   3   0    3.97    0.34
  -1   3   0    4.04    0.35
   1   3   0    3.46    0.32
  -1   3   0    3.90    0.33
  -1   3   0    4.06    0.33
   1   3   0    4.08    0.30
  -2  -3   0   76.16    5.34
  -2  -3   0   73.73    5.35
   2  -3   0   75.69    5.34
   2  -3   0   76.33    5.34
  -2  -3   0   72.77    5.34
   2  -3   0   76.16    5.36
  -2  -3   0   70.62    5.34
   2  -3   0   76.67    5.34
  -2   3   0   75.41    5.34
   2   3   0   77.56    5.36
   2   3   0   72.54    5.35
   2   3   0   76.14    5.34
  -2   3   0   75.60    5.35
  -2   3   0   76.38    5.36
   3  -3   0   -0.07    0.14
  -3  -3   0    0.04    0.11
  -3  -3   0    0.01    0.10
   3  -3   0    0.09    0.11
  -3  -3   0    0.07    0.11
   3  -3   0    0.00    0.09
  -3  -3   0   -0.13    0.10
   3  -3   0    0.04    0.11
   3   3   0    0.03    0.14
   3   3   0    0.11    0.14
   3   3   0   -0.02    0.16
  -3   3   0   -0.09    0.10
  -3   3   0    0.15    0.14
  -3   3   0    0.09    0.16
  -4  -3   0   10.86    0.83
   4  -3   0    8.96    0.84
  -4  -3   0   10.36    0.84
  -4  -3   0   11.33    0.83
   4  -3   0   11.76    0.84
  -4  -3   0   11.47    0.84
   4  -3   0   11.09    0.83
   4  -3   0   11.38    0.83
  -4   3   0   12.69    0.87
   4   3   0   11.51    0.86
  -4   3   0   11.72    0.83
  -4   3   0   10.80    0.86
   4   3   0   11.44    0.84
   4   3   0   12.12    0.89
   5  -3   0   45.10    3.25
   5  -3   0   47.00    3.25
   5  -3   0   46.81    3.26
  -5  -3   0   45.89    3.25
  -5  -3   0   42.88    3.24
   5  -3   0   45.60    3.26
  -5  -3   0   42.68    3.25
   5   3   0   46.82    3.27
  -5   3   0   43.32    3.27
  -5   3   0   46.32    3.26
   5   3   0   46.09    3.25
   5   3   0   46.68    3.28
  -5   3   0   45.15    3.24
  -6  -3   0    0.02    0.16
   6  -3   0   -0.09    0.16
   6  -3   0    0.05    0.13
   6  -3   0    0.02    0.18
  -6  -3   0    0.22    0.15
   6  -3   0    0.15    0.17
   6   3   0   -0.04    0.16
  -6   3   0   -0.02    0.14
   6   3   0   -0.06    0.20
  -6   3   0    0.07    0.20
   7  -3   0    4.77    0.43
  -7  -3   0    4.26    0.38
  -7  -3   0    4.17    0.41
   7  -3   0    3.93    0.39
   7  -3   0    3.99    0.40
   7   3   0    4.66    0.45
   7   3   0    3.35    0.40
  -7   3   0    4.18    0.39
  -7   3   0    5.40    0.46
  -8  -3   0   10.74    0.85
  -8  -3   0   11.22    0.90
   8  -3   0   10.72    0.87
   8  -3   0   11.46    0.89
  -8   3   0   10.66    0.86
   8   3   0   11.65    0.93
  -8   3   0   11.80    0.90
   8   3   0   11.73    0.90
   9  -3   0   -0.01    0.24
  -9  -3   0   -0.19    0.23
  -9  -3   0   -0.15    0.17
   9  -3   0   -0.12    0.24
   9   3   0    0.20    0.27
   9   3   0   -0.17    0.28
  -9   3   0   -0.01    0.20
  -9   3   0   -0.06    0.25
 -10  -3   0    2.86    0.32
  10  -3   0    1.97    0.39
 -10  -3   0    2.73    0.39
  10  -3   0    2.51    0.36
 -10   3   0    2.56    0.35
  10   3   0    3.80    0.46
 -10   3   0    2.64    0.37
  10   3   0    3.14    0.47
 -11  -3   0   10.16    0.89
  11  -3   0   10.97    0.92
  11  -3   0   11.85    0.89
 -11  -3   0   10.46    0.83
 -11   3   0    9.50    0.88
 -11   3   0    9.90    0.87
 -12  -3   0    0.16    0.35
  12  -3   0    0.57    0.41
 -12   3   0    0.12    0.29
  12   3   0    0.21    0.46
 -13  -3   0    0.17    0.41
  13  -3   0    0.53    0.51
 -13   3   0    0.91    0.36
   0  -4   0  242.85   17.36
   0  -4   0  244.77   17.36
   0  -4   0  248.76   17.35
   0  -4   0  236.89   17.35
   0  -4   0  234.87   17.38
   0   4   0  245.16   17.35
   0   4   0  249.72   17.36
   0   4   0  248.43   17.37
   0   4   0  251.87   17.37
   1  -4   0    3.68    0.37
   1  -4   0    3.59    0.35
   1  -4   0    4.37    0.34
   1  -4   0    3.42    0.32
  -1  -4   0    3.99    0.34
  -1  -4   0    4.28    0.39
  -1  -4   0    3.98    0.35
   1  -4   0    3.31    0.35
  -1  -4   0    4.03    0.35
   1   4   0    3.48    0.32
  -1   4   0    4.43    0.41
   1   4   0    4.14    0.38
  -1   4   0    4.41    0.37
  -1   4   0    3.61    0.35
   1   4   0    4.90    0.41
  -1   4   0    3.36    0.32
  -2  -4   0    0.28    0.18
   2  -4   0    0.04    0.16
  -2  -4   0    0.45    0.15
  -2  -4   0    0.21    0.14
   2  -4   0    0.27    0.13
   2  -4   0    0.21    0.14
  -2  -4   0    0.13    0.13
   2  -4   0    0.15    0.13
  -2   4   0    0.34    0.17
  -2   4   0    0.27    0.20
   2   4   0    0.25    0.22
   2   4   0    0.25    0.17
  -2   4   0    0.01    0.18
   2   4   0    0.29    0.12
  -3  -4   0   21.36    1.55
   3  -4   0   20.77    1.55
   3  -4   0   21.31    1.55
   3  -4   0   21.51    1.56
  -3  -4   0   22.81    1.58
  -3  -4   0   19.84    1.55
   3  -4   0   19.04    1.57
   3   4   0   21.63    1.60
  -3   4   0   21.99    1.58
  -3   4   0   22.02    1.55
   3   4   0   22.65    1.57
   3   4   0   22.04    1.55
  -3   4   0   20.95    1.59
  -4  -4   0    0.14    0.17
  -4  -4   0    0.27    0.14
   4  -4   0    0.03    0.14
   4  -4   0   -0.08    0.17
   4  -4   0   -0.11    0.14
   4  -4   0    0.03    0.18
  -4  -4   0   -0.08    0.14
  -4   4   0    0.18    0.14
  -4   4   0    0.09    0.21
   4   4   0    0.24    0.22
   4   4   0    0.36    0.23
   5  -4   0    4.03    0.40
   5  -4   0    4.15    0.39
   5  -4   0    3.57    0.41
  -5  -4   0    3.65    0.36
  -5  -4   0    3.74    0.38
  -5  -4   0    4.60    0.41
   5  -4   0    3.97    0.39
  -5   4   0    3.21    0.42
   5   4   0    4.12    0.43
  -5   4   0    3.67    0.35
  -6  -4   0    1.68    0.27
   6  -4   0    1.57    0.28
  -6  -4   0    1.75    0.26
   6  -4   0    1.33    0.24
  -6  -4   0    1.38    0.22
   6  -4   0    1.87    0.27
  -6   4   0    1.25    0.31
   6   4   0    2.09    0.34
  -6   4   0    1.42    0.22
   7  -4   0    1.20    0.27
  -7  -4   0    1.17    0.26
   7  -4   0    0.97    0.28
   7  -4   0    1.42    0.25
  -7  -4   0    1.27    0.22
  -7   4   0    1.13    0.23
   7   4   0    1.25    0.32
  -7   4   0    0.96    0.30
  -8  -4   0    0.58    0.21
   8  -4   0    0.63    0.26
  -8  -4   0    0.16    0.27
   8  -4   0    0.75    0.30
  -8   4   0    0.44    0.27
   8   4   0    0.55    0.32
   9  -4   0    0.72    0.28
  -9  -4   0    0.50    0.28
   9  -4   0    0.43    0.29
  -9  -4   0    0.78    0.21
  -9   4   0    0.39    0.32
   9   4   0    0.00    0.34
 -10  -4   0    0.77    0.23
 -10  -4   0    0.78    0.31
  10  -4   0    0.29    0.33
 -10   4   0    0.63    0.32
  10   4   0    1.11    0.42
  11  -4   0   -0.10    0.36
 -11  -4   0   -0.26    0.22
 -11  -4   0    0.27    0.38
  11   4   0    0.20    0.45
 -11   4   0    0.00    0.31
 -12  -4   0    0.20    0.26
  12  -4   0    0.32    0.50
 -12  -4   0    0.12    0.39
 -12   4   0    0.25    0.35
   0  -5   0    0.13    0.20
   0  -5   0   -0.04    0.21
   0  -5   0    0.05    0.17
   0   5   0    0.12    0.20
   0   5   0   -0.32    0.25
   0   5   0   -0.01    0.23
  -1  -5   0    0.11    0.24
   1  -5   0    0.56    0.23
   1  -5   0    0.27    0.17
   1  -5   0    0.39    0.23
  -1  -5   0    0.49    0.20
  -1  -5   0    0.32    0.18
  -1   5   0    0.70    0.23
  -1   5   0    0.39    0.26
   1   5   0    0.52    0.27
  -1   5   0    0.38    0.25
   1   5   0    1.08    0.27
   2  -5   0   15.56    1.24
   2  -5   0   15.70    1.21
  -2  -5   0   17.73    1.22
  -2  -5   0   15.23    1.24
  -2  -5   0   16.02    1.21
   2  -5   0   15.92    1.19
   2   5   0   17.88    1.25
  -2   5   0   14.41    1.24
  -2   5   0   17.90    1.23
   2   5   0   16.08    1.29
   3  -5   0    0.17    0.27
  -3  -5   0    0.19    0.22
   3  -5   0   -0.10    0.19
  -3  -5   0   -0.12    0.19
   3  -5   0   -0.16    0.21
   3  -5   0   -0.07    0.16
  -3  -5   0   -0.05    0.17
   3   5   0   -0.03    0.25
  -3   5   0   -0.39    0.25
   4  -5   0    4.91    0.55
   4  -5   0    3.42    0.41
  -4  -5   0    4.44    0.41
  -4  -5   0    3.69    0.43
   4  -5   0    4.58    0.45
   4  -5   0    4.05    0.41
  -4  -5   0    3.70    0.41
   4   5   0    3.83    0.45
  -4   5   0    3.97    0.47
   5  -5   0   11.00    0.95
  -5  -5   0   11.38    0.94
  -5  -5   0   13.13    0.93
   5  -5   0   10.55    0.92
  -5  -5   0   12.77    0.91
  -5   5   0   12.86    0.99
   5   5   0   10.84    0.95
  -6  -5   0   -0.14    0.26
   6  -5   0    0.12    0.26
  -6  -5   0    0.03    0.26
   6  -5   0   -0.07    0.23
  -6  -5   0   -0.23    0.18
  -6   5   0    0.16    0.31
   6   5   0   -0.15    0.31
  -7  -5   0    1.13    0.24
   7  -5   0    1.40    0.36
  -7  -5   0    1.39    0.30
   7  -5   0    1.18    0.33
  -7   5   0    2.12    0.42
   7   5   0    1.65    0.40
  -8  -5   0    2.73    0.35
   8  -5   0    3.02    0.42
  -8  -5   0    2.87    0.41
  -8   5   0    2.76    0.46
   8   5   0    3.00    0.49
   9  -5   0   -0.14    0.32
  -9  -5   0   -0.12    0.31
  -9  -5   0   -0.22    0.22
   9   5   0   -0.02    0.45
  -9   5   0    0.10    0.36
 -10  -5   0    1.03    0.41
  10  -5   0    1.02    0.41
 -10  -5   0    0.98    0.28
 -10   5   0    0.37    0.40
  11  -5   0    4.24    0.63
 -11  -5   0    3.03    0.42
 -11  -5   0    4.77    0.57
 -11   5   0    2.89    0.54
   0  -6   0   59.90    4.06
   0  -6   0   52.69    4.08
   1  -6   0    1.24    0.33
  -1  -6   0    1.76    0.29
   1  -6   0    1.51    0.29
  -1  -6   0    1.58    0.35
  -1   6   0    0.88    0.38
  -2  -6   0    0.38    0.29
   2  -6   0    0.14    0.28
  -2  -6   0   -0.05    0.22
   2  -6   0   -0.04    0.25
  -2   6   0    0.36    0.34
  -3  -6   0    4.84    0.47
  -3  -6   0    4.22    0.50
  -3  -6   0    4.81    0.47
   3  -6   0    4.08    0.47
   3  -6   0    3.36    0.51
  -3   6   0    5.29    0.57
   4  -6   0   -0.16    0.29
  -4  -6   0    0.12    0.30
  -4  -6   0    0.21    0.24
  -4  -6   0    0.17    0.29
   4   6   0    0.09    0.38
  -4   6   0   -0.09    0.37
  -5  -6   0    1.35    0.34
   5  -6   0    0.78    0.34
  -5  -6   0    0.91    0.26
  -5  -6   0    0.95    0.33
  -5   6   0    0.68    0.40
   6  -6   0   -0.10    0.32
  -6  -6   0    0.35    0.35
  -6  -6   0    0.38    0.35
  -6  -6   0    0.25    0.24
  -6   6   0    0.17    0.41
   7  -6   0   -0.07    0.39
  -7  -6   0   -0.04    0.32
  -7  -6   0    0.26    0.25
  -7   6   0   -0.01    0.42
  -8  -6   0    0.16    0.35
  -8  -6   0    0.03    0.26
  -8   6   0   -0.42    0.43
  -9  -6   0   -0.09    0.39
  -9  -6   0    0.26    0.28
   9  -6   0    0.50    0.44
  -9   6   0    0.32    0.44
 -10  -6   0    0.35    0.45
  10  -6   0    0.13    0.52
 -10  -6   0   -0.05    0.30
 -10   6   0    0.60    0.51
   0  -7   0    0.14    0.33
   0  -7   0   -0.14    0.27
   1  -7   0    0.03    0.32
  -1  -7   0   -0.10    0.26
  -1  -7   0    0.18    0.38
   1  -7   0    0.07    0.31
   2  -7   0    3.11    0.50
  -2  -7   0    3.54    0.43
   2  -7   0    3.57    0.48
  -2  -7   0    3.57    0.51
   3  -7   0   -0.01    0.36
  -3  -7   0   -0.16    0.33
  -3  -7   0    0.34    0.28
  -4  -7   0    1.54    0.32
   4  -7   0    1.47    0.43
  -4  -7   0    0.96    0.40
  -4   7   0    1.43    0.51
   5  -7   0    2.26    0.46
  -5  -7   0    2.26    0.46
  -5  -7   0    2.03    0.36
  -5   7   0    1.83    0.50
   6  -7   0    0.12    0.47
  -6  -7   0    0.11    0.30
  -6  -7   0    0.22    0.43
  -6   7   0   -0.11    0.51
   7  -7   0    1.04    0.53
  -7  -7   0    0.50    0.32
  -7   7   0    1.27    0.57
  -8  -7   0   -0.04    0.33
  -8   7   0   -0.02    0.58
   0  -8   0   15.40    1.35
   0  -8   0   14.57    1.23
  -1  -8   0   -0.07    0.50
  -1  -8   0    0.19    0.36
   1  -8   0    0.81    0.56
   1  -8   0    0.00    0.45
  -2  -8   0   -0.08    0.45
   2  -8   0    0.33    0.47
  -2  -8   0    0.24    0.36
  -3  -8   0    0.19    0.52
   3  -8   0    0.15    0.47
  -3  -8   0    0.90    0.37
   4  -8   0    0.01    0.55
  -4  -8   0   -0.15    0.35
  -4  -8   0   -0.26    0.53
  -5  -8   0    0.31    0.51
  -5  -8   0    0.18    0.39
   5  -8   0    0.56    0.60
  14   0  -1    0.41    0.52
 -14   0   1    0.68    0.26
  14   0  -1    0.63    0.46
 -14   0   1    0.27    0.37
  13   0  -1    0.62    0.37
 -13   0   1    0.54    0.22
  13   0  -1    0.24    0.42
 -13   0   1    0.12    0.36
  12   0  -1   -0.17    0.29
 -12   0   1    0.10    0.27
 -12   0   1   -0.03    0.18
  12   0  -1    0.21    0.35
  11   0  -1    2.89    0.39
  11   0  -1    2.41    0.34
 -11   0   1    1.86    0.32
 -11   0   1    2.16    0.27
 -10   0   1    0.36    0.22
  10   0  -1    0.85    0.27
 -10   0   1    0.50    0.16
  10   0  -1    0.59    0.22
   9   0  -1    9.57    0.80
  -9   0   1   10.20    0.78
  -9   0   1   10.50    0.80
   9   0  -1   10.90    0.82
   8   0  -1    9.03    0.72
  -8   0   1    9.25    0.70
   8   0  -1    9.27    0.74
  -8   0   1    9.54    0.73
   7   0  -1    0.03    0.11
  -7   0   1    0.01    0.09
  -7   0   1    0.17    0.13
   7   0  -1    0.06    0.14
  -6   0   1   95.68    6.42
   6   0  -1   91.41    6.42
   6   0  -1   87.70    6.41
  -6   0   1   87.06    6.40
  -6   0   1   89.50    6.41
   5   0  -1   21.65    1.57
  -5   0   1   23.19    1.58
   5   0  -1   21.17    1.58
  -5   0   1   21.49    1.57
   4   0  -1    1.54    0.16
   4   0  -1    1.45    0.14
  -4   0   1    2.02    0.17
  -4   0   1    1.37    0.14
   3   0  -1  130.63    9.50
  -3   0   1  136.96    9.50
  -3   0   1  135.99    9.49
  -3   0   1  136.43    9.49
   3   0  -1  129.81    9.49
  -2   0   1   47.05    3.20
  -2   0   1   43.88    3.19
   2   0  -1   43.88    3.19
   2   0  -1   45.48    3.20
  -2   0   1   45.07    3.19
  -1   0   1   31.52    2.36
  -1   0   1   34.44    2.36
  -1   0   1   33.75    2.36
   0   0  -1    3.33    0.25
   0   0   1    3.37    0.26
   0   0   1    3.67    0.25
   0   0  -1    3.34    0.25
  -1   0  -1    8.85    0.65
   1   0   1    9.26    0.65
   1   0   1    9.61    0.65
   1   0   1    8.39    0.66
  -1   0  -1    9.13    0.65
  -2   0  -1   19.30    1.40
  -2   0  -1   20.17    1.40
   2   0   1   18.68    1.40
   2   0   1   19.05    1.40
   2   0   1   20.03    1.40
  -2   0  -1   20.39    1.40
   2   0   1   19.58    1.40
   3   0   1   28.37    2.06
   3   0   1   29.51    2.06
   3   0   1   27.73    2.06
  -3   0  -1   29.31    2.06
   3   0   1   28.71    2.06
  -3   0  -1   28.43    2.06
  -3   0  -1   29.49    2.06
  -4   0  -1   27.58    2.01
  -4   0  -1   29.50    2.01
   4   0   1   27.62    2.00
   4   0   1   27.12    2.01
   4   0   1   28.89    2.01
  -4   0  -1   27.85    2.01
   4   0   1   27.70    2.01
   5   0   1    3.92    0.30
  -5   0  -1    3.64    0.30
   5   0   1    3.22    0.30
   5   0   1    3.35    0.30
  -5   0  -1    3.54    0.30
   5   0   1    3.15    0.28
  -5   0  -1    3.20    0.29
  -5   0  -1    3.56    0.28
   6   0   1   17.62    1.34
  -6   0  -1   20.28    1.33
  -6   0  -1   18.51    1.30
   6   0   1   16.30    1.33
  -6   0  -1   18.22    1.33
   6   0   1   18.26    1.30
   6   0   1   18.73    1.33
  -6   0  -1   16.97    1.33
   7   0   1   19.84    1.41
  -7   0  -1   17.22    1.39
  -7   0  -1   19.96    1.40
   7   0   1   17.93    1.40
   7   0   1   20.51    1.40
  -8   0  -1    1.25    0.23
  -8   0  -1    1.71    0.23
   8   0   1    1.34    0.26
   8   0   1    2.07    0.25
   9   0   1    5.55    0.48
   9   0   1    4.95    0.50
  -9   0  -1    4.44    0.46
  -9   0  -1    4.55    0.45
 -10   0  -1   16.96    1.24
  10   0   1   16.74    1.28
  10   0   1   17.62    1.27
 -10   0  -1   14.46    1.24
  11   0   1    0.00    0.26
 -11   0  -1    0.17    0.29
  11   0   1   -0.13    0.29
 -11   0  -1    0.10    0.21
  12   0   1    0.95    0.40
 -12   0  -1    1.07    0.36
  12   0   1    1.99    0.40
 -12   0  -1    1.63    0.30
 -13   0  -1    7.59    0.73
  13   0   1    7.92    0.79
 -13   0  -1    6.88    0.70
 -14   0  -1   -0.12    0.39
 -14   0  -1    0.05    0.32
  14   0   1   -0.17    0.56
  14  -1  -1    3.11    0.51
 -14  -1   1    2.44    0.35
 -14  -1   1    2.95    0.53
  14  -1  -1    2.37    0.54
  14   1  -1    4.00    0.59
  14   1  -1    3.69    0.65
 -14   1   1    2.46    0.46
 -14   1   1    2.39    0.36
  13  -1  -1    2.00    0.41
 -13  -1   1    1.59    0.26
 -13  -1   1    0.83    0.39
  13  -1  -1   -0.03    0.38
 -13   1   1    1.22    0.38
  13   1  -1    1.69    0.45
  13   1  -1    1.20    0.41
 -13   1   1    0.77    0.25
 -12  -1   1    0.82    0.29
  12  -1  -1    0.59    0.31
 -12  -1   1    0.68    0.21
  12  -1  -1    0.66    0.36
 -12   1   1    1.08    0.30
 -12   1   1    1.02    0.22
  12   1  -1    0.46    0.34
  12   1  -1    0.74    0.36
  11  -1  -1    5.85    0.55
 -11  -1   1    4.91    0.47
 -11  -1   1    5.03    0.53
  11  -1  -1    6.00    0.58
 -11   1   1    5.42    0.49
 -11   1   1    5.52    0.56
  11   1  -1    5.97    0.58
  11   1  -1    6.05    0.58
  10  -1  -1    6.94    0.63
 -10  -1   1    8.05    0.64
 -10  -1   1    6.62    0.58
  10  -1  -1    7.68    0.66
  10   1  -1    8.39    0.68
 -10   1   1    7.51    0.60
 -10   1   1    7.33    0.62
  10   1  -1    6.44    0.65
  -9  -1   1   -0.01    0.18
   9  -1  -1    0.02    0.15
  -9  -1   1   -0.08    0.12
   9  -1  -1   -0.03    0.20
   9   1  -1    0.00    0.19
  -9   1   1    0.15    0.18
   9   1  -1    0.16    0.23
  -9   1   1    0.05    0.14
  -8  -1   1    9.79    0.70
  -8  -1   1   10.48    0.73
   8  -1  -1    8.78    0.73
   8  -1  -1    9.97    0.72
  -8   1   1    9.88    0.73
   8   1  -1    8.22    0.74
  -8   1   1    7.87    0.70
   8   1  -1    8.64    0.72
   7  -1  -1   -0.03    0.16
  -7  -1   1    0.28    0.14
   7  -1  -1    0.12    0.12
  -7  -1   1    0.15    0.10
   7   1  -1    0.06    0.14
  -7   1   1    0.10    0.13
   7   1  -1    0.02    0.13
  -7   1   1    0.22    0.11
  -6  -1   1    4.32    0.38
   6  -1  -1    4.68    0.35
  -6  -1   1    5.05    0.34
   6  -1  -1    4.21    0.44
   6  -1  -1    5.09    0.37
  -6  -1   1    4.85    0.38
   6  -1  -1    4.15    0.39
  -6  -1   1    3.98    0.36
  -6   1   1    4.63    0.39
   6   1  -1    4.85    0.38
   6   1  -1    4.34    0.38
  -6   1   1    4.16    0.37
  -5  -1   1   35.79    2.43
   5  -1  -1   35.45    2.44
  -5  -1   1   33.03    2.44
  -5  -1   1   33.91    2.45
   5  -1  -1   32.30    2.45
   5  -1  -1   34.17    2.44
  -5  -1   1   35.03    2.45
   5   1  -1   34.77    2.45
  -5   1   1   32.97    2.45
   5   1  -1   34.18    2.45
  -5   1   1   33.70    2.44
  -4  -1   1   64.50    4.77
  -4  -1   1   68.06    4.77
   4  -1  -1   66.23    4.77
  -4  -1   1   66.33    4.78
   4  -1  -1   65.40    4.78
   4  -1  -1   68.88    4.77
  -4   1   1   70.74    4.78
  -4   1   1   67.87    4.77
   4   1  -1   67.05    4.78
   4   1  -1   66.68    4.77
   3  -1  -1   20.05    1.42
   3  -1  -1   19.02    1.42
  -3  -1   1   19.19    1.42
   3  -1  -1   20.71    1.43
  -3  -1   1   19.92    1.42
  -3  -1   1   20.72    1.43
   3   1  -1   19.38    1.43
  -3   1   1   19.68    1.43
   3   1  -1   19.97    1.43
  -3   1   1   20.76    1.42
   2  -1  -1    9.77    0.70
  -2  -1   1   10.30    0.70
   2  -1  -1    9.68    0.70
  -2  -1   1    9.51    0.71
  -2  -1   1   10.05    0.70
   2  -1  -1   10.27    0.71
  -2   1   1    9.60    0.70
   2   1  -1    9.50    0.70
  -2   1   1    9.17    0.71
   2   1  -1    9.46    0.70
  -2   1   1    9.37    0.71
   1  -1  -1   91.91    6.58
   1  -1  -1   93.40    6.57
  -1  -1   1   96.97    6.58
  -1  -1   1   93.26    6.57
  -1  -1   1   91.98    6.57
   1   1  -1   90.26    6.57
  -1   1   1   92.76    6.58
  -1   1   1   91.32    6.58
   0  -1  -1    0.20    0.04
   0  -1  -1    0.21    0.06
   0  -1   1    0.15    0.04
   0  -1   1    0.22    0.06
   0  -1   1    0.41    0.06
   0   1   1    0.29    0.06
   0   1   1    0.19    0.05
   0   1  -1    0.42    0.05
   0   1  -1    0.24    0.06
   1  -1   1    0.09    0.04
  -1  -1  -1    0.06    0.06
  -1  -1  -1    0.02    0.04
  -1  -1  -1   -0.01    0.04
  -1  -1  -1    0.05    0.04
   1  -1   1    0.10    0.06
   1  -1   1   -0.01    0.04
   1  -1   1    0.08    0.05
  -1   1  -1   -0.01    0.06
   1   1   1    0.06    0.07
   1   1   1    0.04    0.07
  -1   1  -1    0.20    0.07
  -1   1  -1   -0.02    0.06
   1   1   1   -0.01    0.07
  -2  -1  -1  125.54    9.16
  -2  -1  -1  128.64    9.16
  -2  -1  -1  128.86    9.16
   2  -1   1  131.10    9.16
   2  -1   1  135.20    9.16
  -2  -1  -1  126.90    9.16
   2  -1   1  129.45    9.16
  -2   1  -1  133.24    9.17
   2   1   1  124.59    9.16
   2   1   1  132.28    9.16
  -2   1  -1  125.35    9.16
  -2   1  -1  129.04    9.17
   2   1   1  130.07    9.17
   3  -1   1   29.86    2.18
   3  -1   1   30.78    2.18
  -3  -1  -1   30.78    2.18
   3  -1   1   30.49    2.18
   3  -1   1   29.78    2.18
  -3  -1  -1   29.71    2.18
  -3  -1  -1   30.99    2.18
  -3  -1  -1   31.02    2.18
   3   1   1   31.28    2.19
  -3   1  -1   30.58    2.18
  -3   1  -1   32.07    2.19
  -3   1  -1   30.17    2.19
   3   1   1   31.22    2.19
   3   1   1   29.15    2.18
  -4  -1  -1    0.11    0.09
  -4  -1  -1    0.21    0.09
   4  -1   1    0.06    0.08
   4  -1   1    0.04    0.08
   4  -1   1    0.39    0.10
  -4  -1  -1    0.06    0.08
  -4  -1  -1    0.24    0.07
   4  -1   1    0.21    0.10
   4   1   1    0.10    0.10
   4   1   1    0.20    0.13
   4   1   1    0.09    0.10
  -4   1  -1    0.04    0.11
  -4   1  -1    0.03    0.11
  -4   1  -1    0.13    0.10
  -5  -1  -1   48.96    3.46
   5  -1   1   48.84    3.45
   5  -1   1   49.29    3.45
  -5  -1  -1   48.87    3.44
   5  -1   1   50.51    3.46
  -5  -1  -1   47.43    3.45
  -5  -1  -1   47.11    3.45
   5  -1   1   47.48    3.46
  -5   1  -1   49.72    3.46
   5   1   1   46.82    3.46
  -5   1  -1   45.69    3.46
   5   1   1   48.73    3.46
  -5   1  -1   52.10    3.46
   5   1   1   46.01    3.46
  -6  -1  -1    0.98    0.17
  -6  -1  -1    0.91    0.17
   6  -1   1    1.03    0.18
   6  -1   1    1.19    0.17
  -6  -1  -1    1.32    0.17
   6  -1   1    0.97    0.17
   6  -1   1    1.41    0.19
  -6  -1  -1    1.08    0.13
  -6   1  -1    1.22    0.19
   6   1   1    0.86    0.20
  -6   1  -1    1.52    0.20
   6   1   1    1.23    0.19
  -6   1  -1    1.44    0.18
   6   1   1    0.94    0.19
   7  -1   1    7.79    0.55
   7  -1   1    7.05    0.57
  -7  -1  -1    6.05    0.55
  -7  -1  -1    6.07    0.56
   7  -1   1    7.31    0.59
   7   1   1    6.71    0.59
  -7   1  -1    6.85    0.56
   7   1   1    8.23    0.58
   7   1   1    7.17    0.57
  -7   1  -1    6.58    0.57
  -8  -1  -1   33.84    2.61
   8  -1   1   37.01    2.62
   8  -1   1   37.06    2.61
  -8  -1  -1   35.60    2.60
   8   1   1   36.66    2.62
   8   1   1   36.30    2.62
  -8   1  -1   35.49    2.62
  -8   1  -1   37.31    2.61
  -9  -1  -1    2.65    0.33
   9  -1   1    1.75    0.32
   9  -1   1    2.47    0.31
  -9  -1  -1    2.60    0.30
  -9   1  -1    2.69    0.31
   9   1   1    2.92    0.36
   9   1   1    3.21    0.34
  -9   1  -1    2.83    0.33
  10  -1   1    0.77    0.29
 -10  -1  -1    0.94    0.27
  10  -1   1    1.39    0.32
 -10  -1  -1    1.62    0.26
 -10   1  -1    1.37    0.28
 -10   1  -1    1.32    0.28
  10   1   1    1.53    0.30
  10   1   1    1.30    0.32
  11  -1   1    0.40    0.30
 -11  -1  -1    0.29    0.23
 -11  -1  -1    0.44    0.25
  11  -1   1   -0.31    0.30
 -11   1  -1    0.11    0.26
  11   1   1    0.09    0.33
  11   1   1    0.13    0.31
 -11   1  -1    0.21    0.23
 -12  -1  -1    0.87    0.34
 -12  -1  -1    1.00    0.27
  12  -1   1    0.64    0.39
 -12   1  -1    0.76    0.32
  12   1   1    0.61    0.37
  12   1   1    0.58    0.41
 -12   1  -1    0.71    0.29
 -13  -1  -1    0.34    0.28
 -13  -1  -1    0.01    0.34
  13  -1   1    0.04    0.46
  13   1   1    0.76    0.40
 -13   1  -1    0.26    0.29
 -13   1  -1   -0.02    0.38
 -14  -1  -1    0.04    0.32
 -14  -1  -1   -0.04    0.41
  14  -1   1   -0.33    0.48
  14   1   1    0.26    0.47
 -14   1  -1    0.13    0.33
 -14   1  -1    0.42    0.42
  14  -2  -1    0.98    0.50
 -14  -2   1    0.80    0.45
  14  -2  -1    0.26    0.48
  14   2  -1    0.06    0.48
  14   2  -1    0.78    0.53
 -14   2   1    0.39    0.29
 -13  -2   1    0.28    0.22
  13  -2  -1    0.66    0.43
  13  -2  -1    0.10    0.36
 -13  -2   1   -0.02    0.40
  13   2  -1    0.03    0.44
  13   2  -1    0.22    0.47
 -13   2   1    0.17    0.25
 -13   2   1   -0.08    0.34
  12  -2  -1   -0.01    0.33
 -12  -2   1   -0.09    0.29
  12  -2  -1   -0.12    0.28
 -12  -2   1   -0.08    0.19
  12   2  -1    0.13    0.36
 -12   2   1    0.14    0.22
  12   2  -1   -0.03    0.36
 -12   2   1   -0.24    0.31
  11  -2  -1    2.12    0.32
 -11  -2   1    1.39    0.22
 -11  -2   1    1.74    0.33
  11  -2  -1    1.69    0.35
 -11   2   1    1.35    0.29
  11   2  -1    0.97    0.35
 -11   2   1    1.11    0.24
  11   2  -1    0.93    0.32
 -10  -2   1    0.57    0.25
 -10  -2   1    0.65    0.17
  10  -2  -1    0.56    0.26
  10  -2  -1    0.34    0.22
  10   2  -1    0.20    0.28
 -10   2   1    0.64    0.20
 -10   2   1    0.42    0.24
  10   2  -1    0.92    0.29
  -9  -2   1    6.43    0.54
   9  -2  -1    6.93    0.61
   9  -2  -1    7.08    0.58
  -9  -2   1    6.85    0.59
  -9   2   1    6.96    0.57
   9   2  -1    7.41    0.62
  -9   2   1    6.51    0.57
   9   2  -1    6.61    0.62
  -8  -2   1    8.29    0.56
  -8  -2   1    6.20    0.51
   8  -2  -1    6.28    0.57
   8  -2  -1    5.94    0.54
  -8   2   1    7.13    0.54
  -8   2   1    6.42    0.53
   8   2  -1    6.31    0.57
   8   2  -1    5.71    0.57
  -7  -2   1    0.16    0.15
  -7  -2   1    0.12    0.11
   7  -2  -1    0.02    0.14
   7  -2  -1   -0.05    0.15
  -7   2   1   -0.09    0.14
   7   2  -1    0.13    0.17
  -7   2   1    0.10    0.14
   7   2  -1    0.19    0.17
  -6  -2   1   56.33    4.10
  -6  -2   1   55.71    4.12
   6  -2  -1   60.21    4.11
   6  -2  -1   58.18    4.10
   6  -2  -1   58.65    4.11
  -6  -2   1   58.66    4.10
  -6   2   1   56.96    4.10
   6   2  -1   56.10    4.12
   6   2  -1   59.23    4.11
  -6   2   1   55.40    4.11
   5  -2  -1   14.02    1.04
  -5  -2   1   13.05    1.05
   5  -2  -1   13.97    1.05
   5  -2  -1   14.17    1.04
  -5  -2   1   14.98    1.04
   5  -2  -1   15.38    1.05
   5   2  -1   13.94    1.04
  -5   2   1   14.94    1.04
  -5   2   1   13.60    1.05
   5   2  -1   14.69    1.09
   5   2  -1   13.51    1.06
  -4  -2   1    1.08    0.13
  -4  -2   1    1.17    0.16
   4  -2  -1    1.13    0.15
   4  -2  -1    1.34    0.17
   4  -2  -1    1.23    0.14
  -4  -2   1    1.58    0.15
   4  -2  -1    1.54    0.18
  -4   2   1    1.27    0.14
   4   2  -1    0.99    0.17
   4   2  -1    1.36    0.15
  -4   2   1    1.31    0.17
  -3  -2   1   77.92    5.60
   3  -2  -1   79.98    5.60
  -3  -2   1   77.73    5.59
   3  -2  -1   78.19    5.59
  -3  -2   1   80.66    5.60
   3  -2  -1   81.74    5.60
   3  -2  -1   76.26    5.60
  -3   2   1   77.66    5.59
   3   2  -1   79.23    5.60
  -3   2   1   78.66    5.61
   3   2  -1   78.27    5.59
   2  -2  -1   25.51    1.84
   2  -2  -1   26.03    1.84
  -2  -2   1   26.72    1.85
   2  -2  -1   24.95    1.85
  -2  -2   1   25.56    1.84
   2  -2  -1   27.31    1.84
  -2  -2   1   24.93    1.84
   2   2  -1   25.46    1.83
  -2   2   1   25.93    1.83
  -2   2   1   26.58    1.85
  -2   2   1   25.58    1.85
   2   2  -1   25.29    1.84
  -2   2   1   24.72    1.84
   1  -2  -1   18.30    1.36
  -1  -2   1   18.32    1.36
   1  -2  -1   17.79    1.36
  -1  -2   1   20.09    1.35
   1  -2  -1   19.37    1.36
   1  -2  -1   17.80    1.35
  -1  -2   1   18.49    1.36
   1   2  -1   19.65    1.37
  -1   2   1   19.46    1.35
   1   2  -1   19.31    1.36
  -1   2   1   18.54    1.36
  -1   2   1   19.81    1.36
  -1   2   1   19.05    1.37
   0  -2  -1    1.65    0.15
   0  -2   1    1.51    0.16
   0  -2   1    1.51    0.15
   0  -2   1    1.71    0.13
   0  -2  -1    1.33    0.14
   0  -2  -1    1.89    0.17
   0  -2  -1    1.49    0.15
   0  -2   1    1.62    0.17
   0  -2   1    1.70    0.15
   0   2  -1    1.60    0.16
   0   2   1    1.55    0.17
   0   2   1    1.68    0.16
   0   2  -1    1.32    0.16
   0   2   1    1.59    0.16
  -1  -2  -1    4.64    0.36
  -1  -2  -1    4.69    0.35
  -1  -2  -1    4.24    0.34
   1  -2   1    4.46    0.35
   1  -2   1    5.40    0.34
   1  -2   1    4.39    0.35
   1  -2   1    4.06    0.36
  -1  -2  -1    4.58    0.35
  -1   2  -1    4.21    0.36
   1   2   1    5.06    0.37
  -1   2  -1    4.67    0.37
  -1   2  -1    4.47    0.36
   1   2   1    4.66    0.36
   1   2   1    4.16    0.37
  -2  -2  -1   11.31    0.83
   2  -2   1   11.17    0.82
   2  -2   1   11.04    0.83
   2  -2   1   11.13    0.82
  -2  -2  -1   11.07    0.83
   2  -2   1   11.53    0.83
  -2  -2  -1   10.86    0.82
  -2  -2  -1   11.61    0.83
  -2   2  -1   11.40    0.84
   2   2   1   11.85    0.84
  -2   2  -1   11.93    0.83
  -2   2  -1   11.98    0.84
   2   2   1   11.09    0.85
   2   2   1   11.16    0.84
   3  -2   1   15.32    1.08
   3  -2   1   15.22    1.08
  -3  -2  -1   15.87    1.08
  -3  -2  -1   15.04    1.08
  -3  -2  -1   13.78    1.08
  -3  -2  -1   15.07    1.07
   3  -2   1   15.02    1.08
   3  -2   1   15.30    1.08
   3   2   1   13.75    1.10
  -3   2  -1   15.58    1.08
   3   2   1   14.74    1.09
  -3   2  -1   13.90    1.09
  -3   2  -1   14.38    1.09
   3   2   1   14.07    1.08
  -4  -2  -1   13.61    0.98
   4  -2   1   12.70    0.98
   4  -2   1   14.63    0.99
  -4  -2  -1   14.13    0.98
  -4  -2  -1   13.06    0.98
   4  -2   1   12.94    0.98
  -4  -2  -1   12.72    0.98
   4  -2   1   14.43    0.99
  -4   2  -1   13.65    0.98
   4   2   1   12.13    1.00
   4   2   1   13.09    0.99
  -4   2  -1   13.51    1.01
  -4   2  -1   12.90    1.00
   4   2   1   13.81    1.00
  -5  -2  -1    1.90    0.21
   5  -2   1    1.90    0.22
   5  -2   1    1.75    0.21
  -5  -2  -1    1.89    0.23
  -5  -2  -1    1.87    0.20
   5  -2   1    2.23    0.23
  -5  -2  -1    2.33    0.22
   5  -2   1    1.97    0.20
   5   2   1    1.66    0.21
  -5   2  -1    1.52    0.20
  -5   2  -1    1.78    0.24
  -5   2  -1    2.62    0.27
   5   2   1    1.34    0.22
   5   2   1    1.84    0.26
  -6  -2  -1   10.17    0.81
   6  -2   1   11.91    0.82
   6  -2   1   10.28    0.81
  -6  -2  -1   10.92    0.80
   6  -2   1   12.08    0.82
  -6  -2  -1    9.93    0.80
   6  -2   1    9.97    0.82
  -6   2  -1   10.64    0.81
   6   2   1   10.31    0.85
  -6   2  -1   12.60    0.85
   6   2   1    9.63    0.81
   6   2   1   12.47    0.84
  -6   2  -1    9.73    0.83
   7  -2   1   12.71    0.94
   7  -2   1   12.47    0.92
  -7  -2  -1   10.81    0.93
  -7  -2  -1   11.88    0.92
   7  -2   1   11.51    0.93
   7  -2   1   12.54    0.95
   7   2   1   12.27    0.95
  -7   2  -1   13.31    0.96
   7   2   1   13.32    0.95
  -7   2  -1   12.70    0.93
   8  -2   1    1.52    0.25
  -8  -2  -1    2.10    0.24
   8  -2   1    1.54    0.27
  -8  -2  -1    1.27    0.24
   8   2   1    0.93    0.24
  -8   2  -1    1.55    0.26
   8   2   1    1.52    0.29
  -8   2  -1    1.52    0.25
   9  -2   1    3.53    0.40
  -9  -2  -1    4.02    0.40
  -9  -2  -1    3.59    0.43
   9  -2   1    3.89    0.44
  -9   2  -1    3.27    0.40
   9   2   1    4.98    0.47
  -9   2  -1    4.57    0.43
   9   2   1    3.64    0.44
 -10  -2  -1   10.87    0.87
  10  -2   1   10.93    0.88
  10  -2   1   10.04    0.89
 -10  -2  -1   10.86    0.84
 -10   2  -1   10.55    0.88
 -10   2  -1   10.01    0.85
  10   2   1    9.73    0.88
  10   2   1   12.03    0.91
  11  -2   1    0.04    0.33
 -11  -2  -1    0.30    0.30
 -11  -2  -1    0.03    0.22
  11  -2   1    0.04    0.34
 -11   2  -1    0.05    0.26
  11   2   1    0.49    0.38
  11   2   1   -0.13    0.30
 -11   2  -1    0.45    0.30
 -12  -2  -1    1.14    0.34
 -12  -2  -1    1.00    0.29
  12  -2   1    0.76    0.39
  12   2   1    1.76    0.50
  12   2   1    0.45    0.37
 -12   2  -1    0.91    0.34
 -12   2  -1    1.25    0.34
 -13  -2  -1    5.46    0.55
 -13  -2  -1    5.41    0.64
  13  -2   1    4.42    0.66
 -13   2  -1    6.29    0.59
  13   2   1    5.10    0.67
 -13   2  -1    4.42    0.62
 -13  -3   1    0.85    0.25
  13  -3  -1    0.79    0.46
 -13  -3   1    0.59    0.41
  13   3  -1    0.42    0.54
 -13   3   1    0.89    0.31
 -12  -3   1    0.72    0.34
  12  -3  -1    1.15    0.45
  12  -3  -1    0.35    0.35
 -12  -3   1    0.69    0.22
 -12   3   1    0.58    0.27
  12   3  -1    0.24    0.45
 -11  -3   1    3.04    0.41
  11  -3  -1    2.26    0.36
 -11  -3   1    2.14    0.29
  11  -3  -1    2.68    0.42
 -11   3   1    2.81    0.35
  11   3  -1    2.77    0.50
 -10  -3   1    4.69    0.41
  10  -3  -1    4.27    0.46
 -10  -3   1    3.53    0.45
  10  -3  -1    4.54    0.52
 -10   3   1    4.05    0.48
  10   3  -1    4.38    0.54
 -10   3   1    4.02    0.43
   9  -3  -1    0.24    0.21
  -9  -3   1    0.21    0.15
   9  -3  -1    0.37    0.26
  -9  -3   1    0.02    0.22
  -9   3   1    0.27    0.20
  -9   3   1   -0.05    0.22
   9   3  -1    0.28    0.26
   9   3  -1   -0.06    0.29
  -8  -3   1    2.79    0.30
   8  -3  -1    2.64    0.36
  -8  -3   1    3.05    0.36
   8  -3  -1    3.46    0.35
  -8   3   1    3.17    0.36
   8   3  -1    2.74    0.37
  -8   3   1    3.21    0.32
   8   3  -1    3.49    0.36
   7  -3  -1   -0.04    0.22
   7  -3  -1    0.06    0.19
   7  -3  -1    0.23    0.16
  -7  -3   1    0.20    0.12
  -7  -3   1    0.11    0.20
   7   3  -1    0.11    0.21
  -7   3   1    0.19    0.19
   7   3  -1    0.16    0.19
  -7   3   1    0.20    0.15
  -6  -3   1    1.73    0.26
  -6  -3   1    2.48    0.26
   6  -3  -1    2.14    0.27
   6  -3  -1    2.66    0.26
  -6  -3   1    2.28    0.24
   6  -3  -1    2.46    0.28
  -6   3   1    2.42    0.24
   6   3  -1    2.28    0.31
  -6   3   1    2.67    0.30
   6   3  -1    2.48    0.27
  -5  -3   1   12.59    0.96
   5  -3  -1   12.77    0.98
   5  -3  -1   14.02    0.97
   5  -3  -1   13.04    0.98
  -5  -3   1   11.98    0.98
   5  -3  -1   13.81    0.99
  -5  -3   1   13.62    0.98
   5   3  -1   13.11    0.97
   5   3  -1   12.82    0.99
  -5   3   1   11.72    0.99
  -5   3   1   13.76    0.96
   4  -3  -1   24.81    1.70
   4  -3  -1   21.59    1.70
   4  -3  -1   24.07    1.71
  -4  -3   1   26.13    1.71
   4  -3  -1   23.90    1.71
  -4  -3   1   21.63    1.70
  -4  -3   1   22.02    1.69
   4   3  -1   24.18    1.70
   4   3  -1   25.01    1.73
   4   3  -1   22.47    1.71
  -4   3   1   22.63    1.72
  -4   3   1   23.00    1.69
  -4   3   1   25.49    1.72
   3  -3  -1    6.08    0.47
   3  -3  -1    5.52    0.47
   3  -3  -1    5.80    0.47
  -3  -3   1    5.30    0.45
  -3  -3   1    5.24    0.46
  -3  -3   1    5.99    0.47
   3  -3  -1    6.48    0.46
  -3   3   1    5.40    0.49
  -3   3   1    6.28    0.50
  -3   3   1    6.14    0.44
   3   3  -1    5.78    0.50
   3   3  -1    6.05    0.47
   3   3  -1    5.78    0.47
  -2  -3   1    3.85    0.32
  -2  -3   1    3.26    0.32
   2  -3  -1    3.01    0.33
  -2  -3   1    4.21    0.32
   2  -3  -1    4.12    0.31
   2  -3  -1    3.33    0.31
   2  -3  -1    3.05    0.29
  -2  -3   1    3.47    0.30
  -2   3   1    3.80    0.29
   2   3  -1    3.98    0.28
  -2   3   1    3.62    0.34
   2   3  -1    3.81    0.34
   2   3  -1    3.58    0.32
  -2   3   1    3.68    0.34
  -2   3   1    2.73    0.30
  -1  -3   1   35.73    2.52
   1  -3  -1   36.25    2.54
   1  -3  -1   34.71    2.55
  -1  -3   1   34.57    2.53
  -1  -3   1   33.72    2.54
   1  -3  -1   35.79    2.53
  -1  -3   1   35.05    2.55
   1  -3  -1   34.25    2.53
   1  -3  -1   36.34    2.53
  -1  -3   1   37.30    2.53
  -1   3   1   35.81    2.53
   1   3  -1   37.36    2.54
  -1   3   1   35.34    2.54
  -1   3   1   34.16    2.53
   1   3  -1   34.73    2.52
   1   3  -1   36.59    2.55
  -1   3   1   35.22    2.55
   0  -3   1    0.06    0.08
   0  -3   1   -0.04    0.11
   0  -3  -1    0.03    0.11
   0  -3  -1    0.06    0.08
   0  -3   1    0.04    0.10
   0  -3   1    0.09    0.06
   0  -3   1    0.09    0.09
   0  -3  -1    0.13    0.09
   0  -3  -1    0.08    0.10
   0   3  -1    0.08    0.12
   0   3   1    0.11    0.13
   0   3   1    0.05    0.13
   0   3   1    0.15    0.09
   0   3  -1    0.00    0.10
   0   3  -1    0.07    0.11
   1  -3   1    0.56    0.12
   1  -3   1    0.44    0.14
  -1  -3  -1    0.45    0.11
  -1  -3  -1    0.60    0.11
   1  -3   1    0.43    0.10
  -1  -3  -1    0.60    0.14
   1  -3   1    0.54    0.14
  -1  -3  -1    0.45    0.11
   1  -3   1    0.69    0.09
  -1   3  -1    0.57    0.14
   1   3   1    0.62    0.16
  -1   3  -1    0.38    0.15
   1   3   1    0.36    0.12
  -1   3  -1    0.37    0.13
   1   3   1    0.87    0.16
  -2  -3  -1   41.47    2.97
   2  -3   1   39.95    2.98
   2  -3   1   40.84    2.97
  -2  -3  -1   43.01    2.97
  -2  -3  -1   43.24    2.98
   2  -3   1   42.00    2.97
   2  -3   1   40.82    2.99
  -2  -3  -1   39.85    2.99
  -2   3  -1   41.68    2.98
   2   3   1   42.16    2.99
  -2   3  -1   42.90    2.99
   2   3   1   42.34    3.00
   2   3   1   42.23    2.98
  -2   3  -1   40.76    2.99
   3  -3   1   12.86    0.93
  -3  -3  -1   12.11    0.92
   3  -3   1   11.99    0.94
   3  -3   1   13.24    0.93
  -3  -3  -1   12.49    0.94
   3  -3   1   12.61    0.93
  -3  -3  -1   12.96    0.93
  -3  -3  -1   11.73    0.92
  -3   3  -1   11.68    0.95
  -3   3  -1   13.73    0.94
  -3   3  -1   13.66    0.95
   3   3   1   12.85    0.96
   3   3   1   12.32    0.95
   3   3   1   11.66    0.94
   4  -3   1    0.05    0.13
   4  -3   1    0.39    0.12
  -4  -3  -1    0.57    0.15
  -4  -3  -1    0.42    0.14
   4  -3   1    0.10    0.14
  -4  -3  -1    0.15    0.12
  -4  -3  -1    0.18    0.12
   4  -3   1    0.46    0.14
   4   3   1    0.44    0.23
   4   3   1    0.27    0.19
  -4   3  -1    0.37    0.13
   4   3   1    0.19    0.17
  -4   3  -1    0.17    0.19
  -4   3  -1    0.35    0.18
  -5  -3  -1   18.18    1.46
  -5  -3  -1   21.15    1.47
   5  -3   1   18.38    1.46
   5  -3   1   19.80    1.47
   5  -3   1   20.20    1.47
   5  -3   1   21.94    1.46
  -5  -3  -1   20.20    1.46
   5   3   1   20.52    1.47
  -5   3  -1   19.17    1.49
   5   3   1   21.00    1.51
   5   3   1   19.20    1.48
  -5   3  -1   21.16    1.48
  -5   3  -1   19.66    1.45
   6  -3   1    1.48    0.24
  -6  -3  -1    1.38    0.23
  -6  -3  -1    1.41    0.20
   6  -3   1    0.98    0.21
   6  -3   1    0.96    0.19
   6  -3   1    1.45    0.22
  -6  -3  -1    0.70    0.18
  -6   3  -1    1.46    0.21
   6   3   1    0.78    0.22
  -6   3  -1    1.12    0.25
   6   3   1    1.18    0.25
  -7  -3  -1    3.63    0.34
   7  -3   1    3.50    0.36
   7  -3   1    3.07    0.35
  -7  -3  -1    3.19    0.35
   7  -3   1    3.15    0.33
  -7   3  -1    2.70    0.37
  -7   3  -1    2.67    0.33
   7   3   1    3.65    0.38
   7   3   1    3.56    0.40
   8  -3   1   18.76    1.41
  -8  -3  -1   17.48    1.41
   8  -3   1   19.37    1.41
  -8  -3  -1   18.25    1.39
   8   3   1   18.24    1.42
  -8   3  -1   18.39    1.39
  -8   3  -1   21.56    1.44
   8   3   1   18.64    1.44
   9  -3   1    2.84    0.36
  -9  -3  -1    2.40    0.36
  -9  -3  -1    2.48    0.32
   9  -3   1    2.18    0.39
   9   3   1    3.46    0.42
  -9   3  -1    2.34    0.35
   9   3   1    1.91    0.41
  -9   3  -1    3.50    0.41
  10  -3   1    0.58    0.32
 -10  -3  -1    0.25    0.23
 -10  -3  -1    0.46    0.28
  10   3   1    0.50    0.35
  10   3   1    0.69    0.37
 -10   3  -1    0.46    0.29
 -10   3  -1    0.31    0.25
  11  -3   1    0.08    0.34
 -11  -3  -1    0.06    0.24
 -11  -3  -1    0.20    0.33
  11   3   1   -0.15    0.40
 -11   3  -1    0.04    0.29
 -11   3  -1    0.32    0.29
  11   3   1   -0.06    0.41
 -12  -3  -1    0.64    0.41
  12  -3   1    0.38    0.40
 -12  -3  -1    0.49    0.27
  12   3   1    1.11    0.54
 -12   3  -1    0.08    0.34
 -12   3  -1    0.20    0.37
  13  -3   1    0.16    0.45
 -13  -3  -1    0.40    0.42
 -13  -3  -1   -0.07    0.31
 -13   3  -1    0.38    0.38
 -13  -4   1   -0.01    0.26
 -12  -4   1   -0.11    0.42
 -12  -4   1    0.13    0.24
  12  -4  -1    0.20    0.43
 -12   4   1    0.04    0.31
  12   4  -1    0.41    0.53
 -11  -4   1    0.58    0.34
 -11  -4   1    0.42    0.22
  11  -4  -1    0.47    0.37
  11  -4  -1    0.30    0.36
  11   4  -1    0.48    0.45
 -11   4   1    0.25    0.29
  10  -4  -1    1.07    0.36
  10  -4  -1    1.20    0.32
 -10  -4   1    0.94    0.22
 -10  -4   1    1.18    0.32
 -10   4   1    0.85    0.31
  10   4  -1    0.77    0.41
  -9  -4   1    2.93    0.41
   9  -4  -1    3.33    0.40
  -9  -4   1    3.04    0.32
   9  -4  -1    3.15    0.46
   9   4  -1    3.07    0.49
  -9   4   1    2.89    0.41
   8  -4  -1    2.32    0.34
  -8  -4   1    2.38    0.35
   8  -4  -1    2.71    0.38
  -8  -4   1    2.34    0.29
   8   4  -1    2.93    0.40
  -8   4   1    3.07    0.38
   7  -4  -1    0.89    0.21
   7  -4  -1    0.23    0.23
   7  -4  -1    0.18    0.25
  -7  -4   1    0.06    0.15
  -7  -4   1    0.10    0.20
   7   4  -1    0.45    0.28
  -7   4   1    0.28    0.24
   6  -4  -1   20.30    1.52
   6  -4  -1   19.62    1.53
  -6  -4   1   19.68    1.52
  -6  -4   1   19.62    1.52
   6  -4  -1   21.88    1.53
  -6  -4   1   21.38    1.50
  -6   4   1   21.41    1.55
   6   4  -1   21.00    1.55
  -5  -4   1    6.49    0.49
   5  -4  -1    6.32    0.53
   5  -4  -1    5.68    0.54
   5  -4  -1    5.94    0.50
  -5  -4   1    6.29    0.53
  -5  -4   1    5.72    0.53
   5   4  -1    5.75    0.53
  -5   4   1    5.54    0.57
  -4  -4   1    1.04    0.22
   4  -4  -1    0.84    0.22
   4  -4  -1    1.48    0.22
  -4  -4   1    1.40    0.18
   4  -4  -1    1.29    0.22
   4  -4  -1    1.31    0.20
  -4  -4   1    0.78    0.20
  -4   4   1    0.61    0.22
   4   4  -1    1.43    0.24
  -4   4   1    1.27    0.17
  -3  -4   1   21.64    1.69
   3  -4  -1   24.21    1.68
   3  -4  -1   22.39    1.69
   3  -4  -1   24.79    1.68
  -3  -4   1   22.87    1.68
   3  -4  -1   23.87    1.67
  -3  -4   1   22.17    1.67
  -3   4   1   27.16    1.80
  -3   4   1   23.65    1.66
   3   4  -1   22.98    1.69
  -3   4   1   20.49    1.69
   3   4  -1   21.56    1.78
   2  -4  -1    8.75    0.75
   2  -4  -1   10.17    0.73
   2  -4  -1   10.30    0.74
  -2  -4   1    7.99    0.73
   2  -4  -1    9.57    0.73
  -2  -4   1    8.73    0.72
  -2  -4   1    9.48    0.76
  -2   4   1   10.39    0.77
   2   4  -1   11.01    0.79
  -2   4   1   10.02    0.73
  -2   4   1   11.00    0.76
  -2   4   1    9.28    0.73
   2   4  -1    9.88    0.76
   1  -4  -1    6.04    0.56
  -1  -4   1    7.53    0.59
  -1  -4   1    7.33    0.57
   1  -4  -1    7.56    0.56
   1  -4  -1    7.97    0.58
  -1  -4   1    6.31    0.56
  -1  -4   1    7.71    0.57
   1  -4  -1    7.17    0.60
   1  -4  -1    7.64    0.56
  -1  -4   1    7.28    0.53
  -1   4   1    7.61    0.60
   1   4  -1    7.90    0.61
  -1   4   1    6.02    0.60
  -1   4   1    7.30    0.57
   1   4  -1    7.76    0.58
   1   4  -1    7.06    0.53
  -1   4   1    6.28    0.55
   0  -4  -1    0.39    0.14
   0  -4  -1    0.61    0.14
   0  -4  -1    0.41    0.17
   0  -4  -1    0.46    0.14
   0  -4   1    0.45    0.10
   0  -4   1    0.51    0.15
   0  -4   1    0.43    0.18
   0  -4   1    0.25    0.16
   0  -4   1    0.37    0.13
   0   4   1    0.66    0.20
   0   4  -1    0.40    0.19
   0   4  -1    0.59    0.18
   0   4  -1    0.60    0.17
   0   4   1    0.68    0.14
   0   4   1    0.79    0.20
  -1  -4  -1    0.98    0.16
  -1  -4  -1    0.71    0.16
   1  -4   1    0.41    0.18
  -1  -4  -1    0.63    0.18
  -1  -4  -1    0.44    0.14
   1  -4   1    0.77    0.20
   1  -4   1    0.60    0.14
   1  -4   1    0.96    0.17
   1  -4   1    0.73    0.12
   1   4   1    0.70    0.23
  -1   4  -1    0.73    0.19
   1   4   1    0.83    0.15
  -1   4  -1    1.11    0.22
   1   4   1    0.46    0.19
  -1   4  -1    0.50    0.17
   2  -4   1    3.73    0.38
   2  -4   1    4.02    0.36
  -2  -4  -1    3.98    0.37
   2  -4   1    3.99    0.36
  -2  -4  -1    3.93    0.37
   2  -4   1    4.26    0.40
  -2  -4  -1    5.05    0.38
  -2  -4  -1    4.00    0.40
   2   4   1    4.70    0.39
  -2   4  -1    4.79    0.42
  -2   4  -1    3.91    0.41
   2   4   1    5.27    0.44
   2   4   1    4.69    0.44
  -2   4  -1    4.71    0.42
   3  -4   1    4.26    0.35
   3  -4   1    3.74    0.35
   3  -4   1    3.17    0.38
  -3  -4  -1    4.02    0.38
  -3  -4  -1    3.99    0.36
  -3  -4  -1    3.35    0.35
   3  -4   1    3.49    0.36
  -3  -4  -1    3.52    0.36
   3   4   1    3.67    0.38
  -3   4  -1    3.64    0.37
  -3   4  -1    3.61    0.38
   3   4   1    4.64    0.41
  -3   4  -1    4.65    0.43
   3   4   1    4.08    0.43
  -4  -4  -1    2.59    0.31
  -4  -4  -1    2.46    0.30
   4  -4   1    2.51    0.33
   4  -4   1    3.62    0.33
  -4  -4  -1    2.50    0.33
   4  -4   1    3.39    0.32
   4  -4   1    2.51    0.29
   4   4   1    2.56    0.36
  -4   4  -1    2.53    0.34
   4   4   1    3.07    0.35
  -4   4  -1    3.30    0.30
  -4   4  -1    3.60    0.37
   4   4   1    3.12    0.40
   5  -4   1    0.34    0.18
   5  -4   1    0.26    0.20
   5  -4   1    0.72    0.21
   5  -4   1    0.47    0.22
  -5  -4  -1    0.14    0.17
  -5  -4  -1    0.16    0.16
  -5  -4  -1    0.45    0.18
  -5   4  -1    0.10    0.17
   5   4   1    0.39    0.26
   5   4   1    0.49    0.26
  -5   4  -1    0.17    0.25
  -6  -4  -1    3.81    0.38
   6  -4   1    4.03    0.39
   6  -4   1    3.92    0.40
  -6  -4  -1    4.46    0.42
   6  -4   1    3.87    0.41
  -6  -4  -1    3.62    0.39
   6  -4   1    3.54    0.41
  -6   4  -1    3.91    0.46
  -6   4  -1    4.11    0.39
   6   4   1    3.73    0.45
   6   4   1    4.21    0.45
  -7  -4  -1    4.51    0.41
   7  -4   1    3.67    0.40
   7  -4   1    2.72    0.40
  -7  -4  -1    3.10    0.37
   7  -4   1    4.36    0.56
  -7   4  -1    4.25    0.40
  -7   4  -1    4.13    0.46
   7   4   1    3.42    0.45
  -8  -4  -1    1.33    0.26
   8  -4   1    1.37    0.31
  -8  -4  -1    1.74    0.30
   8   4   1    0.56    0.37
  -8   4  -1    1.42    0.36
  -8   4  -1    1.85    0.30
   9  -4   1    1.47    0.38
  -9  -4  -1    1.47    0.37
  -9  -4  -1    1.43    0.29
  -9   4  -1    2.72    0.34
  -9   4  -1    1.54    0.40
   9   4   1    2.88    0.45
  10  -4   1    3.91    0.52
 -10  -4  -1    3.88    0.44
 -10  -4  -1    4.35    0.52
 -10   4  -1    4.66    0.55
  11  -4   1    0.14    0.39
 -11  -4  -1   -0.05    0.27
 -11  -4  -1   -0.09    0.33
 -11   4  -1    0.00    0.35
 -12  -4  -1    0.46    0.30
 -12  -4  -1   -0.08    0.39
  12  -4   1    0.18    0.49
 -12   4  -1    0.30    0.39
 -11  -5   1    0.92    0.42
 -11  -5   1    0.28    0.24
  11  -5  -1    0.74    0.49
  11   5  -1    0.87    0.55
 -11   5   1    0.37    0.38
  10  -5  -1    0.98    0.46
 -10  -5   1    2.01    0.41
 -10  -5   1    1.25    0.27
 -10   5   1    1.53    0.40
  10   5  -1    1.87    0.52
  -9  -5   1    0.00    0.19
   9  -5  -1    0.14    0.37
  -9  -5   1    0.10    0.30
  -9   5   1    0.39    0.32
   9   5  -1    0.39    0.42
   8  -5  -1    0.34    0.34
   8  -5  -1    0.30    0.30
  -8  -5   1    0.74    0.30
  -8  -5   1    0.47    0.20
   8   5  -1   -0.25    0.34
  -8   5   1    0.23    0.31
   7  -5  -1   -0.23    0.31
   7  -5  -1    0.11    0.27
   7  -5  -1    0.28    0.24
  -7  -5   1   -0.04    0.26
  -7  -5   1   -0.06    0.18
  -7   5   1    0.00    0.31
   7   5  -1    0.20    0.33
  -6  -5   1    1.84    0.25
   6  -5  -1    1.70    0.34
   6  -5  -1    1.66    0.32
   6  -5  -1    1.65    0.28
  -6  -5   1    1.51    0.29
  -6  -5   1    1.61    0.30
  -6   5   1    1.33    0.34
   6   5  -1    0.81    0.34
   5  -5  -1    2.67    0.35
  -5  -5   1    3.05    0.36
   5  -5  -1    3.17    0.35
  -5  -5   1    2.50    0.37
   5  -5  -1    2.88    0.37
  -5  -5   1    2.35    0.28
  -5   5   1    2.56    0.40
   5   5  -1    2.98    0.37
  -4  -5   1    5.50    0.55
  -4  -5   1    5.94    0.49
   4  -5  -1    5.45    0.57
   4  -5  -1    5.90    0.51
  -4  -5   1    4.46    0.50
   4  -5  -1    5.85    0.50
   4   5  -1    6.21    0.57
  -4   5   1    5.65    0.57
   3  -5  -1    1.73    0.25
  -3  -5   1    1.62    0.30
   3  -5  -1    1.51    0.30
   3  -5  -1    1.36    0.24
   3  -5  -1    1.93    0.27
  -3  -5   1    1.15    0.25
  -3  -5   1    1.34    0.21
   3   5  -1    1.70    0.29
  -3   5   1    1.46    0.30
  -2  -5   1    2.87    0.28
   2  -5  -1    2.15    0.28
   2  -5  -1    2.56    0.28
   2  -5  -1    2.23    0.33
   2  -5  -1    1.36    0.27
  -2  -5   1    1.96    0.29
  -2  -5   1    2.25    0.31
   2   5  -1    2.27    0.33
  -2   5   1    2.17    0.34
   1  -5  -1    7.56    0.60
   1  -5  -1    6.33    0.58
  -1  -5   1    7.79    0.62
  -1  -5   1    6.36    0.57
   1  -5  -1    7.71    0.62
  -1  -5   1    6.38    0.60
   1  -5  -1    8.11    0.58
   1   5  -1    8.47    0.62
  -1   5   1    6.27    0.57
  -1   5   1    6.31    0.65
   0  -5   1    0.08    0.16
   0  -5  -1    0.16    0.20
   0  -5   1    0.20    0.22
   0  -5  -1    0.02    0.17
   0  -5   1    0.22    0.21
   0  -5  -1    0.40    0.18
   0  -5  -1    0.13    0.16
   0   5   1    0.34    0.24
   0   5   1    0.22    0.19
   0   5  -1    0.26    0.21
   0   5  -1    0.10    0.25
   0   5   1    0.25    0.24
   1  -5   1    0.40    0.17
  -1  -5  -1    0.38    0.21
  -1  -5  -1    0.49    0.19
   1  -5   1    0.70    0.23
  -1  -5  -1    0.40    0.18
   1   5   1    0.37    0.24
  -1   5  -1    0.92    0.24
  -1   5  -1    0.90    0.24
   1   5   1    0.40    0.26
  -1   5  -1    0.31    0.27
   2  -5   1    7.23    0.69
   2  -5   1    9.23    0.73
  -2  -5  -1    8.19    0.68
  -2  -5  -1    8.59    0.69
  -2  -5  -1    9.30    0.74
   2   5   1    9.97    0.73
  -2   5  -1    9.44    0.72
  -2   5  -1    8.66    0.76
  -2   5  -1    7.84    0.72
   2   5   1    7.82    0.75
  -3  -5  -1    5.01    0.50
  -3  -5  -1    4.98    0.48
   3  -5   1    6.03    0.58
  -3  -5  -1    4.98    0.46
   3  -5   1    4.37    0.48
   3  -5   1    5.04    0.51
  -3   5  -1    5.13    0.54
  -3   5  -1    5.90    0.52
   3   5   1    5.62    0.59
   3   5   1    6.32    0.57
  -4  -5  -1    0.29    0.23
  -4  -5  -1    0.36    0.19
   4  -5   1    0.21    0.23
   4  -5   1    0.09    0.20
   4  -5   1    0.24    0.21
  -4  -5  -1   -0.14    0.22
  -4   5  -1    0.60    0.30
  -4   5  -1    0.05    0.22
   4   5   1    0.28    0.30
   5  -5   1    3.67    0.47
   5  -5   1    4.52    0.46
   5  -5   1    3.45    0.44
  -5  -5  -1    4.90    0.47
  -5  -5  -1    4.72    0.45
  -5  -5  -1    4.62    0.47
  -5   5  -1    4.99    0.52
   5   5   1    4.86    0.52
  -6  -5  -1    1.00    0.29
  -6  -5  -1    0.84    0.24
   6  -5   1    0.83    0.29
   6  -5   1    0.42    0.28
  -6  -5  -1    0.86    0.27
  -6   5  -1    0.79    0.36
   6   5   1    0.65    0.39
  -7  -5  -1    1.59    0.28
   7  -5   1    0.79    0.31
   7  -5   1    1.43    0.37
  -7  -5  -1    1.29    0.30
   7   5   1    0.78    0.40
  -7   5  -1    0.86    0.39
  -8  -5  -1    6.35    0.60
  -8  -5  -1    6.67    0.64
   8  -5   1    6.48    0.64
  -8   5  -1    6.77    0.71
   9  -5   1    1.96    0.44
  -9  -5  -1    1.71    0.31
  -9  -5  -1    1.18    0.36
  -9   5  -1    1.49    0.43
 -10  -5  -1    0.35    0.41
 -10  -5  -1   -0.29    0.28
  10  -5   1   -0.11    0.44
 -10   5  -1   -0.12    0.43
 -11  -5  -1    0.53    0.44
 -11  -5  -1    0.33    0.32
  11  -5   1   -0.31    0.45
 -11   5  -1    0.62    0.48
 -10  -6   1    0.99    0.46
 -10  -6   1    0.52    0.27
  10  -6  -1    0.05    0.46
 -10   6   1    0.91    0.47
   9  -6  -1    0.43    0.42
  -9  -6   1    1.08    0.27
  -9  -6   1    0.72    0.40
   9   6  -1    0.50    0.52
  -9   6   1    0.43    0.42
   8  -6  -1    0.23    0.37
  -8  -6   1    0.90    0.40
  -8  -6   1    0.61    0.26
  -8   6   1    0.44    0.41
   8   6  -1    0.90    0.48
   7  -6  -1    0.66    0.41
  -7  -6   1    0.51    0.23
   7  -6  -1    0.30    0.37
  -7  -6   1    0.36    0.32
  -7   6   1    0.15    0.40
   7   6  -1    0.09    0.37
   6  -6  -1    5.80    0.62
   6  -6  -1    6.55    0.64
  -6  -6   1    5.29    0.53
  -6  -6   1    5.19    0.59
  -6  -6   1    6.08    0.60
  -6   6   1    5.52    0.67
   6   6  -1    4.60    0.62
  -5  -6   1    1.97    0.30
  -5  -6   1    2.59    0.41
  -5  -6   1    1.75    0.36
   5  -6  -1    3.22    0.43
   5   6  -1    1.38    0.41
  -5   6   1    2.18    0.45
  -4  -6   1    0.70    0.21
   4  -6  -1    0.35    0.31
  -4  -6   1    0.47    0.31
  -4  -6   1    1.01    0.34
  -4   6   1    0.53    0.35
   4   6  -1    0.14    0.31
  -3  -6   1    4.38    0.51
  -3  -6   1    3.74    0.41
   3  -6  -1    4.25    0.52
  -3  -6   1    4.28    0.46
   3   6  -1    3.53    0.48
  -3   6   1    4.72    0.56
  -2  -6   1    3.61    0.46
  -2  -6   1    3.97    0.46
   2  -6  -1    3.73    0.48
  -2  -6   1    4.12    0.41
   2   6  -1    3.95    0.48
  -2   6   1    4.38    0.50
   1  -6  -1    1.82    0.34
  -1  -6   1    2.19    0.37
   1  -6  -1    2.80    0.41
  -1  -6   1    2.24    0.38
  -1  -6   1    2.69    0.33
   1   6  -1    2.32    0.38
   1   6  -1    2.82    0.39
  -1   6   1    3.87    0.46
   0  -6  -1    0.62    0.29
   0  -6   1    0.84    0.29
   0  -6  -1    0.66    0.27
   0  -6   1    0.55    0.24
   0   6   1    0.14    0.38
   1  -6   1   -0.21    0.25
   1  -6   1    0.34    0.22
  -1  -6  -1    0.20    0.24
  -1  -6  -1    0.25    0.32
   1   6   1   -0.22    0.31
   2  -6   1    1.52    0.28
  -2  -6  -1    1.26    0.30
  -2  -6  -1    1.18    0.33
   2  -6   1    1.70    0.34
   3  -6   1    0.65    0.27
  -3  -6  -1    0.55    0.24
  -3  -6  -1    0.58    0.31
   3  -6   1    0.46    0.30
   4  -6   1    0.67    0.29
   4  -6   1    0.21    0.30
  -4  -6  -1    0.35    0.32
  -4  -6  -1    0.34    0.24
  -4   6  -1    0.69    0.41
   5  -6   1    0.06    0.31
  -5  -6  -1   -0.45    0.31
  -5  -6  -1   -0.15    0.23
  -5  -6  -1    0.42    0.32
  -5   6  -1    0.42    0.40
  -6  -6  -1    1.58    0.38
   6  -6   1    1.37    0.38
  -6  -6  -1    1.06    0.40
  -6  -6  -1    0.96    0.27
  -6   6  -1    1.39    0.48
  -7  -6  -1    1.10    0.40
  -7  -6  -1    0.41    0.26
   7  -6   1    0.44    0.41
  -7   6  -1    0.67    0.44
  -8  -6  -1    0.89    0.39
  -8  -6  -1    0.46    0.29
  -8   6  -1    0.76    0.46
  -9  -6  -1    0.55    0.33
  -9  -6  -1    1.16    0.41
  -9   6  -1    1.64    0.51
 -10  -6  -1    1.36    0.53
 -10  -6  -1    1.19    0.38
 -10   6  -1    1.11    0.56
  -8  -7   1    0.19    0.30
  -8  -7   1   -0.04    0.43
  -8   7   1   -0.21    0.53
   7  -7  -1    0.06    0.44
  -7  -7   1    0.02    0.29
  -7  -7   1   -0.36    0.41
  -7   7   1   -0.24    0.51
  -6  -7   1    0.57    0.40
  -6  -7   1    0.62    0.29
   6  -7  -1    0.58    0.43
  -6   7   1    0.49    0.49
  -5  -7   1    0.25    0.26
   5  -7  -1    0.56    0.40
  -5  -7   1   -0.12    0.42
  -5   7   1    0.06    0.43
  -4  -7   1    0.92    0.29
   4  -7  -1    1.35    0.41
  -4  -7   1    0.66    0.38
  -4   7   1    1.38    0.46
   3  -7  -1    0.44    0.41
  -3  -7   1    0.54    0.26
  -3  -7   1    0.18    0.35
  -3   7   1    0.15    0.45
  -2  -7   1    1.35    0.38
  -2  -7   1    1.61    0.31
   2  -7  -1    0.90    0.37
  -2   7   1    0.70    0.48
  -1  -7   1    1.20    0.38
   1  -7  -1    1.63    0.40
  -1  -7   1    1.14    0.31
   0  -7  -1    0.22    0.32
   0  -7   1    0.09    0.28
   0  -7   1    0.04    0.33
   0  -7  -1    0.19    0.35
   1  -7   1    0.07    0.34
  -1  -7  -1   -0.03    0.32
  -1  -7  -1    0.57    0.35
   1  -7   1    0.59    0.30
   2  -7   1    1.32    0.37
  -2  -7  -1    1.27    0.43
   2  -7   1    0.60    0.34
  -2  -7  -1    0.93    0.32
   3  -7   1    1.31    0.41
  -3  -7  -1    1.35    0.34
  -3  -7  -1    0.73    0.38
   3  -7   1    1.61    0.36
   4  -7   1   -0.20    0.40
  -4  -7  -1    0.01    0.36
  -4  -7  -1    0.02    0.30
   5  -7   1    0.66    0.40
  -5  -7  -1    0.88    0.32
  -5  -7  -1    0.29    0.44
  -6  -7  -1    0.62    0.41
   6  -7   1    0.46    0.43
  -6  -7  -1    0.48    0.33
   7  -7   1    0.01    0.45
  -7  -7  -1   -0.13    0.31
  -7   7  -1    0.02    0.58
  -8  -7  -1    1.31    0.40
  -8   7  -1    2.03    0.68
  -5  -8   1    0.72    0.56
   5  -8  -1    0.86    0.56
  -5  -8   1    0.37    0.34
  -5   8   1    0.37    0.61
   4  -8  -1    0.20    0.51
  -4  -8   1    0.10    0.34
  -4  -8   1    0.34    0.47
  -4   8   1   -0.13    0.56
   3  -8  -1    0.29    0.47
  -3  -8   1    0.10    0.46
  -3  -8   1    0.12    0.34
  -2  -8   1    1.23    0.49
  -2  -8   1    1.39    0.38
   2  -8  -1    1.38    0.50
  -1  -8   1    1.36    0.39
  -1  -8   1    0.28    0.44
   1  -8  -1    0.22    0.45
   0  -8   1    0.60    0.37
   0  -8   1    0.66    0.46
   0  -8  -1    0.79    0.47
  -1  -8  -1   -0.02    0.44
   1  -8   1   -0.31    0.41
  -1  -8  -1   -0.42    0.43
   1  -8   1   -0.10    0.38
  -2  -8  -1    0.56    0.48
   2  -8   1    0.09    0.44
   2  -8   1    0.03    0.38
  -2  -8  -1    0.46    0.37
  -3  -8  -1   -0.29    0.45
   3  -8   1    0.37    0.54
  -3  -8  -1   -0.36    0.37
  -4  -8  -1   -0.04    0.48
  -4  -8  -1   -0.31    0.40
   4  -8   1    0.10    0.49
  -5  -8  -1    0.17    0.41
   5  -8   1    0.04    0.52
  -5  -8  -1    0.04    0.50
 -14   0   2    0.90    0.24
  14   0  -2    2.01    0.46
  14   0  -2    1.46    0.50
 -14   0   2    0.75    0.39
 -13   0   2    0.01    0.30
  13   0  -2    0.13    0.40
 -13   0   2    0.15    0.19
  13   0  -2   -0.10    0.32
 -12   0   2    6.74    0.55
 -12   0   2    6.36    0.63
  12   0  -2    6.96    0.65
  12   0  -2    6.56    0.68
 -11   0   2    3.24    0.32
  11   0  -2    3.12    0.43
  11   0  -2    3.88    0.40
 -11   0   2    2.94    0.38
  10   0  -2    2.03    0.28
  10   0  -2    1.56    0.30
 -10   0   2    1.20    0.26
 -10   0   2    1.54    0.19
   9   0  -2   22.97    1.58
   9   0  -2   21.62    1.59
  -9   0   2   21.33    1.55
  -9   0   2   19.98    1.57
   8   0  -2    7.18    0.54
  -8   0   2    7.03    0.55
   8   0  -2    5.23    0.56
  -8   0   2    7.10    0.52
  -7   0   2    1.74    0.16
   7   0  -2    0.93    0.20
  -7   0   2    1.13    0.18
   7   0  -2    1.21    0.16
  -7   0   2    1.12    0.14
   6   0  -2   27.79    1.98
  -6   0   2   29.13    1.98
  -6   0   2   26.45    1.97
   6   0  -2   25.21    1.99
  -6   0   2   29.62    1.99
   5   0  -2    0.38    0.08
  -5   0   2    0.39    0.10
  -5   0   2    0.43    0.07
   5   0  -2    0.43    0.11
   5   0  -2    0.43    0.15
  -5   0   2    0.34    0.06
   4   0  -2   20.38    1.48
   4   0  -2   20.00    1.49
  -4   0   2   21.71    1.48
   4   0  -2   20.14    1.48
  -4   0   2   21.68    1.48
   4   0  -2   20.18    1.48
  -4   0   2   20.71    1.48
  -4   0   2   20.73    1.49
   3   0  -2  123.08    8.65
   3   0  -2  118.96    8.64
   3   0  -2  122.88    8.64
  -3   0   2  119.87    8.65
  -3   0   2  124.14    8.65
   3   0  -2  122.68    8.65
  -3   0   2  122.40    8.65
  -2   0   2    4.19    0.29
  -2   0   2    3.63    0.30
  -2   0   2    3.77    0.29
   2   0  -2    3.58    0.29
  -1   0   2    0.36    0.08
  -1   0   2    0.16    0.06
  -1   0   2    0.24    0.05
   0   0   2   21.63    1.57
   0   0  -2   21.73    1.57
   0   0   2   22.19    1.59
   0   0  -2   22.30    1.58
   0   0   2   22.67    1.57
   1   0   2   45.37    3.32
  -1   0  -2   46.78    3.32
   1   0   2   46.07    3.33
   1   0   2   48.56    3.32
   2   0   2    1.50    0.14
  -2   0  -2    1.83    0.16
   2   0   2    1.58    0.18
  -2   0  -2    1.71    0.15
   2   0   2    1.75    0.16
   2   0   2    1.37    0.15
  -2   0  -2    1.27    0.15
   3   0   2    5.57    0.43
  -3   0  -2    5.60    0.43
  -3   0  -2    6.07    0.43
   3   0   2    6.00    0.43
  -3   0  -2    5.46    0.44
   3   0   2    5.35    0.43
   3   0   2    5.40    0.45
   4   0   2   53.44    3.91
  -4   0  -2   54.61    3.91
  -4   0  -2   54.78    3.91
  -4   0  -2   57.47    3.91
   4   0   2   55.48    3.90
   4   0   2   54.32    3.91
   4   0   2   53.57    3.91
   5   0   2    5.63    0.43
  -5   0  -2    5.64    0.45
   5   0   2    4.89    0.44
  -5   0  -2    4.87    0.43
  -5   0  -2    6.13    0.45
  -5   0  -2    5.68    0.44
   5   0   2    4.98    0.44
   5   0   2    5.24    0.43
   6   0   2   13.15    0.98
  -6   0  -2   13.59    1.00
   6   0   2   13.24    1.00
  -6   0  -2   14.02    0.98
   6   0   2   13.87    1.00
   6   0   2   12.95    1.00
  -6   0  -2   13.45    0.99
  -6   0  -2   12.15    1.00
   7   0   2   43.22    2.98
  -7   0  -2   42.34    2.98
  -7   0  -2   40.08    2.97
   7   0   2   39.61    2.98
   7   0   2   41.52    2.98
   8   0   2    1.14    0.22
   8   0   2    1.48    0.37
   8   0   2    1.45    0.26
  -8   0  -2    0.89    0.21
  -8   0  -2    1.20    0.22
  -9   0  -2    1.05    0.25
  -9   0  -2    0.97    0.23
   9   0   2    0.73    0.25
   9   0   2    0.72    0.26
  10   0   2   18.67    1.46
 -10   0  -2   18.00    1.44
  10   0   2   20.12    1.46
 -10   0  -2   19.67    1.44
  11   0   2   -0.10    0.30
 -11   0  -2    0.05    0.24
 -11   0  -2    0.00    0.26
 -12   0  -2    4.22    0.49
  12   0   2    3.92    0.55
 -12   0  -2    4.46    0.52
 -13   0  -2    0.74    0.34
 -13   0  -2    0.76    0.38
  13   0   2    0.67    0.41
 -14   0  -2    0.07    0.37
  14   0   2   -0.02    0.47
 -14   0  -2    0.08    0.48
 -14  -1   2    0.92    0.42
  14  -1  -2    1.00    0.50
  14  -1  -2    0.99    0.45
  14   1  -2    0.54    0.53
 -14   1   2    0.79    0.23
 -14   1   2    0.70    0.38
  14   1  -2    0.55    0.46
  13  -1  -2    0.09    0.34
  13  -1  -2    0.45    0.40
 -13  -1   2    0.58    0.19
 -13  -1   2    0.43    0.34
  13   1  -2    0.34    0.38
  13   1  -2    0.72    0.43
 -13   1   2    1.05    0.32
 -13   1   2    0.51    0.20
 -12  -1   2    1.09    0.32
  12  -1  -2    1.08    0.36
 -12  -1   2    1.80    0.22
  12  -1  -2    1.44    0.32
 -12   1   2    1.46    0.34
  12   1  -2    0.90    0.40
 -12   1   2    1.28    0.22
  12   1  -2    0.98    0.33
  11  -1  -2    3.74    0.40
  11  -1  -2    3.29    0.44
 -11  -1   2    2.82    0.40
 -11  -1   2    3.39    0.33
  11   1  -2    3.64    0.42
 -11   1   2    3.44    0.35
 -11   1   2    3.09    0.39
  11   1  -2    4.15    0.47
  10  -1  -2    0.63    0.26
  10  -1  -2    0.38    0.20
 -10  -1   2    0.39    0.22
 -10  -1   2    0.36    0.14
  10   1  -2    0.34    0.21
  10   1  -2    0.53    0.29
 -10   1   2    0.06    0.13
 -10   1   2    0.33    0.20
  -9  -1   2    0.32    0.12
   9  -1  -2    0.04    0.21
   9  -1  -2    0.01    0.15
  -9  -1   2    0.25    0.19
   9   1  -2   -0.09    0.17
  -9   1   2    0.06    0.12
  -9   1   2    0.31    0.17
   9   1  -2    0.16    0.21
   8  -1  -2    8.26    0.66
   8  -1  -2    8.15    0.63
  -8  -1   2    8.02    0.60
  -8  -1   2    7.43    0.64
  -8   1   2    7.94    0.61
  -8   1   2    8.34    0.64
   8   1  -2    7.63    0.66
   8   1  -2    8.62    0.64
  -7  -1   2    9.66    0.76
  -7  -1   2   10.46    0.74
  -7  -1   2    9.79    0.73
   7  -1  -2    9.96    0.77
   7  -1  -2   10.36    0.75
   7   1  -2    8.80    0.77
   7   1  -2   10.48    0.75
  -7   1   2    9.88    0.74
  -7   1   2    9.96    0.76
   6  -1  -2    4.00    0.31
   6  -1  -2    3.78    0.35
  -6  -1   2    3.61    0.31
   6  -1  -2    3.90    0.32
  -6  -1   2    4.38    0.32
  -6  -1   2    3.54    0.30
  -6  -1   2    3.80    0.34
   6   1  -2    3.95    0.33
  -6   1   2    3.94    0.31
  -6   1   2    3.85    0.32
  -6   1   2    4.31    0.31
   6   1  -2    3.20    0.34
  -5  -1   2    0.06    0.06
  -5  -1   2    0.15    0.08
   5  -1  -2    0.09    0.08
   5  -1  -2    0.05    0.11
   5  -1  -2    0.01    0.07
  -5  -1   2    0.15    0.10
  -5   1   2    0.09    0.07
  -5   1   2    0.03    0.07
   5   1  -2    0.11    0.13
   5   1  -2    0.18    0.11
   5   1  -2    0.08    0.08
  -5   1   2    0.08    0.09
  -4  -1   2   31.98    2.21
   4  -1  -2   31.25    2.22
  -4  -1   2   30.94    2.21
  -4  -1   2   31.29    2.23
   4  -1  -2   30.09    2.22
   4  -1  -2   30.14    2.23
  -4  -1   2   32.15    2.22
   4   1  -2   30.90    2.22
   4   1  -2   28.86    2.22
  -4   1   2   32.02    2.22
  -4   1   2   31.99    2.22
  -4   1   2   31.39    2.22
   4   1  -2   31.14    2.22
  -3  -1   2    0.89    0.08
   3  -1  -2    1.05    0.10
   3  -1  -2    0.92    0.12
  -3  -1   2    0.81    0.12
  -3  -1   2    1.21    0.12
  -3  -1   2    0.94    0.08
   3  -1  -2    0.67    0.10
   3   1  -2    0.74    0.09
  -3   1   2    1.08    0.10
   3   1  -2    0.86    0.09
  -3   1   2    1.02    0.10
  -3   1   2    1.03    0.12
   3   1  -2    0.72    0.10
  -3   1   2    0.93    0.10
  -2  -1   2    6.01    0.43
  -2  -1   2    6.21    0.44
   2  -1  -2    5.40    0.44
  -2  -1   2    6.44    0.45
   2  -1  -2    5.38    0.45
  -2  -1   2    6.28    0.43
   2   1  -2    5.66    0.43
   2   1  -2    5.63    0.44
  -2   1   2    6.21    0.43
  -2   1   2    5.70    0.45
   2   1  -2    6.31    0.44
  -2   1   2    6.43    0.44
  -2   1   2    6.40    0.44
   1  -1  -2  152.99   10.99
   1  -1  -2  152.98   10.98
  -1  -1   2  153.30   10.98
  -1  -1   2  158.01   10.99
  -1  -1   2  158.40   10.99
  -1  -1   2  156.32   10.98
  -1   1   2  155.81   10.98
  -1   1   2  156.43   10.99
   1   1  -2  154.11   10.98
   1   1  -2  152.18   10.98
   0  -1  -2    5.51    0.42
   0  -1  -2    5.47    0.40
   0  -1   2    6.03    0.41
   0  -1   2    5.77    0.42
   0  -1   2    5.89    0.41
   0  -1   2    5.49    0.42
   0   1  -2    5.16    0.41
   0   1   2    5.72    0.43
   0   1   2    5.07    0.42
   0   1  -2    5.82    0.42
   1  -1   2   17.23    1.27
  -1  -1  -2   17.90    1.26
  -1  -1  -2   18.12    1.26
  -1  -1  -2   17.22    1.27
   1  -1   2   18.64    1.26
  -1  -1  -2   17.20    1.26
   1  -1   2   17.28    1.26
  -1   1  -2   17.88    1.27
  -1   1  -2   17.95    1.26
   1   1   2   16.67    1.27
   1   1   2   17.52    1.28
  -2  -1  -2  127.23    8.99
  -2  -1  -2  128.06    8.99
   2  -1   2  126.76    8.99
   2  -1   2  121.97    8.98
  -2  -1  -2  121.71    8.99
   2  -1   2  131.04    8.99
  -2  -1  -2  132.20    8.99
   2  -1   2  129.94    8.99
   2   1   2  124.36    8.99
   2   1   2  128.30    8.99
  -2   1  -2  124.09    8.99
   2   1   2  129.39    9.00
  -2   1  -2  130.85    9.00
  -2   1  -2  118.50    8.99
   3  -1   2    1.80    0.18
  -3  -1  -2    1.79    0.18
  -3  -1  -2    1.88    0.18
  -3  -1  -2    1.80    0.18
   3  -1   2    1.72    0.18
   3  -1   2    1.98    0.20
   3  -1   2    1.78    0.18
  -3  -1  -2    2.03    0.18
  -3   1  -2    1.43    0.19
   3   1   2    2.10    0.21
   3   1   2    1.65    0.19
  -3   1  -2    1.96    0.19
  -3   1  -2    1.78    0.20
   3   1   2    1.93    0.20
  -4  -1  -2   18.95    1.35
   4  -1   2   18.83    1.35
   4  -1   2   19.83    1.35
  -4  -1  -2   18.53    1.34
   4  -1   2   19.38    1.35
   4  -1   2   19.03    1.35
  -4  -1  -2   18.15    1.35
  -4  -1  -2   17.67    1.35
   4   1   2   19.38    1.35
   4   1   2   17.43    1.35
  -4   1  -2   18.04    1.36
   4   1   2   19.14    1.36
  -4   1  -2   18.60    1.36
  -4   1  -2   17.52    1.35
  -5  -1  -2   23.53    1.70
   5  -1   2   22.57    1.70
  -5  -1  -2   24.89    1.70
   5  -1   2   22.31    1.70
  -5  -1  -2   23.12    1.70
  -5  -1  -2   24.15    1.69
   5  -1   2   23.61    1.71
   5  -1   2   24.44    1.70
  -5   1  -2   22.45    1.71
   5   1   2   21.70    1.70
   5   1   2   23.63    1.72
  -5   1  -2   24.19    1.71
  -5   1  -2   24.34    1.70
   5   1   2   24.31    1.71
  -6  -1  -2    4.23    0.40
   6  -1   2    4.83    0.44
  -6  -1  -2    5.47    0.42
  -6  -1  -2    5.39    0.39
  -6  -1  -2    4.40    0.41
   6  -1   2    5.04    0.41
   6  -1   2    5.09    0.43
   6  -1   2    4.53    0.42
  -6   1  -2    4.72    0.44
   6   1   2    4.58    0.42
  -6   1  -2    4.64    0.41
   6   1   2    4.52    0.45
   6   1   2    5.26    0.44
  -6   1  -2    4.74    0.43
   7  -1   2    9.28    0.72
   7  -1   2    9.85    0.73
  -7  -1  -2    8.61    0.71
   7  -1   2    8.17    0.72
  -7  -1  -2    9.53    0.71
   7   1   2    9.43    0.72
  -7   1  -2    9.37    0.71
   7   1   2    8.84    0.72
   7   1   2    9.13    0.74
  -7   1  -2    8.50    0.73
   8  -1   2   10.58    0.83
  -8  -1  -2    9.25    0.79
   8  -1   2   11.12    0.79
   8  -1   2    9.87    0.80
  -8  -1  -2    9.31    0.79
  -8   1  -2   10.20    0.79
   8   1   2    9.79    0.80
  -8   1  -2    9.80    0.80
   8   1   2   11.30    0.82
  -9  -1  -2   11.90    0.95
   9  -1   2   11.29    0.96
   9  -1   2   11.98    0.97
  -9  -1  -2   12.76    0.98
  -9   1  -2   12.37    0.95
   9   1   2   13.47    0.97
   9   1   2   11.36    0.97
  -9   1  -2   12.60    0.96
 -10  -1  -2    0.41    0.27
  10  -1   2    0.60    0.30
  10  -1   2    0.80    0.30
 -10  -1  -2    0.62    0.25
  10   1   2    0.64    0.31
  10   1   2    0.44    0.27
 -10   1  -2    0.62    0.25
 -10   1  -2    0.48    0.28
 -11  -1  -2    0.92    0.27
 -11  -1  -2    0.57    0.30
  11  -1   2    0.44    0.34
  11   1   2    0.66    0.31
 -11   1  -2    0.71    0.29
 -11   1  -2    0.74    0.29
 -12  -1  -2    2.71    0.39
 -12  -1  -2    2.84    0.44
  12  -1   2    3.50    0.48
  12   1   2    1.82    0.43
 -12   1  -2    2.00    0.38
 -12   1  -2    2.74    0.45
  13  -1   2    1.46    0.48
 -13  -1  -2    0.20    0.38
 -13  -1  -2    0.64    0.33
 -13   1  -2    0.54    0.36
  13   1   2    1.44    0.46
 -13   1  -2    0.18    0.42
 -14  -2   2    0.58    0.22
  14  -2  -2    0.53    0.51
 -14  -2   2    0.87    0.43
  14  -2  -2    0.83    0.45
  14   2  -2    0.78    0.50
 -14   2   2    0.62    0.25
  13  -2  -2   -0.24    0.35
 -13  -2   2    0.12    0.18
 -13  -2   2   -0.37    0.33
  13  -2  -2    0.35    0.41
  13   2  -2    0.16    0.43
 -13   2   2   -0.12    0.21
  13   2  -2   -0.07    0.41
 -12  -2   2    4.99    0.46
  12  -2  -2    6.05    0.56
 -12  -2   2    4.89    0.55
  12  -2  -2    5.19    0.59
  12   2  -2    6.53    0.65
 -12   2   2    5.11    0.49
  12   2  -2    4.89    0.59
 -12   2   2    5.21    0.55
  11  -2  -2    1.20    0.30
  11  -2  -2    1.85    0.37
 -11  -2   2    1.82    0.23
 -11  -2   2    1.78    0.34
 -11   2   2    2.24    0.26
 -11   2   2    2.49    0.33
  11   2  -2    2.07    0.38
  11   2  -2    1.80    0.36
  10  -2  -2    1.14    0.31
  10  -2  -2    1.20    0.26
 -10  -2   2    1.49    0.19
 -10  -2   2    0.76    0.27
  10   2  -2    0.87    0.28
  10   2  -2    1.41    0.29
 -10   2   2    1.32    0.24
 -10   2   2    0.78    0.20
  -9  -2   2   14.98    1.17
  -9  -2   2   14.92    1.12
   9  -2  -2   15.55    1.15
   9  -2  -2   16.01    1.18
  -9   2   2   16.18    1.15
  -9   2   2   14.90    1.14
   9   2  -2   15.77    1.18
   9   2  -2   14.78    1.17
  -8  -2   2    3.86    0.44
   8  -2  -2    5.27    0.43
   8  -2  -2    5.05    0.47
  -8  -2   2    5.10    0.39
   8   2  -2    5.30    0.46
  -8   2   2    4.48    0.43
  -8   2   2    5.11    0.42
   8   2  -2    4.53    0.45
  -7  -2   2    1.38    0.22
  -7  -2   2    1.51    0.15
   7  -2  -2    1.31    0.22
   7  -2  -2    1.30    0.18
   7   2  -2    1.16    0.20
  -7   2   2    1.52    0.19
   7   2  -2    1.50    0.22
  -7   2   2    1.22    0.18
  -6  -2   2   16.86    1.25
  -6  -2   2   17.75    1.26
   6  -2  -2   16.58    1.26
   6  -2  -2   17.83    1.28
  -6  -2   2   17.73    1.27
  -6  -2   2   18.51    1.25
   6  -2  -2   17.00    1.26
   6   2  -2   17.39    1.28
   6   2  -2   17.06    1.27
  -6   2   2   15.86    1.26
  -6   2   2   17.82    1.26
   5  -2  -2    0.39    0.13
  -5  -2   2    0.33    0.11
   5  -2  -2    0.35    0.10
  -5  -2   2    0.24    0.14
   5  -2  -2    0.02    0.11
  -5  -2   2    0.31    0.08
  -5  -2   2    0.43    0.11
   5   2  -2    0.35    0.14
   5   2  -2    0.31    0.11
  -5   2   2    0.23    0.10
  -5   2   2    0.35    0.12
  -5   2   2    0.38    0.12
  -4  -2   2   12.14    0.86
   4  -2  -2   11.67    0.86
  -4  -2   2   11.77    0.85
  -4  -2   2   12.35    0.87
   4  -2  -2   11.67    0.87
  -4  -2   2   11.23    0.87
   4  -2  -2   11.41    0.87
   4   2  -2   11.28    0.85
  -4   2   2   11.50    0.87
  -4   2   2   12.03    0.85
  -3  -2   2   63.56    4.60
  -3  -2   2   64.32    4.59
   3  -2  -2   64.71    4.61
  -3  -2   2   64.58    4.60
  -3  -2   2   69.44    4.60
   3  -2  -2   62.87    4.59
   3  -2  -2   62.78    4.61
  -3   2   2   65.39    4.59
  -3   2   2   62.60    4.61
   3   2  -2   64.79    4.60
  -3   2   2   63.66    4.60
   3   2  -2   66.52    4.59
  -2  -2   2    0.99    0.13
  -2  -2   2    1.14    0.14
   2  -2  -2    0.84    0.13
   2  -2  -2    1.10    0.12
  -2  -2   2    1.10    0.11
  -2  -2   2    1.13    0.14
  -2   2   2    1.08    0.14
  -2   2   2    1.15    0.14
   2   2  -2    1.05    0.13
   1  -2  -2    0.06    0.07
  -1  -2   2    0.03    0.05
  -1  -2   2    0.00    0.08
   1  -2  -2    0.06    0.06
  -1  -2   2   -0.02    0.07
   1  -2  -2    0.02    0.09
  -1   2   2    0.02    0.08
  -1   2   2    0.14    0.09
   1   2  -2   -0.03    0.07
   0  -2  -2   14.52    1.01
   0  -2  -2   13.61    1.02
   0  -2  -2   14.41    1.00
   0  -2   2   14.56    1.02
   0  -2   2   13.64    1.01
   0  -2   2   13.96    1.00
   0  -2  -2   14.27    1.01
   0  -2   2   13.44    1.02
   0   2  -2   14.14    1.01
   0   2   2   13.21    1.02
   0   2  -2   14.11    1.02
   0   2   2   13.61    1.02
  -1  -2  -2   26.75    1.86
   1  -2   2   25.55    1.87
  -1  -2  -2   26.16    1.88
   1  -2   2   24.91    1.87
   1  -2   2   26.96    1.86
  -1  -2  -2   27.19    1.87
   1  -2   2   25.01    1.88
  -1  -2  -2   26.49    1.87
   1   2   2   25.64    1.88
  -1   2  -2   24.95    1.87
   1   2   2   25.97    1.88
  -1   2  -2   27.50    1.88
   1   2   2   26.07    1.88
  -1   2  -2   26.13    1.88
   2  -2   2    0.68    0.10
  -2  -2  -2    0.38    0.10
   2  -2   2    0.55    0.10
   2  -2   2    0.25    0.09
  -2  -2  -2    0.25    0.08
  -2  -2  -2    0.37    0.11
  -2  -2  -2    0.23    0.10
   2  -2   2    0.42    0.11
  -2   2  -2    0.44    0.11
   2   2   2    0.59    0.13
  -2   2  -2    0.46    0.13
  -2   2  -2    0.21    0.12
   2   2   2    0.43    0.14
   2   2   2    0.46    0.14
  -3  -2  -2    2.40    0.23
  -3  -2  -2    3.20    0.25
   3  -2   2    2.37    0.24
   3  -2   2    2.26    0.26
  -3  -2  -2    2.89    0.24
  -3  -2  -2    2.57    0.25
   3  -2   2    2.46    0.24
   3  -2   2    2.56    0.24
  -3   2  -2    3.26    0.28
   3   2   2    2.50    0.26
   3   2   2    2.41    0.27
  -3   2  -2    2.81    0.27
  -3   2  -2    2.52    0.27
   3   2   2    2.60    0.26
  -4  -2  -2   32.73    2.36
   4  -2   2   33.08    2.36
   4  -2   2   32.84    2.36
  -4  -2  -2   33.44    2.36
   4  -2   2   34.19    2.36
  -4  -2  -2   35.37    2.36
  -4  -2  -2   31.75    2.36
   4  -2   2   32.85    2.37
  -4   2  -2   31.31    2.36
   4   2   2   30.07    2.38
  -4   2  -2   32.36    2.37
   4   2   2   31.06    2.37
  -4   2  -2   33.93    2.38
   4   2   2   34.56    2.37
   5  -2   2    3.56    0.33
   5  -2   2    3.66    0.33
  -5  -2  -2    3.32    0.32
   5  -2   2    3.33    0.33
  -5  -2  -2    3.63    0.33
  -5  -2  -2    3.68    0.32
  -5  -2  -2    3.61    0.32
   5  -2   2    3.82    0.34
   5   2   2    3.99    0.36
  -5   2  -2    3.54    0.36
   5   2   2    3.68    0.38
  -5   2  -2    3.21    0.33
  -5   2  -2    3.56    0.37
   5   2   2    3.59    0.35
   6  -2   2    9.42    0.75
  -6  -2  -2   10.06    0.76
   6  -2   2   10.41    0.77
  -6  -2  -2   10.57    0.76
   6  -2   2   10.17    0.76
  -6  -2  -2   10.34    0.74
   6  -2   2    9.33    0.76
  -6  -2  -2    9.20    0.75
  -6   2  -2    9.31    0.77
  -6   2  -2    9.63    0.76
   6   2   2   10.94    0.79
   6   2   2    8.72    0.76
  -6   2  -2    9.29    0.79
   6   2   2    9.61    0.80
   7  -2   2   29.44    2.01
   7  -2   2   30.42    2.02
  -7  -2  -2   25.75    2.00
  -7  -2  -2   28.64    2.01
   7  -2   2   27.26    2.01
   7  -2   2   25.87    2.01
  -7   2  -2   28.06    2.00
   7   2   2   28.12    2.02
   7   2   2   26.71    2.02
  -7   2  -2   25.27    2.03
   7   2   2   27.94    2.03
   8  -2   2    0.81    0.23
   8  -2   2    0.79    0.23
  -8  -2  -2    0.44    0.18
  -8  -2  -2    0.99    0.23
  -8   2  -2    0.39    0.20
   8   2   2    0.54    0.27
   8   2   2    0.88    0.25
  -8   2  -2    0.50    0.26
   9  -2   2    0.69    0.27
  -9  -2  -2    0.60    0.24
   9  -2   2    1.05    0.30
  -9  -2  -2    0.47    0.20
  -9   2  -2    0.07    0.22
   9   2   2    0.31    0.30
   9   2   2    0.39    0.26
  -9   2  -2    0.61    0.25
 -10  -2  -2   13.08    1.04
 -10  -2  -2   13.26    1.03
  10  -2   2   12.36    1.06
 -10   2  -2   13.39    1.07
  10   2   2   13.54    1.07
  10   2   2   15.80    1.12
 -10   2  -2   11.81    1.03
  11  -2   2    0.55    0.33
 -11  -2  -2    0.05    0.24
 -11  -2  -2    0.02    0.28
 -11   2  -2    0.09    0.32
 -11   2  -2    0.40    0.30
  11   2   2   -0.05    0.37
 -12  -2  -2    3.11    0.42
  12  -2   2    3.34    0.52
 -12  -2  -2    3.05    0.46
 -12   2  -2    2.92    0.47
  12   2   2    3.13    0.52
 -12   2  -2    3.73    0.50
  13  -2   2    0.23    0.47
 -13  -2  -2   -0.37    0.38
 -13  -2  -2    0.19    0.34
  13   2   2    0.46    0.52
 -13   2  -2    0.58    0.40
 -13   2  -2    0.18    0.38
 -13  -3   2    0.25    0.39
  13  -3  -2    0.23    0.36
 -13  -3   2    0.35    0.21
  13  -3  -2    0.05    0.48
  13   3  -2    0.67    0.54
 -13   3   2    0.00    0.25
  12  -3  -2    0.33    0.37
  12  -3  -2    1.06    0.36
 -12  -3   2    1.14    0.37
 -12  -3   2    0.73    0.20
  12   3  -2   -0.04    0.43
 -12   3   2    0.64    0.25
 -11  -3   2    1.57    0.22
 -11  -3   2    1.25    0.37
  11  -3  -2    1.80    0.38
  11  -3  -2    1.57    0.34
  11   3  -2    1.76    0.42
 -11   3   2    1.37    0.26
  10  -3  -2    0.32    0.29
 -10  -3   2    0.16    0.16
  10  -3  -2   -0.12    0.22
 -10  -3   2    0.14    0.25
 -10   3   2    0.10    0.19
  10   3  -2   -0.18    0.33
   9  -3  -2   -0.09    0.20
   9  -3  -2   -0.28    0.27
  -9  -3   2   -0.10    0.13
  -9  -3   2    0.09    0.23
   9   3  -2    0.15    0.28
  -9   3   2    0.03    0.18
  -8  -3   2    3.13    0.31
  -8  -3   2    3.10    0.37
   8  -3  -2    3.41    0.38
   8  -3  -2    3.98    0.37
  -8   3   2    4.25    0.39
   8   3  -2    3.14    0.40
   7  -3  -2    3.99    0.39
  -7  -3   2    4.13    0.35
   7  -3  -2    3.73    0.40
   7  -3  -2    4.61    0.42
  -7  -3   2    4.23    0.41
  -7   3   2    4.41    0.41
   7   3  -2    4.03    0.42
  -7   3   2    4.34    0.37
   7   3  -2    4.53    0.40
  -6  -3   2    2.47    0.24
  -6  -3   2    2.59    0.27
   6  -3  -2    1.54    0.25
  -6  -3   2    2.08    0.20
   6  -3  -2    1.64    0.26
   6  -3  -2    2.11    0.22
   6   3  -2    1.74    0.22
  -6   3   2    1.34    0.24
  -6   3   2    1.95    0.20
   6   3  -2    1.48    0.26
  -5  -3   2    0.41    0.10
   5  -3  -2    0.13    0.16
   5  -3  -2    0.50    0.16
  -5  -3   2    0.13    0.14
  -5  -3   2    0.23    0.15
   5  -3  -2    0.39    0.12
  -5   3   2    0.13    0.15
   5   3  -2    0.39    0.13
  -5   3   2    0.37    0.10
   5   3  -2    0.41    0.16
  -4  -3   2   11.18    0.88
   4  -3  -2   12.06    0.88
   4  -3  -2   11.47    0.88
  -4  -3   2   11.39    0.86
   4  -3  -2   10.82    0.87
   4  -3  -2   11.43    0.89
  -4  -3   2   13.57    0.89
  -4  -3   2   11.73    0.89
  -4   3   2   11.47    0.89
  -4   3   2   12.45    0.85
   4   3  -2   11.41    0.89
   4   3  -2   12.24    0.86
  -4   3   2   11.61    0.88
  -3  -3   2    0.81    0.24
   3  -3  -2    0.69    0.16
  -3  -3   2    0.70    0.11
   3  -3  -2    0.74    0.15
   3  -3  -2    0.64    0.15
  -3  -3   2    0.68    0.16
   3  -3  -2    0.86    0.13
  -3  -3   2    0.88    0.15
   3   3  -2    1.07    0.16
  -3   3   2    0.41    0.14
  -3   3   2    0.89    0.09
  -3   3   2    0.67    0.16
   3   3  -2    0.94    0.11
   2  -3  -2    1.82    0.20
   2  -3  -2    2.04    0.22
  -2  -3   2    1.46    0.17
  -2  -3   2    1.92    0.21
   2  -3  -2    1.81    0.19
  -2  -3   2    2.18    0.23
   2  -3  -2    1.86    0.23
   2   3  -2    2.09    0.21
  -2   3   2    1.53    0.22
  -2   3   2    2.02    0.21
   2   3  -2    2.12    0.25
  -2   3   2    2.02    0.24
  -2   3   2    1.97    0.16
  -1  -3   2   57.13    4.11
   1  -3  -2   56.34    4.08
  -1  -3   2   54.36    4.10
   1  -3  -2   58.41    4.10
   1  -3  -2   57.59    4.11
  -1  -3   2   55.29    4.09
   1  -3  -2   58.82    4.09
  -1   3   2   57.38    4.10
   1   3  -2   58.65    4.10
  -1   3   2   58.72    4.11
   1   3  -2   59.73    4.10
  -1   3   2   57.97    4.08
   0  -3   2    4.48    0.39
   0  -3  -2    4.63    0.37
   0  -3   2    4.27    0.36
   0  -3  -2    4.91    0.39
   0  -3  -2    4.55    0.38
   0  -3  -2    4.20    0.35
   0  -3   2    4.56    0.36
   0  -3   2    4.62    0.34
   0  -3   2    4.31    0.39
   0   3   2    4.05    0.38
   0   3   2    4.83    0.40
   0   3  -2    4.52    0.38
   0   3   2    4.50    0.37
   0   3  -2    5.77    0.41
   0   3  -2    4.44    0.39
  -1  -3  -2    8.22    0.67
   1  -3   2    8.43    0.69
  -1  -3  -2    9.05    0.66
   1  -3   2   10.03    0.67
   1  -3   2    8.46    0.67
  -1  -3  -2    8.95    0.67
   1  -3   2    9.33    0.66
  -1  -3  -2    8.91    0.69
   1   3   2    8.99    0.70
  -1   3  -2    7.95    0.69
  -1   3  -2    8.70    0.68
  -1   3  -2   10.15    0.70
   1   3   2    8.45    0.68
   1   3   2    9.77    0.69
   2  -3   2   48.49    3.59
  -2  -3  -2   51.34    3.58
   2  -3   2   50.97    3.58
   2  -3   2   51.04    3.58
   2  -3   2   47.52    3.60
  -2  -3  -2   48.89    3.60
  -2  -3  -2   51.68    3.59
   2   3   2   51.06    3.60
   2   3   2   50.99    3.61
  -2   3  -2   50.64    3.60
   2   3   2   50.52    3.60
  -2   3  -2   50.36    3.60
  -2   3  -2   50.06    3.60
   3  -3   2    0.76    0.15
   3  -3   2    0.78    0.14
  -3  -3  -2    0.70    0.14
  -3  -3  -2    1.34    0.17
  -3  -3  -2    0.88    0.17
   3  -3   2    0.85    0.17
  -3  -3  -2    0.59    0.15
   3  -3   2    0.77    0.14
   3   3   2    0.56    0.21
  -3   3  -2    0.57    0.18
   3   3   2    0.46    0.18
  -3   3  -2    0.86    0.17
   3   3   2    0.98    0.19
  -3   3  -2    0.80    0.19
  -4  -3  -2    8.04    0.64
   4  -3   2    9.25    0.65
  -4  -3  -2    7.99    0.64
   4  -3   2    8.58    0.66
  -4  -3  -2    7.95    0.64
  -4  -3  -2    8.32    0.65
   4  -3   2    7.87    0.66
   4  -3   2    8.46    0.64
  -4   3  -2    8.03    0.69
  -4   3  -2    8.92    0.68
   4   3   2    7.82    0.68
   4   3   2    8.00    0.68
  -4   3  -2    9.75    0.67
   4   3   2    8.24    0.68
  -5  -3  -2   10.91    0.78
   5  -3   2    9.52    0.78
  -5  -3  -2   10.11    0.78
   5  -3   2   10.69    0.79
   5  -3   2    9.95    0.80
  -5  -3  -2   11.03    0.78
  -5  -3  -2   10.88    0.79
   5  -3   2   10.01    0.79
   5   3   2    8.78    0.83
  -5   3  -2    8.72    0.80
  -5   3  -2   11.58    0.81
   5   3   2    9.85    0.81
   5   3   2   10.03    0.80
  -5   3  -2    9.42    0.78
  -6  -3  -2    1.05    0.22
   6  -3   2    1.21    0.23
   6  -3   2    1.81    0.25
  -6  -3  -2    1.66    0.24
  -6  -3  -2    1.65    0.24
   6  -3   2    1.22    0.24
   6  -3   2    1.98    0.24
   6   3   2    1.72    0.28
   6   3   2    1.31    0.33
  -6   3  -2    1.20    0.28
  -6   3  -2    1.85    0.26
   6   3   2    1.54    0.30
   7  -3   2    5.44    0.49
   7  -3   2    6.09    0.49
   7  -3   2    4.40    0.48
  -7  -3  -2    3.99    0.46
   7  -3   2    5.11    0.49
  -7  -3  -2    5.35    0.47
  -7   3  -2    4.68    0.51
  -7   3  -2    5.59    0.46
   7   3   2    5.14    0.52
   7   3   2    4.82    0.50
  -8  -3  -2    5.93    0.54
  -8  -3  -2    5.87    0.55
   8  -3   2    5.86    0.59
  -8   3  -2    6.28    0.60
   8   3   2    6.70    0.60
   8   3   2    5.94    0.61
  -8   3  -2    5.14    0.53
  -9  -3  -2    6.95    0.64
  -9  -3  -2    7.91    0.69
   9  -3   2    7.63    0.67
  -9   3  -2    6.06    0.63
   9   3   2    7.76    0.71
  -9   3  -2    8.40    0.73
   9   3   2    7.08    0.72
  10  -3   2    0.29    0.31
 -10  -3  -2    0.31    0.26
 -10  -3  -2    0.18    0.28
 -10   3  -2    0.18    0.33
 -10   3  -2    0.27    0.26
  10   3   2    0.10    0.36
  11  -3   2    0.63    0.41
 -11  -3  -2    1.16    0.32
 -11  -3  -2    0.66    0.33
 -11   3  -2    0.87    0.37
  11   3   2    0.80    0.39
 -11   3  -2    0.36    0.32
 -12  -3  -2    1.47    0.36
 -12  -3  -2    1.02    0.40
  12  -3   2    1.09    0.46
 -12   3  -2    2.40    0.46
  12   3   2    1.13    0.50
 -12   3  -2    1.23    0.39
 -13  -3  -2    0.01    0.36
  13  -3   2    0.38    0.51
 -13  -3  -2    0.72    0.49
 -13   3  -2    0.71    0.47
 -13   3  -2    0.05    0.41
 -13  -4   2   -0.22    0.22
  13  -4  -2    0.39    0.51
 -13  -4   2    0.19    0.50
 -13   4   2   -0.17    0.30
  13   4  -2    0.51    0.64
  12  -4  -2    2.57    0.45
 -12  -4   2    2.46    0.30
 -12  -4   2    2.14    0.46
  12  -4  -2    2.01    0.51
 -12   4   2    2.11    0.36
  12   4  -2    2.59    0.59
 -11  -4   2    0.72    0.20
  11  -4  -2    0.35    0.30
 -11  -4   2    0.10    0.33
  11  -4  -2    1.10    0.39
 -11   4   2    0.81    0.27
  11   4  -2    0.59    0.43
 -10  -4   2    0.61    0.31
  10  -4  -2   -0.01    0.37
  10  -4  -2    0.51    0.29
 -10  -4   2    0.26    0.17
 -10   4   2    0.62    0.26
  10   4  -2    0.46    0.39
  -9  -4   2    6.14    0.57
   9  -4  -2    5.81    0.55
   9  -4  -2    6.05    0.60
  -9  -4   2    5.64    0.47
   9   4  -2    4.09    0.57
  -9   4   2    5.43    0.54
  -8  -4   2    1.89    0.24
   8  -4  -2    2.13    0.34
  -8  -4   2    2.59    0.34
   8  -4  -2    2.31    0.32
  -8   4   2    1.97    0.31
   8   4  -2    1.86    0.34
  -7  -4   2    1.12    0.25
   7  -4  -2    1.13    0.27
  -7  -4   2    1.27    0.18
   7  -4  -2    1.48    0.23
   7  -4  -2    1.12    0.28
  -7   4   2    0.68    0.24
   7   4  -2    1.03    0.29
  -6  -4   2    5.64    0.47
   6  -4  -2    4.87    0.49
   6  -4  -2    5.33    0.45
   6  -4  -2    4.23    0.46
  -6  -4   2    4.47    0.40
  -6  -4   2    4.64    0.45
   6   4  -2    5.01    0.49
  -6   4   2    5.07    0.48
   5  -4  -2    0.06    0.21
  -5  -4   2    0.10    0.12
   5  -4  -2    0.42    0.20
  -5  -4   2    0.05    0.18
   5  -4  -2    0.21    0.16
  -5  -4   2    0.19    0.16
  -5   4   2    0.24    0.20
   5   4  -2   -0.01    0.18
  -4  -4   2    4.43    0.42
   4  -4  -2    4.25    0.39
  -4  -4   2    3.81    0.36
   4  -4  -2    4.03    0.42
  -4  -4   2    4.11    0.40
   4  -4  -2    4.82    0.40
   4   4  -2    5.19    0.43
  -4   4   2    4.48    0.43
   3  -4  -2   18.10    1.26
  -3  -4   2   15.83    1.25
   3  -4  -2   16.06    1.29
  -3  -4   2   17.96    1.28
   3  -4  -2   16.46    1.26
   3  -4  -2   18.88    1.27
  -3  -4   2   16.57    1.28
  -3   4   2   16.29    1.27
   3   4  -2   19.59    1.28
  -3   4   2   16.69    1.29
  -2  -4   2    0.04    0.16
   2  -4  -2   -0.04    0.15
   2  -4  -2    0.11    0.15
   2  -4  -2    0.01    0.13
  -2  -4   2   -0.05    0.15
  -2  -4   2    0.09    0.10
   2  -4  -2    0.12    0.17
  -2   4   2    0.04    0.18
  -2   4   2   -0.01    0.15
   2   4  -2    0.12    0.15
  -1  -4   2   -0.08    0.14
   1  -4  -2   -0.06    0.13
   1  -4  -2   -0.08    0.12
   1  -4  -2   -0.11    0.15
   1  -4  -2   -0.04    0.14
  -1  -4   2    0.01    0.11
  -1  -4   2   -0.10    0.15
  -1   4   2   -0.09    0.13
   1   4  -2    0.06    0.20
  -1   4   2    0.06    0.18
  -1   4   2   -0.04    0.12
  -1   4   2    0.19    0.19
   1   4  -2   -0.04    0.16
   0  -4   2    3.45    0.37
   0  -4  -2    3.46    0.33
   0  -4   2    4.01    0.34
   0  -4  -2    4.86    0.35
   0  -4   2    3.72    0.39
   0  -4  -2    3.64    0.38
   0  -4  -2    3.95    0.35
   0   4   2    4.71    0.42
   0   4   2    3.56    0.36
   0   4   2    3.30    0.39
   0   4  -2    4.35    0.38
   0   4  -2    4.90    0.38
   0   4  -2    3.76    0.40
  -1  -4  -2    6.46    0.50
   1  -4   2    6.00    0.51
   1  -4   2    5.61    0.53
   1  -4   2    5.94    0.53
   1  -4   2    6.69    0.48
  -1  -4  -2    6.68    0.50
  -1  -4  -2    6.64    0.51
  -1  -4  -2    6.46    0.53
   1   4   2    6.00    0.51
   1   4   2    7.50    0.54
   1   4   2    5.52    0.54
  -1   4  -2    6.12    0.53
  -1   4  -2    5.77    0.56
  -1   4  -2    5.88    0.53
   2  -4   2   -0.03    0.11
   2  -4   2    0.01    0.19
  -2  -4  -2   -0.03    0.13
  -2  -4  -2   -0.06    0.16
  -2  -4  -2   -0.05    0.17
   2  -4   2   -0.09    0.13
  -2  -4  -2   -0.08    0.15
   2  -4   2   -0.04    0.16
  -2   4  -2    0.08    0.18
   2   4   2   -0.06    0.20
   2   4   2   -0.02    0.20
   2   4   2    0.07    0.17
  -2   4  -2    0.02    0.19
  -2   4  -2   -0.14    0.21
  -3  -4  -2    0.59    0.18
  -3  -4  -2    0.77    0.20
   3  -4   2    0.51    0.21
   3  -4   2    0.26    0.17
   3  -4   2    0.54    0.16
  -3  -4  -2    0.23    0.16
  -3  -4  -2    0.53    0.17
   3   4   2    0.45    0.22
  -3   4  -2    0.58    0.23
   3   4   2    0.25    0.21
  -3   4  -2    0.53    0.23
   3   4   2    0.16    0.26
  -3   4  -2    0.57    0.21
   4  -4   2    7.79    0.73
  -4  -4  -2    9.72    0.71
  -4  -4  -2   10.04    0.73
   4  -4   2    7.95    0.70
   4  -4   2   10.21    0.70
  -4  -4  -2    8.07    0.70
  -4   4  -2    8.67    0.70
  -4   4  -2    9.11    0.75
   4   4   2    8.11    0.74
   4   4   2    8.37    0.74
  -4   4  -2    9.28    0.76
   4   4   2    9.37    0.78
   5  -4   2    2.40    0.30
  -5  -4  -2    1.53    0.25
   5  -4   2    2.37    0.28
  -5  -4  -2    1.43    0.24
  -5  -4  -2    2.58    0.29
   5  -4   2    1.74    0.28
   5   4   2    2.39    0.37
  -5   4  -2    1.98    0.28
  -5   4  -2    2.34    0.36
   5   4   2    1.64    0.34
   5   4   2    0.77    0.29
   6  -4   2    3.91    0.45
  -6  -4  -2    5.20    0.45
   6  -4   2    5.15    0.48
  -6  -4  -2    4.71    0.47
   6  -4   2    3.87    0.46
   6   4   2    4.03    0.51
   6   4   2    5.12    0.52
  -6   4  -2    4.51    0.51
  -6   4  -2    4.74    0.44
  -7  -4  -2   10.71    0.86
   7  -4   2    9.55    0.89
   7  -4   2    9.90    0.89
  -7  -4  -2   11.81    0.86
   7  -4   2   11.87    0.89
  -7   4  -2   10.04    0.85
  -7   4  -2   10.87    0.91
   7   4   2   11.48    0.94
   7   4   2   11.03    0.93
  -8  -4  -2   -0.01    0.23
  -8  -4  -2   -0.20    0.25
   8  -4   2    0.36    0.28
  -8   4  -2    0.25    0.30
   8   4   2    0.54    0.37
  -8   4  -2    0.14    0.27
  -9  -4  -2    0.34    0.32
   9  -4   2    0.00    0.30
  -9  -4  -2    0.28    0.27
  -9   4  -2   -0.08    0.37
  -9   4  -2    0.03    0.25
 -10  -4  -2    5.85    0.63
  10  -4   2    5.52    0.66
 -10  -4  -2    6.29    0.61
 -10   4  -2    6.55    0.63
 -10   4  -2    6.85    0.70
  11  -4   2    0.37    0.46
 -11  -4  -2    0.24    0.37
 -11  -4  -2    0.25    0.30
 -11   4  -2    0.43    0.42
 -12  -4  -2    1.28    0.48
  12  -4   2    1.99    0.58
 -12   4  -2    1.75    0.50
 -12  -5   2    0.22    0.24
 -11  -5   2    0.17    0.22
  11  -5  -2    0.11    0.44
 -11  -5   2    0.42    0.45
  11   5  -2    0.38    0.53
 -11   5   2    0.42    0.33
 -10  -5   2    0.58    0.36
 -10  -5   2    0.16    0.20
  10  -5  -2   -0.28    0.33
  10  -5  -2   -0.09    0.42
  10   5  -2   -0.11    0.46
 -10   5   2   -0.43    0.31
   9  -5  -2   -0.27    0.37
  -9  -5   2   -0.06    0.31
   9  -5  -2   -0.05    0.31
  -9  -5   2    0.01    0.18
  -9   5   2   -0.15    0.28
   9   5  -2   -0.21    0.36
   8  -5  -2    0.92    0.30
   8  -5  -2    0.47    0.33
  -8  -5   2    0.53    0.20
  -8  -5   2    1.10    0.35
   8   5  -2    1.13    0.35
  -8   5   2    0.20    0.29
  -7  -5   2    1.10    0.30
  -7  -5   2    1.04    0.20
   7  -5  -2    0.89    0.31
   7  -5  -2    0.81    0.31
   7  -5  -2    1.39    0.27
  -7   5   2    0.52    0.31
   7   5  -2    0.87    0.34
  -6  -5   2    0.26    0.27
  -6  -5   2    0.23    0.17
   6  -5  -2    0.19    0.27
   6  -5  -2    0.88    0.28
  -6  -5   2    0.13    0.23
   6  -5  -2    0.34    0.24
   6   5  -2    0.01    0.26
  -6   5   2    0.69    0.29
   5  -5  -2    0.59    0.23
  -5  -5   2    0.28    0.25
   5  -5  -2    0.42    0.27
  -5  -5   2    0.35    0.16
  -5  -5   2    0.48    0.23
   5  -5  -2    0.45    0.22
  -5   5   2    0.59    0.28
   5   5  -2    0.16    0.24
   4  -5  -2    2.46    0.31
  -4  -5   2    2.88    0.37
  -4  -5   2    2.74    0.36
   4  -5  -2    2.91    0.37
  -4  -5   2    2.59    0.28
   4  -5  -2    2.51    0.31
  -4   5   2    2.28    0.37
   4   5  -2    2.47    0.34
   3  -5  -2    0.21    0.20
  -3  -5   2    0.27    0.25
  -3  -5   2    0.18    0.15
  -3  -5   2    0.42    0.24
   3  -5  -2    0.10    0.22
   3  -5  -2    0.32    0.20
   3   5  -2    0.29    0.23
  -3   5   2    0.25    0.19
  -3   5   2    0.52    0.25
   2  -5  -2    1.16    0.22
  -2  -5   2    1.52    0.27
   2  -5  -2    0.45    0.27
  -2  -5   2    0.79    0.17
   2  -5  -2    1.15    0.22
  -2  -5   2    1.24    0.25
  -2   5   2    1.28    0.23
   2   5  -2    0.81    0.23
  -2   5   2    0.83    0.29
  -1  -5   2   13.75    1.00
   1  -5  -2   12.36    0.97
   1  -5  -2   12.07    0.98
  -1  -5   2   12.33    1.00
   1  -5  -2   13.40    1.01
   1  -5  -2   12.71    0.97
  -1  -5   2   13.16    0.96
   1   5  -2   14.40    1.01
   1   5  -2   13.56    1.00
  -1   5   2   10.73    1.01
  -1   5   2   12.18    0.97
   0  -5   2    2.18    0.31
   0  -5   2    1.55    0.30
   0  -5  -2    2.29    0.30
   0  -5  -2    1.78    0.31
   0  -5   2    3.04    0.29
   0  -5  -2    2.53    0.27
   0   5   2    1.87    0.26
   0   5  -2    2.38    0.30
   0   5  -2    2.46    0.31
   0   5   2    2.19    0.35
   1  -5   2    2.89    0.36
  -1  -5  -2    3.76    0.36
  -1  -5  -2    2.66    0.36
   1  -5   2    2.51    0.30
  -1  -5  -2    2.71    0.33
   1   5   2    2.96    0.40
   1   5   2    2.93    0.32
  -1   5  -2    2.45    0.36
  -1   5  -2    3.79    0.38
  -2  -5  -2   11.50    0.92
  -2  -5  -2   11.28    0.90
   2  -5   2   11.90    0.89
   2  -5   2   11.72    0.92
  -2   5  -2   12.05    0.91
  -2   5  -2   11.14    0.91
   2   5   2   10.36    0.94
  -3  -5  -2    0.90    0.28
  -3  -5  -2    0.75    0.22
  -3  -5  -2    0.58    0.21
   3  -5   2    0.83    0.21
   3  -5   2    0.85    0.29
  -3   5  -2    0.70    0.33
   3   5   2    0.84    0.35
  -3   5  -2    0.65    0.27
  -3   5  -2    0.68    0.26
  -4  -5  -2    2.51    0.32
   4  -5   2    2.26    0.32
  -4  -5  -2    1.33    0.32
   4  -5   2    2.51    0.37
  -4  -5  -2    2.23    0.31
  -4   5  -2    3.23    0.36
  -4   5  -2    1.68    0.37
   4   5   2    2.97    0.44
  -5  -5  -2    2.46    0.36
  -5  -5  -2    2.84    0.36
   5  -5   2    2.39    0.38
   5  -5   2    3.28    0.36
   5  -5   2    2.06    0.33
  -5  -5  -2    2.78    0.35
  -5   5  -2    2.60    0.35
  -5   5  -2    2.44    0.45
   6  -5   2    0.38    0.31
  -6  -5  -2    0.38    0.26
   6  -5   2   -0.09    0.28
  -6  -5  -2    0.37    0.28
  -6  -5  -2    0.13    0.27
   6  -5   2    0.20    0.27
  -6   5  -2    0.38    0.37
  -6   5  -2    0.37    0.24
  -7  -5  -2    1.67    0.32
   7  -5   2    1.56    0.35
  -7  -5  -2    1.51    0.35
   7  -5   2    2.01    0.36
  -7   5  -2    1.30    0.44
  -8  -5  -2    1.81    0.39
  -8  -5  -2    2.42    0.35
   8  -5   2    1.34    0.41
  -8   5  -2    1.95    0.47
   9  -5   2    2.75    0.45
  -9  -5  -2    1.96    0.35
  -9  -5  -2    1.99    0.40
  -9   5  -2    1.63    0.49
 -10  -5  -2   -0.20    0.29
  10  -5   2    0.02    0.46
 -10  -5  -2    0.22    0.42
 -10   5  -2    0.05    0.45
  11  -5   2    0.66    0.55
 -11  -5  -2    0.94    0.36
 -11  -5  -2    0.75    0.45
 -11   5  -2    0.35    0.54
 -10  -6   2    0.28    0.44
 -10  -6   2    0.16    0.25
  10  -6  -2   -0.23    0.46
  10   6  -2    0.09    0.55
 -10   6   2   -0.08    0.39
  -9  -6   2    1.05    0.47
   9  -6  -2    0.89    0.48
  -9  -6   2    0.90    0.26
   9   6  -2    1.14    0.49
  -9   6   2    0.92    0.40
  -8  -6   2    0.52    0.36
   8  -6  -2    0.33    0.36
  -8  -6   2    0.52    0.22
   8   6  -2    0.35    0.43
  -8   6   2    0.26    0.37
  -7  -6   2    0.80    0.23
   7  -6  -2    0.60    0.37
   7  -6  -2    1.55    0.39
  -7  -6   2    0.74    0.33
  -7   6   2    0.62    0.36
   7   6  -2    0.36    0.39
   6  -6  -2    0.11    0.30
  -6  -6   2    0.33    0.35
   6  -6  -2    0.44    0.34
  -6  -6   2    0.36    0.35
  -6  -6   2    0.59    0.21
  -6   6   2    0.16    0.33
   6   6  -2    0.81    0.37
  -5  -6   2    0.12    0.29
   5  -6  -2    0.29    0.27
  -5  -6   2    0.09    0.19
  -5  -6   2   -0.11    0.31
   5  -6  -2   -0.06    0.31
  -5   6   2    0.03    0.35
   5   6  -2    0.43    0.33
  -4  -6   2    1.60    0.38
   4  -6  -2    1.22    0.37
  -4  -6   2    1.72    0.35
  -4  -6   2    1.77    0.25
   4   6  -2    1.97    0.39
  -4   6   2    2.69    0.45
  -3  -6   2    2.46    0.31
  -3  -6   2    3.40    0.43
   3  -6  -2    2.91    0.43
  -3  -6   2    3.18    0.41
   3   6  -2    3.31    0.42
  -3   6   2    2.95    0.47
  -2  -6   2   -0.22    0.27
  -2  -6   2   -0.12    0.28
  -2  -6   2    0.24    0.20
   2  -6  -2   -0.03    0.27
   2   6  -2   -0.09    0.27
   2   6  -2    0.15    0.32
  -2   6   2    0.05    0.33
  -1  -6   2   -0.11    0.29
   1  -6  -2   -0.07    0.30
  -1  -6   2   -0.12    0.19
  -1  -6   2    0.04    0.29
  -1   6   2   -0.05    0.33
   1   6  -2   -0.08    0.30
   1   6  -2   -0.02    0.28
   0  -6   2    0.52    0.31
   0  -6   2    0.69    0.29
   0  -6   2    0.53    0.21
   0  -6  -2    0.82    0.31
   0  -6  -2    0.07    0.42
   0   6  -2    1.00    0.34
   0   6   2    0.33    0.35
   0   6  -2    0.98    0.32
   1  -6   2    0.39    0.23
   1  -6   2    1.13    0.31
  -1  -6  -2    0.73    0.29
  -1  -6  -2    0.30    0.29
   1   6   2    0.69    0.35
  -1   6  -2    0.44    0.33
  -1   6  -2    0.47    0.36
   2  -6   2   -0.04    0.28
   2  -6   2   -0.04    0.21
  -2  -6  -2   -0.05    0.31
  -2  -6  -2    0.02    0.24
   2   6   2   -0.09    0.37
  -3  -6  -2    0.11    0.27
   3  -6   2    0.03    0.28
   3  -6   2    0.05    0.25
  -3  -6  -2   -0.13    0.28
   4  -6   2    1.99    0.34
  -4  -6  -2    1.51    0.36
  -4  -6  -2    1.45    0.31
   4  -6   2    1.34    0.39
  -5  -6  -2    1.23    0.30
  -5  -6  -2    0.76    0.37
   5  -6   2    0.48    0.38
   5  -6   2    0.76    0.30
  -6  -6  -2    2.33    0.38
   6  -6   2    1.95    0.41
  -6  -6  -2    1.58    0.43
  -7  -6  -2    2.49    0.39
   7  -6   2    2.33    0.50
  -8  -6  -2    0.21    0.35
  -8  -6  -2    0.24    0.33
  -8   6  -2    0.23    0.48
  -9  -6  -2    0.04    0.46
  -9  -6  -2   -0.45    0.35
  -9   6  -2   -0.14    0.51
  -8  -7   2    0.24    0.27
  -8  -7   2   -0.02    0.47
  -8   7   2   -0.09    0.49
   7  -7  -2    0.48    0.52
  -7  -7   2    0.85    0.47
  -7  -7   2    0.12    0.25
  -7   7   2    0.25    0.46
  -6  -7   2    0.01    0.24
  -6  -7   2   -0.35    0.37
  -6  -7   2    0.65    0.46
   6  -7  -2    0.18    0.47
   6   7  -2   -0.02    0.51
  -6   7   2   -0.28    0.44
  -5  -7   2    0.27    0.39
   5  -7  -2    0.03    0.44
  -5  -7   2    0.56    0.26
  -5  -7   2    0.34    0.42
   5   7  -2    0.86    0.45
  -5   7   2    0.55    0.42
  -4  -7   2    0.32    0.35
  -4  -7   2    0.11    0.24
   4  -7  -2    0.22    0.37
  -4  -7   2    0.07    0.35
   4   7  -2    0.75    0.71
  -4   7   2    0.30    0.44
  -3  -7   2   -0.28    0.24
   3  -7  -2   -0.09    0.40
  -3  -7   2   -0.53    0.32
  -3   7   2    0.10    0.45
  -2  -7   2    0.60    0.35
   2  -7  -2    0.61    0.38
  -2  -7   2    0.56    0.27
  -2   7   2    0.24    0.43
  -1  -7   2    2.23    0.42
   1  -7  -2    1.26    0.41
  -1  -7   2    2.39    0.34
  -1   7   2    0.98    0.45
   0  -7   2    0.15    0.26
   0  -7   2    0.58    0.34
   0  -7  -2    0.29    0.37
   0   7   2    0.54    0.43
  -1  -7  -2    1.35    0.41
   1  -7   2    0.63    0.36
   1  -7   2    0.40    0.28
   2  -7   2    1.21    0.44
  -2  -7  -2    2.04    0.42
  -2  -7  -2    1.37    0.41
   2  -7   2    2.17    0.35
   3  -7   2    0.62    0.37
  -3  -7  -2    0.31    0.31
  -3  -7  -2    0.51    0.39
   3  -7   2    0.47    0.31
  -4  -7  -2    0.74    0.41
   4  -7   2    0.53    0.43
  -4  -7  -2    0.56    0.31
   4  -7   2    0.12    0.35
  -5  -7  -2    0.28    0.47
   5  -7   2    0.48    0.41
  -5  -7  -2    0.64    0.34
   6  -7   2   -0.01    0.42
  -6  -7  -2    0.37    0.43
  -6  -7  -2    0.02    0.36
  -7  -7  -2    0.62    0.38
   7  -7   2   -0.02    0.53
   5  -8  -2   -0.06    0.52
  -5  -8   2   -0.01    0.47
  -5  -8   2    0.07    0.33
  -5   8   2    0.04    0.56
   4  -8  -2    0.29    0.52
  -4  -8   2    0.35    0.54
  -4  -8   2    0.61    0.34
  -4   8   2    0.71    0.58
   3  -8  -2    0.62    0.50
  -3  -8   2    0.47    0.34
  -3  -8   2    0.87    0.48
  -3   8   2    0.14    0.57
   2  -8  -2   -0.05    0.46
  -2  -8   2   -0.34    0.49
  -2  -8   2    0.08    0.32
  -2   8   2    0.12    0.56
  -1  -8   2   -0.02    0.44
  -1  -8   2   -0.11    0.34
   1  -8  -2    0.09    0.47
   0  -8  -2   -0.22    0.46
   0  -8   2    0.05    0.45
   0  -8   2   -0.03    0.34
   1  -8   2   -0.24    0.35
  -1  -8  -2   -0.25    0.51
   1  -8   2    0.55    0.51
   2  -8   2    0.39    0.51
   2  -8   2    0.00    0.38
  -2  -8  -2   -0.28    0.47
  -3  -8  -2   -0.19    0.54
   3  -8   2   -0.33    0.39
   3  -8   2    0.00    0.47
  -4  -8  -2   -0.13    0.57
   4  -8   2   -0.13    0.51
  -4  -8  -2    0.11    0.42
   4  -8   2   -0.09    0.45
  14   0  -3    3.01    0.58
 -14   0   3    2.93    0.52
  14   0  -3    2.95    0.50
 -13   0   3    0.06    0.35
 -13   0   3    0.00    0.14
  13   0  -3    0.29    0.39
  13   0  -3   -0.23    0.31
 -12   0   3    3.86    0.34
  12   0  -3    4.45    0.54
  12   0  -3    4.19    0.46
 -12   0   3    3.53    0.47
  11   0  -3    8.66    0.68
  11   0  -3    7.37    0.70
 -11   0   3    7.47    0.66
 -11   0   3    7.34    0.58
  10   0  -3   -0.04    0.25
 -10   0   3    0.27    0.21
 -10   0   3    0.13    0.10
  10   0  -3    0.12    0.19
  -9   0   3   12.61    0.98
   9   0  -3   12.85    0.96
  -9   0   3   12.72    0.92
   9   0  -3   12.72    1.00
   8   0  -3    4.55    0.39
  -8   0   3    4.53    0.35
  -8   0   3    5.09    0.36
   8   0  -3    4.08    0.43
  -8   0   3    4.31    0.41
  -7   0   3    0.15    0.06
   7   0  -3    0.23    0.10
  -7   0   3    0.11    0.06
  -7   0   3    0.17    0.13
   7   0  -3    0.07    0.14
   6   0  -3   59.42    4.07
   6   0  -3   54.74    4.05
  -6   0   3   56.40    4.06
   6   0  -3   56.04    4.06
   6   0  -3   56.49    4.05
  -6   0   3   57.71    4.04
  -6   0   3   57.89    4.04
   5   0  -3    6.44    0.54
  -5   0   3    6.95    0.54
  -5   0   3    7.46    0.53
   5   0  -3    6.89    0.52
   5   0  -3    6.81    0.53
   5   0  -3    7.46    0.53
   4   0  -3    4.18    0.34
   4   0  -3    3.99    0.34
   4   0  -3    4.24    0.32
  -4   0   3    4.67    0.34
  -4   0   3    4.94    0.35
  -4   0   3    4.65    0.34
   4   0  -3    3.94    0.32
  -3   0   3   37.45    2.74
   3   0  -3   36.78    2.74
  -3   0   3   38.45    2.75
  -3   0   3   40.92    2.74
  -2   0   3   64.43    4.82
  -2   0   3   70.23    4.81
  -2   0   3   68.18    4.81
  -1   0   3    8.08    0.60
  -1   0   3    8.75    0.61
   1   0  -3    8.45    0.61
  -1   0   3    7.60    0.63
   0   0   3    1.28    0.11
   0   0   3    1.37    0.18
   0   0   3    1.30    0.15
   0   0  -3    1.37    0.13
   0   0  -3    1.28    0.12
   0   0   3    1.45    0.12
   0   0  -3    1.52    0.15
   1   0   3   66.36    4.77
   1   0   3   66.06    4.75
  -1   0  -3   65.99    4.75
  -1   0  -3   69.24    4.76
  -2   0  -3    0.86    0.11
   2   0   3    0.47    0.10
   2   0   3    0.73    0.15
  -2   0  -3    0.48    0.12
   2   0   3    0.64    0.11
  -2   0  -3    0.83    0.11
  -3   0  -3    2.38    0.27
  -3   0  -3    3.00    0.25
   3   0   3    2.67    0.29
   3   0   3    2.90    0.26
   3   0   3    3.18    0.26
   3   0   3    2.50    0.25
  -3   0  -3    2.97    0.25
  -4   0  -3  119.11    8.15
   4   0   3  113.68    8.15
   4   0   3  116.36    8.14
   4   0   3  115.52    8.14
  -4   0  -3  111.29    8.14
   4   0   3  114.60    8.15
  -4   0  -3  111.64    8.14
   5   0   3    0.31    0.16
   5   0   3    0.33    0.13
   5   0   3    0.60    0.15
   5   0   3    0.15    0.13
  -5   0  -3    0.42    0.14
  -5   0  -3    0.29    0.16
  -5   0  -3    0.35    0.15
  -5   0  -3    0.26    0.15
  -6   0  -3   14.00    1.04
   6   0   3   15.63    1.05
   6   0   3   14.61    1.04
  -6   0  -3   14.25    1.04
  -6   0  -3   13.31    1.05
   6   0   3   12.79    1.04
  -6   0  -3   12.69    1.03
   6   0   3   13.90    1.04
  -7   0  -3   30.46    2.24
  -7   0  -3   31.23    2.23
  -7   0  -3   30.09    2.24
   7   0   3   30.74    2.25
   7   0   3   30.63    2.23
   7   0   3   31.38    2.24
  -7   0  -3   30.65    2.24
   8   0   3    2.15    0.27
  -8   0  -3    1.09    0.25
  -8   0  -3    1.07    0.24
   8   0   3    1.55    0.26
   8   0   3    1.16    0.26
  -9   0  -3   22.92    1.68
   9   0   3   21.32    1.68
  -9   0  -3   22.90    1.68
 -10   0  -3    4.48    0.47
 -10   0  -3    3.43    0.43
  10   0   3    3.34    0.45
  11   0   3    0.21    0.30
 -11   0  -3    0.07    0.28
 -11   0  -3   -0.17    0.28
  12   0   3    0.44    0.41
 -12   0  -3    0.40    0.31
 -12   0  -3    0.38    0.38
 -13   0  -3   -0.24    0.38
 -13   0  -3    0.40    0.38
  13   0   3    0.21    0.43
 -14  -1   3    1.08    0.16
 -14  -1   3    1.09    0.44
  14  -1  -3    0.74    0.41
  14  -1  -3    2.01    0.52
  14   1  -3    1.02    0.46
 -14   1   3    1.46    0.40
  14   1  -3    0.95    0.54
 -14   1   3    0.98    0.20
  13  -1  -3    0.84    0.44
 -13  -1   3    0.34    0.32
  13  -1  -3   -0.03    0.30
 -13  -1   3    0.06    0.13
 -13   1   3    0.07    0.16
 -13   1   3   -0.28    0.29
  13   1  -3    0.20    0.41
  13   1  -3    0.52    0.36
  12  -1  -3    0.39    0.33
  12  -1  -3    0.51    0.28
 -12  -1   3    0.25    0.28
 -12  -1   3    0.74    0.14
  12   1  -3    0.84    0.36
 -12   1   3    0.60    0.28
 -12   1   3    0.61    0.16
  12   1  -3    0.30    0.31
 -11  -1   3    4.10    0.36
  11  -1  -3    4.69    0.51
 -11  -1   3    3.98    0.46
  11  -1  -3    5.23    0.48
 -11   1   3    5.59    0.48
  11   1  -3    4.78    0.53
 -11   1   3    4.26    0.37
  11   1  -3    3.62    0.44
  10  -1  -3    2.59    0.31
 -10  -1   3    2.20    0.33
 -10  -1   3    2.69    0.25
  10  -1  -3    3.66    0.42
 -10   1   3    2.72    0.27
  10   1  -3    3.04    0.37
 -10   1   3    2.79    0.34
  10   1  -3    2.78    0.33
  -9  -1   3   11.59    0.87
   9  -1  -3   13.03    0.96
   9  -1  -3   12.34    0.91
  -9  -1   3   12.50    0.93
  -9   1   3   12.49    0.92
   9   1  -3   11.61    0.94
  -9   1   3   11.38    0.88
   9   1  -3   12.11    0.92
  -8  -1   3    5.93    0.43
  -8  -1   3    6.14    0.49
  -8  -1   3    5.50    0.42
   8  -1  -3    5.83    0.50
   8  -1  -3    5.59    0.46
  -8   1   3    5.04    0.43
   8   1  -3    5.88    0.51
  -8   1   3    6.00    0.47
   8   1  -3    6.01    0.48
   7  -1  -3   24.59    1.81
  -7  -1   3   25.65    1.79
  -7  -1   3   24.58    1.83
   7  -1  -3   23.59    1.83
  -7  -1   3   25.98    1.79
  -7   1   3   24.67    1.80
   7   1  -3   24.05    1.83
  -7   1   3   25.95    1.80
   7   1  -3   25.16    1.82
  -7   1   3   25.94    1.82
   6  -1  -3   34.32    2.42
   6  -1  -3   32.98    2.44
   6  -1  -3   34.77    2.42
  -6  -1   3   34.20    2.40
  -6  -1   3   34.76    2.43
   6  -1  -3   31.52    2.44
  -6  -1   3   33.96    2.40
  -6  -1   3   34.36    2.44
   6   1  -3   31.70    2.42
  -6   1   3   32.85    2.41
  -6   1   3   35.41    2.43
   6   1  -3   34.22    2.42
  -6   1   3   34.38    2.41
   6   1  -3   33.72    2.43
   5  -1  -3    0.48    0.13
   5  -1  -3    0.35    0.10
  -5  -1   3    0.24    0.11
   5  -1  -3    0.28    0.13
  -5  -1   3    0.12    0.12
   5  -1  -3    0.17    0.07
  -5   1   3    0.28    0.06
   5   1  -3    0.20    0.08
  -5   1   3    0.33    0.06
  -5   1   3    0.34    0.10
   5   1  -3    0.28    0.11
   5   1  -3    0.30    0.09
  -4  -1   3   90.01    6.20
  -4  -1   3   84.13    6.20
   4  -1  -3   89.28    6.20
   4  -1  -3   84.95    6.20
   4  -1  -3   91.11    6.19
   4  -1  -3   84.10    6.19
   4   1  -3   85.97    6.18
  -4   1   3   87.46    6.21
   4   1  -3   88.07    6.20
  -4   1   3   88.29    6.18
  -4   1   3   85.59    6.18
   4   1  -3   86.21    6.19
  -4   1   3   89.19    6.19
  -3  -1   3   17.02    1.15
   3  -1  -3   16.40    1.15
  -3  -1   3   17.00    1.16
   3  -1  -3   15.23    1.16
   3  -1  -3   15.52    1.16
  -3  -1   3   15.55    1.16
   3  -1  -3   15.35    1.14
  -3   1   3   16.19    1.13
  -3   1   3   16.36    1.16
   3   1  -3   15.42    1.14
  -3   1   3   16.81    1.14
  -3   1   3   15.87    1.13
   3   1  -3   15.54    1.15
   3   1  -3   15.49    1.14
   2  -1  -3    8.42    0.62
  -2  -1   3    8.78    0.64
   2  -1  -3    8.25    0.64
  -2  -1   3    8.55    0.63
  -2  -1   3    9.17    0.65
  -2   1   3    8.87    0.65
   2   1  -3    8.64    0.62
   2   1  -3    8.22    0.62
  -2   1   3    9.06    0.62
  -2   1   3    8.86    0.62
  -2   1   3    8.49    0.62
  -1  -1   3   87.76    6.23
   1  -1  -3   84.41    6.23
   1  -1  -3   86.99    6.25
  -1  -1   3   89.06    6.25
   1  -1  -3   87.59    6.23
   1  -1  -3   87.88    6.23
  -1  -1   3   88.74    6.24
   1   1  -3   84.45    6.23
  -1   1   3   91.17    6.23
  -1   1   3   88.04    6.25
  -1   1   3   87.43    6.23
   1   1  -3   91.26    6.23
   0  -1   3    1.40    0.16
   0  -1   3    1.79    0.15
   0  -1  -3    1.64    0.16
   0  -1   3    1.15    0.11
   0  -1  -3    1.18    0.12
   0  -1   3    1.20    0.12
   0  -1  -3    1.37    0.12
   0  -1   3    1.19    0.15
   0   1   3    1.26    0.16
   0   1   3    1.34    0.13
   0   1  -3    1.03    0.15
   0   1  -3    0.97    0.11
   1  -1   3   12.86    0.89
  -1  -1  -3   12.29    0.90
   1  -1   3   12.53    0.88
   1  -1   3   12.70    0.90
  -1  -1  -3   12.39    0.89
  -1  -1  -3   12.01    0.89
  -1   1  -3   11.92    0.90
   1   1   3   11.79    0.91
  -1   1  -3   11.40    0.89
  -2  -1  -3   46.88    3.23
  -2  -1  -3   45.20    3.22
  -2  -1  -3   44.41    3.23
  -2  -1  -3   45.74    3.22
   2  -1   3   43.44    3.24
   2  -1   3   45.47    3.22
   2  -1   3   46.11    3.23
  -2   1  -3   46.04    3.23
   2   1   3   44.23    3.24
  -2   1  -3   46.00    3.23
   2   1   3   44.49    3.23
   2   1   3   44.50    3.23
  -2   1  -3   45.62    3.23
   3  -1   3   14.94    1.07
  -3  -1  -3   15.24    1.07
   3  -1   3   13.95    1.08
  -3  -1  -3   14.71    1.08
   3  -1   3   15.67    1.07
  -3  -1  -3   15.21    1.08
   3  -1   3   14.76    1.07
  -3  -1  -3   13.96    1.07
   3   1   3   13.54    1.08
  -3   1  -3   14.99    1.08
  -3   1  -3   14.41    1.08
  -3   1  -3   14.81    1.09
   3   1   3   14.15    1.08
   3   1   3   15.25    1.08
  -4  -1  -3   13.49    1.00
   4  -1   3   13.19    0.99
  -4  -1  -3   14.41    1.00
   4  -1   3   13.40    1.00
  -4  -1  -3   13.70    1.00
   4  -1   3   13.79    1.00
  -4  -1  -3   13.16    1.01
   4  -1   3   12.91    1.01
   4   1   3   15.24    1.01
  -4   1  -3   13.58    1.01
   4   1   3   12.37    1.00
   4   1   3   13.62    1.01
  -4   1  -3   13.50    1.00
  -4   1  -3   13.76    1.01
   5  -1   3   27.24    1.96
  -5  -1  -3   25.18    1.95
   5  -1   3   26.37    1.95
  -5  -1  -3   28.66    1.96
  -5  -1  -3   26.70    1.95
   5  -1   3   26.93    1.95
   5  -1   3   29.60    1.96
  -5  -1  -3   26.33    1.95
   5   1   3   27.04    1.95
  -5   1  -3   27.90    1.96
  -5   1  -3   27.13    1.97
   5   1   3   25.25    1.96
  -5   1  -3   27.16    1.96
   5   1   3   26.97    1.96
  -6  -1  -3    3.71    0.38
   6  -1   3    4.28    0.42
   6  -1   3    3.74    0.40
   6  -1   3    4.65    0.40
  -6  -1  -3    3.88    0.36
  -6  -1  -3    3.72    0.40
   6  -1   3    4.42    0.38
  -6  -1  -3    4.48    0.40
   6   1   3    4.69    0.41
   6   1   3    4.20    0.41
  -6   1  -3    4.93    0.39
   6   1   3    3.82    0.39
  -6   1  -3    4.09    0.42
  -6   1  -3    4.29    0.41
  -7  -1  -3    1.69    0.26
   7  -1   3    2.20    0.26
   7  -1   3    2.17    0.28
  -7  -1  -3    1.32    0.25
  -7  -1  -3    1.98    0.32
   7  -1   3    2.14    0.31
   7  -1   3    1.76    0.28
   7   1   3    2.45    0.33
  -7   1  -3    1.78    0.29
  -7   1  -3    2.12    0.26
   7   1   3    2.15    0.29
  -7   1  -3    2.18    0.33
   7   1   3    1.65    0.28
  -8  -1  -3    6.99    0.62
   8  -1   3    7.48    0.62
  -8  -1  -3    7.39    0.62
   8  -1   3    7.79    0.64
   8  -1   3    6.70    0.65
  -8   1  -3    5.95    0.63
   8   1   3    6.86    0.68
   8   1   3    7.78    0.64
  -8   1  -3    7.85    0.62
   8   1   3    7.72    0.65
   9  -1   3   10.66    0.89
  -9  -1  -3   10.65    0.89
  -9  -1  -3   11.48    0.88
  -9   1  -3   11.00    0.87
   9   1   3   10.23    0.89
  10  -1   3   -0.17    0.32
 -10  -1  -3    0.18    0.28
 -10  -1  -3   -0.20    0.23
 -10   1  -3   -0.02    0.27
  10   1   3   -0.01    0.30
 -10   1  -3    0.23    0.29
 -11  -1  -3    4.08    0.49
  11  -1   3    4.09    0.52
 -11  -1  -3    3.88    0.47
  11   1   3    3.71    0.52
 -11   1  -3    4.43    0.50
 -11   1  -3    4.33    0.51
 -12  -1  -3    3.57    0.50
 -12  -1  -3    3.74    0.48
  12  -1   3    3.40    0.49
 -12   1  -3    4.03    0.49
 -12   1  -3    3.24    0.49
  12   1   3    3.62    0.58
  13  -1   3    1.81    0.48
 -13  -1  -3    2.42    0.44
 -13  -1  -3    1.84    0.48
 -13   1  -3    1.85    0.45
 -13   1  -3    1.83    0.50
  13   1   3    2.12    0.59
 -14  -2   3    2.66    0.50
  14  -2  -3    1.96    0.45
  14  -2  -3    1.80    0.55
  14   2  -3    2.22    0.57
 -14   2   3    2.06    0.27
  13  -2  -3   -0.18    0.38
  13  -2  -3   -0.18    0.32
 -13  -2   3    0.04    0.13
 -13  -2   3    0.31    0.39
  13   2  -3    0.37    0.41
 -13   2   3   -0.02    0.18
  12  -2  -3    3.07    0.38
 -12  -2   3    2.48    0.27
 -12  -2   3    3.02    0.45
  12  -2  -3    2.93    0.51
 -12   2   3    2.93    0.29
  12   2  -3    3.36    0.59
  12   2  -3    3.00    0.45
  11  -2  -3    6.47    0.62
 -11  -2   3    5.66    0.46
  11  -2  -3    7.00    0.57
 -11  -2   3    4.52    0.56
  11   2  -3    6.19    0.60
 -11   2   3    5.94    0.49
  11   2  -3    5.62    0.59
  10  -2  -3    0.28    0.27
  10  -2  -3    0.06    0.21
 -10  -2   3    0.08    0.11
 -10  -2   3    0.02    0.26
  10   2  -3    0.08    0.26
  10   2  -3    0.09    0.24
 -10   2   3   -0.16    0.21
 -10   2   3    0.13    0.13
   9  -2  -3    8.03    0.69
  -9  -2   3    8.02    0.67
  -9  -2   3    7.95    0.60
   9  -2  -3    8.37    0.65
   9   2  -3    8.30    0.69
  -9   2   3    8.01    0.62
  -9   2   3    8.89    0.66
   9   2  -3    7.43    0.69
   8  -2  -3    3.33    0.33
   8  -2  -3    3.95    0.38
  -8  -2   3    3.24    0.36
  -8  -2   3    3.57    0.28
   8   2  -3    3.24    0.35
  -8   2   3    3.27    0.33
   8   2  -3    2.92    0.35
  -8   2   3    3.32    0.31
   7  -2  -3    0.23    0.13
  -7  -2   3    0.13    0.17
  -7  -2   3    0.15    0.09
  -7  -2   3    0.25    0.07
   7  -2  -3    0.14    0.18
  -7   2   3    0.28    0.13
   7   2  -3    0.16    0.16
   7   2  -3    0.21    0.16
  -7   2   3    0.33    0.10
  -6  -2   3   36.21    2.61
   6  -2  -3   37.85    2.64
  -6  -2   3   35.71    2.63
   6  -2  -3   36.87    2.62
  -6  -2   3   36.57    2.59
   6  -2  -3   37.73    2.61
  -6  -2   3   36.28    2.59
  -6   2   3   35.86    2.61
  -6   2   3   35.65    2.61
   6   2  -3   34.64    2.62
  -6   2   3   37.86    2.60
   6   2  -3   36.22    2.61
   5  -2  -3    3.27    0.32
  -5  -2   3    3.80    0.28
   5  -2  -3    3.53    0.30
   5  -2  -3    3.93    0.34
  -5  -2   3    3.34    0.33
  -5  -2   3    3.57    0.28
  -5  -2   3    3.63    0.32
   5   2  -3    3.33    0.31
  -5   2   3    3.38    0.33
  -5   2   3    3.88    0.30
  -5   2   3    3.80    0.31
   5   2  -3    4.06    0.33
  -5   2   3    3.97    0.30
   5   2  -3    3.82    0.31
   4  -2  -3    2.79    0.22
   4  -2  -3    2.12    0.25
  -4  -2   3    2.59    0.20
  -4  -2   3    2.83    0.25
  -4  -2   3    2.37    0.25
   4  -2  -3    2.66    0.26
  -4  -2   3    2.47    0.19
  -4   2   3    2.55    0.21
  -4   2   3    2.67    0.23
   4   2  -3    2.35    0.22
  -4   2   3    1.89    0.24
   4   2  -3    2.43    0.23
  -4   2   3    2.81    0.22
   4   2  -3    2.30    0.24
  -3  -2   3   15.91    1.13
   3  -2  -3   16.08    1.14
  -3  -2   3   15.18    1.15
   3  -2  -3   15.28    1.16
  -3  -2   3   16.06    1.13
   3  -2  -3   16.95    1.16
  -3  -2   3   15.29    1.15
  -3   2   3   16.12    1.13
  -3   2   3   16.90    1.14
   3   2  -3   14.58    1.14
  -3   2   3   16.27    1.15
   3   2  -3   16.02    1.13
   3   2  -3   15.30    1.14
  -3   2   3   14.64    1.15
   2  -2  -3   31.84    2.30
  -2  -2   3   33.85    2.30
   2  -2  -3   31.29    2.28
  -2  -2   3   32.10    2.27
  -2  -2   3   31.99    2.30
  -2   2   3   31.56    2.30
   2   2  -3   32.10    2.28
   2   2  -3   31.30    2.28
  -2   2   3   31.70    2.29
  -2   2   3   33.52    2.28
   2   2  -3   31.16    2.27
   1  -2  -3    4.62    0.37
   1  -2  -3    4.24    0.34
  -1  -2   3    4.00    0.37
  -1  -2   3    4.34    0.33
  -1  -2   3    4.73    0.33
  -1  -2   3    4.67    0.35
  -1  -2   3    4.58    0.37
   1   2  -3    4.49    0.34
  -1   2   3    4.23    0.37
  -1   2   3    4.03    0.36
   0  -2   3    0.91    0.11
   0  -2  -3    0.94    0.14
   0  -2  -3    0.95    0.13
   0  -2   3    0.76    0.10
   0  -2   3    0.75    0.14
   0  -2   3    0.57    0.14
   0  -2  -3    0.99    0.11
   0  -2  -3    0.97    0.09
   0   2   3    0.65    0.13
   0   2  -3    0.95    0.15
   0   2  -3    0.96    0.12
   0   2   3    0.56    0.13
  -1  -2  -3   36.31    2.53
   1  -2   3   35.94    2.52
  -1  -2  -3   35.66    2.54
   1  -2   3   34.53    2.54
   1  -2   3   34.73    2.52
  -1  -2  -3   35.98    2.53
  -1  -2  -3   35.66    2.52
   1   2   3   36.04    2.54
   1   2   3   33.29    2.54
  -1   2  -3   35.06    2.53
   1   2   3   36.44    2.53
  -1   2  -3   34.61    2.54
  -1   2  -3   35.10    2.54
  -2  -2  -3   -0.01    0.09
  -2  -2  -3   -0.04    0.10
   2  -2   3    0.10    0.13
   2  -2   3    0.01    0.08
  -2  -2  -3    0.00    0.09
   2  -2   3    0.26    0.10
  -2  -2  -3   -0.05    0.11
   2  -2   3    0.00    0.09
  -2   2  -3    0.10    0.11
   2   2   3    0.18    0.13
   2   2   3   -0.02    0.13
   2   2   3   -0.03    0.12
  -2   2  -3   -0.06    0.14
  -2   2  -3    0.11    0.13
  -3  -2  -3    2.17    0.23
  -3  -2  -3    2.48    0.26
  -3  -2  -3    2.25    0.24
   3  -2   3    2.10    0.23
   3  -2   3    2.25    0.23
  -3  -2  -3    2.36    0.23
   3  -2   3    2.34    0.23
   3  -2   3    2.42    0.26
  -3   2  -3    2.60    0.26
   3   2   3    2.83    0.27
   3   2   3    1.72    0.26
   3   2   3    2.60    0.27
  -3   2  -3    3.24    0.28
  -3   2  -3    2.50    0.27
  -4  -2  -3   74.42    5.32
  -4  -2  -3   77.18    5.33
   4  -2   3   71.89    5.33
   4  -2   3   71.35    5.32
  -4  -2  -3   71.06    5.32
   4  -2   3   74.86    5.32
   4  -2   3   77.62    5.32
  -4  -2  -3   75.67    5.32
  -4   2  -3   73.24    5.34
  -4   2  -3   78.03    5.33
   4   2   3   79.46    5.34
   4   2   3   75.91    5.34
  -4   2  -3   75.17    5.33
   4   2   3   71.44    5.33
   5  -2   3    0.41    0.14
  -5  -2  -3    0.68    0.17
  -5  -2  -3    0.40    0.15
  -5  -2  -3    0.35    0.15
   5  -2   3    0.59    0.19
   5  -2   3    0.47    0.16
  -5  -2  -3    0.47    0.16
   5  -2   3    0.64    0.17
   5   2   3    0.86    0.21
  -5   2  -3    0.81    0.20
  -5   2  -3    0.59    0.18
   5   2   3    0.66    0.18
   5   2   3    0.32    0.20
  -5   2  -3    0.33    0.20
   6  -2   3    9.53    0.75
   6  -2   3    8.21    0.75
  -6  -2  -3    8.81    0.75
  -6  -2  -3    9.46    0.75
   6  -2   3   10.06    0.77
   6  -2   3   10.58    0.75
  -6  -2  -3   11.03    0.75
  -6  -2  -3    9.54    0.74
  -6   2  -3   10.22    0.76
   6   2   3    9.83    0.79
  -6   2  -3    9.06    0.79
   6   2   3   10.82    0.79
  -6   2  -3    9.31    0.78
   6   2   3    8.60    0.77
   7  -2   3   22.46    1.58
   7  -2   3   22.21    1.57
   7  -2   3   21.04    1.58
   7  -2   3   23.10    1.58
  -7  -2  -3   20.46    1.56
  -7  -2  -3   21.20    1.57
  -7  -2  -3   20.84    1.58
  -7   2  -3   18.59    1.59
   7   2   3   20.01    1.60
   7   2   3   22.13    1.59
   7   2   3   21.16    1.57
  -7   2  -3   20.54    1.56
   8  -2   3    1.58    0.31
  -8  -2  -3    1.17    0.26
  -8  -2  -3    1.12    0.26
   8  -2   3    1.48    0.29
   8   2   3    1.50    0.30
  -8   2  -3    1.53    0.26
   8   2   3    1.52    0.33
  -8   2  -3    1.07    0.32
   9  -2   3   17.66    1.30
  -9  -2  -3   17.34    1.29
  -9  -2  -3   15.93    1.28
   9   2   3   18.21    1.31
  -9   2  -3   15.52    1.30
  -9   2  -3   16.24    1.28
  10  -2   3    2.34    0.41
 -10  -2  -3    2.68    0.37
 -10  -2  -3    1.81    0.35
  10   2   3    2.16    0.43
 -10   2  -3    1.93    0.34
 -10   2  -3    1.65    0.39
  11  -2   3   -0.20    0.35
 -11  -2  -3    0.04    0.29
 -11  -2  -3   -0.02    0.30
 -11   2  -3   -0.04    0.34
  11   2   3    0.35    0.40
 -11   2  -3   -0.07    0.34
 -12  -2  -3    0.09    0.34
 -12  -2  -3    0.18    0.37
  12  -2   3    0.46    0.44
  12   2   3    1.07    0.48
 -12   2  -3    0.97    0.41
 -12   2  -3    0.50    0.36
 -13  -2  -3    0.19    0.42
  13  -2   3   -0.12    0.49
 -13  -2  -3    0.27    0.37
  13   2   3    0.32    0.56
 -13   2  -3    0.17    0.42
 -13   2  -3   -0.10    0.43
  13  -3  -3    0.09    0.43
 -13  -3   3    0.04    0.38
  13  -3  -3   -0.27    0.35
 -13  -3   3    0.08    0.14
  13   3  -3   -0.07    0.49
 -13   3   3   -0.11    0.21
  12  -3  -3    0.32    0.31
 -12  -3   3    0.38    0.38
 -12  -3   3    0.01    0.13
  12  -3  -3    0.15    0.39
 -12   3   3    0.20    0.20
  12   3  -3   -0.24    0.40
  11  -3  -3    1.24    0.39
 -11  -3   3    2.09    0.22
  11  -3  -3    1.89    0.33
 -11  -3   3    2.53    0.39
 -11   3   3    2.17    0.27
  11   3  -3    1.95    0.41
  10  -3  -3    1.23    0.33
 -10  -3   3    0.73    0.30
  10  -3  -3    1.21    0.27
 -10  -3   3    1.27    0.17
 -10   3   3    1.35    0.22
  10   3  -3    1.76    0.36
   9  -3  -3    5.94    0.55
  -9  -3   3    7.04    0.62
  -9  -3   3    6.21    0.50
   9  -3  -3    7.28    0.61
  -9   3   3    6.25    0.53
   8  -3  -3    2.14    0.27
  -8  -3   3    2.16    0.23
   8  -3  -3    2.27    0.33
  -8  -3   3    2.68    0.32
   8   3  -3    2.46    0.32
  -8   3   3    2.80    0.28
   7  -3  -3   12.10    0.90
  -7  -3   3   12.28    0.89
   7  -3  -3   11.16    0.86
   7  -3  -3   12.39    0.89
  -7  -3   3   10.79    0.84
  -7   3   3   10.67    0.86
   7   3  -3   11.73    0.90
   6  -3  -3   16.27    1.21
  -6  -3   3   15.51    1.21
   6  -3  -3   17.50    1.20
  -6  -3   3   16.06    1.17
   6  -3  -3   16.02    1.22
  -6  -3   3   17.30    1.21
  -6   3   3   16.09    1.20
   6   3  -3   15.03    1.21
  -5  -3   3    0.01    0.10
  -5  -3   3    0.10    0.15
   5  -3  -3    0.06    0.12
  -5  -3   3    0.08    0.13
   5  -3  -3    0.07    0.15
   5  -3  -3    0.20    0.16
  -5  -3   3   -0.02    0.07
   5   3  -3    0.10    0.15
  -5   3   3    0.09    0.14
  -5   3   3   -0.01    0.15
   4  -3  -3   35.83    2.56
   4  -3  -3   34.00    2.57
   4  -3  -3   35.81    2.57
  -4  -3   3   35.01    2.57
  -4  -3   3   37.23    2.55
  -4  -3   3   34.37    2.54
  -4  -3   3   36.90    2.57
  -4   3   3   34.05    2.57
   4   3  -3   37.67    2.55
  -4   3   3   35.92    2.54
   4   3  -3   37.87    2.56
  -4   3   3   32.68    2.57
  -3  -3   3    8.43    0.67
  -3  -3   3    8.94    0.64
   3  -3  -3    7.67    0.67
   3  -3  -3    9.45    0.67
  -3  -3   3    9.86    0.66
  -3  -3   3    8.23    0.67
   3  -3  -3    9.24    0.68
   3  -3  -3    8.66    0.65
  -3   3   3    6.86    0.67
   3   3  -3    9.40    0.67
  -3   3   3    8.81    0.67
   2  -3  -3    3.92    0.34
  -2  -3   3    4.00    0.30
  -2  -3   3    3.95    0.35
   2  -3  -3    4.43    0.32
   2  -3  -3    3.61    0.35
  -2  -3   3    3.94    0.36
  -2  -3   3    3.46    0.34
   2   3  -3    3.58    0.33
  -2   3   3    2.96    0.34
  -2   3   3    3.57    0.33
  -1  -3   3   28.48    2.08
   1  -3  -3   26.82    2.07
  -1  -3   3   29.02    2.05
   1  -3  -3   29.59    2.06
  -1  -3   3   27.95    2.07
  -1  -3   3   29.19    2.08
  -1   3   3   28.69    2.07
   1   3  -3   29.54    2.06
  -1   3   3   28.33    2.07
   0  -3  -3    1.73    0.21
   0  -3  -3    1.64    0.17
   0  -3   3    1.79    0.16
   0  -3   3    1.65    0.22
   0  -3   3    1.46    0.17
   0  -3  -3    1.77    0.19
   0  -3   3    1.53    0.22
   0  -3  -3    1.85    0.21
   0   3   3    1.91    0.23
   0   3   3    1.83    0.23
   0   3  -3    2.05    0.21
   0   3  -3    1.42    0.22
   0   3   3    2.04    0.24
   0   3  -3    2.00    0.23
   1  -3   3    4.41    0.40
  -1  -3  -3    6.06    0.42
  -1  -3  -3    5.09    0.40
  -1  -3  -3    5.06    0.43
   1  -3   3    5.67    0.40
   1  -3   3    4.31    0.44
  -1   3  -3    5.38    0.45
   1   3   3    4.50    0.44
  -1   3  -3    4.88    0.42
   1   3   3    4.42    0.44
  -1   3  -3    5.30    0.45
   1   3   3    6.15    0.44
  -2  -3  -3   18.87    1.39
   2  -3   3   19.06    1.37
   2  -3   3   17.67    1.37
  -2  -3  -3   19.62    1.38
  -2  -3  -3   18.87    1.37
   2  -3   3   19.67    1.37
   2  -3   3   17.83    1.39
  -2  -3  -3   21.02    1.38
   2   3   3   17.79    1.40
  -2   3  -3   18.95    1.40
   2   3   3   18.03    1.40
   2   3   3   18.17    1.39
  -2   3  -3   20.68    1.39
  -2   3  -3   17.91    1.39
  -3  -3  -3    4.66    0.40
   3  -3   3    4.70    0.38
  -3  -3  -3    4.45    0.37
  -3  -3  -3    5.41    0.39
   3  -3   3    3.76    0.40
   3  -3   3    4.38    0.39
  -3  -3  -3    4.14    0.39
   3   3   3    3.99    0.43
   3   3   3    4.79    0.45
  -3   3  -3    5.34    0.41
  -3   3  -3    4.56    0.44
  -3   3  -3    3.95    0.41
   3   3   3    4.69    0.43
   4  -3   3    4.71    0.41
  -4  -3  -3    4.48    0.42
   4  -3   3    5.01    0.42
  -4  -3  -3    4.73    0.44
  -4  -3  -3    4.70    0.41
  -4  -3  -3    4.54    0.42
   4  -3   3    4.91    0.45
   4  -3   3    4.88    0.42
   4   3   3    5.18    0.45
  -4   3  -3    4.59    0.49
   4   3   3    5.03    0.48
  -4   3  -3    5.21    0.46
   4   3   3    5.48    0.50
  -4   3  -3    4.81    0.45
  -5  -3  -3   12.10    0.89
  -5  -3  -3   11.61    0.87
   5  -3   3    9.80    0.88
   5  -3   3   11.93    0.88
  -5  -3  -3   11.30    0.88
   5  -3   3   12.27    0.89
  -5  -3  -3   12.66    0.89
   5   3   3   11.47    0.92
  -5   3  -3   11.27    0.90
   5   3   3   10.91    0.90
  -5   3  -3   11.72    0.89
   5   3   3   11.37    0.91
  -5   3  -3   10.67    0.91
   6  -3   3    1.21    0.25
   6  -3   3    1.13    0.24
   6  -3   3    1.53    0.28
  -6  -3  -3    2.06    0.26
  -6  -3  -3    1.73    0.26
  -6  -3  -3    1.29    0.26
  -6   3  -3    1.58    0.31
   6   3   3    1.35    0.30
   6   3   3    1.30    0.32
  -6   3  -3    0.83    0.29
  -6   3  -3    1.94    0.26
   6   3   3    1.25    0.28
  -7  -3  -3    0.88    0.24
   7  -3   3    1.12    0.26
  -7  -3  -3    0.98    0.27
   7  -3   3    1.07    0.26
   7  -3   3    1.22    0.29
  -7  -3  -3    1.14    0.24
  -7   3  -3    0.86    0.32
  -7   3  -3    0.89    0.24
   7   3   3    1.20    0.31
   7   3   3    1.12    0.37
  -8  -3  -3    5.32    0.50
   8  -3   3    4.02    0.49
  -8  -3  -3    4.93    0.48
   8  -3   3    5.04    0.50
   8   3   3    4.94    0.55
  -8   3  -3    4.25    0.48
  -8   3  -3    6.07    0.58
  -9  -3  -3    5.45    0.55
  -9  -3  -3    5.96    0.58
   9  -3   3    6.19    0.62
  -9   3  -3    5.54    0.63
  -9   3  -3    5.46    0.57
   9   3   3    7.09    0.65
 -10  -3  -3   -0.13    0.29
  10  -3   3    0.14    0.33
 -10  -3  -3    0.33    0.30
 -10   3  -3    0.22    0.29
  10   3   3    0.07    0.35
 -10   3  -3    0.03    0.39
 -11  -3  -3    2.61    0.40
  11  -3   3    2.18    0.48
 -11  -3  -3    2.72    0.44
  11   3   3    2.29    0.49
 -11   3  -3    1.98    0.48
 -11   3  -3    2.93    0.46
 -12  -3  -3    1.92    0.45
  12  -3   3    1.65    0.56
 -12  -3  -3    1.55    0.42
 -12   3  -3    1.39    0.48
  12   3   3    0.93    0.50
 -12   3  -3    1.58    0.50
 -13  -4   3   -0.06    0.15
 -12  -4   3    1.05    0.41
 -12  -4   3    0.96    0.18
  12  -4  -3    0.76    0.40
  12  -4  -3    1.50    0.49
  12   4  -3    1.09    0.52
 -12   4   3    0.75    0.25
 -11  -4   3    2.70    0.43
 -11  -4   3    2.59    0.27
  11  -4  -3    2.55    0.48
  11   4  -3    2.70    0.50
 -11   4   3    2.57    0.33
  10  -4  -3    0.17    0.33
 -10  -4   3    0.51    0.29
  10  -4  -3   -0.32    0.27
 -10  -4   3   -0.04    0.14
 -10   4   3   -0.03    0.20
  10   4  -3   -0.03    0.34
   9  -4  -3    3.15    0.41
  -9  -4   3    2.52    0.27
   9  -4  -3    3.27    0.38
  -9  -4   3    2.93    0.41
  -9   4   3    2.73    0.33
   9   4  -3    2.96    0.42
  -8  -4   3    2.12    0.33
   8  -4  -3    2.44    0.30
  -8  -4   3    1.83    0.21
   8  -4  -3    2.34    0.35
  -8   4   3    1.74    0.28
   8   4  -3    1.57    0.32
   7  -4  -3    0.54    0.25
   7  -4  -3    0.18    0.19
  -7  -4   3    0.19    0.12
  -7  -4   3    0.05    0.22
   7  -4  -3    0.26    0.26
   7   4  -3    0.24    0.25
  -7   4   3    0.34    0.21
  -6  -4   3   12.18    0.92
   6  -4  -3   10.21    0.89
  -6  -4   3   12.38    0.87
   6  -4  -3   11.64    0.92
   6  -4  -3   11.78    0.94
  -6  -4   3   11.89    0.92
   6   4  -3   11.63    0.92
  -6   4   3   12.38    0.92
  -5  -4   3    0.64    0.22
  -5  -4   3    1.00    0.22
   5  -4  -3    0.56    0.24
  -5  -4   3    0.62    0.13
   5  -4  -3    0.98    0.19
   5  -4  -3    0.59    0.21
   5   4  -3    0.52    0.21
  -5   4   3    0.84    0.22
   4  -4  -3    0.50    0.16
   4  -4  -3    0.52    0.20
  -4  -4   3    0.67    0.12
  -4  -4   3    0.60    0.20
  -4  -4   3    0.28    0.18
   4  -4  -3    0.42    0.18
  -4   4   3    0.43    0.18
   4   4  -3    0.84    0.18
  -4   4   3    0.29    0.18
   3  -4  -3    3.97    0.32
  -3  -4   3    3.07    0.34
  -3  -4   3    2.65    0.32
   3  -4  -3    2.63    0.33
  -3  -4   3    2.58    0.26
   3  -4  -3    2.96    0.32
  -3   4   3    3.12    0.31
   3   4  -3    2.61    0.29
  -3   4   3    3.11    0.34
  -2  -4   3    8.34    0.64
  -2  -4   3    7.13    0.62
  -2  -4   3    7.68    0.59
   2  -4  -3    8.73    0.61
   2  -4  -3    7.29    0.64
  -2   4   3    8.05    0.65
  -2   4   3    7.30    0.62
  -1  -4   3    1.21    0.25
   1  -4  -3    2.06    0.23
   1  -4  -3    2.11    0.25
  -1  -4   3    2.02    0.26
   1  -4  -3    1.12    0.25
  -1  -4   3    1.78    0.20
   1   4  -3    2.39    0.26
   1   4  -3    1.69    0.23
  -1   4   3    1.76    0.27
  -1   4   3    1.47    0.24
   0  -4   3    0.18    0.17
   0  -4  -3   -0.06    0.17
   0  -4   3   -0.07    0.11
   0  -4   3    0.29    0.17
   0  -4  -3    0.11    0.18
   0  -4  -3   -0.04    0.14
   0   4  -3    0.21    0.16
   0   4  -3    0.17    0.20
   0   4   3   -0.03    0.17
   0   4   3   -0.04    0.18
  -1  -4  -3    9.16    0.74
  -1  -4  -3    9.31    0.73
   1  -4   3    9.60    0.77
  -1  -4  -3    8.99    0.76
  -1  -4  -3    9.89    0.72
   1  -4   3    9.41    0.73
   1   4   3    9.20    0.78
  -1   4  -3   10.81    0.76
  -1   4  -3   10.55    0.77
   1   4   3    9.24    0.76
  -2  -4  -3    0.27    0.18
  -2  -4  -3    0.34    0.14
  -2  -4  -3    0.08    0.17
  -2  -4  -3    0.19    0.16
   2  -4   3    0.54    0.14
   2  -4   3    0.27    0.18
   2  -4   3    0.26    0.14
   2   4   3    0.21    0.23
  -2   4  -3    0.26    0.19
  -2   4  -3    0.32    0.22
   2   4   3    0.10    0.20
  -2   4  -3    0.15    0.21
   2   4   3    0.23    0.26
   3  -4   3    1.48    0.20
   3  -4   3    0.96    0.23
  -3  -4  -3    1.60    0.24
  -3  -4  -3    1.38    0.23
  -3  -4  -3    1.44    0.24
  -3  -4  -3    0.89    0.20
   3  -4   3    1.32    0.22
  -3   4  -3    1.02    0.26
  -3   4  -3    1.89    0.29
   3   4   3    1.25    0.30
  -3   4  -3    1.80    0.27
   3   4   3    0.93    0.28
  -4  -4  -3   25.13    1.84
   4  -4   3   23.89    1.86
  -4  -4  -3   25.07    1.86
  -4  -4  -3   26.66    1.86
   4  -4   3   28.16    1.84
   4  -4   3   25.37    1.85
  -4  -4  -3   24.36    1.84
  -4   4  -3   24.64    1.85
  -4   4  -3   24.37    1.88
  -4   4  -3   24.75    1.86
   4   4   3   24.82    1.87
   4   4   3   24.51    1.87
   5  -4   3    0.84    0.26
  -5  -4  -3    0.53    0.23
  -5  -4  -3    0.37    0.19
  -5  -4  -3    0.67    0.23
   5  -4   3    0.55    0.21
   5  -4   3    0.33    0.21
  -5   4  -3    0.36    0.27
  -5   4  -3    0.53    0.30
   5   4   3    0.22    0.30
  -5   4  -3    0.63    0.24
   5   4   3    0.60    0.31
   6  -4   3    4.38    0.45
   6  -4   3    4.67    0.50
  -6  -4  -3    4.41    0.45
  -6  -4  -3    4.33    0.47
  -6  -4  -3    4.86    0.47
   6  -4   3    4.92    0.46
   6   4   3    4.80    0.54
  -6   4  -3    4.50    0.46
  -6   4  -3    3.49    0.49
   6   4   3    3.80    0.53
  -7  -4  -3    6.69    0.66
   7  -4   3    8.37    0.71
   7  -4   3    7.45    0.71
   7  -4   3    9.05    0.73
  -7  -4  -3    8.37    0.68
  -7   4  -3    7.82    0.71
  -7   4  -3    7.38    0.73
   7   4   3    7.98    0.78
  -8  -4  -3    1.17    0.31
   8  -4   3    1.60    0.33
  -8  -4  -3    1.36    0.29
  -8   4  -3    1.99    0.43
   8   4   3    1.65    0.44
  -8   4  -3    0.92    0.29
  -9  -4  -3    8.48    0.79
   9  -4   3    9.33    0.81
  -9  -4  -3    8.03    0.75
  -9   4  -3    8.22    0.78
  -9   4  -3    7.76    0.82
   9   4   3    9.05    0.89
 -10  -4  -3    0.65    0.39
 -10  -4  -3    0.65    0.33
  10  -4   3    0.85    0.39
 -10   4  -3    0.53    0.44
 -10   4  -3    0.88    0.33
 -11  -4  -3    0.22    0.36
 -11  -4  -3    0.25    0.39
  11  -4   3    0.59    0.49
 -11   4  -3   -0.07    0.36
 -11   4  -3   -0.13    0.47
 -12  -4  -3    0.08    0.40
  12  -4   3   -0.28    0.58
 -12  -4  -3    0.12    0.47
 -12   4  -3    0.16    0.50
 -11  -5   3    0.56    0.20
  11  -5  -3    0.71    0.39
  11  -5  -3    1.43    0.49
 -11  -5   3    1.15    0.43
 -11   5   3    0.70    0.30
  11   5  -3    1.03    0.48
  10  -5  -3    0.12    0.34
 -10  -5   3    0.45    0.18
 -10  -5   3    0.28    0.36
  10  -5  -3   -0.09    0.37
 -10   5   3    0.08    0.28
  10   5  -3    0.71    0.42
  -9  -5   3    2.30    0.26
   9  -5  -3    2.43    0.46
   9  -5  -3    2.74    0.39
  -9  -5   3    2.69    0.41
  -9   5   3    2.11    0.36
   9   5  -3    1.26    0.39
   8  -5  -3    0.76    0.30
  -8  -5   3    0.80    0.18
   8  -5  -3    0.66    0.35
  -8  -5   3    1.07    0.31
  -8   5   3    0.97    0.29
   8   5  -3    0.31    0.31
   7  -5  -3    3.33    0.38
  -7  -5   3    2.63    0.28
   7  -5  -3    3.39    0.46
   7  -5  -3    3.19    0.42
  -7  -5   3    2.04    0.38
   7   5  -3    2.72    0.41
  -7   5   3    2.61    0.37
  -6  -5   3    6.06    0.50
  -6  -5   3    5.71    0.58
   6  -5  -3    6.04    0.61
   6  -5  -3    6.55    0.57
   6  -5  -3    6.87    0.65
  -6  -5   3    5.79    0.60
  -6   5   3    6.19    0.59
   6   5  -3    6.15    0.60
   5  -5  -3    0.12    0.21
  -5  -5   3    0.20    0.26
   5  -5  -3    0.25    0.27
   5  -5  -3    0.24    0.26
  -5  -5   3    0.15    0.24
  -5  -5   3    0.08    0.13
   5   5  -3   -0.37    0.24
  -5   5   3    0.27    0.26
   4  -5  -3    8.22    0.72
  -4  -5   3    8.41    0.75
   4  -5  -3    9.02    0.75
   4  -5  -3    9.50    0.73
  -4  -5   3    9.37    0.74
  -4  -5   3    7.98    0.67
   4   5  -3    9.41    0.74
  -4   5   3    9.07    0.74
  -4   5   3    8.44    0.73
   3  -5  -3    4.52    0.40
   3  -5  -3    3.99    0.40
  -3  -5   3    4.19    0.43
   3  -5  -3    3.94    0.44
  -3  -5   3    3.29    0.39
  -3  -5   3    3.58    0.36
  -3   5   3    3.06    0.38
   3   5  -3    4.37    0.42
  -3   5   3    4.00    0.44
  -2  -5   3    1.98    0.22
  -2  -5   3    1.55    0.28
   2  -5  -3    1.30    0.25
   2  -5  -3    1.63    0.26
   2  -5  -3    1.50    0.29
  -2  -5   3    1.42    0.28
  -2   5   3    1.64    0.31
   2   5  -3    2.14    0.29
  -2   5   3    1.21    0.25
  -1  -5   3    5.89    0.57
  -1  -5   3    6.18    0.58
  -1  -5   3    6.19    0.53
   1  -5  -3    6.32    0.59
   1  -5  -3    7.36    0.56
   1   5  -3    6.37    0.58
  -1   5   3    5.79    0.54
   1   5  -3    6.74    0.58
  -1   5   3    7.49    0.62
   0  -5   3    1.18    0.27
   0  -5  -3    1.33    0.26
   0  -5  -3    1.06    0.23
   0  -5   3    0.95    0.20
   0  -5   3    0.63    0.25
   0   5  -3    1.04    0.26
   0   5  -3    1.01    0.25
   0   5   3    0.47    0.25
   0   5   3    1.06    0.24
   1  -5   3    2.08    0.25
   1  -5   3    2.09    0.31
  -1  -5  -3    2.23    0.31
  -1  -5  -3    1.53    0.26
  -1  -5  -3    1.86    0.31
  -1   5  -3    1.53    0.29
   1   5   3    1.64    0.29
  -1   5  -3    1.97    0.32
   1   5   3    1.89    0.34
   2  -5   3    4.45    0.42
   2  -5   3    4.59    0.49
  -2  -5  -3    4.52    0.45
  -2  -5  -3    4.10    0.46
   2   5   3    4.30    0.45
  -2   5  -3    5.58    0.51
   2   5   3    3.48    0.48
  -2   5  -3    4.26    0.45
  -3  -5  -3    0.39    0.27
  -3  -5  -3    0.80    0.24
   3  -5   3    0.53    0.29
   3  -5   3    0.92    0.21
   3   5   3    0.75    0.32
  -3   5  -3    0.84    0.30
  -3   5  -3    0.60    0.30
   3   5   3    1.08    0.29
  -4  -5  -3    1.10    0.30
  -4  -5  -3    0.96    0.29
   4  -5   3    1.60    0.27
   4  -5   3    1.24    0.30
  -4  -5  -3    1.07    0.27
  -4   5  -3    1.86    0.35
   4   5   3    1.51    0.38
  -5  -5  -3    3.61    0.44
   5  -5   3    3.98    0.44
  -5  -5  -3    3.59    0.43
   5  -5   3    3.62    0.48
  -5  -5  -3    4.52    0.44
  -5   5  -3    3.49    0.42
   5   5   3    4.03    0.55
  -6  -5  -3    0.14    0.26
  -6  -5  -3   -0.05    0.27
   6  -5   3   -0.07    0.28
   6  -5   3   -0.12    0.28
  -6  -5  -3    0.04    0.27
  -6   5  -3   -0.04    0.30
   7  -5   3    0.62    0.30
  -7  -5  -3    0.27    0.29
   7  -5   3   -0.05    0.30
  -7  -5  -3    0.10    0.30
   7  -5   3   -0.14    0.33
  -7   5  -3    0.07    0.28
  -8  -5  -3    2.59    0.38
  -8  -5  -3    1.59    0.38
   8  -5   3    2.99    0.46
  -8   5  -3    2.12    0.43
  -9  -5  -3    2.19    0.39
   9  -5   3    1.17    0.44
  -9  -5  -3    1.12    0.42
 -10  -5  -3    0.28    0.45
 -10  -5  -3   -0.08    0.36
  10  -5   3   -0.26    0.47
 -10   5  -3    0.49    0.53
 -11  -5  -3    1.01    0.50
 -11  -5  -3    1.54    0.44
 -11   5  -3    1.23    0.64
  10  -6  -3   -0.35    0.51
 -10  -6   3   -0.25    0.20
 -10  -6   3   -0.03    0.44
  10   6  -3   -0.03    0.49
 -10   6   3    0.50    0.38
  -9  -6   3    0.25    0.20
   9  -6  -3    0.83    0.42
  -9  -6   3    0.04    0.39
   9   6  -3    0.27    0.45
  -9   6   3    0.16    0.36
   8  -6  -3    1.04    0.42
  -8  -6   3    0.42    0.20
  -8  -6   3    0.37    0.36
  -8   6   3    0.76    0.35
   8   6  -3    0.22    0.40
   7  -6  -3   -0.01    0.32
   7  -6  -3    0.17    0.42
  -7  -6   3    0.35    0.19
   7  -6  -3   -0.02    0.33
  -7  -6   3    0.29    0.34
  -7   6   3    0.05    0.32
   7   6  -3    0.35    0.37
  -6  -6   3    2.26    0.29
   6  -6  -3    3.04    0.47
  -6  -6   3    2.48    0.45
   6  -6  -3    2.71    0.38
   6  -6  -3    3.62    0.46
  -6  -6   3    2.61    0.42
   6   6  -3    2.80    0.45
  -6   6   3    3.37    0.45
  -5  -6   3    0.16    0.32
   5  -6  -3    0.09    0.28
  -5  -6   3    0.16    0.18
   5  -6  -3   -0.32    0.26
   5  -6  -3   -0.05    0.33
  -5  -6   3    0.35    0.31
  -5   6   3    0.17    0.31
   5   6  -3    0.30    0.31
   4  -6  -3    0.10    0.28
   4  -6  -3    0.31    0.30
  -4  -6   3    0.16    0.18
  -4  -6   3    0.37    0.29
   4  -6  -3    0.17    0.31
  -4  -6   3    0.03    0.30
   4   6  -3    0.01    0.30
  -4   6   3    0.15    0.30
   3  -6  -3    0.23    0.28
  -3  -6   3    0.44    0.28
   3  -6  -3    0.89    0.27
  -3  -6   3    0.52    0.29
   3  -6  -3    0.46    0.32
  -3  -6   3    0.23    0.19
  -3   6   3    0.47    0.28
  -3   6   3   -0.04    0.32
   3   6  -3    0.32    0.30
  -2  -6   3    1.72    0.37
  -2  -6   3    2.30    0.38
   2  -6  -3    1.78    0.35
  -2  -6   3    0.97    0.24
   2   6  -3    1.31    0.34
   2   6  -3    1.47    0.38
  -2   6   3    2.46    0.40
  -1  -6   3    0.24    0.30
  -1  -6   3    0.62    0.21
  -1  -6   3    0.84    0.30
   1  -6  -3    0.39    0.29
   1   6  -3    0.31    0.32
  -1   6   3    0.14    0.30
   0  -6   3    0.07    0.26
   0  -6   3   -0.18    0.19
   0  -6   3   -0.21    0.32
   0  -6  -3    0.08    0.27
   0   6  -3    0.24    0.32
   0   6   3    0.08    0.33
   0   6  -3   -0.37    0.31
   1  -6   3    0.85    0.30
  -1  -6  -3    1.30    0.36
   1  -6   3    1.73    0.27
  -1   6  -3    1.43    0.41
  -1   6  -3    1.30    0.34
   1   6   3    1.46    0.40
  -2  -6  -3    0.46    0.31
   2  -6   3    0.37    0.30
   2  -6   3    0.18    0.22
  -2   6  -3    0.35    0.33
   2   6   3    0.15    0.37
   3  -6   3    0.48    0.26
   3  -6   3    0.33    0.34
  -3  -6  -3    0.79    0.32
  -3  -6  -3    0.66    0.35
  -3   6  -3    0.27    0.35
   3   6   3    0.34    0.37
  -4  -6  -3    7.35    0.62
   4  -6   3    5.74    0.66
   4  -6   3    6.03    0.61
  -4  -6  -3    5.49    0.65
   5  -6   3    0.47    0.37
  -5  -6  -3   -0.20    0.32
  -5  -6  -3    0.45    0.36
   5  -6   3    0.41    0.32
   6  -6   3    1.49    0.38
  -6  -6  -3    1.73    0.40
  -6  -6  -3    1.32    0.37
   6  -6   3    1.23    0.40
  -7  -6  -3    1.75    0.39
   7  -6   3    0.99    0.41
  -8  -6  -3    0.57    0.36
  -9  -6  -3    2.80    0.51
  -8  -7   3   -0.19    0.45
  -8  -7   3    0.38    0.27
  -8   7   3   -0.14    0.44
   8   7  -3    0.59    0.53
  -7  -7   3    0.10    0.49
  -7  -7   3   -0.02    0.24
   7  -7  -3    1.02    0.55
   7   7  -3    0.32    0.48
  -7   7   3    0.39    0.43
  -6  -7   3    1.83    0.44
  -6  -7   3    1.17    0.46
  -6  -7   3    1.08    0.27
   6  -7  -3    1.21    0.48
  -6   7   3    0.73    0.46
   6   7  -3    1.08    0.43
   5  -7  -3   -0.22    0.41
  -5  -7   3    0.13    0.41
  -5  -7   3    0.01    0.22
  -5  -7   3    0.33    0.40
   5   7  -3    0.08    0.42
  -5   7   3    0.27    0.40
   4  -7  -3    1.84    0.51
  -4  -7   3    1.06    0.44
  -4  -7   3    1.08    0.27
  -4  -7   3    1.29    0.39
  -4   7   3    0.58    0.41
   4   7  -3    2.13    0.47
   3  -7  -3    0.98    0.41
  -3  -7   3    0.61    0.25
  -3  -7   3    1.73    0.45
  -3  -7   3    1.77    0.40
  -3   7   3    1.00    0.44
   3   7  -3    1.52    0.47
   3   7  -3    1.06    0.44
  -2  -7   3    0.71    0.45
   2  -7  -3    0.09    0.36
  -2  -7   3    0.65    0.26
  -2  -7   3    0.69    0.36
   2   7  -3    0.34    0.37
   2   7  -3    0.78    0.40
  -2   7   3    0.31    0.42
  -1  -7   3    0.42    0.26
   1  -7  -3    0.78    0.42
  -1  -7   3    0.92    0.36
  -1   7   3    0.18    0.38
   0  -7  -3    0.20    0.36
   0  -7   3    0.67    0.35
   0  -7   3    0.58    0.27
   0   7   3   -0.19    0.42
  -1  -7  -3    0.49    0.37
   1  -7   3    0.73    0.38
   1  -7   3    0.58    0.28
   1   7   3    0.58    0.47
   2  -7   3    0.30    0.30
  -2  -7  -3    0.77    0.42
   2  -7   3    0.60    0.42
   2   7   3    0.22    0.49
   3  -7   3    0.04    0.42
   3  -7   3    0.07    0.30
  -3  -7  -3    0.76    0.39
   4  -7   3   -0.12    0.38
  -4  -7  -3    0.19    0.39
   4  -7   3    0.28    0.31
   5  -7   3    1.70    0.52
  -5  -7  -3    0.64    0.37
   5  -7   3    1.45    0.38
  -5  -7  -3    0.60    0.48
   6  -7   3    0.47    0.40
   6  -7   3   -0.11    0.50
  -6  -7  -3    0.32    0.44
  -6  -7  -3    0.31    0.37
  -7  -7  -3    0.10    0.42
   7  -7   3    0.21    0.52
  -5  -8   3    0.17    0.30
  -5   8   3    0.20    0.56
   4  -8  -3   -0.05    0.59
  -4  -8   3   -0.31    0.31
  -4  -8   3   -0.64    0.52
  -4   8   3    0.01    0.53
   3  -8  -3    0.00    0.51
  -3  -8   3    0.06    0.52
  -3  -8   3    0.12    0.31
  -3   8   3    0.01    0.56
  -2  -8   3    0.11    0.52
  -2  -8   3    0.13    0.32
   2  -8  -3    0.34    0.55
  -2   8   3    0.24    0.52
  -1  -8   3   -0.19    0.45
  -1  -8   3    0.21    0.33
   1  -8  -3   -0.13    0.53
  -1   8   3    0.62    0.58
   0  -8   3   -0.17    0.32
   0  -8   3   -0.35    0.44
   0  -8  -3   -0.35    0.48
   0   8   3   -0.08    0.55
   1  -8   3    0.01    0.45
   1  -8   3   -0.05    0.36
  -1  -8  -3    0.39    0.51
   2  -8   3    0.14    0.36
  -2  -8  -3   -0.10    0.51
   2  -8   3    0.29    0.54
  -3  -8  -3   -0.09    0.51
   3  -8   3   -0.08    0.48
   3  -8   3    0.22    0.39
   4  -8   3    0.65    0.45
  -4  -8  -3    1.24    0.58
   4  -8   3    0.48    0.60
  14   0  -4    0.24    0.41
  14   0  -4    0.20    0.47
 -14   0   4    0.39    0.42
 -13   0   4   -0.24    0.35
  13   0  -4   -0.57    0.41
  13   0  -4    0.14    0.31
  12   0  -4    5.93    0.63
 -12   0   4    5.45    0.55
  12   0  -4    5.07    0.54
  11   0  -4    0.26    0.23
 -11   0   4    1.15    0.27
  11   0  -4    1.26    0.33
  10   0  -4    0.24    0.18
  10   0  -4    0.12    0.28
 -10   0   4   -0.07    0.23
   9   0  -4   21.93    1.71
  -9   0   4   24.51    1.71
   9   0  -4   23.04    1.69
   8   0  -4    0.41    0.19
   8   0  -4    0.67    0.14
  -8   0   4    0.83    0.20
   7   0  -4    5.61    0.52
   7   0  -4    5.83    0.48
  -7   0   4    7.26    0.50
   6   0  -4    1.11    0.13
   6   0  -4    1.08    0.19
  -6   0   4    1.65    0.19
   6   0  -4    1.09    0.16
   6   0  -4    1.12    0.15
   5   0  -4    8.21    0.60
  -5   0   4    8.34    0.62
   5   0  -4    7.84    0.59
   5   0  -4    7.85    0.62
  -5   0   4    8.49    0.62
  -5   0   4    8.71    0.63
   5   0  -4    8.09    0.63
  -4   0   4   31.46    2.18
   4   0  -4   29.60    2.15
  -4   0   4   30.24    2.19
   4   0  -4   30.04    2.15
  -4   0   4   31.76    2.17
   4   0  -4   29.72    2.19
   4   0  -4   30.56    2.18
  -3   0   4    1.29    0.18
  -3   0   4    1.03    0.15
  -3   0   4    1.18    0.14
  -2   0   4   75.93    5.58
  -2   0   4   78.50    5.56
  -2   0   4   80.18    5.56
  -1   0   4   18.10    1.28
  -1   0   4   18.11    1.28
   1   0  -4   18.21    1.25
   1   0  -4   16.60    1.26
  -1   0   4   17.67    1.30
   0   0  -4    6.18    0.50
   0   0   4    7.57    0.53
   0   0  -4    6.73    0.53
   0   0   4    7.13    0.50
   0   0  -4    6.75    0.51
   0   0   4    6.28    0.55
   0   0   4    7.12    0.50
   1   0   4  194.01   13.91
  -1   0  -4  185.87   13.91
  -1   0  -4  195.44   13.92
   1   0   4  201.93   13.93
   1   0   4  205.82   13.92
   1   0   4  195.18   13.94
  -2   0  -4   11.53    0.88
   2   0   4   12.46    0.89
  -2   0  -4   13.25    0.91
   2   0   4   12.53    0.91
  -2   0  -4   11.43    0.89
   2   0   4   11.54    0.88
   3   0   4   59.81    4.39
   3   0   4   59.52    4.39
   3   0   4   62.01    4.40
  -3   0  -4   60.84    4.40
   3   0   4   62.60    4.42
  -3   0  -4   64.47    4.40
  -3   0  -4   62.75    4.40
  -4   0  -4   33.63    2.54
  -4   0  -4   35.03    2.54
   4   0   4   35.56    2.55
   4   0   4   37.98    2.54
   4   0   4   33.96    2.54
   4   0   4   36.18    2.56
  -4   0  -4   35.14    2.55
  -5   0  -4    0.15    0.19
  -5   0  -4    0.36    0.19
  -5   0  -4    0.20    0.15
   5   0   4    0.37    0.16
   5   0   4    0.20    0.14
   5   0   4    0.50    0.15
  -5   0  -4    0.50    0.17
   5   0   4    0.26    0.19
  -6   0  -4   14.29    1.19
  -6   0  -4   17.33    1.21
   6   0   4   16.01    1.20
   6   0   4   16.61    1.21
   6   0   4   15.79    1.20
  -6   0  -4   17.36    1.22
   6   0   4   15.86    1.19
  -6   0  -4   14.89    1.19
  -7   0  -4    5.75    0.53
   7   0   4    5.57    0.54
   7   0   4    5.38    0.55
   7   0   4    5.92    0.52
  -7   0  -4    6.46    0.55
  -7   0  -4    6.52    0.52
  -7   0  -4    5.87    0.55
  -8   0  -4    4.87    0.46
   8   0   4    5.21    0.49
   8   0   4    4.36    0.47
  -8   0  -4    3.89    0.47
  -9   0  -4    0.07    0.23
   9   0   4   -0.06    0.32
  -9   0  -4    0.34    0.29
   9   0   4    0.15    0.25
  10   0   4    0.73    0.32
 -10   0  -4    0.43    0.30
 -10   0  -4    0.65    0.32
 -11   0  -4    4.56    0.55
 -11   0  -4    5.58    0.59
  11   0   4    4.60    0.61
 -12   0  -4    0.29    0.34
 -12   0  -4    0.11    0.37
  12   0   4    0.23    0.42
 -13   0  -4    0.18    0.43
  13   0   4   -0.18    0.47
 -13   0  -4   -0.02    0.42
  14  -1  -4    0.19    0.47
 -14  -1   4    0.38    0.40
  14  -1  -4    0.49    0.40
  14   1  -4    0.84    0.45
  14   1  -4    0.82    0.52
  13  -1  -4    0.77    0.34
  13  -1  -4    0.84    0.41
 -13  -1   4    0.81    0.39
  13   1  -4    1.04    0.39
  13   1  -4    0.35    0.45
  12  -1  -4    1.39    0.38
 -12  -1   4    1.46    0.33
  12  -1  -4    0.92    0.28
 -12   1   4    1.52    0.35
  12   1  -4    0.96    0.36
  12   1  -4    1.05    0.32
  11  -1  -4    0.25    0.31
  11  -1  -4    0.00    0.21
 -11  -1   4    0.55    0.30
 -11   1   4    0.12    0.24
 -11   1   4    0.32    0.07
  11   1  -4    0.57    0.24
  11   1  -4    0.49    0.33
  10  -1  -4    9.23    0.79
  10  -1  -4    9.50    0.74
 -10  -1   4    9.79    0.76
  10   1  -4    8.79    0.75
  10   1  -4   11.10    0.79
 -10   1   4   10.79    0.77
 -10   1   4    8.65    0.67
  -9  -1   4    1.30    0.24
   9  -1  -4    1.10    0.26
   9  -1  -4    0.84    0.18
   9   1  -4    1.09    0.28
   9   1  -4    0.87    0.20
  -9   1   4    0.98    0.10
  -9   1   4    1.17    0.21
  -9   1   4    1.05    0.09
   8  -1  -4    4.56    0.51
   8  -1  -4    5.15    0.44
  -8  -1   4    5.85    0.49
   8   1  -4    5.24    0.45
   8   1  -4    5.39    0.49
  -8   1   4    6.07    0.47
   7  -1  -4   35.48    2.62
  -7  -1   4   36.56    2.64
   7  -1  -4   35.88    2.65
  -7   1   4   38.20    2.63
   7   1  -4   37.21    2.64
   7   1  -4   36.54    2.62
  -6  -1   4    3.41    0.29
   6  -1  -4    2.30    0.21
   6  -1  -4    2.20    0.24
   6  -1  -4    2.18    0.27
   6  -1  -4    3.16    0.26
  -6  -1   4    2.30    0.25
   6   1  -4    2.04    0.21
  -6   1   4    2.53    0.24
   6   1  -4    2.52    0.26
   6   1  -4    2.27    0.23
  -5  -1   4    6.20    0.44
   5  -1  -4    4.73    0.44
   5  -1  -4    5.10    0.41
  -5  -1   4    6.57    0.46
   5  -1  -4    5.34    0.43
   5  -1  -4    5.06    0.43
  -5   1   4    5.81    0.42
   5   1  -4    5.44    0.44
   5   1  -4    5.31    0.41
   5   1  -4    5.36    0.40
  -5   1   4    5.31    0.44
   4  -1  -4   81.73    5.78
  -4  -1   4   83.81    5.79
   4  -1  -4   79.93    5.79
  -4  -1   4   81.50    5.77
  -4  -1   4   78.93    5.78
   4  -1  -4   81.42    5.76
   4  -1  -4   80.12    5.77
  -4   1   4   84.59    5.77
   4   1  -4   81.18    5.78
  -4   1   4   82.96    5.79
   4   1  -4   80.79    5.76
   4   1  -4   78.75    5.76
  -3  -1   4    1.73    0.20
  -3  -1   4    1.45    0.17
   3  -1  -4    1.79    0.19
   3  -1  -4    1.46    0.13
   3  -1  -4    1.23    0.12
  -3  -1   4    1.60    0.16
   3   1  -4    1.03    0.15
  -3   1   4    1.45    0.17
  -3   1   4    1.48    0.14
  -2  -1   4    1.97    0.19
  -2  -1   4    2.89    0.25
   2  -1  -4    1.88    0.18
  -2  -1   4    2.01    0.20
   2  -1  -4    1.80    0.21
   2  -1  -4    1.95    0.16
  -2   1   4    2.22    0.18
  -2   1   4    2.34    0.21
   2   1  -4    2.04    0.16
   2   1  -4    2.04    0.15
  -1  -1   4   99.80    7.07
   1  -1  -4   98.25    7.08
   1  -1  -4  101.38    7.06
   1  -1  -4  100.57    7.05
  -1  -1   4  100.57    7.08
  -1  -1   4   96.90    7.06
   1  -1  -4   98.71    7.05
   1   1  -4   98.87    7.05
  -1   1   4   98.24    7.05
  -1   1   4  100.12    7.05
  -1   1   4   98.52    7.08
   1   1  -4   97.14    7.07
  -1   1   4   99.79    7.08
   1   1  -4  103.47    7.05
   0  -1  -4   15.26    1.03
   0  -1   4   14.64    1.02
   0  -1   4   15.23    1.05
   0  -1   4   15.09    1.06
   0  -1   4   14.19    1.02
   0  -1  -4   14.32    1.03
   0  -1  -4   13.92    1.06
   0   1  -4   12.69    1.05
   0   1   4   15.24    1.06
   0   1   4   14.51    1.03
   0   1   4   13.45    1.06
   0   1  -4   14.57    1.03
   0   1   4   13.74    1.03
   0   1  -4   13.01    1.03
   1  -1   4    0.60    0.09
   1  -1   4    0.54    0.16
  -1  -1  -4    0.46    0.10
   1  -1   4    0.70    0.12
  -1  -1  -4    0.67    0.15
  -1  -1  -4    0.45    0.09
   1  -1   4    0.61    0.12
  -1   1  -4    0.62    0.11
   1   1   4    0.53    0.10
   1   1   4    0.38    0.15
   1   1   4    0.44    0.14
  -1   1  -4    0.55    0.14
   2  -1   4    9.75    0.70
   2  -1   4    9.41    0.73
  -2  -1  -4   10.63    0.73
  -2  -1  -4    9.84    0.71
   2  -1   4   10.33    0.72
  -2  -1  -4    9.42    0.72
  -2  -1  -4    9.67    0.71
  -2   1  -4    9.03    0.71
   2   1   4    9.47    0.72
   2   1   4    9.34    0.73
  -2   1  -4    8.75    0.72
  -2   1  -4    9.03    0.72
   2   1   4    8.56    0.73
   3  -1   4   34.58    2.44
  -3  -1  -4   34.23    2.45
   3  -1   4   35.94    2.45
   3  -1   4   35.49    2.44
  -3  -1  -4   33.76    2.46
   3  -1   4   31.96    2.46
  -3  -1  -4   34.74    2.45
  -3  -1  -4   34.54    2.45
  -3   1  -4   33.68    2.45
  -3   1  -4   34.21    2.46
   3   1   4   35.13    2.45
   3   1   4   32.16    2.46
   3   1   4   32.82    2.46
  -3   1  -4   33.83    2.46
  -4  -1  -4    0.25    0.14
  -4  -1  -4    0.33    0.15
   4  -1   4    0.33    0.15
   4  -1   4    0.35    0.17
  -4  -1  -4    0.37    0.14
   4  -1   4    0.33    0.14
  -4  -1  -4    0.34    0.15
   4  -1   4    0.28    0.13
   4   1   4    0.52    0.16
   4   1   4    0.28    0.16
   4   1   4    0.46    0.16
  -4   1  -4    0.29    0.17
  -4   1  -4    0.27    0.15
  -4   1  -4    0.60    0.16
   4   1   4    0.31    0.15
   5  -1   4    6.94    0.63
   5  -1   4    7.53    0.58
  -5  -1  -4    6.97    0.58
  -5  -1  -4    7.79    0.60
  -5  -1  -4    8.01    0.59
   5  -1   4    7.14    0.58
  -5  -1  -4    8.51    0.60
   5  -1   4    7.28    0.59
  -5   1  -4    6.98    0.59
  -5   1  -4    6.30    0.60
   5   1   4    7.05    0.59
   5   1   4    6.84    0.59
   5   1   4    6.84    0.59
  -5   1  -4    7.70    0.60
   6  -1   4   38.20    2.76
  -6  -1  -4   36.93    2.74
  -6  -1  -4   37.85    2.73
   6  -1   4   38.37    2.74
   6  -1   4   38.42    2.73
  -6  -1  -4   41.74    2.74
  -6  -1  -4   37.31    2.73
   6   1   4   37.80    2.74
   6   1   4   35.39    2.74
   6   1   4   34.51    2.74
  -6   1  -4   39.10    2.76
  -6   1  -4   40.51    2.74
  -6   1  -4   37.13    2.74
  -7  -1  -4   10.13    0.82
   7  -1   4   10.02    0.86
   7  -1   4   10.60    0.84
  -7  -1  -4   10.19    0.81
   7  -1   4   10.13    0.83
  -7  -1  -4   10.24    0.83
  -7   1  -4   11.56    0.83
   7   1   4   10.05    0.86
  -7   1  -4   10.22    0.86
   7   1   4   11.24    0.84
  -7   1  -4   10.26    0.86
  -8  -1  -4    5.14    0.54
  -8  -1  -4    6.07    0.55
   8  -1   4    6.81    0.56
   8  -1   4    5.38    0.57
  -8   1  -4    5.86    0.54
  -8   1  -4    5.22    0.57
   8   1   4    7.47    0.60
   8   1   4    5.11    0.57
   9  -1   4    5.12    0.56
   9  -1   4    5.88    0.57
  -9  -1  -4    5.64    0.55
  -9  -1  -4    5.65    0.56
  -9   1  -4    4.70    0.57
   9   1   4    5.34    0.55
  -9   1  -4    4.99    0.53
 -10  -1  -4    0.04    0.31
 -10  -1  -4    0.09    0.28
  10  -1   4   -0.08    0.30
 -10   1  -4    0.13    0.34
  10   1   4   -0.21    0.29
 -10   1  -4    0.06    0.27
  11  -1   4    2.80    0.47
 -11  -1  -4    3.16    0.48
 -11  -1  -4    3.99    0.49
 -11   1  -4    3.15    0.49
  11   1   4    3.77    0.54
 -11   1  -4    4.40    0.55
 -12  -1  -4    3.21    0.49
  12  -1   4    3.19    0.52
 -12  -1  -4    1.93    0.50
  12   1   4    3.74    0.59
 -12   1  -4    3.09    0.52
 -12   1  -4    3.29    0.52
 -13  -1  -4    0.32    0.43
  13  -1   4   -0.09    0.51
 -13  -1  -4   -0.21    0.43
 -13   1  -4   -0.12    0.43
  13   1   4    1.34    0.53
 -13   1  -4    0.66    0.48
 -14  -2   4    0.19    0.41
  14  -2  -4    0.28    0.49
  14  -2  -4    0.04    0.40
  14   2  -4    0.40    0.50
 -13  -2   4    0.25    0.35
  13  -2  -4    0.08    0.31
  13  -2  -4   -0.22    0.40
  13   2  -4   -0.21    0.39
 -13   2   4    0.12    0.12
  12  -2  -4    4.65    0.54
 -12  -2   4    3.40    0.46
  12  -2  -4    3.81    0.44
  12   2  -4    4.69    0.51
 -12   2   4    3.37    0.31
 -11  -2   4    0.69    0.29
  11  -2  -4    0.84    0.26
  11  -2  -4    0.52    0.33
 -11   2   4    0.52    0.13
  11   2  -4    0.44    0.29
 -10  -2   4    0.30    0.24
  10  -2  -4   -0.14    0.27
  10  -2  -4    0.01    0.19
  10   2  -4    0.33    0.29
 -10   2   4    0.25    0.11
  10   2  -4    0.22    0.25
  -9  -2   4   15.77    1.21
   9  -2  -4   16.84    1.23
   9  -2  -4   15.57    1.19
  -9   2   4   15.99    1.15
   9   2  -4   15.57    1.22
   9   2  -4   16.17    1.22
   8  -2  -4    0.45    0.24
   8  -2  -4    0.04    0.15
  -8  -2   4    0.52    0.21
   8   2  -4    0.18    0.19
  -8   2   4    0.34    0.16
   8   2  -4    0.40    0.19
  -8   2   4    0.38    0.09
   7  -2  -4    4.57    0.38
   7  -2  -4    4.33    0.44
   7  -2  -4    3.97    0.43
  -7  -2   4    4.60    0.42
   7   2  -4    4.15    0.41
  -7   2   4    5.01    0.38
   7   2  -4    4.23    0.41
  -7   2   4    4.73    0.35
  -7   2   4    4.62    0.35
  -6  -2   4    0.52    0.17
   6  -2  -4    0.47    0.12
   6  -2  -4    0.50    0.16
   6  -2  -4    0.57    0.17
  -6  -2   4    0.65    0.17
   6   2  -4    0.68    0.16
  -6   2   4    0.76    0.13
  -6   2   4    0.41    0.09
   6   2  -4    0.41    0.14
  -6   2   4    0.79    0.10
  -5  -2   4    5.07    0.44
   5  -2  -4    4.90    0.44
  -5  -2   4    5.23    0.44
   5  -2  -4    4.88    0.45
   5  -2  -4    5.25    0.41
   5   2  -4    5.10    0.42
  -5   2   4    4.98    0.44
  -5   2   4    5.47    0.39
  -5   2   4    5.59    0.39
   5   2  -4    4.52    0.42
  -5   2   4    5.48    0.40
   5   2  -4    5.04    0.41
  -4  -2   4   18.27    1.30
  -4  -2   4   18.34    1.30
   4  -2  -4   18.50    1.31
   4  -2  -4   17.26    1.30
   4  -2  -4   17.25    1.28
   4  -2  -4   17.09    1.31
   4   2  -4   17.03    1.28
  -4   2   4   18.50    1.28
   4   2  -4   17.79    1.28
  -4   2   4   17.69    1.27
  -4   2   4   17.53    1.31
  -4   2   4   18.86    1.27
   4   2  -4   16.90    1.29
  -3  -2   4    1.23    0.13
   3  -2  -4    1.40    0.20
  -3  -2   4    1.15    0.17
  -3  -2   4    1.93    0.21
   3  -2  -4    1.46    0.14
   3  -2  -4    1.12    0.12
  -3   2   4    1.34    0.13
   3   2  -4    1.38    0.14
  -3   2   4    1.45    0.12
   3   2  -4    1.10    0.13
  -3   2   4    1.03    0.17
  -3   2   4    1.10    0.13
   3   2  -4    1.20    0.13
  -2  -2   4   46.82    3.25
   2  -2  -4   43.49    3.27
   2  -2  -4   45.70    3.25
  -2  -2   4   47.68    3.27
  -2  -2   4   45.42    3.27
  -2   2   4   45.05    3.25
  -2   2   4   44.22    3.27
   2   2  -4   43.44    3.25
  -2   2   4   47.59    3.25
   2   2  -4   47.05    3.25
  -1  -2   4   10.60    0.82
  -1  -2   4   11.20    0.80
   1  -2  -4   10.89    0.80
  -1  -2   4   10.53    0.82
  -1  -2   4   10.97    0.79
   1  -2  -4   10.68    0.82
  -1  -2   4   10.81    0.78
   1  -2  -4   11.19    0.78
   1   2  -4   11.03    0.82
  -1   2   4   11.05    0.80
   1   2  -4    9.83    0.79
  -1   2   4   11.88    0.80
   1   2  -4   10.95    0.79
  -1   2   4   10.52    0.82
   0  -2   4    5.29    0.39
   0  -2   4    5.31    0.37
   0  -2   4    5.17    0.39
   0  -2   4    4.50    0.41
   0  -2  -4    4.58    0.41
   0  -2  -4    4.52    0.38
   0  -2  -4    4.63    0.37
   0  -2   4    4.85    0.41
   0   2   4    4.97    0.42
   0   2  -4    4.96    0.42
   0   2  -4    5.31    0.38
   0   2   4    4.38    0.39
  -1  -2  -4  113.25    7.34
  -1  -2  -4  106.94    7.33
  -1  -2  -4  103.27    7.33
  -1  -2  -4  100.60    7.35
   1  -2   4   98.30    7.33
   1  -2   4  105.04    7.33
   1  -2   4   98.96    7.35
  -1   2  -4  101.47    7.34
   1   2   4  103.06    7.36
   1   2   4  101.94    7.34
  -1   2  -4  103.13    7.35
   2  -2   4    8.48    0.70
  -2  -2  -4    8.59    0.67
   2  -2   4    8.71    0.67
   2  -2   4    9.62    0.68
  -2  -2  -4   10.51    0.71
  -2  -2  -4    9.42    0.67
  -2  -2  -4    9.22    0.68
   2   2   4    9.66    0.69
  -2   2  -4    8.62    0.68
   2   2   4    8.01    0.69
  -2   2  -4    8.67    0.70
  -2   2  -4    8.61    0.70
   2   2   4    8.51    0.71
  -3  -2  -4   41.67    2.94
  -3  -2  -4   42.27    2.96
  -3  -2  -4   43.35    2.95
   3  -2   4   41.73    2.95
   3  -2   4   41.49    2.94
  -3  -2  -4   40.00    2.94
   3  -2   4   39.54    2.94
   3  -2   4   39.13    2.96
   3   2   4   41.89    2.97
   3   2   4   42.80    2.95
  -3   2  -4   42.57    2.95
  -3   2  -4   38.51    2.96
  -3   2  -4   39.61    2.96
   3   2   4   41.11    2.96
  -4  -2  -4   23.47    1.72
  -4  -2  -4   24.50    1.71
   4  -2   4   23.53    1.71
   4  -2   4   24.89    1.70
  -4  -2  -4   22.14    1.70
   4  -2   4   21.66    1.72
  -4  -2  -4   24.07    1.71
   4  -2   4   23.15    1.71
   4   2   4   22.36    1.73
  -4   2  -4   24.54    1.73
   4   2   4   24.32    1.72
  -4   2  -4   23.03    1.72
   4   2   4   24.11    1.74
  -4   2  -4   23.77    1.72
   5  -2   4    0.17    0.16
  -5  -2  -4   -0.01    0.15
  -5  -2  -4   -0.03    0.17
  -5  -2  -4   -0.04    0.16
   5  -2   4    0.00    0.19
  -5  -2  -4   -0.11    0.15
   5  -2   4    0.06    0.18
   5   2   4    0.01    0.20
   5   2   4   -0.11    0.20
  -5   2  -4    0.16    0.18
  -5   2  -4    0.25    0.19
  -5   2  -4    0.06    0.21
   5   2   4   -0.19    0.19
  -6  -2  -4   11.28    0.84
  -6  -2  -4   10.98    0.84
  -6  -2  -4   11.04    0.84
   6  -2   4   10.81    0.85
   6  -2   4   10.87    0.87
   6  -2   4    9.21    0.83
  -6  -2  -4   10.23    0.83
   6   2   4   10.46    0.87
  -6   2  -4   12.04    0.87
   6   2   4   10.39    0.86
  -6   2  -4   11.06    0.88
  -6   2  -4   11.25    0.85
   7  -2   4    4.39    0.44
  -7  -2  -4    3.72    0.42
  -7  -2  -4    4.42    0.43
  -7  -2  -4    4.52    0.43
   7  -2   4    3.70    0.46
   7  -2   4    3.35    0.42
   7   2   4    3.95    0.45
  -7   2  -4    4.09    0.48
  -7   2  -4    4.85    0.44
   7   2   4    4.43    0.49
  -8  -2  -4    4.32    0.44
   8  -2   4    3.49    0.42
   8  -2   4    3.46    0.43
  -8  -2  -4    3.40    0.41
   8   2   4    4.03    0.49
   8   2   4    3.35    0.43
  -8   2  -4    3.51    0.41
  -8   2  -4    2.98    0.45
   9  -2   4    0.22    0.29
  -9  -2  -4    0.16    0.26
  -9  -2  -4   -0.10    0.26
   9  -2   4    0.02    0.32
  -9   2  -4    0.14    0.30
  -9   2  -4    0.05    0.25
   9   2   4    0.15    0.29
 -10  -2  -4    0.84    0.32
  10  -2   4    0.18    0.32
 -10  -2  -4    0.11    0.30
 -10   2  -4    0.50    0.39
 -10   2  -4    0.29    0.30
  10   2   4    0.24    0.32
 -11  -2  -4    2.64    0.46
 -11  -2  -4    3.39    0.47
  11  -2   4    2.88    0.47
 -11   2  -4    4.09    0.50
  11   2   4    3.14    0.54
 -11   2  -4    4.10    0.57
  12  -2   4    0.03    0.40
 -12  -2  -4   -0.23    0.36
 -12  -2  -4    0.08    0.44
  12   2   4    0.06    0.44
 -12   2  -4    0.13    0.45
 -12   2  -4   -0.03    0.43
  13  -3  -4    0.02    0.46
  13  -3  -4    0.18    0.37
 -13  -3   4   -0.26    0.43
  13   3  -4    0.44    0.49
 -13   3   4    0.23    0.17
 -12  -3   4    1.14    0.36
  12  -3  -4    0.79    0.33
  12  -3  -4    0.60    0.41
  12   3  -4    1.10    0.42
 -12   3   4    0.57    0.17
  11  -3  -4    0.45    0.25
 -11  -3   4    0.55    0.30
  11  -3  -4    0.36    0.35
 -11   3   4    0.80    0.17
  11   3  -4    0.15    0.33
  10  -3  -4    4.99    0.46
  10  -3  -4    3.78    0.48
 -10  -3   4    3.60    0.46
 -10   3   4    4.04    0.38
  10   3  -4    4.55    0.49
   9  -3  -4    0.41    0.21
  -9  -3   4    0.10    0.23
   9  -3  -4    0.49    0.27
   9   3  -4   -0.07    0.24
  -9   3   4    0.35    0.14
  -8  -3   4    4.37    0.46
   8  -3  -4    4.49    0.47
   8  -3  -4    4.91    0.42
   8   3  -4    5.31    0.48
  -8   3   4    4.03    0.38
   7  -3  -4   16.03    1.32
  -7  -3   4   17.93    1.33
   7  -3  -4   19.32    1.31
  -7  -3   4   17.90    1.27
  -7  -3   4   18.07    1.27
   7  -3  -4   16.52    1.34
   7   3  -4   16.61    1.32
  -7   3   4   18.62    1.30
   6  -3  -4    1.26    0.25
   6  -3  -4    1.53    0.19
  -6  -3   4    1.52    0.23
  -6  -3   4    1.31    0.13
   6  -3  -4    0.95    0.24
  -6  -3   4    1.41    0.13
  -6  -3   4    1.78    0.25
   6   3  -4    1.66    0.22
  -6   3   4    1.72    0.19
   5  -3  -4    3.62    0.37
   5  -3  -4    4.11    0.33
  -5  -3   4    3.54    0.36
  -5  -3   4    3.55    0.28
   5  -3  -4    3.63    0.38
  -5  -3   4    3.44    0.27
  -5  -3   4    4.28    0.37
   5   3  -4    3.83    0.35
  -5   3   4    3.44    0.38
  -5   3   4    3.53    0.32
   4  -3  -4   37.16    2.56
  -4  -3   4   34.79    2.54
  -4  -3   4   34.31    2.58
   4  -3  -4   34.89    2.58
  -4  -3   4   35.22    2.58
  -4  -3   4   36.79    2.54
   4  -3  -4   39.72    2.59
   4   3  -4   36.38    2.56
  -4   3   4   35.05    2.58
  -4   3   4   33.75    2.57
  -3  -3   4    1.28    0.14
   3  -3  -4    1.28    0.16
   3  -3  -4    0.99    0.20
  -3  -3   4    0.76    0.20
  -3  -3   4    0.78    0.18
  -3  -3   4    1.26    0.12
  -3   3   4    1.23    0.17
   3   3  -4    0.87    0.15
  -3   3   4    1.43    0.17
  -3   3   4    0.84    0.19
  -2  -3   4    0.19    0.15
   2  -3  -4    0.17    0.17
   2  -3  -4    0.23    0.15
  -2  -3   4    0.31    0.12
  -2  -3   4    0.28    0.08
   2  -3  -4    0.28    0.10
  -2  -3   4    0.24    0.14
  -2   3   4    0.15    0.13
  -2   3   4    0.17    0.13
  -2   3   4    0.43    0.15
   2   3  -4    0.32    0.11
  -1  -3   4   28.39    2.20
  -1  -3   4   30.46    2.17
   1  -3  -4   31.15    2.18
   1  -3  -4   32.13    2.19
  -1  -3   4   31.03    2.21
  -1  -3   4   30.91    2.16
   1  -3  -4   29.34    2.20
  -1  -3   4   31.53    2.18
   1   3  -4   31.15    2.18
   1   3  -4   31.01    2.20
  -1   3   4   28.11    2.19
  -1   3   4   28.07    2.20
   0  -3  -4    3.97    0.36
   0  -3   4    4.09    0.39
   0  -3  -4    4.28    0.32
   0  -3   4    4.63    0.34
   0  -3   4    5.25    0.39
   0  -3  -4    4.34    0.35
   0  -3   4    3.83    0.33
   0  -3  -4    4.22    0.38
   0  -3   4    3.71    0.38
   0   3  -4    4.37    0.36
   0   3   4    3.80    0.39
   0   3   4    3.54    0.37
   0   3  -4    3.91    0.39
   1  -3   4    0.12    0.10
   1  -3   4    0.14    0.10
  -1  -3  -4    0.25    0.10
  -1  -3  -4    0.09    0.17
  -1  -3  -4    0.16    0.15
   1  -3   4    0.12    0.15
  -1  -3  -4    0.21    0.12
   1   3   4    0.23    0.17
  -1   3  -4    0.29    0.13
  -1   3  -4   -0.03    0.20
  -1   3  -4    0.30    0.17
   1   3   4    0.18    0.16
   1   3   4    0.13    0.17
   2  -3   4    3.34    0.30
  -2  -3  -4    3.35    0.32
   2  -3   4    3.06    0.29
   2  -3   4    2.70    0.33
  -2  -3  -4    3.21    0.30
  -2  -3  -4    3.10    0.31
  -2  -3  -4    3.16    0.33
   2   3   4    2.49    0.32
  -2   3  -4    3.30    0.32
  -2   3  -4    3.74    0.36
  -2   3  -4    3.64    0.35
   2   3   4    4.18    0.37
   2   3   4    3.84    0.38
  -3  -3  -4   14.80    0.95
  -3  -3  -4   12.90    0.92
   3  -3   4   12.24    0.91
  -3  -3  -4   11.26    0.91
   3  -3   4   11.93    0.91
   3  -3   4   11.39    0.94
  -3  -3  -4   11.16    0.92
   3   3   4   13.40    1.00
  -3   3  -4   11.97    0.94
  -3   3  -4   12.36    0.96
   3   3   4   12.83    0.94
  -3   3  -4   12.45    0.93
   3   3   4   11.08    0.95
   4  -3   4    0.31    0.21
   4  -3   4    0.23    0.15
  -4  -3  -4    0.28    0.19
   4  -3   4    0.58    0.18
  -4  -3  -4    0.30    0.19
  -4  -3  -4    0.59    0.16
  -4  -3  -4    0.79    0.19
  -4   3  -4    0.33    0.24
  -4   3  -4    0.58    0.23
   4   3   4    0.39    0.24
  -4   3  -4    0.79    0.21
   4   3   4    0.26    0.22
  -5  -3  -4    4.15    0.41
  -5  -3  -4    5.13    0.42
   5  -3   4    3.70    0.38
  -5  -3  -4    3.96    0.42
  -5  -3  -4    3.73    0.39
   5  -3   4    4.28    0.41
   5  -3   4    3.80    0.42
  -5   3  -4    4.38    0.43
   5   3   4    5.24    0.50
  -5   3  -4    3.93    0.42
  -5   3  -4    4.74    0.48
   5   3   4    3.91    0.44
   6  -3   4   18.90    1.45
  -6  -3  -4   20.85    1.46
  -6  -3  -4   19.61    1.45
  -6  -3  -4   19.48    1.46
   6  -3   4   20.29    1.45
   6  -3   4   19.19    1.48
  -6   3  -4   18.71    1.46
   6   3   4   20.46    1.49
  -6   3  -4   18.35    1.48
  -6   3  -4   20.55    1.49
   6   3   4   17.65    1.48
  -7  -3  -4    9.38    0.72
  -7  -3  -4    8.47    0.70
   7  -3   4    8.74    0.70
   7  -3   4    7.66    0.73
   7  -3   4    8.01    0.71
  -7  -3  -4    7.95    0.70
   7   3   4    8.37    0.74
  -7   3  -4    7.31    0.77
  -7   3  -4    9.50    0.74
   7   3   4    7.18    0.75
   8  -3   4    3.75    0.44
   8  -3   4    3.78    0.47
  -8  -3  -4    3.64    0.43
  -8  -3  -4    4.29    0.43
   8   3   4    3.22    0.46
  -8   3  -4    3.05    0.42
  -8   3  -4    3.51    0.49
   9  -3   4    2.32    0.41
  -9  -3  -4    2.46    0.39
  -9  -3  -4    2.41    0.41
  -9   3  -4    2.67    0.48
  -9   3  -4    2.50    0.39
   9   3   4    2.84    0.45
  10  -3   4   -0.18    0.34
 -10  -3  -4    0.02    0.33
 -10  -3  -4    0.18    0.32
 -10   3  -4    0.04    0.30
  10   3   4   -0.32    0.35
 -10   3  -4   -0.07    0.39
  11  -3   4    1.06    0.45
 -11  -3  -4    1.61    0.43
 -11  -3  -4    2.12    0.42
 -11   3  -4    1.77    0.50
 -11   3  -4    1.72    0.42
  11   3   4    2.40    0.51
  12  -3   4    1.96    0.53
 -12  -3  -4    1.47    0.48
 -12  -3  -4    2.56    0.50
 -12   3  -4    2.78    0.57
 -12   3  -4    1.53    0.47
  12   3   4    1.22    0.57
  12  -4  -4    1.66    0.41
 -12  -4   4    1.53    0.48
  12  -4  -4    1.41    0.49
 -12   4   4    1.20    0.24
  12   4  -4    1.54    0.49
 -11  -4   4    0.49    0.36
  11  -4  -4    0.45    0.31
  11  -4  -4    1.11    0.46
  11   4  -4    0.09    0.38
 -11   4   4    0.26    0.19
  10  -4  -4   -0.03    0.26
 -10  -4   4    0.19    0.08
  10  -4  -4    0.17    0.31
 -10  -4   4    0.13    0.34
 -10   4   4    0.19    0.18
  10   4  -4    0.01    0.31
   9  -4  -4    6.92    0.70
   9  -4  -4    6.98    0.61
  -9  -4   4    7.08    0.64
  -9  -4   4    6.45    0.50
  -9   4   4    6.06    0.56
   9   4  -4    7.71    0.65
  -8  -4   4   -0.05    0.25
   8  -4  -4    0.25    0.27
   8  -4  -4    0.17    0.21
  -8  -4   4    0.07    0.10
  -8   4   4   -0.05    0.19
   8   4  -4    0.13    0.25
   7  -4  -4    2.14    0.33
  -7  -4   4    2.07    0.31
   7  -4  -4    1.64    0.25
   7  -4  -4    1.30    0.32
  -7  -4   4    1.78    0.18
  -7   4   4    1.91    0.25
   7   4  -4    1.92    0.29
   6  -4  -4    0.13    0.17
   6  -4  -4   -0.06    0.21
   6  -4  -4   -0.03    0.22
  -6  -4   4   -0.06    0.09
  -6  -4   4    0.08    0.21
  -6  -4   4    0.17    0.21
   6   4  -4    0.06    0.19
  -6   4   4    0.20    0.18
  -5  -4   4    1.23    0.15
  -5  -4   4    1.71    0.27
   5  -4  -4    1.56    0.28
  -5  -4   4    1.59    0.27
   5  -4  -4    1.16    0.26
   5  -4  -4    1.31    0.21
   5   4  -4    1.40    0.24
  -5   4   4    1.03    0.23
  -5   4   4    1.73    0.28
   4  -4  -4    6.92    0.52
   4  -4  -4    6.50    0.55
  -4  -4   4    6.42    0.55
  -4  -4   4    6.09    0.48
  -4  -4   4    6.54    0.57
   4  -4  -4    5.70    0.56
  -4   4   4    6.59    0.54
  -4   4   4    5.72    0.54
   4   4  -4    6.44    0.54
  -3  -4   4    1.27    0.15
   3  -4  -4    1.16    0.24
   3  -4  -4    0.99    0.25
  -3  -4   4    0.89    0.21
   3  -4  -4    1.44    0.19
  -3  -4   4    1.08    0.23
  -3   4   4    1.28    0.22
  -3   4   4    0.86    0.22
   3   4  -4    1.31    0.20
  -2  -4   4   12.27    0.99
   2  -4  -4   11.61    1.00
  -2  -4   4   13.51    0.96
   2  -4  -4   13.94    0.98
  -2  -4   4   14.04    1.01
  -2   4   4   12.03    0.99
   2   4  -4   13.73    0.98
  -2   4   4   12.62    0.99
  -1  -4   4    2.82    0.37
  -1  -4   4    3.89    0.39
  -1  -4   4    3.68    0.33
   1  -4  -4    4.02    0.36
   1  -4  -4    3.48    0.40
  -1   4   4    4.21    0.40
   1   4  -4    4.49    0.38
  -1   4   4    3.93    0.40
   1   4  -4    4.23    0.40
   0  -4   4    2.26    0.31
   0  -4  -4    3.22    0.29
   0  -4   4    2.15    0.24
   0  -4   4    2.54    0.31
   0  -4  -4    3.63    0.34
   0   4   4    1.94    0.29
   0   4  -4    2.55    0.33
   0   4  -4    2.95    0.30
   0   4   4    2.56    0.33
   1  -4   4   27.06    2.08
  -1  -4  -4   29.55    2.07
  -1  -4  -4   29.10    2.08
   1  -4   4   26.57    2.04
  -1  -4  -4   28.97    2.05
  -1   4  -4   29.67    2.06
  -1   4  -4   29.17    2.08
   1   4   4   27.17    2.07
   1   4   4   28.56    2.08
  -2  -4  -4    4.36    0.39
  -2  -4  -4    4.11    0.42
  -2  -4  -4    5.52    0.42
  -2  -4  -4    4.48    0.44
   2  -4   4    4.80    0.45
   2  -4   4    4.12    0.39
   2   4   4    3.44    0.43
   2   4   4    3.76    0.44
  -2   4  -4    4.73    0.43
  -2   4  -4    5.19    0.47
  -3  -4  -4   16.30    1.18
  -3  -4  -4   14.53    1.14
  -3  -4  -4   16.44    1.17
   3  -4   4   15.12    1.14
   3  -4   4   15.29    1.18
   3  -4   4   15.39    1.15
  -3  -4  -4   14.60    1.15
  -3   4  -4   16.82    1.18
   3   4   4   15.25    1.21
   3   4   4   15.77    1.20
  -3   4  -4   14.88    1.18
  -4  -4  -4    8.32    0.66
  -4  -4  -4    7.93    0.68
  -4  -4  -4    7.85    0.68
  -4  -4  -4    7.74    0.67
   4  -4   4    7.93    0.69
   4  -4   4    8.65    0.66
   4  -4   4    8.38    0.66
  -4   4  -4    7.83    0.70
   4   4   4    7.48    0.73
  -4   4  -4    7.89    0.71
   4   4   4    7.78    0.72
  -5  -4  -4    0.23    0.21
   5  -4   4   -0.10    0.27
  -5  -4  -4   -0.02    0.23
  -5  -4  -4   -0.04    0.21
   5  -4   4   -0.10    0.22
   5  -4   4   -0.04    0.19
  -5   4  -4   -0.16    0.23
   5   4   4    0.17    0.33
   5   4   4    0.12    0.30
  -5   4  -4    0.08    0.26
   6  -4   4    5.08    0.51
  -6  -4  -4    5.54    0.52
  -6  -4  -4    4.58    0.51
   6  -4   4    4.31    0.50
  -6  -4  -4    5.93    0.53
   6  -4   4    4.34    0.54
   6   4   4    5.50    0.56
  -6   4  -4    4.86    0.51
   6   4   4    5.56    0.58
  -7  -4  -4    1.44    0.34
  -7  -4  -4    1.23    0.30
   7  -4   4    1.86    0.38
   7  -4   4    1.44    0.33
   7  -4   4    2.20    0.37
  -7   4  -4    1.21    0.32
   7   4   4    1.38    0.43
  -8  -4  -4    0.81    0.34
   8  -4   4    1.31    0.39
   8  -4   4    0.83    0.33
  -8  -4  -4    1.59    0.36
   8   4   4    1.51    0.48
  -8   4  -4    0.59    0.31
  -9  -4  -4    0.13    0.34
  -9  -4  -4    0.13    0.31
   9  -4   4   -0.10    0.35
   9   4   4   -0.20    0.47
  -9   4  -4   -0.13    0.32
  10  -4   4    0.35    0.41
 -10  -4  -4    0.53    0.36
 -10  -4  -4    0.17    0.40
  10   4   4   -0.17    0.45
 -10   4  -4    0.49    0.40
  11  -4   4    1.04    0.50
 -11  -4  -4    1.94    0.44
 -11  -4  -4    1.87    0.52
 -11   4  -4    1.99    0.51
 -11  -5   4    0.17    0.40
  11  -5  -4    0.76    0.40
  11  -5  -4    1.55    0.54
  11   5  -4    0.64    0.46
 -11   5   4    0.23    0.25
  10  -5  -4    0.90    0.42
 -10  -5   4    0.98    0.15
 -10  -5   4    0.68    0.43
  10  -5  -4    0.89    0.36
  10   5  -4    1.65    0.42
 -10   5   4    0.93    0.27
   9  -5  -4    0.20    0.31
  -9  -5   4    0.04    0.13
   9  -5  -4   -0.16    0.32
  -9  -5   4   -0.07    0.31
   9   5  -4    0.03    0.32
  -9   5   4    0.07    0.25
   8  -5  -4    3.10    0.39
   8  -5  -4    3.19    0.46
  -8  -5   4    3.30    0.30
  -8  -5   4    3.15    0.43
  -8   5   4    2.33    0.35
   7  -5  -4    4.92    0.57
   7  -5  -4    4.88    0.50
  -7  -5   4    5.24    0.54
   7  -5  -4    5.71    0.56
  -7  -5   4    4.79    0.42
   7   5  -4    6.46    0.58
  -7   5   4    4.32    0.48
  -6  -5   4    0.50    0.29
  -6  -5   4    0.73    0.28
  -6  -5   4    0.54    0.15
   6  -5  -4    0.55    0.29
   6  -5  -4    0.36    0.23
   6  -5  -4    0.92    0.34
  -6   5   4    0.33    0.24
   6   5  -4    0.62    0.27
  -5  -5   4    1.29    0.20
   5  -5  -4    2.30    0.38
   5  -5  -4    1.62    0.33
  -5  -5   4    1.85    0.32
  -5  -5   4    1.88    0.33
   5  -5  -4    1.67    0.28
   5   5  -4    1.84    0.30
  -5   5   4    2.08    0.31
  -5   5   4    2.06    0.33
  -4  -5   4    8.64    0.76
   4  -5  -4    8.36    0.73
   4  -5  -4   10.34    0.79
  -4  -5   4    9.63    0.70
  -4  -5   4    8.79    0.76
   4  -5  -4    9.91    0.78
   4   5  -4    8.05    0.75
  -4   5   4    8.71    0.76
  -4   5   4    9.05    0.77
   3  -5  -4    0.71    0.23
  -3  -5   4    0.55    0.28
   3  -5  -4    0.85    0.27
   3  -5  -4    0.46    0.24
  -3  -5   4    0.51    0.15
  -3  -5   4    0.75    0.25
   3   5  -4    0.78    0.22
  -3   5   4    0.38    0.23
  -3   5   4    0.86    0.27
  -2  -5   4    0.03    0.25
  -2  -5   4   -0.03    0.13
  -2  -5   4    0.09    0.23
   2  -5  -4    0.08    0.25
   2  -5  -4   -0.01    0.19
   2   5  -4    0.02    0.27
  -2   5   4    0.07    0.24
   2   5  -4   -0.44    0.19
  -2   5   4   -0.28    0.22
  -1  -5   4    5.21    0.56
   1  -5  -4    5.70    0.51
  -1  -5   4    6.35    0.60
  -1  -5   4    5.88    0.48
   1  -5  -4    5.74    0.57
  -1   5   4    5.68    0.53
   1   5  -4    6.07    0.57
  -1   5   4    7.13    0.58
   0  -5   4    0.54    0.17
   0  -5  -4    0.41    0.26
   0  -5   4    0.55    0.27
   0  -5  -4    0.48    0.21
   0  -5   4    0.37    0.23
   0   5   4    0.51    0.26
   0   5  -4    0.51    0.26
   0   5  -4    0.38    0.24
   0   5   4    0.42    0.26
   1  -5   4    0.13    0.16
  -1  -5  -4    0.14    0.25
   1  -5   4    0.29    0.24
  -1  -5  -4   -0.14    0.20
  -1   5  -4   -0.03    0.23
   1   5   4    0.00    0.26
   1   5   4   -0.06    0.24
  -1   5  -4   -0.06    0.30
  -2  -5  -4    0.14    0.28
  -2  -5  -4    0.64    0.23
   2  -5   4    0.61    0.26
   2  -5   4    0.33    0.19
  -2   5  -4    0.42    0.27
  -2   5  -4    1.22    0.31
   2   5   4    0.37    0.26
   2   5   4    0.56    0.27
   3  -5   4    3.12    0.35
  -3  -5  -4    3.39    0.41
   3  -5   4    1.93    0.38
   3   5   4    2.97    0.43
   3   5   4    3.56    0.45
  -3   5  -4    3.06    0.43
  -3   5  -4    2.92    0.41
   4  -5   4    0.04    0.27
   4  -5   4    0.46    0.24
  -4  -5  -4    0.35    0.28
  -4   5  -4    0.61    0.34
   4   5   4    0.51    0.35
   4   5   4    0.49    0.32
  -4   5  -4    0.22    0.32
  -5  -5  -4    2.64    0.38
   5  -5   4    1.84    0.33
  -5  -5  -4    2.66    0.39
   5  -5   4    1.63    0.40
   5   5   4    1.61    0.44
  -5   5  -4    1.90    0.36
   5   5   4    2.94    0.46
   6  -5   4    5.52    0.65
  -6  -5  -4    5.72    0.63
  -6  -5  -4    6.74    0.63
   6  -5   4    6.17    0.61
  -6   5  -4    6.56    0.64
  -7  -5  -4    5.13    0.54
   7  -5   4    4.54    0.55
   7  -5   4    4.43    0.51
  -7   5  -4    3.50    0.54
  -8  -5  -4    1.33    0.41
   8  -5   4    1.76    0.38
  -8   5  -4    0.51    0.41
  -9  -5  -4    0.24    0.37
   9  -5   4    1.03    0.77
  -9   5  -4   -0.04    0.36
 -10  -5  -4    0.04    0.49
  10  -5   4   -0.01    0.47
  10  -6  -4    0.78    0.47
 -10  -6   4    0.43    0.45
 -10  -6   4    0.30    0.18
  10  -6  -4    0.68    0.49
  10   6  -4    0.19    0.48
 -10   6   4    0.28    0.34
  -9  -6   4    1.49    0.47
   9  -6  -4    2.04    0.44
  -9  -6   4    1.78    0.24
   9  -6  -4    2.64    0.48
  -9   6   4    1.69    0.37
   9   6  -4    2.10    0.47
   8  -6  -4   -0.15    0.31
   8  -6  -4   -0.19    0.38
  -8  -6   4    0.23    0.38
  -8  -6   4    0.12    0.18
   8   6  -4    0.21    0.38
  -8   6   4   -0.01    0.31
   7  -6  -4    0.88    0.34
   7  -6  -4    0.16    0.36
  -7  -6   4    0.48    0.18
   7  -6  -4    0.83    0.46
  -7  -6   4    0.47    0.35
   7   6  -4    0.87    0.37
  -7   6   4    0.72    0.33
   6  -6  -4   -0.01    0.39
   6  -6  -4    0.16    0.36
  -6  -6   4   -0.12    0.16
  -6  -6   4    0.16    0.31
   6  -6  -4    0.42    0.32
  -6  -6   4    0.31    0.34
   6   6  -4   -0.01    0.32
  -6   6   4    0.03    0.29
   5  -6  -4    0.18    0.38
  -5  -6   4    0.12    0.17
   5  -6  -4    0.10    0.34
  -5  -6   4   -0.15    0.28
   5  -6  -4    0.35    0.30
  -5  -6   4    0.01    0.30
   5   6  -4    0.18    0.31
  -5   6   4   -0.18    0.29
  -4  -6   4    2.42    0.39
  -4  -6   4    1.53    0.35
   4  -6  -4    1.47    0.40
  -4  -6   4    1.84    0.24
   4  -6  -4    2.03    0.36
   4  -6  -4    1.77    0.37
   4   6  -4    1.60    0.33
  -4   6   4    2.40    0.38
  -4   6   4    1.66    0.36
  -3  -6   4    0.75    0.31
   3  -6  -4    0.41    0.29
  -3  -6   4    0.49    0.34
  -3  -6   4    0.67    0.19
   3  -6  -4    1.19    0.35
   3  -6  -4    1.33    0.34
   3   6  -4    0.39    0.37
   3   6  -4    1.17    0.32
  -3   6   4    1.59    0.34
  -3   6   4    0.39    0.32
  -2  -6   4    2.09    0.39
   2  -6  -4    2.94    0.43
  -2  -6   4    2.88    0.41
   2  -6  -4    2.66    0.36
   2  -6  -4    3.12    0.41
  -2  -6   4    1.91    0.28
  -2   6   4    2.64    0.40
  -2   6   4    2.36    0.41
   2   6  -4    1.64    0.40
   2   6  -4    2.68    0.40
  -1  -6   4    0.84    0.22
   1  -6  -4    1.49    0.31
  -1  -6   4    1.68    0.37
   1  -6  -4    1.34    0.35
  -1  -6   4    1.34    0.34
   1   6  -4    0.64    0.34
  -1   6   4    1.41    0.36
   1   6  -4    1.31    0.34
   0  -6  -4    1.09    0.34
   0  -6   4    1.00    0.23
   0  -6   4    0.72    0.32
   0   6   4    0.71    0.37
   0   6  -4    0.69    0.38
   0   6  -4    1.07    0.31
   1  -6   4    5.34    0.53
   1  -6   4    5.36    0.59
  -1  -6  -4    5.05    0.60
   1   6   4    6.52    0.63
  -1   6  -4    6.26    0.65
  -1   6  -4    6.21    0.61
   2  -6   4    1.96    0.30
   2  -6   4    1.40    0.36
  -2  -6  -4    1.88    0.41
   2   6   4    2.55    0.43
  -2   6  -4    1.40    0.40
  -2   6  -4    2.35    0.46
   3  -6   4    4.49    0.50
  -3  -6  -4    5.21    0.58
   3  -6   4    5.00    0.61
  -3   6  -4    5.34    0.59
   3   6   4    6.19    0.61
   4  -6   4    0.69    0.30
  -4  -6  -4    0.73    0.35
   4  -6   4    0.72    0.39
  -4   6  -4    2.09    0.42
   4   6   4    2.29    0.47
   5  -6   4    0.16    0.29
   5  -6   4    0.20    0.36
  -5  -6  -4    0.31    0.35
  -5   6  -4    0.17    0.40
   6  -6   4    1.62    0.38
  -6  -6  -4    1.74    0.47
   6  -6   4    1.92    0.48
   7  -6   4    0.30    0.47
   7  -6   4    0.40    0.38
  -8  -6  -4    0.50    0.42
  -9  -6  -4   -0.21    0.44
  -8  -7   4    0.77    0.26
  -8  -7   4    2.25    0.56
   8   7  -4    1.71    0.52
  -8   7   4    1.96    0.46
   7  -7  -4    1.14    0.58
  -7  -7   4    0.57    0.49
  -7  -7   4    0.91    0.25
   7   7  -4    1.21    0.49
  -7   7   4    0.77    0.41
  -6  -7   4    0.63    0.45
  -6  -7   4    0.45    0.44
  -6  -7   4    0.21    0.23
   6  -7  -4   -0.09    0.52
  -6   7   4    0.22    0.41
   6   7  -4    0.12    0.43
   5  -7  -4    1.32    0.52
  -5  -7   4    0.27    0.43
  -5  -7   4    0.09    0.22
  -5  -7   4    0.67    0.45
  -5   7   4    0.64    0.40
   5   7  -4    0.62    0.42
   4  -7  -4    1.09    0.44
  -4  -7   4    1.35    0.42
  -4  -7   4    2.33    0.44
  -4  -7   4    1.32    0.27
   4   7  -4    1.58    0.43
  -4   7   4    1.80    0.44
   4   7  -4    0.69    0.44
  -3  -7   4    0.40    0.37
  -3  -7   4    0.83    0.40
   3  -7  -4    0.07    0.39
  -3  -7   4    0.40    0.23
   3   7  -4    0.37    0.40
  -3   7   4    0.28    0.39
   3   7  -4   -0.14    0.41
   2  -7  -4   -0.25    0.37
  -2  -7   4    0.25    0.23
  -2  -7   4    0.34    0.36
  -2  -7   4   -0.07    0.38
   2   7  -4   -0.33    0.36
   2   7  -4    0.22    0.44
  -2   7   4   -0.09    0.39
  -1  -7   4    0.68    0.25
  -1  -7   4    0.78    0.37
  -1  -7   4    0.79    0.48
   1  -7  -4    1.28    0.40
  -1   7   4    0.40    0.41
   1   7  -4    0.97    0.48
   1   7  -4    0.74    0.42
   0  -7   4    0.05    0.34
   0  -7  -4   -0.15    0.36
   0  -7   4    0.08    0.24
   0   7  -4   -0.20    0.46
   0   7   4   -0.04    0.42
   1  -7   4    0.33    0.36
   1  -7   4    0.20    0.26
  -1  -7  -4    0.00    0.37
   1   7   4    0.06    0.40
   2  -7   4    0.08    0.42
   2  -7   4    0.04    0.28
  -2  -7  -4    0.15    0.38
   2   7   4    0.45    0.46
   3  -7   4    0.57    0.33
   3  -7   4    0.55    0.44
  -3  -7  -4   -0.12    0.39
   3   7   4    0.00    0.50
  -4  -7  -4   -0.24    0.39
   4  -7   4   -0.25    0.41
   4  -7   4    0.00    0.33
  -5  -7  -4    1.18    0.47
   5  -7   4    0.99    0.49
   5  -7   4    1.08    0.41
   6  -7   4    1.26    0.45
  -6  -7  -4    1.89    0.58
   6  -7   4    1.48    0.53
  -4  -8   4    0.67    0.56
  -4  -8   4    0.35    0.29
   4  -8  -4    0.84    0.59
  -4   8   4    0.33    0.51
  -3  -8   4    0.38    0.53
   3  -8  -4    0.18    0.55
  -3  -8   4   -0.05    0.30
  -3   8   4    0.62    0.55
  -2  -8   4    0.55    0.53
   2  -8  -4    0.09    0.58
  -2  -8   4    0.25    0.30
  -2   8   4    0.09    0.50
   1  -8  -4    0.08    0.55
  -1  -8   4    0.06    0.32
  -1  -8   4    0.44    0.47
  -1   8   4    0.42    0.55
   0  -8   4   -0.09    0.32
   0  -8   4    0.14    0.47
   0  -8  -4   -0.08    0.49
   0   8   4    0.81    0.57
   1  -8   4    0.52    0.49
  -1  -8  -4    0.69    0.52
   1  -8   4    0.80    0.36
   1   8   4   -0.29    0.59
  -2  -8  -4    0.65    0.53
   2  -8   4    0.97    0.41
   2  -8   4    0.53    0.52
  -3  -8  -4    2.40    0.66
   3  -8   4    1.91    0.60
   3  -8   4    1.36    0.46
  14   0  -5    0.10    0.38
 -14   0   5   -0.01    0.42
  14   0  -5    0.00    0.54
 -13   0   5    0.43    0.37
  13   0  -5    0.38    0.32
  13   0  -5    0.07    0.43
  12   0  -5    1.89    0.41
 -12   0   5    1.85    0.35
  12   0  -5    1.58    0.33
  11   0  -5    0.19    0.31
  11   0  -5    0.12    0.22
 -11   0   5    0.06    0.28
  10   0  -5    2.75    0.41
  10   0  -5    2.42    0.30
 -10   0   5    3.74    0.38
  -9   0   5    0.25    0.19
   9   0  -5    0.09    0.14
   9   0  -5    0.70    0.23
  -8   0   5   32.32    2.28
   8   0  -5   29.96    2.26
   8   0  -5   32.75    2.30
  -7   0   5   12.55    0.90
   7   0  -5   11.39    0.86
   7   0  -5   11.95    0.91
   6   0  -5    1.51    0.23
   6   0  -5    1.26    0.16
   6   0  -5    1.62    0.15
  -6   0   5    1.77    0.21
   6   0  -5    1.39    0.22
  -6   0   5    2.06    0.23
  -5   0   5  101.53    7.22
   5   0  -5   98.26    7.18
  -5   0   5  104.27    7.20
  -5   0   5  105.74    7.21
   5   0  -5  101.52    7.21
   5   0  -5   98.65    7.18
   5   0  -5  100.86    7.22
  -4   0   5    1.98    0.20
  -4   0   5    2.03    0.21
   4   0  -5    1.45    0.24
  -4   0   5    2.29    0.25
   4   0  -5    1.53    0.20
  -3   0   5    1.02    0.16
  -3   0   5    1.34    0.21
  -3   0   5    1.41    0.15
   2   0  -5  123.71    8.66
  -2   0   5  121.00    8.68
  -2   0   5  120.33    8.66
  -2   0   5  122.71    8.66
   1   0  -5    0.65    0.08
   1   0  -5    0.44    0.12
   1   0  -5    0.61    0.08
  -1   0   5    0.56    0.15
  -1   0   5    0.67    0.18
   0   0   5    3.23    0.28
   0   0  -5    2.81    0.26
   0   0  -5    2.41    0.23
   0   0   5    2.83    0.21
   0   0   5    2.67    0.31
   0   0   5    2.90    0.21
   0   0  -5    2.30    0.24
   1   0   5   91.32    6.55
   1   0   5   95.54    6.53
   1   0   5   91.75    6.57
   1   0   5   92.55    6.53
  -1   0  -5   90.91    6.53
  -1   0  -5   89.45    6.55
  -2   0  -5    0.37    0.13
  -2   0  -5    0.38    0.12
   2   0   5    0.79    0.18
   2   0   5    0.22    0.11
   2   0   5    0.25    0.18
  -3   0  -5    3.34    0.33
   3   0   5    3.47    0.31
   3   0   5    3.43    0.37
  -3   0  -5    3.59    0.33
   3   0   5    3.55    0.33
  -3   0  -5    2.98    0.33
  -4   0  -5   19.16    1.49
   4   0   5   19.90    1.48
   4   0   5   21.32    1.48
  -4   0  -5   20.35    1.48
  -4   0  -5   20.78    1.48
   4   0   5   19.20    1.51
   5   0   5    4.13    0.38
   5   0   5    3.56    0.39
   5   0   5    3.60    0.37
  -5   0  -5    3.49    0.36
  -5   0  -5    3.34    0.38
  -5   0  -5    4.44    0.40
  -5   0  -5    3.45    0.39
  -6   0  -5    0.92    0.23
  -6   0  -5    0.76    0.26
  -6   0  -5    0.87    0.26
   6   0   5    0.86    0.23
  -6   0  -5    0.90    0.23
   6   0   5    0.75    0.26
   6   0   5    0.65    0.22
  -7   0  -5    1.10    0.26
   7   0   5    1.31    0.31
  -7   0  -5    1.40    0.30
   7   0   5    1.15    0.27
  -7   0  -5    1.53    0.30
   7   0   5    1.38    0.29
  -7   0  -5    1.79    0.34
   8   0   5    5.05    0.55
  -8   0  -5    5.09    0.53
  -8   0  -5    6.50    0.60
   8   0   5    5.74    0.57
  -9   0  -5    0.18    0.27
  -9   0  -5   -0.22    0.32
   9   0   5   -0.09    0.33
   9   0   5    0.29    0.28
  10   0   5    2.88    0.45
 -10   0  -5    4.07    0.53
 -10   0  -5    3.07    0.44
  11   0   5    3.64    0.53
 -11   0  -5    3.69    0.54
 -11   0  -5    4.16    0.52
  12   0   5    0.29    0.43
 -12   0  -5    0.54    0.46
 -12   0  -5   -0.12    0.41
  14  -1  -5   -0.35    0.53
 -14  -1   5   -0.19    0.39
  14  -1  -5   -0.02    0.39
  14   1  -5    0.16    0.43
 -13  -1   5    5.46    0.64
  13  -1  -5    7.45    0.74
  13  -1  -5    5.62    0.62
  13   1  -5    6.49    0.66
  13   1  -5    7.09    0.70
  12  -1  -5    3.75    0.53
  12  -1  -5    2.22    0.36
 -12  -1   5    3.15    0.42
  12   1  -5    3.26    0.47
  12   1  -5    3.07    0.40
 -11  -1   5    0.21    0.30
  11  -1  -5    0.05    0.21
  11  -1  -5    0.14    0.33
 -11   1   5    0.03    0.27
  11   1  -5   -0.28    0.33
  11   1  -5   -0.25    0.22
  10  -1  -5   19.00    1.48
  10  -1  -5   20.57    1.44
 -10  -1   5   18.06    1.46
 -10   1   5   19.37    1.45
  10   1  -5   18.77    1.44
  10   1  -5   21.13    1.49
  -9  -1   5    9.48    0.79
   9  -1  -5   10.35    0.80
   9  -1  -5    9.55    0.73
  -9   1   5   10.04    0.77
   9   1  -5    8.44    0.74
   9   1  -5   10.23    0.78
   8  -1  -5    4.09    0.44
   8  -1  -5    4.30    0.37
  -8  -1   5    4.98    0.43
   8   1  -5    4.18    0.41
   8   1  -5    3.93    0.38
  -8   1   5    4.69    0.41
   7  -1  -5   21.11    1.58
   7  -1  -5   21.98    1.54
  -7  -1   5   22.05    1.57
   7   1  -5   20.35    1.57
  -7   1   5   21.71    1.56
   7   1  -5   21.20    1.55
  -6  -1   5    0.20    0.19
  -6  -1   5    0.21    0.14
   6  -1  -5    0.13    0.08
   6  -1  -5    0.18    0.18
   6  -1  -5    0.12    0.15
   6  -1  -5    0.20    0.14
   6   1  -5    0.14    0.09
   6   1  -5    0.06    0.15
  -6   1   5    0.34    0.13
   6   1  -5    0.31    0.09
  -6   1   5    0.37    0.17
   5  -1  -5    2.11    0.26
   5  -1  -5    2.55    0.21
   5  -1  -5    2.76    0.24
  -5  -1   5    2.72    0.26
  -5  -1   5    3.31    0.32
   5  -1  -5    2.40    0.27
  -5  -1   5    2.78    0.26
  -5   1   5    2.89    0.24
   5   1  -5    2.21    0.19
   5   1  -5    2.11    0.20
  -5   1   5    2.88    0.27
   5   1  -5    2.57    0.25
  -4  -1   5   16.38    1.16
   4  -1  -5   16.20    1.15
  -4  -1   5   16.45    1.17
   4  -1  -5   15.04    1.14
  -4  -1   5   15.51    1.19
  -4   1   5   16.63    1.15
  -4   1   5   15.78    1.18
   4   1  -5   15.77    1.16
   3  -1  -5   49.15    3.46
  -3  -1   5   49.35    3.45
   3  -1  -5   47.53    3.42
  -3  -1   5   47.63    3.44
  -3  -1   5   47.70    3.47
   3  -1  -5   47.87    3.43
   3  -1  -5   47.11    3.43
  -3   1   5   48.37    3.46
  -3   1   5   49.97    3.43
  -2  -1   5    3.62    0.31
   2  -1  -5    3.54    0.27
   2  -1  -5    5.07    0.35
  -2  -1   5    4.22    0.35
   2  -1  -5    3.37    0.30
   2  -1  -5    3.44    0.28
  -2  -1   5    3.77    0.31
  -2   1   5    3.95    0.33
   2   1  -5    3.52    0.26
   2   1  -5    3.32    0.26
   2   1  -5    3.30    0.31
   1  -1  -5    9.53    0.69
  -1  -1   5    9.98    0.74
   1  -1  -5    9.32    0.74
  -1  -1   5   10.28    0.72
   1  -1  -5    9.27    0.69
   1  -1  -5    9.09    0.70
  -1  -1   5   10.66    0.72
  -1   1   5    9.54    0.73
   1   1  -5    9.06    0.69
   1   1  -5    8.30    0.72
   1   1  -5    9.35    0.68
  -1   1   5   10.21    0.74
   0  -1  -5   13.36    0.93
   0  -1  -5   13.06    0.98
   0  -1  -5   12.78    0.94
   0  -1  -5   12.08    0.94
   0  -1   5   13.41    0.92
   0  -1   5   12.92    0.95
   0  -1   5   13.29    0.92
   0  -1   5   12.87    0.98
   0   1  -5   12.35    0.96
   0   1   5   13.21    0.93
   0   1   5   12.87    0.97
   0   1  -5   12.22    0.93
   0   1   5   12.43    0.98
   0   1   5   12.57    0.93
   0   1  -5   12.02    0.93
  -1  -1  -5   11.25    0.88
   1  -1   5   10.54    0.88
   1  -1   5   11.47    0.86
  -1  -1  -5   11.34    0.85
  -1  -1  -5   12.15    0.85
   1  -1   5   12.48    0.84
   1  -1   5   11.56    0.84
   1   1   5   10.67    0.88
  -1   1  -5   11.58    0.84
   1   1   5   11.97    0.88
   1   1   5   10.96    0.84
   1   1   5   12.19    0.84
  -1   1  -5    9.96    0.86
   2  -1   5    6.54    0.55
  -2  -1  -5    7.21    0.57
   2  -1   5    7.20    0.57
   2  -1   5    6.66    0.61
   2  -1   5    9.35    0.59
  -2  -1  -5    7.97    0.59
  -2  -1  -5    7.59    0.57
  -2  -1  -5    7.98    0.62
  -2   1  -5    7.17    0.59
   2   1   5    7.38    0.57
   2   1   5    7.16    0.62
  -2   1  -5    6.96    0.57
   2   1   5    7.40    0.60
  -3  -1  -5   49.56    3.60
   3  -1   5   49.77    3.60
   3  -1   5   48.85    3.63
  -3  -1  -5   50.50    3.61
  -3  -1  -5   51.50    3.63
   3  -1   5   49.85    3.61
  -3  -1  -5   52.63    3.61
   3   1   5   47.53    3.62
  -3   1  -5   49.66    3.62
   3   1   5   50.47    3.61
   3   1   5   51.93    3.63
  -3   1  -5   51.34    3.62
  -3   1  -5   51.72    3.61
  -4  -1  -5    2.53    0.30
  -4  -1  -5    3.12    0.31
   4  -1   5    3.18    0.32
  -4  -1  -5    3.63    0.35
   4  -1   5    2.58    0.30
   4  -1   5    3.81    0.39
  -4  -1  -5    2.72    0.32
   4   1   5    3.26    0.35
   4   1   5    2.88    0.34
   4   1   5    3.22    0.32
  -4   1  -5    3.56    0.35
  -4   1  -5    3.47    0.34
  -4   1  -5    3.75    0.34
  -5  -1  -5    5.02    0.49
   5  -1   5    4.89    0.51
   5  -1   5    5.26    0.45
  -5  -1  -5    5.22    0.48
  -5  -1  -5    5.45    0.48
   5  -1   5    5.50    0.47
  -5  -1  -5    5.15    0.46
  -5   1  -5    4.62    0.47
   5   1   5    5.76    0.48
   5   1   5    5.61    0.50
  -5   1  -5    4.47    0.48
  -5   1  -5    5.54    0.49
   5   1   5    5.55    0.51
  -6  -1  -5   42.32    2.98
  -6  -1  -5   40.36    2.98
   6  -1   5   39.55    2.97
  -6  -1  -5   40.36    2.99
   6  -1   5   40.92    2.98
   6  -1   5   42.97    3.00
  -6  -1  -5   43.04    2.98
  -6   1  -5   38.33    2.99
   6   1   5   42.94    2.99
  -6   1  -5   40.77    2.98
  -6   1  -5   40.53    2.98
   6   1   5   42.43    2.99
  -7  -1  -5    1.21    0.26
   7  -1   5    0.88    0.32
   7  -1   5    1.21    0.26
   7  -1   5    0.63    0.28
  -7  -1  -5    1.10    0.26
  -7  -1  -5    0.78    0.40
  -7  -1  -5    0.49    0.27
   7   1   5    0.46    0.27
  -7   1  -5    0.77    0.28
  -7   1  -5    0.81    0.26
   7   1   5    0.79    0.26
  -7   1  -5    0.98    0.33
   8  -1   5    2.51    0.36
  -8  -1  -5    1.95    0.31
  -8  -1  -5    1.41    0.35
   8  -1   5    1.52    0.32
   8   1   5    1.42    0.36
  -8   1  -5    1.69    0.30
   8   1   5    1.06    0.30
   9  -1   5   13.78    1.12
  -9  -1  -5   15.51    1.15
  -9  -1  -5   13.38    1.11
   9  -1   5   13.76    1.13
   9   1   5   15.34    1.17
  -9   1  -5   13.02    1.11
   9   1   5   14.15    1.15
 -10  -1  -5   -0.05    0.33
 -10  -1  -5    0.10    0.33
  10  -1   5   -0.02    0.32
 -10   1  -5    0.15    0.29
  10   1   5    0.12    0.32
  11  -1   5    1.73    0.44
 -11  -1  -5    1.56    0.40
 -11  -1  -5    1.21    0.42
  11   1   5    1.86    0.44
 -11   1  -5    1.38    0.40
 -12  -1  -5    1.74    0.46
  12  -1   5    1.81    0.51
 -12  -1  -5    2.09    0.51
  12   1   5    1.33    0.54
 -12   1  -5    1.74    0.47
  14  -2  -5    0.08    0.39
  14  -2  -5   -0.27    0.50
 -14  -2   5   -0.06    0.41
  14   2  -5    0.19    0.47
 -13  -2   5    0.18    0.36
  13  -2  -5    0.19    0.32
  13  -2  -5    0.29    0.43
  13   2  -5    0.14    0.39
  12  -2  -5    1.46    0.32
 -12  -2   5    0.79    0.37
  12  -2  -5    1.09    0.39
  12   2  -5    0.84    0.35
  11  -2  -5   -0.04    0.35
  11  -2  -5    0.28    0.23
 -11  -2   5    0.21    0.31
  11   2  -5    0.05    0.27
 -10  -2   5    1.65    0.32
  10  -2  -5    2.38    0.29
  10  -2  -5    2.68    0.39
  10   2  -5    2.05    0.32
   9  -2  -5    0.34    0.28
   9  -2  -5    0.58    0.18
  -9  -2   5    0.27    0.23
   9   2  -5    0.38    0.20
   9   2  -5    0.45    0.31
  -8  -2   5   18.93    1.55
   8  -2  -5   19.33    1.56
   8  -2  -5   22.47    1.53
   8   2  -5   22.01    1.54
   8   2  -5   21.32    1.55
  -7  -2   5    8.93    0.74
   7  -2  -5    8.98    0.75
   7  -2  -5   10.49    0.70
   7  -2  -5    9.16    0.74
   7   2  -5    8.36    0.72
   7   2  -5    8.86    0.71
  -6  -2   5    1.04    0.19
   6  -2  -5    0.57    0.12
   6  -2  -5    1.09    0.20
  -6  -2   5    0.96    0.21
   6  -2  -5    0.46    0.20
  -6   2   5    0.46    0.18
   6   2  -5    0.61    0.17
  -6   2   5    0.76    0.20
   6   2  -5    0.74    0.14
   5  -2  -5   62.92    4.49
  -5  -2   5   63.56    4.49
  -5  -2   5   62.49    4.49
   5  -2  -5   60.85    4.50
   5  -2  -5   60.91    4.47
   5   2  -5   61.62    4.46
   5   2  -5   61.74    4.47
   5   2  -5   65.79    4.47
  -5   2   5   63.02    4.46
  -5   2   5   65.39    4.50
  -4  -2   5    2.19    0.18
   4  -2  -5    1.37    0.15
  -4  -2   5    2.00    0.22
   4  -2  -5    1.46    0.18
   4  -2  -5    1.56    0.23
  -4  -2   5    1.06    0.21
   4   2  -5    1.55    0.17
   4   2  -5    1.43    0.14
  -4   2   5    1.07    0.20
  -4   2   5    1.45    0.15
   4   2  -5    1.37    0.15
  -3  -2   5    1.06    0.20
  -3  -2   5    0.63    0.12
  -3  -2   5    0.50    0.14
   3  -2  -5    0.61    0.13
   3  -2  -5    0.80    0.11
   3  -2  -5    0.47    0.10
   3  -2  -5    0.46    0.17
  -3   2   5    0.58    0.07
   3   2  -5    0.63    0.10
  -3   2   5    0.34    0.16
   3   2  -5    0.45    0.10
  -3   2   5    0.74    0.07
   3   2  -5    0.53    0.12
  -2  -2   5   72.86    5.24
   2  -2  -5   71.80    5.27
   2  -2  -5   74.44    5.24
   2  -2  -5   75.42    5.23
  -2  -2   5   72.47    5.27
   2  -2  -5   75.61    5.24
  -2  -2   5   74.06    5.26
   2   2  -5   71.39    5.26
   2   2  -5   71.28    5.24
   2   2  -5   74.35    5.24
  -2   2   5   73.30    5.27
  -2   2   5   76.25    5.23
  -2   2   5   74.54    5.24
  -1  -2   5    0.98    0.15
   1  -2  -5    0.63    0.12
  -1  -2   5    1.37    0.22
  -1  -2   5    0.82    0.08
  -1  -2   5    1.05    0.18
   1  -2  -5    0.93    0.11
   1  -2  -5    1.12    0.19
  -1  -2   5    0.90    0.08
  -1   2   5    1.05    0.13
   1   2  -5    0.80    0.18
   1   2  -5    0.88    0.12
  -1   2   5    0.66    0.18
  -1   2   5    1.02    0.12
   0  -2  -5    2.38    0.23
   0  -2  -5    2.60    0.28
   0  -2   5    2.88    0.26
   0  -2  -5    2.67    0.23
   0  -2   5    2.28    0.20
   0  -2   5    2.59    0.29
   0  -2   5    2.54    0.23
   0   2  -5    1.72    0.26
   0   2   5    2.15    0.28
   0   2   5    2.78    0.24
   0   2   5    2.22    0.23
   0   2  -5    2.71    0.25
   0   2  -5    2.49    0.23
  -1  -2  -5   54.77    3.98
   1  -2   5   56.17    3.96
  -1  -2  -5   58.78    3.97
   1  -2   5   53.42    3.98
  -1  -2  -5   56.42    3.95
  -1  -2  -5   57.60    3.96
   1  -2   5   54.54    3.95
   1  -2   5   57.43    3.96
   1   2   5   54.33    3.99
   1   2   5   53.66    3.96
  -1   2  -5   53.55    3.96
  -1   2  -5   55.12    3.98
  -2  -2  -5    0.22    0.13
   2  -2   5    0.33    0.17
  -2  -2  -5    0.20    0.12
  -2  -2  -5    0.05    0.14
   2  -2   5    0.10    0.10
   2  -2   5    0.32    0.15
  -2  -2  -5    0.03    0.15
   2   2   5    0.51    0.15
   2   2   5    0.51    0.20
  -2   2  -5    0.12    0.13
  -2   2  -5    0.22    0.20
  -2   2  -5    0.37    0.17
   3  -2   5    1.75    0.29
  -3  -2  -5    3.64    0.28
   3  -2   5    1.83    0.23
  -3  -2  -5    2.51    0.26
  -3  -2  -5    1.83    0.27
   3  -2   5    2.65    0.26
  -3  -2  -5    3.05    0.30
  -3   2  -5    2.08    0.36
   3   2   5    3.00    0.29
   3   2   5    2.07    0.31
  -3   2  -5    2.07    0.26
  -3   2  -5    2.78    0.31
   4  -2   5   12.43    1.01
  -4  -2  -5   12.28    0.97
  -4  -2  -5   13.73    1.00
   4  -2   5   12.60    0.96
  -4  -2  -5   14.69    0.99
  -4  -2  -5   14.51    0.98
   4  -2   5   13.16    0.97
   4   2   5   11.06    0.99
  -4   2  -5   13.06    0.98
  -4   2  -5   13.49    0.99
   4   2   5   10.84    1.00
  -5  -2  -5    2.41    0.29
   5  -2   5    1.60    0.32
  -5  -2  -5    2.09    0.27
  -5  -2  -5    2.32    0.30
   5  -2   5    1.64    0.26
  -5  -2  -5    2.58    0.30
   5  -2   5    2.10    0.29
  -5   2  -5    2.09    0.30
   5   2   5    1.38    0.30
   5   2   5    2.53    0.32
  -5   2  -5    2.96    0.32
  -6  -2  -5    1.09    0.25
   6  -2   5    0.86    0.23
  -6  -2  -5    1.32    0.26
   6  -2   5    0.73    0.25
  -6  -2  -5    1.15    0.24
   6  -2   5    0.60    0.30
  -6  -2  -5    0.95    0.27
   6   2   5    1.13    0.30
  -6   2  -5    1.37    0.27
   6   2   5    0.96    0.30
  -6   2  -5    1.15    0.26
   7  -2   5    0.85    0.34
  -7  -2  -5    0.93    0.28
   7  -2   5    0.87    0.27
   7  -2   5    0.96    0.28
  -7  -2  -5    0.69    0.25
  -7  -2  -5    0.72    0.25
   7   2   5    1.35    0.34
  -7   2  -5    0.78    0.29
   7   2   5    0.78    0.28
  -8  -2  -5    3.51    0.44
  -8  -2  -5    2.53    0.40
   8  -2   5    2.88    0.40
   8  -2   5    3.49    0.41
  -8   2  -5    2.90    0.40
   8   2   5    3.03    0.44
   8   2   5    3.59    0.48
  -9  -2  -5   -0.03    0.31
   9  -2   5    0.17    0.29
   9  -2   5   -0.10    0.29
  -9  -2  -5    0.19    0.34
  -9   2  -5   -0.28    0.31
   9   2   5    0.05    0.32
 -10  -2  -5    3.42    0.45
  10  -2   5    2.57    0.44
 -10  -2  -5    2.00    0.43
 -10   2  -5    2.42    0.43
  10   2   5    2.99    0.52
  11  -2   5    1.99    0.47
 -11  -2  -5    3.33    0.49
 -11  -2  -5    2.32    0.47
 -11   2  -5    2.18    0.44
  11   2   5    1.88    0.50
 -12  -2  -5    1.04    0.51
  12  -2   5    0.02    0.45
 -12  -2  -5    0.53    0.44
 -12   2  -5    0.05    0.43
  12   2   5    0.23    0.51
  13  -3  -5    4.11    0.68
  13  -3  -5    4.16    0.52
 -13  -3   5    3.92    0.59
  13   3  -5    2.11    0.55
  12  -3  -5    1.64    0.46
  12  -3  -5    1.39    0.34
 -12  -3   5    1.93    0.41
  12   3  -5    0.75    0.41
  11  -3  -5   -0.20    0.25
  11  -3  -5   -0.03    0.34
 -11  -3   5    0.06    0.31
  11   3  -5   -0.02    0.31
 -10  -3   5    9.68    0.83
  10  -3  -5    9.82    0.87
  10  -3  -5    9.93    0.78
 -10   3   5    9.49    0.70
   9  -3  -5    6.25    0.62
  -9  -3   5    5.01    0.54
   9  -3  -5    6.15    0.51
  -9   3   5    5.53    0.43
   8  -3  -5    2.72    0.28
   8  -3  -5    1.72    0.34
  -8  -3   5    1.72    0.31
  -8   3   5    2.28    0.21
   8   3  -5    2.27    0.30
   7  -3  -5    8.08    0.66
   7  -3  -5    8.51    0.72
   7  -3  -5    8.30    0.71
  -7  -3   5    9.12    0.70
   7   3  -5    8.16    0.68
  -7   3   5    8.56    0.63
  -6  -3   5    0.64    0.22
  -6  -3   5    0.30    0.22
   6  -3  -5    0.29    0.22
   6  -3  -5    0.24    0.20
   6  -3  -5    0.17    0.14
  -6   3   5    0.34    0.11
  -6   3   5    0.11    0.19
   6   3  -5    0.29    0.15
  -5  -3   5    0.81    0.22
   5  -3  -5    0.94    0.17
   5  -3  -5    1.22    0.24
   5  -3  -5    0.94    0.24
  -5  -3   5    0.54    0.21
   5   3  -5    1.51    0.19
  -5   3   5    1.28    0.23
  -5   3   5    1.47    0.15
   4  -3  -5    6.59    0.52
   4  -3  -5    5.44    0.50
  -4  -3   5    5.52    0.51
  -4  -3   5    5.63    0.49
   4  -3  -5    6.18    0.46
  -4   3   5    5.42    0.45
   4   3  -5    5.48    0.46
  -4   3   5    5.22    0.51
   3  -3  -5   17.23    1.27
  -3  -3   5   17.05    1.30
   3  -3  -5   17.31    1.31
  -3  -3   5   18.45    1.31
  -3   3   5   15.99    1.30
   3   3  -5   17.76    1.27
  -3   3   5   18.24    1.27
  -2  -3   5    1.69    0.25
  -2  -3   5    1.02    0.20
  -2  -3   5    1.33    0.14
   2  -3  -5    1.17    0.16
  -2  -3   5    1.38    0.12
   2  -3  -5    1.25    0.22
   2   3  -5    0.85    0.21
   2   3  -5    0.86    0.15
  -2   3   5    1.12    0.17
  -2   3   5    0.78    0.20
  -1  -3   5    3.30    0.35
  -1  -3   5    4.01    0.31
  -1  -3   5    3.29    0.27
   1  -3  -5    3.19    0.35
  -1  -3   5    3.73    0.36
   1  -3  -5    3.05    0.31
  -1  -3   5    3.36    0.29
  -1   3   5    3.29    0.32
  -1   3   5    3.43    0.36
   1   3  -5    3.77    0.36
   0  -3  -5    6.06    0.55
   0  -3  -5    6.57    0.52
   0  -3   5    6.62    0.50
   0  -3   5    5.96    0.55
   0  -3  -5    6.48    0.49
   0  -3   5    6.03    0.55
   0  -3   5    6.59    0.52
   0  -3   5    7.30    0.53
   0   3  -5    5.80    0.55
   0   3   5    6.86    0.58
   0   3  -5    7.16    0.52
   0   3   5    6.53    0.53
  -1  -3  -5    5.93    0.46
   1  -3   5    5.77    0.50
   1  -3   5    5.40    0.45
  -1  -3  -5    6.33    0.50
  -1  -3  -5    5.70    0.44
   1  -3   5    4.89    0.43
  -1   3  -5    6.34    0.47
  -1   3  -5    7.00    0.52
   1   3   5    4.54    0.47
   1   3   5    5.49    0.51
   2  -3   5    4.22    0.37
   2  -3   5    5.26    0.39
  -2  -3  -5    5.23    0.41
   2  -3   5    4.08    0.45
  -2  -3  -5    5.30    0.46
  -2  -3  -5    4.36    0.38
   2   3   5    3.85    0.45
   2   3   5    3.95    0.42
  -2   3  -5    3.88    0.41
  -2   3  -5    4.14    0.44
   3  -3   5   20.35    1.55
  -3  -3  -5   21.47    1.58
  -3  -3  -5   21.23    1.56
  -3  -3  -5   21.70    1.55
   3  -3   5   21.75    1.55
   3  -3   5   21.77    1.60
   3   3   5   20.72    1.58
  -3   3  -5   21.89    1.58
  -3   3  -5   21.65    1.59
   3   3   5   20.40    1.59
   4  -3   5    2.65    0.30
  -4  -3  -5    2.60    0.32
  -4  -3  -5    2.32    0.30
   4  -3   5    2.46    0.37
   4  -3   5    2.91    0.32
  -4  -3  -5    2.74    0.30
  -4   3  -5    2.55    0.34
   4   3   5    2.87    0.35
  -4   3  -5    3.22    0.35
   4   3   5    2.17    0.38
   5  -3   5    2.68    0.33
  -5  -3  -5    4.11    0.38
  -5  -3  -5    2.77    0.36
  -5  -3  -5    3.35    0.34
   5  -3   5    2.61    0.33
   5  -3   5    2.93    0.40
  -5   3  -5    2.87    0.38
   5   3   5    3.42    0.41
   5   3   5    4.57    0.47
  -5   3  -5    3.33    0.38
  -6  -3  -5   22.97    1.63
   6  -3   5   19.50    1.63
  -6  -3  -5   20.33    1.63
   6  -3   5   23.19    1.67
   6  -3   5   21.34    1.63
   6   3   5   23.43    1.69
  -6   3  -5   22.89    1.65
   6   3   5   23.13    1.67
  -6   3  -5   22.55    1.65
  -7  -3  -5    0.23    0.27
  -7  -3  -5    0.11    0.27
   7  -3   5    0.40    0.34
   7  -3   5    0.24    0.24
   7  -3   5    0.63    0.26
  -7   3  -5    0.40    0.30
   7   3   5    0.24    0.33
   7   3   5   -0.13    0.31
   8  -3   5    0.47    0.31
   8  -3   5    0.60    0.29
  -8  -3  -5    0.81    0.32
  -8  -3  -5    0.27    0.52
  -8   3  -5    0.45    0.30
   8   3   5    0.97    0.43
   8   3   5    0.48    0.35
  -9  -3  -5    8.64    0.79
  -9  -3  -5    7.83    0.72
   9  -3   5    6.80    0.72
   9  -3   5    8.57    0.73
   9   3   5    7.12    0.77
  -9   3  -5    7.18    0.73
 -10  -3  -5    0.30    0.35
 -10  -3  -5    0.06    0.39
  10  -3   5   -0.12    0.34
 -10   3  -5   -0.09    0.33
  10   3   5    0.44    0.42
  11  -3   5    1.13    0.44
 -11  -3  -5    0.45    0.45
 -11  -3  -5    0.27    0.46
 -11   3  -5    0.84    0.42
  11   3   5    1.05    0.50
  12  -4  -5    0.31    0.35
  12  -4  -5    0.48    0.48
 -12  -4   5    0.27    0.41
  12   4  -5    0.01    0.43
 -12   4   5    0.31    0.14
 -11  -4   5    0.28    0.40
  11  -4  -5    0.02    0.30
  11  -4  -5   -0.30    0.43
  11   4  -5    0.04    0.36
 -11   4   5    0.19    0.15
  10  -4  -5    0.58    0.29
  10  -4  -5    1.31    0.37
 -10  -4   5    0.40    0.32
  10   4  -5    0.53    0.31
 -10   4   5    0.74    0.16
  -9  -4   5    0.39    0.30
   9  -4  -5    0.55    0.25
   9  -4  -5    0.98    0.34
   9   4  -5    0.85    0.28
  -9   4   5    0.79    0.17
   8  -4  -5    9.72    0.74
   8  -4  -5    7.60    0.80
  -8  -4   5   10.61    0.78
   8   4  -5    9.13    0.75
  -8   4   5    8.22    0.69
   7  -4  -5    3.35    0.47
  -7  -4   5    4.22    0.46
   7  -4  -5    5.42    0.53
   7  -4  -5    3.88    0.41
   7   4  -5    4.38    0.43
  -7   4   5    4.83    0.40
   6  -4  -5    0.13    0.28
  -6  -4   5   -0.03    0.22
   6  -4  -5    0.22    0.24
  -6  -4   5   -0.10    0.24
   6  -4  -5    0.04    0.18
  -6   4   5    0.17    0.23
  -6   4   5    0.06    0.16
   6   4  -5    0.14    0.19
   5  -4  -5   21.40    1.57
   5  -4  -5   22.42    1.60
   5  -4  -5   22.64    1.61
  -5  -4   5   22.04    1.52
  -5  -4   5   20.53    1.52
  -5  -4   5   21.76    1.60
  -5  -4   5   19.76    1.59
   5   4  -5   22.44    1.57
  -5   4   5   20.42    1.56
  -5   4   5   21.22    1.60
  -4  -4   5    0.91    0.23
   4  -4  -5    1.04    0.26
   4  -4  -5    1.49    0.27
   4  -4  -5    0.71    0.18
  -4  -4   5    0.89    0.23
  -4  -4   5    0.81    0.11
  -4   4   5    0.82    0.19
  -4   4   5    1.20    0.25
   4   4  -5    0.72    0.19
  -3  -4   5    0.04    0.09
   3  -4  -5   -0.06    0.16
  -3  -4   5    0.00    0.20
   3  -4  -5    0.00    0.22
  -3  -4   5    0.01    0.23
  -3   4   5    0.25    0.17
  -3   4   5   -0.06    0.18
   3   4  -5    0.23    0.15
   2  -4  -5   22.77    1.71
   2  -4  -5   22.98    1.68
  -2  -4   5   21.50    1.65
  -2  -4   5   22.80    1.70
  -2  -4   5   23.78    1.71
  -2   4   5   22.58    1.70
  -2   4   5   23.37    1.68
   2   4  -5   24.31    1.71
   2   4  -5   24.25    1.68
  -1  -4   5    0.77    0.24
  -1  -4   5    1.04    0.26
  -1  -4   5    1.01    0.14
   1  -4  -5    1.24    0.27
   1  -4  -5    0.64    0.19
   1   4  -5    1.29    0.20
   1   4  -5    0.87    0.27
  -1   4   5    0.88    0.21
  -1   4   5    0.54    0.23
   0  -4   5    1.37    0.27
   0  -4  -5    1.23    0.25
   0  -4   5    1.44    0.18
   0  -4  -5    1.02    0.20
   0  -4   5    1.32    0.26
   0   4  -5    1.75    0.23
   0   4  -5    0.87    0.26
   0   4   5    0.78    0.27
   0   4   5    1.53    0.24
  -1  -4  -5   16.36    1.24
   1  -4   5   17.07    1.23
   1  -4   5   17.64    1.29
  -1  -4  -5   16.92    1.28
  -1   4  -5   16.28    1.29
   1   4   5   17.24    1.27
   1   4   5   16.79    1.30
  -1   4  -5   16.05    1.25
   2  -4   5    0.42    0.15
  -2  -4  -5    0.45    0.19
   2  -4   5    0.64    0.25
  -2  -4  -5    0.22    0.22
  -2   4  -5    0.23    0.22
   2   4   5    0.62    0.24
   2   4   5    0.13    0.28
  -2   4  -5    0.58    0.26
  -3  -4  -5    1.08    0.26
   3  -4   5    1.03    0.26
   3  -4   5    0.78    0.19
  -3  -4  -5    1.48    0.25
  -3   4  -5    0.76    0.28
   3   4   5    1.71    0.31
   3   4   5    1.23    0.34
  -3   4  -5    1.48    0.28
  -4  -4  -5    3.77    0.42
   4  -4   5    4.36    0.44
  -4  -4  -5    4.22    0.47
  -4  -4  -5    4.70    0.45
   4  -4   5    4.85    0.43
   4  -4   5    4.80    0.50
   4   4   5    4.76    0.52
   4   4   5    5.31    0.51
  -4   4  -5    4.37    0.50
  -4   4  -5    4.19    0.46
   5  -4   5    0.29    0.30
  -5  -4  -5    0.34    0.25
   5  -4   5    0.31    0.24
   5  -4   5    0.53    0.22
  -5  -4  -5    0.32    0.24
  -5   4  -5    0.44    0.27
   5   4   5    0.41    0.32
   5   4   5    0.01    0.29
  -5   4  -5    0.52    0.32
   6  -4   5    0.96    0.29
   6  -4   5    0.62    0.32
  -6  -4  -5    1.19    0.30
   6  -4   5    0.82    0.27
  -6  -4  -5    0.99    0.33
   6   4   5    0.79    0.35
  -6   4  -5    1.24    0.33
   6   4   5    1.42    0.37
   7  -4   5    0.12    0.29
   7  -4   5    0.50    0.37
   7  -4   5    0.64    0.31
  -7  -4  -5    0.12    0.27
   7   4   5    0.12    0.37
  -7   4  -5    0.11    0.30
   7   4   5    0.50    0.40
   8  -4   5    0.70    0.33
  -8  -4  -5    1.34    0.34
   8  -4   5    0.90    0.37
  -8   4  -5    0.98    0.36
   8   4   5    0.82    0.44
   9  -4   5    0.27    0.34
   9  -4   5   -0.08    0.37
  -9  -4  -5    0.24    0.33
  -9   4  -5    0.11    0.36
   9   4   5    0.25    0.51
  10  -4   5    1.34    0.49
 -10  -4  -5    1.51    0.44
  10   4   5    0.71    0.53
 -10   4  -5    1.14    0.43
 -11  -4  -5    0.49    0.52
  11  -4   5    0.97    0.48
 -11  -4  -5    1.27    0.52
  11   4   5    0.74    0.62
 -11   4  -5    1.10    0.48
 -11  -5   5    0.47    0.48
  11  -5  -5    0.13    0.38
  11  -5  -5    0.43    0.52
  11   5  -5    0.34    0.42
 -11   5   5    0.06    0.21
 -10  -5   5    3.70    0.51
  10  -5  -5    3.40    0.53
  10  -5  -5    3.99    0.47
 -10   5   5    2.65    0.33
  10   5  -5    2.48    0.46
  -9  -5   5    3.05    0.44
   9  -5  -5    2.25    0.37
   9  -5  -5    2.62    0.46
   9   5  -5    2.22    0.40
  -9   5   5    2.14    0.30
  -8  -5   5    0.58    0.33
   8  -5  -5    1.53    0.37
   8  -5  -5    1.09    0.30
   8   5  -5    0.74    0.32
  -8   5   5    1.00    0.24
  -7  -5   5    1.52    0.35
   7  -5  -5    1.78    0.41
   7  -5  -5    2.40    0.38
   7  -5  -5    1.63    0.31
  -7  -5   5    1.75    0.17
  -7   5   5    1.14    0.26
   7   5  -5    1.61    0.32
  -6  -5   5    0.14    0.30
   6  -5  -5    0.03    0.22
  -6  -5   5    0.30    0.11
  -6  -5   5    0.28    0.29
   6  -5  -5    0.05    0.32
   6  -5  -5    0.27    0.31
   6   5  -5    0.26    0.24
  -6   5   5    0.38    0.22
  -6   5   5    0.53    0.31
  -5  -5   5    0.34    0.26
   5  -5  -5    0.58    0.33
   5  -5  -5    0.26    0.23
  -5  -5   5    0.19    0.30
  -5  -5   5    0.34    0.12
   5  -5  -5    0.39    0.31
  -5   5   5    0.57    0.23
  -5   5   5    0.04    0.29
   5   5  -5    0.11    0.23
   4  -5  -5    0.51    0.30
   4  -5  -5    0.70    0.30
  -4  -5   5    0.94    0.31
   4  -5  -5    0.95    0.24
  -4  -5   5    0.55    0.26
  -4  -5   5    0.66    0.14
   4   5  -5    0.63    0.24
  -4   5   5    1.01    0.31
  -4   5   5    0.72    0.22
  -3  -5   5    3.69    0.47
   3  -5  -5    4.91    0.51
   3  -5  -5    4.95    0.48
  -3  -5   5    5.31    0.50
   3  -5  -5    3.91    0.42
  -3  -5   5    3.97    0.37
  -3   5   5    4.78    0.48
  -3   5   5    4.41    0.45
   3   5  -5    4.76    0.46
   3   5  -5    4.95    0.53
  -2  -5   5    0.31    0.14
   2  -5  -5   -0.06    0.19
   2  -5  -5    0.71    0.29
  -2  -5   5    0.05    0.24
  -2  -5   5    0.03    0.29
   2   5  -5    0.73    0.32
   2   5  -5    0.44    0.22
  -2   5   5    0.46    0.23
  -2   5   5    0.29    0.23
  -1  -5   5    0.70    0.26
  -1  -5   5    0.42    0.16
  -1  -5   5    0.74    0.31
   1  -5  -5    0.87    0.22
   1  -5  -5    0.46    0.30
   1   5  -5    0.62    0.28
  -1   5   5    0.88    0.30
  -1   5   5    1.23    0.27
   1   5  -5    0.65    0.23
   0  -5   5    1.19    0.31
   0  -5  -5    1.59    0.33
   0  -5   5    1.10    0.20
   0  -5   5    1.43    0.34
   0  -5  -5    1.08    0.26
   0   5  -5    1.39    0.27
   0   5   5    1.35    0.29
   0   5   5    1.77    0.31
   0   5  -5    1.07    0.32
  -1  -5  -5    2.68    0.40
   1  -5   5    3.04    0.31
  -1  -5  -5    3.09    0.36
   1  -5   5    3.02    0.42
  -1   5  -5    2.62    0.36
   1   5   5    2.89    0.42
  -1   5  -5    2.32    0.41
   1   5   5    3.05    0.38
   2  -5   5    1.96    0.27
  -2  -5  -5    2.54    0.32
   2  -5   5    1.89    0.35
  -2  -5  -5    1.79    0.35
  -2   5  -5    1.83    0.40
   2   5   5    2.31    0.34
   2   5   5    2.30    0.41
  -2   5  -5    1.99    0.32
  -3  -5  -5    5.26    0.57
   3  -5   5    5.69    0.57
   3  -5   5    4.98    0.48
   3   5   5    5.38    0.56
   3   5   5    5.64    0.60
  -3   5  -5    5.71    0.56
  -3   5  -5    4.01    0.54
   4  -5   5    0.87    0.33
   4  -5   5    1.06    0.25
  -4  -5  -5    1.39    0.34
  -4   5  -5    1.50    0.35
   4   5   5    1.70    0.37
  -4   5  -5    0.69    0.35
   4   5   5    1.69    0.42
   5  -5   5    0.63    0.25
  -5  -5  -5    1.11    0.34
   5  -5   5    0.97    0.34
   5   5   5    1.16    0.41
  -5   5  -5    0.74    0.34
   5   5   5    1.27    0.44
   6  -5   5    7.59    0.76
   6  -5   5    6.15    0.63
  -6  -5  -5    6.70    0.67
   6   5   5    6.23    0.70
  -6   5  -5    6.38    0.67
   6   5   5    6.89    0.73
   7  -5   5    0.55    0.44
   7  -5   5   -0.24    0.30
  -7   5  -5   -0.09    0.36
   8  -5   5    0.27    0.35
  -8   5  -5   -0.10    0.38
   9  -5   5    3.32    0.55
  -9   5  -5    3.48    0.55
   9  -6  -5    0.65    0.40
   9  -6  -5    0.51    0.53
  -9  -6   5    1.13    0.46
  -9   6   5    0.60    0.31
   9   6  -5    0.49    0.41
  -8  -6   5    2.26    0.24
   8  -6  -5    2.78    0.43
   8  -6  -5    3.50    0.56
  -8  -6   5    3.40    0.52
  -8   6   5    2.15    0.37
   8   6  -5    2.66    0.46
  -7  -6   5    1.24    0.41
   7  -6  -5    1.10    0.48
   7  -6  -5    1.92    0.46
   7  -6  -5    1.40    0.37
  -7  -6   5    1.25    0.18
   7   6  -5    1.13    0.37
  -7   6   5    1.30    0.33
   6  -6  -5   -0.17    0.38
  -6  -6   5   -0.16    0.31
   6  -6  -5   -0.48    0.40
  -6  -6   5    0.05    0.15
  -6  -6   5    0.08    0.34
   6  -6  -5   -0.24    0.29
   6   6  -5    0.12    0.31
  -6   6   5    0.43    0.27
  -5  -6   5    4.77    0.43
   5  -6  -5    5.81    0.59
   5  -6  -5    5.36    0.53
   5  -6  -5    5.01    0.60
  -5  -6   5    4.47    0.57
  -5  -6   5    4.50    0.55
  -5   6   5    3.83    0.50
  -5   6   5    5.77    0.58
   5   6  -5    4.65    0.52
   4  -6  -5    0.10    0.34
  -4  -6   5   -0.07    0.34
  -4  -6   5    0.16    0.32
   4  -6  -5    0.54    0.30
   4  -6  -5    0.18    0.36
  -4  -6   5    0.24    0.16
  -4   6   5    0.66    0.29
   4   6  -5    0.78    0.31
  -4   6   5    0.22    0.34
   3  -6  -5   -0.20    0.34
  -3  -6   5    0.23    0.33
   3  -6  -5    0.29    0.37
  -3  -6   5    0.06    0.34
   3  -6  -5   -0.09    0.27
  -3  -6   5   -0.07    0.16
  -3   6   5   -0.21    0.29
   3   6  -5   -0.31    0.32
  -3   6   5    0.39    0.34
   3   6  -5    0.21    0.29
   2  -6  -5    5.43    0.49
   2  -6  -5    3.92    0.50
  -2  -6   5    4.06    0.42
  -2  -6   5    3.63    0.52
  -2  -6   5    5.41    0.56
   2  -6  -5    4.81    0.54
   2   6  -5    4.17    0.54
  -2   6   5    5.51    0.53
  -2   6   5    4.16    0.51
  -1  -6   5    0.70    0.20
  -1  -6   5    0.24    0.33
  -1  -6   5    0.65    0.35
   1  -6  -5    1.16    0.30
   1  -6  -5    0.39    0.32
   1   6  -5    0.72    0.35
  -1   6   5    0.01    0.30
  -1   6   5    0.77    0.29
   1   6  -5    0.24    0.29
   0  -6  -5    0.49    0.35
   0  -6   5    0.64    0.31
   0  -6  -5    0.58    0.33
   0  -6   5    1.09    0.23
   0   6   5    0.64    0.31
   0   6  -5    0.08    0.41
   0   6  -5    0.19    0.32
   0   6   5    0.44    0.34
   1  -6   5    4.20    0.52
  -1  -6  -5    3.78    0.51
   1  -6   5    4.15    0.40
   1   6   5    2.73    0.45
  -1   6  -5    3.72    0.55
  -1   6  -5    2.95    0.48
   2  -6   5    0.28    0.32
  -2  -6  -5    0.64    0.36
   2  -6   5    0.11    0.23
  -2   6  -5    0.10    0.36
  -2   6  -5   -0.10    0.41
   2   6   5    0.43    0.35
   3  -6   5    0.81    0.36
  -3  -6  -5    0.70    0.41
   3  -6   5    0.52    0.26
   3   6   5    0.17    0.35
  -3   6  -5    0.48    0.37
  -3   6  -5    1.03    0.64
   4  -6   5    0.78    0.37
   4  -6   5    0.75    0.28
  -4  -6  -5    0.15    0.40
  -4   6  -5    0.80    0.41
   4   6   5    1.11    0.43
  -5  -6  -5   -0.33    0.40
   5  -6   5    0.05    0.29
   5  -6   5    0.50    0.43
  -5   6  -5   -0.21    0.38
   5   6   5    0.25    0.45
  -6  -6  -5    0.63    0.39
   6  -6   5    0.68    0.34
   6  -6   5    0.59    0.46
  -6   6  -5    0.28    0.44
   7  -6   5    0.37    0.46
   7  -6   5    0.11    0.38
   8  -6   5    0.89    0.48
  -7  -7   5    0.68    0.46
  -7  -7   5    0.11    0.19
   7  -7  -5   -0.23    0.62
   7  -7  -5   -0.25    0.47
  -7   7   5   -0.14    0.38
   7   7  -5    0.01    0.46
  -6  -7   5   -0.02    0.41
  -6  -7   5    0.16    0.20
  -6  -7   5    0.11    0.48
   6  -7  -5    0.14    0.48
  -6   7   5    0.08    0.37
   6   7  -5    0.16    0.42
   5  -7  -5    0.20    0.45
  -5  -7   5   -0.11    0.20
  -5  -7   5   -0.60    0.39
  -5  -7   5    0.69    0.47
   5   7  -5    0.03    0.40
  -5   7   5   -0.03    0.38
   5   7  -5    0.74    0.49
  -4  -7   5    0.38    0.42
  -4  -7   5   -0.31    0.37
   4  -7  -5   -0.20    0.42
  -4  -7   5   -0.02    0.21
  -4   7   5    0.10    0.35
   4   7  -5    0.55    0.45
   4   7  -5    0.10    0.38
  -3  -7   5    0.84    0.41
   3  -7  -5    0.98    0.49
  -3  -7   5    0.54    0.23
  -3  -7   5    1.30    0.49
   3   7  -5    0.87    0.39
  -3   7   5    0.54    0.39
   3   7  -5    0.59    0.44
  -2  -7   5    0.18    0.38
  -2  -7   5    0.35    0.45
  -2  -7   5    0.01    0.22
   2  -7  -5   -0.03    0.38
   2   7  -5    0.01    0.47
  -2   7   5    0.17    0.38
   2   7  -5    0.19    0.39
   1  -7  -5   -0.12    0.44
  -1  -7   5    0.01    0.23
  -1  -7   5   -0.20    0.46
  -1  -7   5    0.48    0.40
   1   7  -5   -0.03    0.49
  -1   7   5    0.16    0.38
   1   7  -5   -0.04    0.39
   0  -7  -5   -0.09    0.41
   0  -7   5    0.05    0.39
   0  -7   5    0.12    0.26
   0   7  -5    0.18    0.40
   0   7  -5   -0.05    0.46
   0   7   5    0.12    0.38
   1  -7   5    0.80    0.29
   1  -7   5    1.12    0.41
  -1  -7  -5    0.69    0.42
  -1   7  -5    1.16    0.53
   1   7   5    0.30    0.44
  -2  -7  -5    0.55    0.42
   2  -7   5    0.43    0.42
   2  -7   5    0.44    0.29
   2   7   5    0.36    0.43
  -2   7  -5    0.66    0.50
  -3  -7  -5    0.26    0.49
   3  -7   5    0.37    0.44
   3  -7   5    0.70    0.33
   3   7   5    1.50    0.49
  -4  -7  -5    0.29    0.52
   4  -7   5    0.92    0.54
   4  -7   5    1.02    0.37
   4   7   5    0.90    0.54
   5  -7   5   -0.21    0.37
  -5  -7  -5    0.12    0.52
   5  -7   5    0.18    0.56
  -6  -7  -5    2.04    0.56
   6  -7   5    1.23    0.45
   6  -7   5    1.08    0.57
  -3  -8   5   -0.33    0.27
   3  -8  -5    0.15    0.61
  -3  -8   5   -0.50    0.55
  -3   8   5    0.22    0.51
  -2  -8   5   -0.11    0.51
   2  -8  -5    0.14    0.53
  -2  -8   5    0.24    0.29
  -2   8   5    0.76    0.53
  -1  -8   5    0.14    0.48
   1  -8  -5    0.30    0.53
  -1  -8   5    0.12    0.31
  -1   8   5    0.14    0.50
   0  -8   5   -0.17    0.56
   0  -8  -5    0.01    0.52
   0  -8   5   -0.08    0.33
   0   8   5   -0.11    0.51
  -1  -8  -5    0.16    0.55
   1  -8   5    0.08    0.51
   1  -8   5    0.37    0.36
   1   8   5    0.35    0.56
  14   0  -6    0.33    0.40
  14   0  -6    0.10    0.55
  13   0  -6    4.09    0.61
 -13   0   6    3.03    0.49
  13   0  -6    3.14    0.45
  12   0  -6    0.24    0.27
  12   0  -6    0.95    0.39
 -12   0   6    0.39    0.33
  11   0  -6    6.37    0.65
 -11   0   6    6.96    0.63
  11   0  -6    6.03    0.57
  10   0  -6    3.68    0.42
 -10   0   6    3.32    0.37
  10   0  -6    2.95    0.32
  -9   0   6    0.57    0.24
   9   0  -6    0.57    0.16
   9   0  -6    0.93    0.27
   8   0  -6   28.36    2.02
   8   0  -6   28.55    2.06
  -8   0   6   27.40    2.05
  -7   0   6    0.20    0.15
   7   0  -6   -0.10    0.17
   7   0  -6    0.14    0.09
   6   0  -6    0.57    0.10
  -6   0   6    1.08    0.22
   6   0  -6    0.72    0.09
  -6   0   6    0.69    0.18
  -6   0   6    0.52    0.16
   6   0  -6    0.41    0.17
   6   0  -6    0.59    0.21
   5   0  -6   32.41    2.46
  -5   0   6   35.26    2.48
  -5   0   6   35.13    2.47
   5   0  -6   32.56    2.48
  -5   0   6   35.24    2.45
  -4   0   6    2.27    0.30
  -4   0   6    2.29    0.25
   4   0  -6    2.55    0.32
  -4   0   6    2.15    0.23
  -3   0   6   27.10    1.96
   3   0  -6   26.43    1.96
  -3   0   6   27.74    1.97
  -3   0   6   27.35    1.99
  -2   0   6   74.13    5.37
   2   0  -6   74.52    5.31
  -2   0   6   75.19    5.35
   2   0  -6   75.59    5.34
   2   0  -6   75.00    5.31
  -2   0   6   75.56    5.34
   1   0  -6   10.68    0.74
   1   0  -6   10.71    0.77
   1   0  -6    9.27    0.73
  -1   0   6    9.70    0.77
  -1   0   6   10.78    0.81
   0   0  -6    1.36    0.20
   0   0  -6    1.19    0.15
   0   0  -6    1.29    0.17
   0   0   6    2.03    0.25
   0   0   6    1.59    0.26
   1   0   6    5.34    0.53
  -1   0  -6    5.44    0.49
  -1   0  -6    5.92    0.46
   1   0   6    6.65    0.46
   1   0   6    5.96    0.46
   1   0   6    5.99    0.51
  -2   0  -6   22.51    1.70
   2   0   6   26.91    1.71
   2   0   6   23.57    1.70
   2   0   6   21.82    1.74
  -2   0  -6   22.61    1.72
   2   0   6   23.09    1.73
   3   0   6    4.02    0.36
   3   0   6    4.37    0.45
   3   0   6    3.72    0.40
  -3   0  -6    4.35    0.37
  -3   0  -6    3.63    0.38
  -4   0  -6    1.28    0.21
   4   0   6    0.54    0.24
   4   0   6    0.96    0.19
   4   0   6    0.59    0.20
  -4   0  -6    0.58    0.20
   5   0   6   26.91    1.93
  -5   0  -6   27.08    1.93
   5   0   6   24.70    1.95
   5   0   6   25.26    1.94
  -5   0  -6   26.86    1.96
  -5   0  -6   27.74    1.94
   6   0   6   -0.04    0.22
  -6   0  -6   -0.14    0.26
   6   0   6    0.00    0.21
   6   0   6   -0.14    0.23
  -6   0  -6    0.19    0.22
  -6   0  -6    0.15    0.23
  -7   0  -6    2.01    0.32
   7   0   6    1.71    0.36
  -7   0  -6    1.23    0.29
   7   0   6    2.41    0.33
  -7   0  -6    1.86    0.36
   7   0   6    1.21    0.30
   8   0   6   11.11    0.91
  -8   0  -6   10.41    0.90
   8   0   6   11.17    0.92
   9   0   6    0.56    0.36
   9   0   6    1.00    0.33
  -9   0  -6    0.46    0.30
  10   0   6    1.87    0.41
  10   0   6    2.90    0.50
 -10   0  -6    1.37    0.38
 -11   0  -6    3.10    0.55
  11   0   6    2.55    0.52
 -12   0  -6    0.23    0.46
  12   0   6    0.58    0.54
 -14  -1   6    0.56    0.42
  14  -1  -6   -0.08    0.60
  14  -1  -6   -0.02    0.38
  14   1  -6   -0.08    0.42
 -13  -1   6    1.06    0.38
  13  -1  -6    0.50    0.45
  13  -1  -6    0.39    0.32
  13   1  -6    0.58    0.37
  12  -1  -6    0.54    0.41
  12  -1  -6    0.27    0.25
 -12  -1   6    0.06    0.30
  12   1  -6    0.42    0.41
  12   1  -6    0.04    0.27
  11  -1  -6    0.88    0.35
 -11  -1   6    0.86    0.33
  11  -1  -6    0.92    0.24
  11   1  -6    1.39    0.40
  11   1  -6    0.71    0.25
  10  -1  -6    5.34    0.45
  10  -1  -6    4.89    0.53
 -10  -1   6    4.65    0.49
  10   1  -6    5.17    0.53
  10   1  -6    4.44    0.46
   9  -1  -6    5.42    0.53
  -9  -1   6    5.06    0.50
   9  -1  -6    5.52    0.45
   9   1  -6    5.21    0.46
   9   1  -6    5.76    0.54
  -9   1   6    4.63    0.48
  -8  -1   6   -0.06    0.19
   8  -1  -6    0.21    0.12
   8  -1  -6    0.16    0.23
   8   1  -6   -0.06    0.21
   8   1  -6   -0.01    0.13
  -8   1   6    0.12    0.18
   7  -1  -6   17.52    1.37
   7  -1  -6   18.78    1.32
  -7  -1   6   17.19    1.35
   7   1  -6   18.07    1.36
   7   1  -6   18.71    1.32
  -7   1   6   18.69    1.36
  -7   1   6   18.29    1.34
   6  -1  -6   16.71    1.16
   6  -1  -6   15.21    1.16
   6  -1  -6   15.00    1.14
  -6  -1   6   15.73    1.15
  -6  -1   6   16.93    1.19
   6  -1  -6   14.63    1.11
  -6   1   6   17.68    1.17
   6   1  -6   14.82    1.11
  -6   1   6   16.27    1.14
   6   1  -6   14.63    1.11
   5  -1  -6    1.11    0.11
   5  -1  -6    1.00    0.20
   5  -1  -6    0.92    0.13
   5  -1  -6    1.10    0.22
  -5  -1   6    1.39    0.19
  -5  -1   6    0.71    0.18
  -5  -1   6    1.51    0.27
   5   1  -6    1.17    0.19
   5   1  -6    1.00    0.09
   5   1  -6    0.92    0.09
  -5   1   6    1.30    0.22
  -5   1   6    1.12    0.16
   4  -1  -6    4.19    0.31
   4  -1  -6    3.92    0.32
  -4  -1   6    4.32    0.36
  -4  -1   6    3.79    0.43
  -4  -1   6    4.10    0.37
   4  -1  -6    3.67    0.40
  -4   1   6    3.99    0.35
  -4   1   6    4.68    0.38
   3  -1  -6   23.88    1.79
  -3  -1   6   25.29    1.80
   3  -1  -6   23.89    1.78
   3  -1  -6   24.29    1.78
   3  -1  -6   24.46    1.83
  -3  -1   6   26.79    1.81
  -3  -1   6   25.47    1.84
  -3   1   6   25.58    1.83
  -3   1   6   25.47    1.82
  -3   1   6   25.58    1.79
  -2  -1   6   -0.04    0.13
  -2  -1   6    0.02    0.15
   2  -1  -6    0.05    0.08
   2  -1  -6   -0.04    0.07
   2  -1  -6    0.10    0.13
  -2  -1   6    0.11    0.20
   2  -1  -6    0.00    0.17
  -2   1   6    0.03    0.17
  -2   1   6    0.16    0.15
   2   1  -6    0.06    0.05
   2   1  -6    0.03    0.06
   2   1  -6    0.02    0.14
   1  -1  -6    8.14    0.62
   1  -1  -6    7.81    0.61
   1  -1  -6    8.35    0.68
  -1  -1   6    8.91    0.65
   1  -1  -6    7.86    0.63
  -1  -1   6    8.61    0.69
  -1  -1   6    9.05    0.66
   1   1  -6    8.38    0.61
  -1   1   6    8.51    0.67
   1   1  -6    8.03    0.65
  -1   1   6    9.09    0.69
   1   1  -6    8.19    0.61
   0  -1  -6  133.79    9.65
   0  -1  -6  136.93    9.66
   0  -1   6  134.83    9.69
   0  -1   6  141.43    9.67
   0  -1  -6  133.52    9.69
   0  -1  -6  140.42    9.65
   0   1   6  133.86    9.64
   0   1  -6  131.84    9.65
   0   1  -6  132.68    9.67
   0   1   6  144.32    9.64
   0   1  -6  134.70    9.65
   0   1   6  134.56    9.69
   0   1   6  134.51    9.68
   1  -1   6    0.01    0.10
  -1  -1  -6   -0.08    0.18
   1  -1   6   -0.01    0.20
  -1  -1  -6    0.11    0.14
   1  -1   6    0.02    0.16
   1  -1   6    0.05    0.08
  -1  -1  -6    0.13    0.11
  -1   1  -6   -0.05    0.11
   1   1   6   -0.04    0.18
  -1   1  -6    0.04    0.15
   1   1   6    0.12    0.10
   1   1   6    0.13    0.12
   1   1   6    0.13    0.17
   2  -1   6    3.51    0.32
   2  -1   6    3.81    0.34
   2  -1   6    3.46    0.41
  -2  -1  -6    3.26    0.38
  -2  -1  -6    3.59    0.31
   2  -1   6    3.17    0.28
  -2  -1  -6    3.01    0.32
   2   1   6    4.11    0.38
  -2   1  -6    2.89    0.30
   2   1   6    2.96    0.30
  -2   1  -6    3.10    0.34
   2   1   6    2.39    0.35
   3  -1   6   55.70    4.01
   3  -1   6   52.68    3.96
  -3  -1  -6   57.70    4.01
   3  -1   6   57.35    3.98
  -3  -1  -6   57.04    3.98
  -3  -1  -6   58.15    3.98
  -3   1  -6   54.48    3.99
   3   1   6   54.82    4.01
  -3   1  -6   54.15    3.97
   3   1   6   54.86    4.00
   3   1   6   54.61    3.97
   4  -1   6    2.59    0.35
   4  -1   6    2.21    0.29
   4  -1   6    2.29    0.26
  -4  -1  -6    1.76    0.27
  -4  -1  -6    2.79    0.29
  -4  -1  -6    2.70    0.36
   4   1   6    2.19    0.29
  -4   1  -6    3.74    0.31
  -4   1  -6    2.13    0.30
   4   1   6    2.25    0.35
   4   1   6    1.97    0.30
  -5  -1  -6    4.17    0.43
   5  -1   6    4.59    0.42
  -5  -1  -6    4.86    0.50
   5  -1   6    3.95    0.44
  -5  -1  -6    5.67    0.46
   5  -1   6    4.13    0.50
   5   1   6    3.29    0.42
   5   1   6    5.29    0.47
  -5   1  -6    4.41    0.45
  -5   1  -6    5.47    0.46
   5   1   6    4.05    0.47
  -6  -1  -6    2.41    0.35
   6  -1   6    2.40    0.39
   6  -1   6    2.86    0.31
  -6  -1  -6    2.03    0.33
   6  -1   6    1.66    0.30
  -6  -1  -6    2.41    0.34
   6   1   6    1.78    0.33
   6   1   6    2.14    0.33
  -6   1  -6    2.09    0.33
  -6   1  -6    1.76    0.31
   7  -1   6   -0.06    0.24
   7  -1   6   -0.23    0.31
  -7  -1  -6    0.17    0.24
  -7  -1  -6    0.17    0.29
  -7  -1  -6    0.05    0.25
   7  -1   6    0.31    0.23
  -7   1  -6    0.15    0.26
   7   1   6   -0.21    0.26
   7   1   6   -0.34    0.26
  -7   1  -6    0.33    0.25
   8  -1   6    5.74    0.56
   8  -1   6    5.69    0.56
  -8  -1  -6    5.27    0.57
   8   1   6    5.95    0.59
   8   1   6    4.23    0.56
  -8   1  -6    5.22    0.55
   9  -1   6    1.07    0.35
   9  -1   6    1.18    0.36
  -9  -1  -6    1.50    0.35
   9   1   6    1.28    0.38
   9   1   6    0.76    0.40
  -9   1  -6    0.85    0.33
  10  -1   6    0.24    0.38
  10  -1   6   -0.05    0.35
 -10  -1  -6    0.65    0.35
 -10   1  -6    0.15    0.35
  10   1   6   -0.01    0.63
  10   1   6    0.15    0.37
 -11  -1  -6    0.04    0.40
  11  -1   6    0.55    0.42
 -11   1  -6    0.69    0.45
  11   1   6    0.14    0.42
  12  -1   6    0.28    0.49
 -12  -1  -6    0.25    0.52
  12   1   6    1.07    0.54
 -12   1  -6    0.82    0.47
 -13  -2   6    2.86    0.48
  13  -2  -6    2.84    0.57
  13  -2  -6    2.17    0.41
  13   2  -6    3.21    0.48
  12  -2  -6    0.21    0.40
  12  -2  -6    0.13    0.28
 -12  -2   6    0.09    0.33
  12   2  -6    0.13    0.31
  11  -2  -6    5.55    0.58
  11  -2  -6    3.69    0.43
 -11  -2   6    4.08    0.51
  11   2  -6    4.55    0.47
  10  -2  -6    3.00    0.43
  10  -2  -6    1.92    0.29
 -10  -2   6    2.77    0.37
  10   2  -6    2.20    0.32
   9  -2  -6    0.28    0.27
  -9  -2   6    0.19    0.24
   9  -2  -6    0.20    0.16
   9   2  -6    0.40    0.19
  -8  -2   6   19.96    1.44
   8  -2  -6   19.61    1.41
   8  -2  -6   18.67    1.46
   8   2  -6   18.72    1.41
   7  -2  -6    0.17    0.21
  -7  -2   6    0.09    0.19
   7  -2  -6    0.05    0.21
   7  -2  -6    0.11    0.12
  -7   2   6    0.18    0.20
   7   2  -6    0.05    0.21
   7   2  -6    0.09    0.14
  -6  -2   6    0.16    0.22
   6  -2  -6    0.13    0.11
  -6  -2   6    0.51    0.19
   6  -2  -6    0.25    0.20
   6  -2  -6    0.25    0.21
   6   2  -6    0.40    0.13
  -6   2   6    0.38    0.21
   6   2  -6    0.15    0.17
   5  -2  -6   21.40    1.54
  -5  -2   6   19.09    1.52
   5  -2  -6   20.22    1.49
  -5  -2   6   21.58    1.55
   5  -2  -6   18.47    1.53
   5   2  -6   21.19    1.51
  -5   2   6   21.27    1.54
   5   2  -6   21.94    1.49
   5   2  -6   20.65    1.48
  -4  -2   6    1.33    0.21
  -4  -2   6    2.53    0.30
   4  -2  -6    1.66    0.25
  -4  -2   6    2.04    0.20
   4  -2  -6    1.64    0.17
   4   2  -6    1.84    0.16
  -4   2   6    1.12    0.23
   4   2  -6    1.32    0.20
   4   2  -6    1.63    0.16
  -3  -2   6   15.99    1.20
   3  -2  -6   14.81    1.21
  -3  -2   6   16.52    1.22
  -3  -2   6   18.31    1.18
   3  -2  -6   16.05    1.17
  -3   2   6   15.82    1.21
   3   2  -6   15.49    1.16
   3   2  -6   15.97    1.16
   2  -2  -6   43.70    3.13
  -2  -2   6   43.11    3.16
  -2  -2   6   45.60    3.14
   2  -2  -6   44.41    3.17
   2  -2  -6   44.03    3.13
  -2  -2   6   43.73    3.17
  -2   2   6   40.96    3.16
  -2   2   6   44.12    3.11
   2   2  -6   44.75    3.13
  -2   2   6   44.64    3.11
   2   2  -6   42.74    3.13
   2   2  -6   43.77    3.16
   1  -2  -6    4.18    0.36
  -1  -2   6    4.13    0.40
  -1  -2   6    4.92    0.39
  -1  -2   6    4.42    0.42
   1  -2  -6    4.35    0.42
   1  -2  -6    3.81    0.36
  -1   2   6    4.79    0.35
   1   2  -6    4.52    0.36
  -1   2   6    5.24    0.35
   1   2  -6    3.69    0.35
  -1   2   6    4.47    0.43
   1   2  -6    3.99    0.41
   0  -2   6    0.91    0.18
   0  -2  -6    0.91    0.14
   0  -2  -6    0.84    0.21
   0  -2   6    0.84    0.10
   0  -2  -6    0.90    0.14
   0  -2   6    1.18    0.12
   0  -2   6    0.59    0.21
   0   2   6    0.93    0.23
   0   2   6    0.80    0.14
   0   2   6    0.72    0.13
   0   2  -6    0.91    0.14
   0   2  -6    0.47    0.21
  -1  -2  -6    3.68    0.39
   1  -2   6    4.02    0.31
   1  -2   6    3.95    0.33
   1  -2   6    3.63    0.39
  -1  -2  -6    4.16    0.34
  -1  -2  -6    3.43    0.34
   1  -2   6    3.42    0.36
   1   2   6    3.56    0.33
   1   2   6    3.62    0.40
  -1   2  -6    3.63    0.34
  -1   2  -6    3.95    0.39
  -2  -2  -6   14.46    1.05
   2  -2   6   14.25    1.04
  -2  -2  -6   15.50    1.11
   2  -2   6   14.62    1.07
   2  -2   6   14.09    1.11
  -2  -2  -6   13.80    1.05
   2   2   6   12.84    1.09
   2   2   6   13.89    1.06
  -2   2  -6   15.30    1.06
  -2   2  -6   13.40    1.08
   3  -2   6    2.37    0.28
  -3  -2  -6    2.44    0.28
  -3  -2  -6    2.42    0.32
   3  -2   6    2.40    0.34
  -3  -2  -6    2.13    0.27
   3  -2   6    2.19    0.24
  -3   2  -6    2.36    0.28
  -3   2  -6    3.39    0.34
   3   2   6    2.22    0.33
   3   2   6    2.32    0.28
   4  -2   6    1.29    0.19
  -4  -2  -6    0.70    0.20
   4  -2   6    0.42    0.25
  -4  -2  -6    0.82    0.20
  -4  -2  -6    0.71    0.23
   4  -2   6    0.83    0.22
  -4   2  -6    0.99    0.25
  -4   2  -6    0.76    0.23
   4   2   6    0.74    0.28
   4   2   6    0.91    0.24
  -5  -2  -6   19.16    1.42
   5  -2   6   17.49    1.47
  -5  -2  -6   17.79    1.42
   5  -2   6   18.31    1.42
   5  -2   6   20.63    1.42
  -5  -2  -6   19.05    1.45
  -5   2  -6   19.84    1.43
   5   2   6   18.51    1.45
   5   2   6   20.25    1.44
  -5   2  -6   19.48    1.44
   6  -2   6    0.00    0.33
   6  -2   6    0.06    0.21
   6  -2   6   -0.42    0.21
  -6  -2  -6   -0.07    0.22
  -6  -2  -6    0.24    0.23
  -6  -2  -6   -0.19    0.21
   6   2   6    0.12    0.31
   6   2   6   -0.07    0.27
  -6   2  -6   -0.11    0.24
  -6   2  -6   -0.06    0.25
   7  -2   6    1.74    0.34
   7  -2   6    1.77    0.31
  -7  -2  -6    1.41    0.30
   7  -2   6    1.08    0.42
  -7  -2  -6    1.33    0.34
  -7   2  -6    1.28    0.34
   7   2   6    1.66    0.36
   7   2   6    1.81    0.39
  -7   2  -6    1.68    0.34
  -8  -2  -6    8.10    0.76
   8  -2   6    7.39    0.73
   8  -2   6    7.93    0.73
  -8   2  -6    8.07    0.74
   8   2   6    7.88    0.76
   8   2   6    9.06    0.80
  -9  -2  -6    0.69    0.37
   9  -2   6    1.02    0.39
   9  -2   6    1.23    0.36
   9   2   6    1.35    0.46
  -9   2  -6    0.38    0.32
   9   2   6    0.91    0.36
 -10  -2  -6    1.66    0.45
  10  -2   6    1.07    0.41
  10  -2   6    1.37    0.42
  10   2   6    1.29    0.43
 -10   2  -6    1.09    0.40
  11  -2   6    2.16    0.55
 -11  -2  -6    2.28    0.49
  11   2   6    2.12    0.54
 -11   2  -6    1.74    0.48
  13  -3  -6    0.25    0.39
 -13  -3   6    0.39    0.48
  13  -3  -6   -0.04    0.54
  13   3  -6   -0.12    0.42
  12  -3  -6   -0.50    0.44
  12  -3  -6    0.26    0.31
 -12  -3   6    0.24    0.42
  12   3  -6   -0.09    0.34
  11  -3  -6    0.60    0.37
  11  -3  -6    0.56    0.28
 -11  -3   6    0.44    0.33
  11   3  -6    0.40    0.31
  10  -3  -6    1.96    0.38
  10  -3  -6    1.45    0.28
 -10  -3   6    2.05    0.36
  10   3  -6    1.62    0.30
   9  -3  -6    2.76    0.34
   9  -3  -6    4.04    0.46
  -9  -3   6    3.63    0.42
   9   3  -6    3.19    0.38
   8  -3  -6   -0.09    0.16
   8  -3  -6   -0.06    0.25
  -8  -3   6    0.08    0.24
   8   3  -6    0.06    0.19
   7  -3  -6    8.19    0.66
   7  -3  -6    7.13    0.72
  -7  -3   6    9.29    0.71
   7  -3  -6    9.48    0.73
   7   3  -6    8.23    0.67
  -7   3   6    8.57    0.72
   6  -3  -6    6.68    0.65
  -6  -3   6    8.24    0.66
   6  -3  -6    8.05    0.60
  -6  -3   6    6.80    0.65
   6  -3  -6    8.03    0.66
   6   3  -6    7.51    0.60
  -6   3   6    6.96    0.65
   5  -3  -6    0.62    0.23
   5  -3  -6    0.58    0.16
   5  -3  -6    0.65    0.24
  -5  -3   6    0.32    0.22
  -5  -3   6    0.43    0.24
  -5   3   6    0.55    0.08
   5   3  -6    0.61    0.15
  -5   3   6    0.64    0.23
  -5   3   6    0.69    0.08
  -4  -3   6    1.61    0.27
  -4  -3   6    0.49    0.20
   4  -3  -6    1.12    0.17
   4  -3  -6    1.26    0.25
  -4   3   6    1.12    0.24
  -4   3   6    1.17    0.13
  -4   3   6    1.31    0.14
   4   3  -6    0.75    0.16
  -3  -3   6    9.25    0.73
  -3  -3   6    7.81    0.71
   3  -3  -6    8.19    0.73
   3  -3  -6    9.19    0.68
  -3   3   6    9.89    0.66
   3   3  -6    8.92    0.68
  -3   3   6    8.68    0.67
  -3   3   6    8.56    0.73
  -2  -3   6    0.11    0.19
   2  -3  -6    0.16    0.19
  -2  -3   6   -0.04    0.17
   2  -3  -6    0.05    0.12
  -2   3   6    0.05    0.11
   2   3  -6    0.19    0.19
   2   3  -6    0.08    0.12
  -2   3   6    0.05    0.18
  -1  -3   6    4.36    0.45
  -1  -3   6    4.64    0.37
  -1  -3   6    4.76    0.35
  -1  -3   6    4.89    0.46
   1  -3  -6    4.40    0.40
   1  -3  -6    4.30    0.45
   1   3  -6    5.77    0.48
  -1   3   6    4.77    0.40
   1   3  -6    4.69    0.39
  -1   3   6    4.02    0.45
   0  -3   6   58.76    4.26
   0  -3   6   58.31    4.21
   0  -3   6   61.53    4.23
   0  -3  -6   60.99    4.27
   0  -3  -6   60.68    4.23
   0   3   6   55.62    4.26
   0   3  -6   61.09    4.26
   0   3  -6   60.12    4.23
   0   3   6   56.24    4.23
  -1  -3  -6    0.12    0.15
   1  -3   6    0.54    0.24
  -1  -3  -6    0.23    0.23
   1  -3   6    0.38    0.17
   1  -3   6    0.30    0.11
  -1   3  -6    0.17    0.16
   1   3   6    0.47    0.16
  -1   3  -6    0.05    0.22
   1   3   6   -0.07    0.21
   2  -3   6    1.89    0.24
  -2  -3  -6    1.94    0.23
   2  -3   6    2.52    0.32
   2  -3   6    1.76    0.21
  -2  -3  -6    1.68    0.31
  -2  -3  -6    1.56    0.23
   2   3   6    1.76    0.25
   2   3   6    1.45    0.31
  -2   3  -6    2.23    0.30
  -2   3  -6    1.13    0.23
  -3  -3  -6   26.83    1.97
  -3  -3  -6   27.09    2.00
  -3  -3  -6   27.27    1.96
   3  -3   6   26.97    1.96
   3  -3   6   25.78    1.96
   3  -3   6   28.43    2.01
   3   3   6   25.00    2.00
  -3   3  -6   28.72    1.98
  -3   3  -6   26.33    1.99
   3   3   6   27.72    1.98
   4  -3   6    1.53    0.24
   4  -3   6    2.33    0.29
  -4  -3  -6    1.98    0.28
  -4  -3  -6    1.73    0.27
  -4  -3  -6    1.88    0.31
   4  -3   6    2.14    0.33
   4   3   6    1.92    0.38
  -4   3  -6    1.84    0.31
   4   3   6    1.59    0.27
  -4   3  -6    1.36    0.31
   5  -3   6    2.30    0.33
  -5  -3  -6    1.92    0.34
   5  -3   6    2.38    0.39
  -5  -3  -6    2.74    0.32
  -5  -3  -6    1.55    0.28
   5  -3   6    1.92    0.28
  -5   3  -6    1.56    0.31
   5   3   6    1.82    0.32
  -5   3  -6    2.01    0.36
   5   3   6    2.14    0.41
  -6  -3  -6    0.83    0.26
   6  -3   6    0.63    0.24
   6  -3   6    1.36    0.39
  -6  -3  -6    0.63    0.27
   6  -3   6    0.43    0.29
  -6   3  -6    1.11    0.31
   6   3   6    0.79    0.36
   6   3   6    0.59    0.32
  -6   3  -6    0.86    0.31
  -7  -3  -6   -0.25    0.29
  -7  -3  -6    0.44    0.33
   7  -3   6    0.49    0.32
   7  -3   6    4.43    0.36
   7  -3   6    0.36    0.40
   7   3   6    0.90    0.37
   7   3   6    0.67    0.36
  -7   3  -6    0.06    0.30
  -8  -3  -6    3.57    0.44
   8  -3   6    3.42    0.43
   8  -3   6    2.54    0.43
   8   3   6    2.84    0.49
  -8   3  -6    2.28    0.43
   8   3   6    3.31    0.55
   9  -3   6    0.92    0.38
   9  -3   6    0.70    0.36
  -9  -3  -6    0.27    0.38
   9   3   6    0.57    0.44
   9   3   6    0.26    0.47
  -9   3  -6    0.53    0.37
 -10  -3  -6    0.61    0.40
  10  -3   6   -0.14    0.39
  10  -3   6   -0.57    0.44
  10   3   6   -0.34    0.51
 -10   3  -6    0.41    0.39
 -11  -3  -6   -0.11    0.45
  11  -3   6    0.27    0.53
 -11   3  -6    0.13    0.50
  11   3   6    0.40    0.62
  12  -4  -6    0.27    0.38
  12  -4  -6    0.23    0.49
 -12  -4   6    0.12    0.43
  12   4  -6    0.27    0.40
  11  -4  -6    1.45    0.46
  11  -4  -6    1.79    0.37
 -11  -4   6    0.92    0.41
  11   4  -6    1.58    0.38
 -10  -4   6    0.38    0.34
  10  -4  -6    0.46    0.37
  10  -4  -6    0.18    0.27
  10   4  -6    1.34    0.32
  -9  -4   6   -0.08    0.27
   9  -4  -6    0.19    0.33
   9  -4  -6    0.20    0.23
   9   4  -6    0.01    0.27
  -9   4   6    0.08    0.09
   8  -4  -6    7.40    0.61
   8  -4  -6    8.53    0.74
  -8  -4   6    7.18    0.66
   8   4  -6    6.31    0.62
  -8   4   6    6.64    0.52
   7  -4  -6   -0.09    0.27
  -7  -4   6    0.25    0.27
   7  -4  -6    0.05    0.19
   7  -4  -6    0.07    0.32
  -7   4   6   -0.06    0.25
  -7   4   6   -0.11    0.12
   7   4  -6   -0.03    0.19
   6  -4  -6    0.08    0.29
  -6  -4   6    0.06    0.24
  -6  -4   6    0.19    0.28
   6  -4  -6    0.04    0.18
   6  -4  -6   -0.14    0.26
  -6   4   6   -0.03    0.13
  -6   4   6    0.13    0.26
   6   4  -6   -0.05    0.19
   5  -4  -6    7.75    0.55
  -5  -4   6    5.89    0.57
   5  -4  -6    5.62    0.60
   5  -4  -6    7.16    0.64
  -5  -4   6    7.01    0.59
   5   4  -6    5.32    0.53
  -5   4   6    6.30    0.59
  -5   4   6    6.08    0.52
   4  -4  -6    1.36    0.29
  -4  -4   6    0.51    0.25
  -4  -4   6    1.36    0.26
   4  -4  -6    1.12    0.20
   4  -4  -6    1.51    0.29
   4   4  -6    0.84    0.20
  -4   4   6    1.15    0.20
  -4   4   6    1.19    0.27
  -3  -4   6    7.25    0.62
  -3  -4   6    7.15    0.65
  -3  -4   6    6.84    0.51
   3  -4  -6    7.14    0.58
  -3  -4   6    6.95    0.51
   3  -4  -6    8.04    0.64
   3   4  -6    7.60    0.58
   3   4  -6    7.78    0.66
  -3   4   6    7.17    0.63
  -3   4   6    6.66    0.57
   2  -4  -6   14.05    1.06
  -2  -4   6   12.98    0.98
   2  -4  -6   14.42    1.02
  -2  -4   6   13.20    1.05
  -2  -4   6   13.81    1.06
   2   4  -6   15.12    1.07
  -2   4   6   13.28    1.05
  -2   4   6   12.46    1.01
   2   4  -6   13.52    1.02
  -1  -4   6    0.66    0.25
  -1  -4   6    0.46    0.25
   1  -4  -6    0.94    0.28
  -1  -4   6    0.77    0.13
   1  -4  -6    1.13    0.20
   1   4  -6    0.83    0.26
  -1   4   6    0.64    0.26
  -1   4   6    0.55    0.19
   1   4  -6    0.58    0.19
   0  -4   6   -0.13    0.21
   0  -4  -6    0.26    0.19
   0  -4  -6    0.02    0.26
   0  -4   6    0.35    0.13
   0   4   6    0.19    0.25
   0   4  -6    0.24    0.25
   0   4  -6    0.34    0.19
   0   4   6    0.37    0.19
  -1  -4  -6    1.26    0.30
  -1  -4  -6    1.31    0.23
   1  -4   6    1.31    0.30
   1  -4   6    0.96    0.17
  -1   4  -6    1.06    0.23
   1   4   6    0.86    0.30
   1   4   6    0.68    0.22
  -1   4  -6    1.52    0.34
   2  -4   6    4.54    0.50
  -2  -4  -6    5.28    0.45
   2  -4   6    4.55    0.40
  -2  -4  -6    4.22    0.48
  -2   4  -6    3.81    0.45
   2   4   6    4.37    0.46
  -2   4  -6    4.74    0.51
   2   4   6    5.00    0.52
  -3  -4  -6    0.84    0.28
  -3  -4  -6    0.68    0.25
   3  -4   6    0.83    0.32
   3  -4   6    0.86    0.20
   3   4   6    1.07    0.28
  -3   4  -6    0.76    0.29
  -3   4  -6    0.93    0.26
   3   4   6    1.65    0.37
   4  -4   6    0.64    0.30
  -4  -4  -6    0.77    0.31
   4  -4   6    0.62    0.22
  -4  -4  -6    0.78    0.27
   4   4   6    0.74    0.38
  -4   4  -6    0.54    0.27
  -4   4  -6    0.44    0.33
   4   4   6    0.89    0.30
   5  -4   6    7.43    0.62
  -5  -4  -6    6.57    0.66
   5  -4   6    7.76    0.73
  -5   4  -6    7.25    0.70
  -5   4  -6    7.94    0.70
   5   4   6    6.71    0.65
   5   4   6    5.26    0.67
  -6  -4  -6    0.23    0.30
   6  -4   6    0.04    0.24
   6  -4   6    0.34    0.38
   6  -4   6    0.33    0.31
  -6  -4  -6    0.13    0.33
  -6   4  -6   -0.07    0.31
   6   4   6    0.20    0.42
   6   4   6   -0.20    0.32
   7  -4   6    0.27    0.42
  -7  -4  -6    0.30    0.35
   7  -4   6    0.34    0.36
   7  -4   6    0.67    0.31
   7   4   6    1.08    0.42
  -7   4  -6    0.33    0.35
   7   4   6    0.62    0.37
   8  -4   6    2.06    0.48
   8  -4   6    2.35    0.42
  -8  -4  -6    2.77    0.47
  -8   4  -6    2.81    0.47
   8   4   6    2.98    0.60
   8   4   6    2.14    0.48
   9  -4   6    0.35    0.41
  -9  -4  -6    0.88    0.44
   9  -4   6    0.74    0.38
   9   4   6   -0.18    0.49
  -9   4  -6    0.64    0.47
 -10  -4  -6    0.10    0.43
  10  -4   6    1.15    0.55
  10  -4   6    0.73    0.46
  10   4   6    0.46    0.66
 -10   4  -6    0.63    0.47
 -11  -5   6   -0.15    0.44
  11  -5  -6    0.20    0.54
  11  -5  -6    0.09    0.39
  11   5  -6    0.18    0.41
 -10  -5   6    0.13    0.45
  10  -5  -6   -0.21    0.48
  10  -5  -6    0.30    0.34
  10   5  -6    0.37    0.36
 -10   5   6    0.14    0.16
   9  -5  -6    1.69    0.36
  -9  -5   6    1.85    0.42
   9  -5  -6    2.22    0.47
   9   5  -6    1.83    0.39
  -9   5   6    1.61    0.23
  -8  -5   6    0.05    0.33
   8  -5  -6    0.30    0.40
   8  -5  -6   -0.15    0.25
   8   5  -6    0.17    0.28
  -8   5   6    0.07    0.18
   7  -5  -6    1.74    0.45
  -7  -5   6    2.32    0.44
   7  -5  -6    3.23    0.37
   7  -5  -6    2.95    0.46
  -7   5   6    2.17    0.28
   7   5  -6    2.35    0.35
  -6  -5   6    2.78    0.38
   6  -5  -6    2.15    0.39
   6  -5  -6    1.31    0.31
  -6  -5   6    1.79    0.40
   6  -5  -6    2.25    0.41
  -6   5   6    2.13    0.28
  -6   5   6    2.01    0.38
   6   5  -6    2.06    0.32
  -5  -5   6   -0.12    0.31
   5  -5  -6    0.11    0.33
  -5  -5   6    0.11    0.27
   5  -5  -6    0.17    0.25
   5  -5  -6    0.47    0.33
   5   5  -6    0.01    0.22
  -5   5   6    0.22    0.31
  -5   5   6    0.11    0.21
   4  -5  -6    0.32    0.30
   4  -5  -6   -0.05    0.29
  -4  -5   6    0.05    0.30
  -4  -5   6    0.14    0.09
   4  -5  -6    0.09    0.22
  -4  -5   6    0.08    0.31
   4   5  -6    0.19    0.22
  -4   5   6   -0.17    0.27
  -4   5   6   -0.11    0.19
   3  -5  -6    2.06    0.37
  -3  -5   6    1.45    0.18
   3  -5  -6    1.47    0.28
  -3  -5   6    1.90    0.35
  -3  -5   6    1.85    0.35
  -3   5   6    1.69    0.33
   3   5  -6    2.48    0.38
  -3   5   6    1.44    0.27
   3   5  -6    1.43    0.28
  -2  -5   6    0.23    0.13
  -2  -5   6    0.07    0.29
   2  -5  -6   -0.09    0.31
   2  -5  -6    0.19    0.21
  -2  -5   6    0.19    0.26
  -2   5   6   -0.17    0.30
   2   5  -6   -0.42    0.28
  -2   5   6   -0.07    0.21
   1  -5  -6    2.26    0.39
  -1  -5   6    2.55    0.39
   1  -5  -6    2.46    0.33
  -1  -5   6    2.25    0.25
  -1  -5   6    2.86    0.40
   1   5  -6    3.18    0.34
   1   5  -6    1.52    0.37
  -1   5   6    2.61    0.38
  -1   5   6    2.49    0.32
   0  -5  -6   16.34    1.32
   0  -5  -6   16.19    1.27
   0  -5   6   14.18    1.23
   0  -5   6   16.95    1.32
   0   5   6   18.20    1.29
   0   5   6   20.30    1.34
   0   5  -6   17.83    1.33
   0   5  -6   18.67    1.29
  -1  -5  -6    0.30    0.24
   1  -5   6    0.17    0.28
  -1  -5  -6    0.34    0.30
   1  -5   6    0.27    0.16
   1   5   6    0.15    0.25
  -1   5  -6    0.14    0.25
   1   5   6    0.13    0.34
  -1   5  -6    0.17    0.32
  -2  -5  -6    1.18    0.28
  -2  -5  -6    0.73    0.32
   2  -5   6    0.63    0.19
   2  -5   6    0.64    0.34
  -2   5  -6    0.89    0.28
   2   5   6    0.33    0.37
  -2   5  -6    0.52    0.37
   2   5   6    0.95    0.29
  -3  -5  -6    7.41    0.75
   3  -5   6    6.51    0.63
   3  -5   6    8.34    0.73
  -3  -5  -6    8.58    0.83
  -3   5  -6    7.06    0.73
   3   5   6    8.83    0.73
  -3   5  -6    7.75    0.78
   3   5   6    7.58    0.74
   4  -5   6    1.03    0.36
  -4  -5  -6    1.63    0.38
   4  -5   6    1.46    0.28
   4   5   6    1.75    0.38
  -4   5  -6    0.99    0.42
  -4   5  -6    1.39    0.39
   4   5   6    1.89    0.42
   5  -5   6    0.49    0.36
  -5  -5  -6    0.34    0.34
   5  -5   6    0.79    0.27
   5   5   6    0.22    0.36
   5   5   6    0.02    0.39
  -5   5  -6    0.19    0.35
   6  -5   6   -0.04    0.44
  -6  -5  -6   -0.07    0.35
   6  -5   6    0.20    0.29
   6   5   6   -0.37    0.41
   6   5   6    0.22    0.42
  -6   5  -6   -0.46    0.35
   7  -5   6    0.56    0.49
   7  -5   6    0.44    0.34
   7   5   6    0.62    0.52
   7   5   6    0.05    0.45
  -7   5  -6    0.94    0.43
   8  -5   6    0.54    0.38
  -8   5  -6    0.95    0.45
   9  -5   6    0.04    0.46
  -9   5  -6    0.10    0.48
  -9  -6   6    0.23    0.52
   9  -6  -6   -0.20    0.48
   9  -6  -6   -0.17    0.39
   9   6  -6   -0.03    0.42
  -9   6   6   -0.04    0.25
   8  -6  -6    2.26    0.50
  -8  -6   6    0.88    0.43
   8  -6  -6    1.75    0.41
  -8   6   6    1.18    0.29
   8   6  -6    1.50    0.41
   7  -6  -6    0.00    0.32
   7  -6  -6   -0.32    0.43
  -7  -6   6    0.02    0.36
   7  -6  -6    0.01    0.47
   7   6  -6   -0.01    0.33
  -7   6   6    0.07    0.25
   6  -6  -6    0.03    0.31
   6  -6  -6    0.20    0.44
  -6  -6   6    0.14    0.36
  -6  -6   6    0.08    0.34
   6  -6  -6   -0.01    0.36
  -6   6   6   -0.09    0.24
  -6   6   6    0.09    0.34
   6   6  -6    0.12    0.31
  -5  -6   6    0.88    0.37
   5  -6  -6    1.19    0.33
   5  -6  -6    0.72    0.42
   5  -6  -6    1.11    0.40
  -5  -6   6    0.95    0.15
  -5  -6   6    0.92    0.37
  -5   6   6    1.17    0.41
   5   6  -6    1.38    0.34
  -5   6   6    0.66    0.28
   4  -6  -6    0.00    0.33
  -4  -6   6    0.70    0.39
   4  -6  -6    0.43    0.31
  -4  -6   6    0.21    0.15
   4  -6  -6    0.11    0.36
  -4  -6   6    0.47    0.34
  -4   6   6    0.14    0.26
   4   6  -6    0.39    0.29
  -4   6   6    0.20    0.32
   4   6  -6    0.50    0.42
   3  -6  -6    2.90    0.49
   3  -6  -6    1.88    0.37
   3  -6  -6    3.64    0.49
  -3  -6   6    2.66    0.28
  -3  -6   6    3.42    0.47
  -3  -6   6    2.36    0.44
   3   6  -6    2.41    0.46
  -3   6   6    3.48    0.48
  -3   6   6    3.00    0.40
   3   6  -6    2.56    0.39
   2  -6  -6    2.26    0.47
  -2  -6   6    2.08    0.26
  -2  -6   6    2.36    0.43
   2  -6  -6    2.28    0.38
  -2  -6   6    2.30    0.43
   2   6  -6    2.51    0.45
  -2   6   6    2.66    0.37
  -2   6   6    3.42    0.45
   2   6  -6    2.71    0.39
  -1  -6   6   -0.11    0.34
   1  -6  -6   -0.11    0.28
  -1  -6   6   -0.01    0.17
  -1  -6   6   -0.15    0.31
   1  -6  -6    0.08    0.34
   1   6  -6    0.28    0.31
   1   6  -6    0.42    0.37
  -1   6   6    0.16    0.28
  -1   6   6    0.06    0.33
   0  -6   6    0.04    0.19
   0  -6  -6    0.06    0.35
   0  -6  -6   -0.18    0.29
   0  -6   6    0.26    0.33
   0   6   6    0.09    0.37
   0   6   6   -0.23    0.30
   0   6  -6    0.17    0.43
   0   6  -6   -0.23    0.31
  -1  -6  -6   -0.33    0.39
   1  -6   6   -0.14    0.31
   1  -6   6    0.12    0.20
   1   6   6    0.18    0.39
  -1   6  -6    0.07    0.38
   1   6   6   -0.08    0.32
  -1   6  -6   -0.31    0.30
   2  -6   6    0.68    0.36
   2  -6   6    0.62    0.23
  -2  -6  -6    0.56    0.37
  -2   6  -6    0.68    0.39
   2   6   6    1.00    0.38
   2   6   6    0.16    0.51
  -2   6  -6    0.42    0.39
   3  -6   6    0.38    0.24
   3  -6   6    0.28    0.37
  -3  -6  -6    0.31    0.39
   3   6   6   -0.02    0.36
  -3   6  -6    0.18    0.44
  -3   6  -6   -0.02    0.41
   4  -6   6    0.38    0.26
   4  -6   6    0.57    0.40
  -4  -6  -6    0.43    0.41
  -4   6  -6    0.56    0.42
   4   6   6    0.50    0.40
  -5  -6  -6    0.88    0.47
   5  -6   6    1.50    0.35
   5  -6   6    1.13    0.45
   5   6   6    1.04    0.46
  -5   6  -6    1.23    0.45
   6  -6   6    0.00    0.35
   6  -6   6    0.26    0.46
  -6  -6  -6   -0.46    0.49
   6   6   6    0.53    0.50
  -6   6  -6   -0.32    0.49
   7  -6   6    0.35    0.61
   7  -6   6    0.36    0.40
  -7   6  -6    0.05    0.50
   7  -7  -6    1.33    0.49
  -7  -7   6    0.74    0.51
   7  -7  -6    0.01    0.56
  -7   7   6    0.64    0.37
   7   7  -6    0.60    0.47
  -6  -7   6    0.34    0.16
   6  -7  -6    0.50    0.54
  -6  -7   6    0.13    0.45
   6  -7  -6    0.95    0.53
   6  -7  -6    0.27    0.42
  -6  -7   6    0.83    0.54
   6   7  -6    0.34    0.44
  -6   7   6    0.30    0.36
  -5  -7   6   -0.61    0.44
  -5  -7   6    0.07    0.18
  -5  -7   6    0.06    0.50
   5  -7  -6   -0.36    0.44
   5  -7  -6   -0.45    0.47
   5  -7  -6   -0.13    0.42
   5   7  -6    0.05    0.42
   5   7  -6    0.08    0.49
  -5   7   6   -0.13    0.36
  -4  -7   6   -0.01    0.42
  -4  -7   6    0.24    0.52
  -4  -7   6    0.00    0.20
   4  -7  -6   -0.22    0.45
   4   7  -6   -0.58    0.38
  -4   7   6    0.02    0.33
   4   7  -6   -0.09    0.53
   3  -7  -6   -0.03    0.45
  -3  -7   6    0.04    0.49
  -3  -7   6    0.01    0.41
  -3  -7   6    0.10    0.21
  -3   7   6   -0.05    0.36
   3   7  -6    0.43    0.41
   3   7  -6    0.37    0.53
  -2  -7   6   -0.45    0.48
  -2  -7   6   -0.02    0.22
   2  -7  -6   -0.15    0.41
  -2  -7   6    0.32    0.46
   2   7  -6   -0.08    0.45
   2   7  -6    0.20    0.39
  -2   7   6    0.37    0.36
  -1  -7   6    0.87    0.26
  -1  -7   6    0.93    0.45
   1  -7  -6    0.89    0.45
   1   7  -6    0.71    0.53
   1   7  -6    0.89    0.42
  -1   7   6    0.92    0.40
   0  -7   6    3.18    0.38
   0  -7   6    3.54    0.56
   0  -7  -6    4.12    0.59
   0   7  -6    2.44    0.51
   0   7  -6    3.33    0.65
   0   7   6    2.83    0.51
   1  -7   6    0.06    0.25
  -1  -7  -6   -0.10    0.41
   1  -7   6   -0.12    0.48
  -1   7  -6    0.59    0.48
  -1   7  -6   -0.14    0.48
   1   7   6   -0.23    0.42
   2  -7   6    0.05    0.28
  -2  -7  -6    0.21    0.44
   2  -7   6    0.35    0.43
  -2   7  -6    0.34    0.52
   2   7   6    0.55    0.45
   3  -7   6    1.76    0.57
   3  -7   6    1.16    0.34
  -3  -7  -6    0.93    0.54
  -3   7  -6    1.34    0.57
   3   7   6    1.66    0.51
   4  -7   6    0.31    0.49
  -4  -7  -6    0.33    0.54
   4  -7   6    0.47    0.35
   4   7   6    0.31    0.49
  -4   7  -6    0.70    0.88
  -5  -7  -6   -0.08    0.58
   5  -7   6   -0.39    0.60
   5  -7   6   -0.28    0.36
   5   7   6   -0.06    0.56
  13   0  -7    0.01    0.33
  13   0  -7    0.69    0.52
  12   0  -7   -0.48    0.25
  12   0  -7   -0.02    0.36
 -11   0   7    9.63    0.82
  11   0  -7    9.33    0.77
  10   0  -7    5.37    0.56
 -10   0   7    4.78    0.50
  10   0  -7    4.48    0.44
   9   0  -7   -0.11    0.25
   9   0  -7   -0.07    0.14
  -9   0   7   -0.12    0.20
   8   0  -7    9.62    0.81
   8   0  -7    9.50    0.72
  -8   0   7   10.26    0.78
   7   0  -7    1.89    0.19
   7   0  -7    2.17    0.30
  -7   0   7    2.41    0.29
  -7   0   7    1.94    0.29
  -7   0   7    2.00    0.36
  -6   0   7    2.19    0.24
   6   0  -7    2.12    0.29
   6   0  -7    1.63    0.16
  -6   0   7    2.40    0.32
  -6   0   7    2.36    0.29
   6   0  -7    1.71    0.15
   6   0  -7    1.47    0.31
  -5   0   7   32.91    2.53
   5   0  -7   33.88    2.52
  -5   0   7   37.02    2.52
   5   0  -7   32.11    2.54
  -5   0   7   37.71    2.51
  -4   0   7    8.08    0.58
  -4   0   7    6.68    0.62
   4   0  -7    6.09    0.62
  -4   0   7    8.22    0.59
   4   0  -7    6.85    0.58
  -3   0   7    3.58    0.39
  -3   0   7    3.59    0.35
   3   0  -7    3.28    0.34
   3   0  -7    3.54    0.40
  -3   0   7    3.95    0.37
   2   0  -7   12.01    0.87
   2   0  -7   11.44    0.87
   2   0  -7   12.00    0.92
  -2   0   7   13.31    0.96
  -2   0   7   12.81    0.93
   1   0  -7   16.67    1.13
   1   0  -7   15.07    1.13
  -1   0   7   15.17    1.20
   1   0  -7   14.65    1.16
  -1   0   7   16.53    1.18
   0   0  -7    0.86    0.19
   0   0   7    1.36    0.23
   0   0  -7    1.18    0.18
   0   0   7    1.37    0.28
   0   0  -7    1.42    0.16
  -1   0  -7    1.08    0.15
   1   0   7    1.32    0.14
   1   0   7    0.70    0.12
  -1   0  -7    1.00    0.21
   1   0   7    0.63    0.21
   1   0   7    1.17    0.26
  -2   0  -7   42.24    3.10
  -2   0  -7   43.31    3.12
   2   0   7   42.44    3.09
   2   0   7   46.56    3.14
   2   0   7   42.44    3.15
  -3   0  -7    0.12    0.19
   3   0   7    0.25    0.23
   3   0   7    0.39    0.25
  -3   0  -7    0.28    0.16
   3   0   7    0.17    0.15
   4   0   7    0.47    0.25
   4   0   7    0.15    0.16
  -4   0  -7    0.18    0.21
  -4   0  -7    0.31    0.19
   4   0   7    0.31    0.22
  -4   0  -7    0.17    0.25
  -5   0  -7   46.72    3.17
  -5   0  -7   42.67    3.18
   5   0   7   43.87    3.14
  -5   0  -7   41.47    3.15
   5   0   7   41.91    3.19
   5   0   7   45.22    3.17
  -6   0  -7    0.65    0.24
   6   0   7    0.49    0.24
  -6   0  -7    0.50    0.32
   6   0   7    0.86    0.31
  -6   0  -7    0.38    0.27
   6   0   7    0.71    0.29
   7   0   7    7.43    0.65
   7   0   7    6.80    0.66
   7   0   7    6.19    0.68
  -7   0  -7    7.25    0.64
  -7   0  -7    7.78    0.69
  -7   0  -7    5.94    0.69
   8   0   7   16.92    1.22
  -8   0  -7   15.53    1.22
   8   0   7   12.92    1.20
   9   0   7   -0.15    0.34
   9   0   7    0.11    0.33
  -9   0  -7   -0.25    0.32
  10   0   7    3.72    0.57
 -10   0  -7    4.29    0.56
  10   0   7    3.52    0.56
 -11   0  -7    3.71    0.59
  11   0   7    2.77    0.87
  11   0   7    3.02    0.58
  13  -1  -7    3.13    0.57
 -13  -1   7    3.23    0.49
  13  -1  -7    2.86    0.42
  13   1  -7    3.17    0.46
  12  -1  -7   -0.09    0.42
  12  -1  -7    0.01    0.24
 -12  -1   7    0.06    0.33
  12   1  -7    0.27    0.27
 -11  -1   7    0.21    0.29
  11  -1  -7    0.84    0.24
  11  -1  -7    0.94    0.39
  11   1  -7    0.76    0.39
  11   1  -7    0.31    0.24
 -10  -1   7    0.54    0.27
  10  -1  -7    0.72    0.20
  10  -1  -7    0.91    0.33
  10   1  -7    1.24    0.23
  10   1  -7    1.11    0.31
  -9  -1   7    0.08    0.22
   9  -1  -7    0.05    0.27
   9  -1  -7    0.17    0.15
   9   1  -7    0.10    0.17
   9   1  -7    0.54    0.30
   8  -1  -7    0.35    0.13
  -8  -1   7    0.35    0.23
   8  -1  -7    0.25    0.28
   8   1  -7    0.12    0.14
   8   1  -7    0.34    0.25
  -7  -1   7    0.60    0.23
   7  -1  -7    0.48    0.11
   7  -1  -7    0.40    0.22
   7  -1  -7    0.17    0.36
  -7   1   7    0.45    0.18
   7   1  -7    0.41    0.23
   7   1  -7    0.45    0.11
  -7   1   7    0.32    0.22
  -6  -1   7   42.60    2.98
   6  -1  -7   41.58    2.99
   6  -1  -7   42.85    2.94
  -6  -1   7   40.45    2.98
   6  -1  -7   43.02    2.99
  -6  -1   7   44.82    3.01
  -6   1   7   41.73    2.99
   6   1  -7   40.62    2.93
  -6   1   7   41.78    2.96
   6   1  -7   41.01    2.98
   6   1  -7   37.53    2.93
   5  -1  -7    5.13    0.40
   5  -1  -7    5.09    0.39
  -5  -1   7    5.61    0.46
  -5  -1   7    5.28    0.54
  -5  -1   7    5.14    0.46
   5  -1  -7    4.51    0.50
  -5   1   7    5.62    0.49
  -5   1   7    5.48    0.44
   5   1  -7    5.42    0.47
  -4  -1   7    0.38    0.17
  -4  -1   7    0.31    0.16
   4  -1  -7    0.35    0.09
   4  -1  -7    0.34    0.08
   4  -1  -7    0.22    0.16
  -4  -1   7    0.52    0.23
   4  -1  -7    0.44    0.21
  -4   1   7    0.60    0.19
  -4   1   7    0.40    0.16
  -4   1   7    0.43    0.20
   3  -1  -7   53.69    3.87
   3  -1  -7   53.27    3.85
   3  -1  -7   53.85    3.85
   3  -1  -7   52.84    3.90
  -3  -1   7   59.02    3.92
  -3  -1   7   55.51    3.88
  -3  -1   7   57.78    3.88
   3   1  -7   51.47    3.88
  -3   1   7   53.54    3.90
   3   1  -7   53.41    3.84
   3   1  -7   52.84    3.84
  -3   1   7   55.19    3.89
  -2  -1   7    3.54    0.34
   2  -1  -7    3.64    0.32
  -2  -1   7    3.76    0.41
   2  -1  -7    3.16    0.27
   2  -1  -7    3.32    0.39
  -2  -1   7    3.43    0.33
   2  -1  -7    3.26    0.28
   2   1  -7    2.78    0.26
  -2   1   7    3.79    0.37
   2   1  -7    3.47    0.35
   2   1  -7    3.27    0.27
  -2   1   7    3.50    0.39
   1  -1  -7    2.42    0.26
   1  -1  -7    2.65    0.25
  -1  -1   7    3.15    0.37
   1  -1  -7    2.15    0.22
   1  -1  -7    1.94    0.32
  -1  -1   7    2.38    0.28
   1   1  -7    2.20    0.29
   1   1  -7    2.69    0.24
   1   1  -7    2.12    0.22
  -1   1   7    3.20    0.36
  -1   1   7    2.46    0.31
   0  -1  -7   63.08    4.36
   0  -1   7   64.87    4.37
   0  -1  -7   60.30    4.34
   0  -1   7   61.12    4.40
   0  -1  -7   61.04    4.40
   0   1   7   62.29    4.33
   0   1  -7   58.84    4.37
   0   1   7   60.18    4.40
   0   1  -7   58.20    4.34
   0   1   7   59.54    4.38
   0   1   7   60.85    4.32
  -1  -1  -7    0.43    0.23
   1  -1   7    0.51    0.10
  -1  -1  -7    0.12    0.15
   1  -1   7    0.30    0.24
  -1  -1  -7    0.29    0.13
   1  -1   7    0.34    0.21
   1  -1   7    0.34    0.10
   1   1   7    0.52    0.13
  -1   1  -7    0.16    0.12
  -1   1  -7    0.13    0.18
   1   1   7    0.31    0.11
   1   1   7    0.32    0.21
   1   1   7    0.39    0.24
  -2  -1  -7    1.46    0.20
  -2  -1  -7    1.28    0.29
   2  -1   7    0.90    0.25
   2  -1   7    0.92    0.28
   2  -1   7    1.06    0.16
  -2  -1  -7    0.83    0.20
   2   1   7    1.38    0.18
  -2   1  -7    1.15    0.19
   2   1   7    0.95    0.28
   2   1   7    1.32    0.25
  -2   1  -7    1.27    0.24
   3  -1   7   22.95    1.62
  -3  -1  -7   20.83    1.65
  -3  -1  -7   21.33    1.60
   3  -1   7   22.54    1.59
   3  -1   7   22.97    1.66
  -3  -1  -7   21.36    1.61
  -3   1  -7   23.00    1.60
   3   1   7   22.32    1.60
  -3   1  -7   19.52    1.62
   3   1   7   21.25    1.64
   3   1   7   21.58    1.65
   4  -1   7    5.46    0.44
  -4  -1  -7    4.38    0.45
   4  -1   7    4.81    0.53
   4  -1   7    4.44    0.47
  -4  -1  -7    5.25    0.53
  -4  -1  -7    5.92    0.50
  -4   1  -7    4.22    0.45
  -4   1  -7    5.35    0.50
   4   1   7    5.24    0.52
   4   1   7    4.76    0.45
   4   1   7    3.98    0.51
  -5  -1  -7    5.37    0.60
   5  -1   7    6.44    0.54
  -5  -1  -7    6.94    0.57
  -5  -1  -7    5.96    0.56
   5  -1   7    5.99    0.57
   5  -1   7    6.48    0.66
  -5   1  -7    5.44    0.57
   5   1   7    5.53    0.60
   5   1   7    6.03    0.62
  -5   1  -7    5.56    0.54
   5   1   7    7.16    0.57
   6  -1   7   13.80    1.06
  -6  -1  -7   12.37    1.03
   6  -1   7   11.43    0.97
  -6  -1  -7   12.30    1.00
  -6  -1  -7   12.69    0.99
   6  -1   7   12.17    0.99
   6   1   7   11.90    1.01
  -6   1  -7   12.40    1.00
   6   1   7   12.54    0.99
  -6   1  -7   12.56    1.00
   7  -1   7   10.84    0.91
  -7  -1  -7    9.64    0.85
  -7  -1  -7    6.69    0.81
   7  -1   7    9.42    0.82
  -7  -1  -7    8.74    0.86
   7  -1   7   10.34    0.83
   7   1   7   11.20    0.85
   7   1   7    9.93    0.85
  -7   1  -7   10.80    0.85
  -7   1  -7    9.85    0.84
  -8  -1  -7    0.23    0.29
   8  -1   7   -0.01    0.30
   8  -1   7    0.12    0.30
  -8   1  -7   -0.19    0.29
   8   1   7    0.12    0.35
   8   1   7    0.15    0.34
   9  -1   7    0.30    0.33
   9  -1   7   -0.04    0.37
  -9  -1  -7    0.06    0.33
   9   1   7    0.05    0.38
  -9   1  -7    0.11    0.35
   9   1   7    0.32    0.39
  10  -1   7    4.11    0.56
  10  -1   7    4.87    0.59
 -10  -1  -7    4.43    0.58
  10   1   7    5.54    0.63
  10   1   7    2.61    0.55
 -10   1  -7    2.92    0.55
  11  -1   7    0.35    0.50
  11  -1   7    0.80    0.47
 -11  -1  -7    0.19    0.45
  11   1   7    1.09    0.56
 -11   1  -7    0.71    0.44
 -13  -2   7    0.17    0.45
  13  -2  -7    0.22    0.55
  13  -2  -7    0.01    0.34
  13   2  -7    0.23    0.38
 -12  -2   7    0.34    0.41
  12  -2  -7   -0.13    0.28
  12  -2  -7   -0.07    0.40
  12   2  -7    0.15    0.30
 -11  -2   7    7.55    0.73
  11  -2  -7    8.90    0.81
  11   2  -7    6.65    0.67
  10  -2  -7    3.76    0.46
  10  -2  -7    2.80    0.33
 -10  -2   7    2.67    0.43
  10   2  -7    3.02    0.35
   9  -2  -7   -0.08    0.16
  -9  -2   7   -0.31    0.27
   9  -2  -7   -0.12    0.28
   9   2  -7   -0.03    0.18
   8  -2  -7    5.74    0.49
   8  -2  -7    6.54    0.63
  -8  -2   7    6.25    0.59
   8   2  -7    5.92    0.50
   7  -2  -7    1.65    0.31
  -7  -2   7    1.71    0.29
   7  -2  -7    1.68    0.21
   7  -2  -7    1.61    0.31
   7   2  -7    1.98    0.21
  -7   2   7    2.04    0.31
   6  -2  -7    1.90    0.31
   6  -2  -7    1.93    0.20
  -6  -2   7    2.02    0.29
  -6  -2   7    1.74    0.34
   6  -2  -7    1.48    0.30
   6   2  -7    1.75    0.19
  -6   2   7    2.06    0.30
  -5  -2   7   22.46    1.68
   5  -2  -7   21.73    1.66
   5  -2  -7   20.78    1.65
  -5  -2   7   21.66    1.64
   5  -2  -7   22.49    1.61
  -5  -2   7   23.74    1.63
  -5   2   7   22.00    1.65
   5   2  -7   20.97    1.63
   5   2  -7   23.56    1.60
  -4  -2   7    3.73    0.42
  -4  -2   7    4.37    0.40
  -4  -2   7    5.15    0.47
   4  -2  -7    4.84    0.36
   4  -2  -7    5.24    0.48
  -4   2   7    4.72    0.45
   4   2  -7    4.57    0.35
   4   2  -7    4.08    0.40
   4   2  -7    4.21    0.35
  -3  -2   7    2.77    0.26
   3  -2  -7    1.80    0.30
  -3  -2   7    2.23    0.32
   3  -2  -7    2.19    0.21
  -3  -2   7    2.30    0.29
  -3   2   7    2.52    0.31
   3   2  -7    2.30    0.21
   3   2  -7    2.05    0.29
   3   2  -7    1.89    0.19
   2  -2  -7    6.36    0.50
  -2  -2   7    6.40    0.58
  -2  -2   7    6.60    0.55
   2  -2  -7    5.93    0.59
  -2  -2   7    7.80    0.53
  -2   2   7    6.39    0.57
   2   2  -7    5.61    0.49
   2   2  -7    7.55    0.56
   1  -2  -7    8.47    0.66
   1  -2  -7    7.63    0.72
   1  -2  -7    8.65    0.67
  -1  -2   7    8.78    0.71
  -1  -2   7    8.70    0.73
  -1  -2   7    9.19    0.69
  -1   2   7    9.47    0.64
   1   2  -7    8.20    0.71
  -1   2   7    9.04    0.64
   1   2  -7    7.97    0.66
  -1   2   7    8.05    0.73
   0  -2   7    1.18    0.26
   0  -2  -7    1.30    0.17
   0  -2  -7    1.26    0.26
   0  -2   7    0.79    0.21
   0  -2  -7    1.01    0.18
   0   2  -7    1.10    0.17
   0   2   7    0.56    0.22
   0   2   7    1.11    0.14
   0   2   7    1.09    0.15
   0   2  -7    1.09    0.24
   1  -2   7    0.32    0.21
   1  -2   7    0.45    0.23
  -1  -2  -7    0.36    0.15
   1  -2   7    0.43    0.11
  -1  -2  -7    0.66    0.23
   1  -2   7    0.64    0.13
  -1  -2  -7    0.48    0.17
  -1   2  -7    0.31    0.15
   1   2   7    0.85    0.15
   1   2   7    0.46    0.23
  -1   2  -7    0.79    0.23
   2  -2   7   28.19    2.01
  -2  -2  -7   28.51    2.07
  -2  -2  -7   28.60    2.02
   2  -2   7   28.15    2.04
  -2  -2  -7   26.78    2.02
   2  -2   7   28.71    2.08
  -2   2  -7   28.86    2.05
  -2   2  -7   28.01    2.03
   2   2   7   25.94    2.02
   2   2   7   28.10    2.06
  -3  -2  -7    0.05    0.26
   3  -2   7    0.48    0.27
   3  -2   7    0.47    0.23
   3  -2   7    0.35    0.14
  -3  -2  -7    0.39    0.20
  -3  -2  -7    0.56    0.19
  -3   2  -7    0.18    0.23
  -3   2  -7    0.21    0.18
   3   2   7    0.32    0.18
   3   2   7    0.45    0.25
   4  -2   7   -0.16    0.21
  -4  -2  -7   -0.02    0.21
   4  -2   7    0.20    0.29
  -4  -2  -7    0.08    0.25
  -4  -2  -7    0.27    0.20
   4  -2   7    0.03    0.16
   4   2   7    0.05    0.20
  -4   2  -7    0.67    0.22
  -4   2  -7    0.28    0.23
   4   2   7    0.06    0.26
   5  -2   7   28.01    2.32
  -5  -2  -7   35.94    2.33
  -5  -2  -7   34.72    2.32
   5  -2   7   30.72    2.30
  -5  -2  -7   30.03    2.33
   5  -2   7   32.18    2.37
  -5   2  -7   32.95    2.32
  -5   2  -7   29.51    2.33
   5   2   7   31.74    2.35
   5   2   7   31.77    2.32
   6  -2   7    1.13    0.25
   6  -2   7    0.66    0.27
  -6  -2  -7    1.13    0.33
   6  -2   7    0.45    0.41
  -6  -2  -7    0.92    0.30
  -6  -2  -7    0.40    0.30
   6   2   7    0.60    0.27
  -6   2  -7    0.57    0.30
   6   2   7    0.98    0.35
  -6   2  -7    0.48    0.29
  -7  -2  -7    4.54    0.55
   7  -2   7    4.23    0.49
   7  -2   7    4.74    0.60
  -7  -2  -7    5.67    0.56
   7  -2   7    4.40    0.52
   7   2   7    5.51    0.56
  -7   2  -7    5.06    0.53
  -7   2  -7    5.41    0.55
   7   2   7    5.26    0.59
   8  -2   7   12.76    1.01
  -8  -2  -7   11.80    0.98
   8  -2   7   11.76    0.95
  -8   2  -7    9.70    0.98
   8   2   7   12.20    1.01
   8   2   7   11.35    1.02
   9  -2   7   -0.55    0.32
  -9  -2  -7   -0.04    0.35
   9  -2   7    0.08    0.41
   9   2   7    0.33    0.41
  -9   2  -7    0.17    0.37
   9   2   7    0.33    0.45
  10  -2   7    2.47    0.52
 -10  -2  -7    3.49    0.57
  10  -2   7    2.90    0.50
  10   2   7    3.58    0.64
  10   2   7    3.47    0.58
 -10   2  -7    2.61    0.52
 -11  -2  -7    2.04    0.59
  11  -2   7    1.08    0.55
  11  -2   7    1.36    0.59
 -11   2  -7    1.23    0.51
  11   2   7    2.56    0.67
 -12  -3   7    0.02    0.39
  12  -3  -7   -0.26    0.30
  12  -3  -7   -0.03    0.42
  12   3  -7   -0.04    0.33
  11  -3  -7    0.19    0.44
  11  -3  -7    0.23    0.27
 -11  -3   7    0.16    0.34
  11   3  -7    0.44    0.30
  10  -3  -7    0.37    0.23
  10  -3  -7   -0.18    0.38
 -10  -3   7   -0.08    0.29
  10   3  -7    0.15    0.25
  -9  -3   7    0.05    0.28
   9  -3  -7    0.21    0.32
   9  -3  -7   -0.01    0.19
   9   3  -7    0.03    0.22
   8  -3  -7    0.23    0.18
   8  -3  -7   -0.07    0.28
  -8  -3   7   -0.18    0.25
  -8   3   7   -0.16    0.25
   8   3  -7   -0.17    0.18
   7  -3  -7    0.53    0.18
   7  -3  -7    0.23    0.29
  -7  -3   7    0.64    0.27
   7  -3  -7    0.40    0.26
  -7   3   7    0.71    0.27
   7   3  -7    0.73    0.19
   6  -3  -7   20.63    1.60
   6  -3  -7   20.79    1.54
   6  -3  -7   22.48    1.61
  -6  -3   7   21.34    1.61
  -6  -3   7   21.78    1.59
   6   3  -7   20.86    1.54
  -6   3   7   20.77    1.60
  -5  -3   7    2.20    0.38
   5  -3  -7    3.63    0.41
  -5  -3   7    2.87    0.36
   5  -3  -7    3.12    0.39
   5  -3  -7    3.01    0.29
  -5   3   7    3.13    0.38
   5   3  -7    2.87    0.28
   4  -3  -7   -0.13    0.13
   4  -3  -7    0.01    0.22
  -4  -3   7    0.10    0.20
  -4  -3   7    0.16    0.23
   4   3  -7    0.21    0.13
  -4   3   7    0.06    0.20
  -3  -3   7   22.69    1.81
  -3  -3   7   23.57    1.80
   3  -3  -7   25.00    1.82
   3  -3  -7   24.70    1.77
  -3   3   7   24.66    1.74
  -3   3   7   27.11    1.82
   3   3  -7   24.01    1.76
   3   3  -7   24.00    1.81
  -3   3   7   24.18    1.74
   2  -3  -7    2.82    0.35
   2  -3  -7    2.26    0.26
  -2  -3   7    2.29    0.32
  -2  -3   7    2.14    0.35
  -2   3   7    2.61    0.24
   2   3  -7    2.84    0.35
  -2   3   7    2.69    0.35
   2   3  -7    2.50    0.25
   1  -3  -7    1.86    0.30
  -1  -3   7    2.20    0.32
  -1  -3   7    1.09    0.27
   1  -3  -7    2.07    0.22
  -1   3   7    1.27    0.18
   1   3  -7    1.29    0.20
  -1   3   7    1.92    0.32
   1   3  -7    1.07    0.27
   0  -3   7   26.09    1.99
   0  -3   7   26.14    1.91
   0  -3   7   29.28    1.93
   0  -3  -7   26.64    1.99
   0  -3  -7   26.28    1.94
   0   3  -7   26.88    1.98
   0   3   7   25.89    1.94
   0   3   7   27.26    1.99
   0   3  -7   26.43    1.94
  -1  -3  -7    1.49    0.28
   1  -3   7    0.68    0.26
   1  -3   7    0.83    0.25
   1  -3   7    0.75    0.13
  -1  -3  -7    0.91    0.20
  -1   3  -7    0.97    0.20
   1   3   7    0.33    0.17
   1   3   7    0.42    0.26
  -1   3  -7    0.76    0.27
  -2  -3  -7    0.50    0.25
   2  -3   7    0.78    0.24
   2  -3   7    0.78    0.28
   2  -3   7    0.37    0.14
  -2  -3  -7    0.68    0.21
   2   3   7    0.94    0.30
   2   3   7    0.67    0.20
  -2   3  -7    0.56    0.20
  -2   3  -7    0.70    0.26
  -3  -3  -7   11.00    0.86
   3  -3   7   10.31    0.92
  -3  -3  -7   10.54    0.93
   3  -3   7   11.68    0.88
   3  -3   7   10.41    0.84
  -3  -3  -7   11.83    0.88
  -3   3  -7   11.25    0.89
   3   3   7   12.31    0.88
   3   3   7   11.01    0.93
  -3   3  -7   10.71    0.91
  -4  -3  -7    2.02    0.35
  -4  -3  -7    2.09    0.30
   4  -3   7    1.85    0.30
   4  -3   7    1.76    0.25
  -4  -3  -7    2.06    0.31
   4  -3   7    1.77    0.37
  -4   3  -7    2.13    0.33
  -4   3  -7    1.72    0.34
   4   3   7    2.11    0.31
   4   3   7    2.03    0.37
   5  -3   7    3.39    0.37
   5  -3   7    3.28    0.47
   5  -3   7    3.16    0.42
  -5  -3  -7    3.51    0.42
  -5  -3  -7    2.52    0.42
  -5  -3  -7    3.76    0.41
   5   3   7    4.33    0.50
   5   3   7    3.16    0.40
  -5   3  -7    4.73    0.46
  -5   3  -7    2.46    0.41
  -6  -3  -7    7.46    0.75
   6  -3   7    7.13    0.68
   6  -3   7    7.38    0.65
  -6  -3  -7    7.70    0.72
   6  -3   7    7.32    0.80
   6   3   7    8.11    0.72
   6   3   7    7.56    0.76
  -6   3  -7    7.46    0.73
  -6   3  -7    7.54    0.75
   7  -3   7    4.33    0.55
  -7  -3  -7    6.08    0.57
  -7  -3  -7    5.14    0.61
   7  -3   7    4.84    0.52
   7  -3   7    5.51    0.65
   7   3   7    5.17    0.60
   7   3   7    6.21    0.66
  -7   3  -7    4.78    0.59
   8  -3   7   -0.02    0.33
   8  -3   7   -0.26    0.30
  -8  -3  -7   -0.12    0.34
  -8   3  -7   -0.17    0.40
   8   3   7   -0.19    0.41
   8   3   7    0.15    0.37
   9  -3   7    0.06    0.35
  -9  -3  -7    0.06    0.37
   9  -3   7    0.08    0.42
  -9   3  -7    0.14    0.46
   9   3   7   -0.05    0.48
   9   3   7    0.19    0.46
  10  -3   7    2.13    0.52
  10  -3   7    2.31    0.50
 -10  -3  -7    1.21    0.49
  10   3   7    1.94    0.60
 -10   3  -7    0.99    0.48
  11  -4  -7    2.37    0.60
 -11  -4   7    2.52    0.51
  11  -4  -7    3.41    0.44
  11   4  -7    2.57    0.43
  10  -4  -7    1.39    0.33
  10  -4  -7    1.85    0.47
 -10  -4   7    1.78    0.42
  10   4  -7    1.21    0.34
   9  -4  -7   -0.06    0.35
   9  -4  -7   -0.16    0.24
  -9  -4   7    0.17    0.37
   9   4  -7   -0.10    0.25
   8  -4  -7    1.99    0.41
   8  -4  -7    1.39    0.26
  -8  -4   7    0.76    0.32
   8   4  -7    1.27    0.26
   7  -4  -7    1.42    0.38
  -7  -4   7    1.13    0.32
   7  -4  -7    0.80    0.32
   7  -4  -7    0.98    0.24
   7   4  -7    0.96    0.24
  -7   4   7    0.91    0.32
  -6  -4   7    1.64    0.31
   6  -4  -7    1.55    0.25
   6  -4  -7    1.34    0.36
  -6  -4   7    0.71    0.34
   6  -4  -7    1.36    0.34
  -6   4   7    1.23    0.13
   6   4  -7    1.30    0.23
  -6   4   7    1.79    0.35
   5  -4  -7    7.93    0.64
   5  -4  -7    8.17    0.74
  -5  -4   7    7.25    0.72
   5  -4  -7    8.59    0.74
  -5  -4   7    7.81    0.68
   5   4  -7    8.34    0.62
  -5   4   7    8.41    0.73
  -5   4   7    6.76    0.57
   4  -4  -7    1.14    0.31
   4  -4  -7    1.00    0.22
  -4  -4   7    1.54    0.32
  -4  -4   7    1.32    0.29
   4   4  -7    1.16    0.32
  -4   4   7    1.66    0.32
  -4   4   7    1.18    0.18
   4   4  -7    1.11    0.21
  -3  -4   7    1.00    0.28
   3  -4  -7    1.40    0.22
   3  -4  -7    1.15    0.31
  -3  -4   7    1.21    0.33
  -3   4   7    1.10    0.32
   3   4  -7    1.95    0.34
   3   4  -7    0.85    0.20
  -3   4   7    0.98    0.18
   2  -4  -7    1.34    0.24
  -2  -4   7    1.81    0.33
  -2  -4   7    1.82    0.33
   2  -4  -7    1.88    0.36
   2   4  -7    1.71    0.32
  -2   4   7    1.62    0.22
  -2   4   7    1.69    0.35
   2   4  -7    1.46    0.23
  -1  -4   7    1.86    0.20
   1  -4  -7    2.35    0.36
  -1  -4   7    3.26    0.38
   1  -4  -7    2.27    0.28
  -1  -4   7    1.64    0.34
  -1   4   7    3.49    0.40
  -1   4   7    1.60    0.25
   1   4  -7    2.03    0.35
   1   4  -7    2.37    0.27
   0  -4   7    0.19    0.27
   0  -4   7    0.61    0.14
   0  -4  -7    0.90    0.28
   0  -4  -7    0.45    0.21
   0   4   7    0.79    0.21
   0   4  -7    0.86    0.22
   0   4  -7    0.87    0.32
   0   4   7    0.66    0.30
  -1  -4  -7   -0.17    0.26
   1  -4   7    0.15    0.14
   1  -4   7    0.00    0.30
  -1  -4  -7    0.17    0.20
   1   4   7   -0.30    0.29
  -1   4  -7    0.11    0.29
   1   4   7    0.18    0.21
  -1   4  -7    0.29    0.22
  -2  -4  -7    9.53    0.82
  -2  -4  -7    8.18    0.76
   2  -4   7   10.13    0.83
   2  -4   7    8.47    0.72
   2   4   7   10.20    0.85
  -2   4  -7   10.06    0.78
   2   4   7    9.82    0.77
  -2   4  -7    9.13    0.81
  -3  -4  -7    0.55    0.26
   3  -4   7    0.50    0.32
  -3  -4  -7    0.36    0.33
   3  -4   7    0.64    0.19
   3   4   7    0.26    0.32
  -3   4  -7    0.63    0.28
  -3   4  -7    0.76    0.31
   3   4   7    0.26    0.26
   4  -4   7    0.61    0.33
  -4  -4  -7   -0.10    0.29
   4  -4   7   -0.07    0.20
  -4  -4  -7   -0.27    0.27
   4   4   7    0.09    0.27
  -4   4  -7    0.05    0.30
   4   4   7   -0.11    0.37
  -4   4  -7    0.23    0.31
   5  -4   7   14.32    1.13
   5  -4   7   14.45    1.05
  -5  -4  -7   11.21    1.12
   5   4   7   12.70    1.09
  -5   4  -7   13.49    1.11
   5   4   7   14.68    1.17
  -5   4  -7   13.25    1.11
  -6  -4  -7    0.97    0.40
   6  -4   7    0.64    0.27
   6  -4   7    0.29    0.39
   6   4   7    0.16    0.38
  -6   4  -7    0.25    0.36
   6   4   7    0.33    0.36
   7  -4   7    1.89    0.36
   7  -4   7    3.13    0.53
   7   4   7    1.90    0.44
   7   4   7    2.57    0.52
  -7   4  -7    1.62    0.46
   8  -4   7    5.91    0.67
   8  -4   7    5.41    0.59
   8   4   7    5.60    0.71
  -8   4  -7    4.12    0.64
   8   4   7    5.82    0.67
  -9  -4  -7    0.34    0.44
   9  -4   7    0.25    0.43
   9  -4   7    0.12    0.38
   9   4   7    0.44    0.62
   9   4   7    0.57    0.54
  -9   4  -7    0.32    0.45
  10  -5  -7    0.32    0.35
 -10  -5   7   -0.05    0.43
  10  -5  -7   -0.43    0.46
  10   5  -7    0.22    0.36
   9  -5  -7   -0.38    0.46
   9  -5  -7   -0.01    0.31
  -9  -5   7   -0.20    0.38
   9   5  -7   -0.01    0.31
   8  -5  -7    0.07    0.28
  -8  -5   7    0.06    0.34
   8  -5  -7    0.06    0.40
   8   5  -7    0.11    0.28
  -8   5   7    0.04    0.11
   7  -5  -7    0.61    0.36
   7  -5  -7    0.61    0.45
  -7  -5   7    0.67    0.35
   7  -5  -7    1.17    0.30
  -7   5   7    0.88    0.18
  -7   5   7    0.84    0.35
   7   5  -7    0.83    0.29
   6  -5  -7    6.76    0.70
   6  -5  -7    5.54    0.65
   6  -5  -7    5.59    0.59
  -6  -5   7    7.75    0.72
  -6  -5   7    6.67    0.65
  -6   5   7    7.44    0.68
  -6   5   7    5.94    0.52
   6   5  -7    6.07    0.59
   5  -5  -7    1.36    0.37
   5  -5  -7    0.66    0.40
   5  -5  -7    0.64    0.27
  -5  -5   7    0.57    0.37
  -5  -5   7    0.68    0.32
  -5   5   7    1.59    0.36
  -5   5   7    1.18    0.21
   5   5  -7    0.47    0.24
  -4  -5   7    0.32    0.30
   4  -5  -7   -0.10    0.32
   4  -5  -7    0.14    0.22
   4  -5  -7   -0.11    0.31
  -4  -5   7    0.02    0.34
   4   5  -7    0.23    0.23
  -4   5   7   -0.16    0.30
  -4   5   7    0.07    0.19
   4   5  -7    0.13    0.33
  -3  -5   7    6.41    0.64
   3  -5  -7    5.72    0.65
  -3  -5   7    5.93    0.63
   3  -5  -7    6.73    0.59
  -3   5   7    5.69    0.55
   3   5  -7    6.53    0.58
  -3   5   7    7.32    0.67
   3   5  -7    5.90    0.64
  -2  -5   7    1.11    0.34
   2  -5  -7    1.50    0.37
  -2  -5   7    1.25    0.34
  -2  -5   7    1.37    0.16
   2  -5  -7    1.04    0.25
  -2   5   7    1.12    0.25
   2   5  -7    2.25    0.38
  -2   5   7    0.94    0.34
   2   5  -7    0.88    0.27
   1  -5  -7    0.64    0.31
   1  -5  -7    1.07    0.26
  -1  -5   7    0.92    0.34
  -1  -5   7    0.40    0.15
  -1  -5   7    0.85    0.33
   1   5  -7    0.49    0.25
  -1   5   7    0.49    0.32
  -1   5   7    0.47    0.23
   1   5  -7    0.39    0.34
   0  -5   7    7.44    0.71
   0  -5  -7    7.43    0.70
   0  -5  -7    6.95    0.64
   0  -5   7    6.92    0.57
   0   5  -7    7.29    0.66
   0   5   7    7.60    0.77
   0   5  -7    7.73    0.73
   0   5   7    7.04    0.65
   1  -5   7    1.03    0.36
  -1  -5  -7    0.79    0.28
  -1  -5  -7    0.76    0.32
   1  -5   7    0.84    0.19
   1   5   7    1.02    0.27
   1   5   7    0.82    0.40
  -1   5  -7    0.77    0.28
  -1   5  -7    0.28    0.36
   2  -5   7    0.08    0.32
  -2  -5  -7    0.44    0.32
   2  -5   7    0.10    0.18
  -2  -5  -7    0.03    0.28
  -2   5  -7    0.11    0.30
  -2   5  -7    0.18    0.37
   2   5   7    0.09    0.41
   2   5   7    0.33    0.27
   3  -5   7    3.01    0.49
  -3  -5  -7    2.73    0.46
   3  -5   7    3.02    0.35
  -3  -5  -7    3.33    0.43
   3   5   7    2.90    0.49
  -3   5  -7    3.28    0.45
  -3   5  -7    3.71    0.49
   3   5   7    3.20    0.43
   4  -5   7    0.22    0.23
   4  -5   7    0.73    0.38
  -4  -5  -7    0.62    0.35
  -4   5  -7    0.00    0.36
   4   5   7    0.95    0.44
   4   5   7   -0.04    0.33
  -4   5  -7   -0.39    0.36
   5  -5   7    1.40    0.43
   5  -5   7    1.46    0.31
  -5  -5  -7    0.94    0.45
  -5   5  -7    0.84    0.40
   5   5   7    1.06    0.40
   5   5   7    1.20    0.51
  -6  -5  -7    3.78    0.57
   6  -5   7    3.49    0.42
   6  -5   7    2.67    0.53
   6   5   7    2.63    0.49
   6   5   7    1.93    0.57
  -6   5  -7    1.66    0.48
   7  -5   7    2.00    0.41
   7  -5   7    1.94    0.60
   7   5   7    1.18    0.51
   7   5   7    1.77    0.55
  -7   5  -7    2.27    0.59
   8  -5   7    0.36    0.41
   8   5   7   -0.02    0.61
  -8   5  -7   -0.20    0.48
   8   5   7   -0.55    0.52
   8  -6  -7    0.11    0.37
  -8  -6   7   -0.14    0.42
   8  -6  -7    0.49    0.54
  -8   6   7    0.25    0.22
   8   6  -7    0.06    0.36
   7  -6  -7    0.82    0.53
  -7  -6   7    0.88    0.42
   7  -6  -7    0.22    0.43
   7  -6  -7    0.32    0.35
   7   6  -7    0.74    0.36
  -7   6   7    0.40    0.23
  -6  -6   7    1.23    0.43
   6  -6  -7    0.24    0.35
   6  -6  -7    0.39    0.45
  -6  -6   7    0.94    0.41
   6  -6  -7    0.75    0.48
   6   6  -7    0.44    0.33
  -6   6   7    0.51    0.26
  -6   6   7    0.50    0.44
   5  -6  -7    1.94    0.52
  -5  -6   7    1.28    0.47
  -5  -6   7    0.94    0.45
   5  -6  -7    1.69    0.38
   5  -6  -7    1.85    0.46
  -5   6   7    1.91    0.46
   5   6  -7    1.48    0.35
   5   6  -7    1.30    0.50
  -5   6   7    0.93    0.28
  -4  -6   7    0.17    0.40
   4  -6  -7   -0.08    0.40
   4  -6  -7    0.50    0.40
  -4  -6   7   -0.10    0.37
   4  -6  -7    0.20    0.33
   4   6  -7    0.10    0.30
  -4   6   7    0.16    0.37
   4   6  -7   -0.14    0.40
  -4   6   7    0.19    0.25
  -3  -6   7    0.68    0.41
  -3  -6   7    0.85    0.38
   3  -6  -7    0.70    0.43
   3  -6  -7    0.57    0.30
   3  -6  -7    0.40    0.40
  -3  -6   7    0.32    0.14
  -3   6   7    0.42    0.40
   3   6  -7    0.79    0.32
   3   6  -7    0.34    0.38
  -3   6   7    0.85    0.28
   2  -6  -7    0.27    0.31
  -2  -6   7    0.40    0.16
   2  -6  -7    0.57    0.39
  -2  -6   7    0.34    0.36
  -2  -6   7    0.14    0.35
  -2   6   7    0.12    0.26
   2   6  -7   -0.11    0.36
  -2   6   7    0.41    0.35
   2   6  -7    0.03    0.29
   1  -6  -7    0.33    0.37
   1  -6  -7   -0.18    0.31
  -1  -6   7    0.30    0.17
  -1  -6   7   -0.04    0.38
  -1   6   7    0.19    0.41
   1   6  -7    0.18    0.39
   1   6  -7    0.39    0.32
  -1   6   7    0.46    0.29
   0  -6  -7    0.30    0.40
   0  -6   7    0.23    0.19
   0  -6  -7    0.14    0.33
   0  -6   7   -0.15    0.38
   0   6  -7    0.01    0.41
   0   6   7    0.63    0.30
   0   6   7    0.16    0.41
   0   6  -7    0.07    0.30
   1  -6   7   -0.23    0.36
  -1  -6  -7    0.26    0.38
   1  -6   7    0.03    0.20
  -1   6  -7    0.24    0.41
   1   6   7    0.14    0.31
   1   6   7   -0.17    0.45
  -1   6  -7   -0.12    0.34
   2  -6   7    1.32    0.43
   2  -6   7    1.62    0.29
  -2  -6  -7    1.53    0.44
   2   6   7    0.92    0.51
  -2   6  -7    1.68    0.43
   2   6   7    1.80    0.38
  -2   6  -7    1.32    0.44
   3  -6   7    0.31    0.25
  -3  -6  -7    0.83    0.47
   3  -6   7    0.32    0.42
   3   6   7    0.65    0.52
   3   6   7   -0.01    0.37
  -3   6  -7    0.68    0.42
  -3   6  -7    0.31    0.47
   4  -6   7    0.33    0.49
   4  -6   7   -0.04    0.27
  -4  -6  -7   -0.27    0.46
  -4   6  -7    0.47    0.45
   4   6   7   -0.09    0.39
   5  -6   7    4.39    0.48
  -5  -6  -7    3.53    0.64
   5  -6   7    3.40    0.67
  -5   6  -7    2.77    0.63
   5   6   7    3.29    0.58
   6  -6   7    0.50    0.38
   6  -6   7    0.34    0.52
  -6  -6  -7    0.23    0.55
  -6   6  -7    0.08    0.49
   6   6   7    1.06    0.53
  -6  -7   7    1.28    0.55
   6  -7  -7    0.48    0.59
  -6  -7   7    1.49    0.61
   6  -7  -7    1.78    0.50
   6  -7  -7    1.46    0.66
   6   7  -7    1.80    0.66
   6   7  -7    1.59    0.48
  -6   7   7    1.73    0.54
  -6   7   7    1.04    0.36
   5  -7  -7   -0.10    0.52
  -5  -7   7    0.19    0.48
   5  -7  -7   -0.01    0.44
  -5  -7   7    0.59    0.51
   5  -7  -7    0.24    0.54
  -5   7   7    0.00    0.34
   5   7  -7    0.35    0.43
  -5   7   7   -0.11    0.51
   5   7  -7    0.00    0.54
  -4  -7   7   -0.03    0.50
   4  -7  -7   -0.05    0.42
  -4  -7   7    0.06    0.16
   4  -7  -7    0.08    0.47
  -4  -7   7    0.42    0.49
   4  -7  -7    0.18    0.49
  -4   7   7   -0.03    0.33
   4   7  -7   -0.04    0.51
  -4   7   7   -0.38    0.51
   3  -7  -7    1.95    0.73
  -3  -7   7    0.80    0.52
  -3  -7   7    0.86    0.20
   3  -7  -7    0.91    0.67
  -3  -7   7    0.60    0.49
   3  -7  -7    1.21    0.51
   3   7  -7    0.90    0.52
   3   7  -7    0.58    0.42
  -3   7   7    0.92    0.37
  -2  -7   7    0.45    0.20
   2  -7  -7   -0.05    0.50
  -2  -7   7    0.49    0.46
  -2  -7   7    0.44    0.49
  -2   7   7    0.26    0.37
   2   7  -7    0.61    0.43
   2   7  -7    0.41    0.51
  -1  -7   7    0.26    0.22
  -1  -7   7   -0.06    0.49
   1  -7  -7   -0.58    0.43
   1   7  -7    0.02    0.52
  -1   7   7   -0.10    0.37
   1   7  -7    0.02    0.43
   0  -7   7    0.96    0.26
   0  -7  -7    1.41    0.58
   0  -7   7    0.60    0.47
   0   7   7    1.18    0.40
   0   7  -7    1.02    0.44
   0   7  -7    1.10    0.61
   1  -7   7    0.46    0.25
  -1  -7  -7    0.11    0.48
   1  -7   7   -0.12    0.46
  -1   7  -7    0.40    0.47
  -1   7  -7    0.35    0.52
   1   7   7    0.68    0.43
   2  -7   7    0.09    0.29
   2  -7   7   -0.38    0.47
  -2  -7  -7    0.04    0.48
   2   7   7    0.52    0.46
  -2   7  -7   -0.40    0.49
  -3  -7  -7    0.75    0.53
   3  -7   7    0.39    0.33
   3  -7   7    0.76    0.60
  -3   7  -7   -0.08    0.53
   3   7   7    0.30    0.46
   4  -7   7    0.30    0.36
  13   0  -8    1.08    0.51
  13   0  -8    1.56    0.37
  12   0  -8   -0.18    0.44
  12   0  -8    1.01    0.30
  11   0  -8    4.47    0.52
  11   0  -8    3.25    0.38
  10   0  -8    0.03    0.31
 -10   0   8    0.12    0.30
  10   0  -8    0.02    0.17
  -9   0   8    0.89    0.28
   9   0  -8    0.69    0.17
   9   0  -8    1.24    0.35
   8   0  -8    4.38    0.50
  -8   0   8    4.95    0.48
   8   0  -8    4.71    0.38
   7   0  -8    0.73    0.10
  -7   0   8    0.32    0.23
  -7   0   8    0.45    0.22
  -7   0   8    0.34    0.31
   7   0  -8    0.44    0.24
  -6   0   8    0.04    0.18
  -6   0   8    0.21    0.21
   6   0  -8   -0.03    0.21
   6   0  -8    0.04    0.24
  -6   0   8    0.12    0.27
   5   0  -8    2.99    0.42
   5   0  -8    3.75    0.36
  -5   0   8    3.46    0.35
  -5   0   8    3.16    0.41
  -5   0   8    3.51    0.37
  -4   0   8   13.24    0.98
   4   0  -8   12.93    0.97
  -4   0   8   14.03    0.97
  -4   0   8   11.84    1.00
   4   0  -8   10.83    0.99
   3   0  -8    6.28    0.50
   3   0  -8    5.17    0.41
   3   0  -8    5.59    0.41
  -3   0   8    5.57    0.50
   3   0  -8    4.95    0.54
  -3   0   8    5.73    0.50
  -3   0   8    6.74    0.55
   2   0  -8    0.01    0.22
  -2   0   8   -0.07    0.19
   2   0  -8   -0.05    0.17
   2   0  -8    0.03    0.10
  -2   0   8   -0.14    0.21
   2   0  -8    0.06    0.08
   1   0  -8   60.36    4.21
   1   0  -8   57.07    4.19
  -1   0   8   60.06    4.22
  -1   0   8   58.32    4.25
   0   0   8    1.88    0.28
   0   0  -8    1.43    0.26
   0   0  -8    1.54    0.18
   0   0   8    1.38    0.31
   1   0   8    1.42    0.29
   1   0   8    2.50    0.20
  -1   0  -8    1.73    0.29
   1   0   8    2.12    0.34
   1   0   8    2.34    0.21
  -1   0  -8    2.27    0.24
   2   0   8   74.17    5.26
  -2   0  -8   73.02    5.25
  -2   0  -8   74.76    5.21
  -2   0  -8   71.74    5.22
   2   0   8   71.91    5.19
   2   0   8   72.30    5.23
   3   0   8    4.98    0.52
  -3   0  -8    4.80    0.51
   3   0   8    4.11    0.47
   3   0   8    4.25    0.39
  -3   0  -8    4.16    0.42
  -3   0  -8    4.20    0.45
  -4   0  -8    6.26    0.71
   4   0   8    7.85    0.69
   4   0   8    7.55    0.60
  -4   0  -8    6.69    0.67
  -4   0  -8    6.85    0.61
   4   0   8    7.47    0.72
  -5   0  -8    6.38    0.56
  -5   0  -8    6.24    0.64
   5   0   8    5.44    0.52
   5   0   8    5.69    0.59
  -5   0  -8    4.87    0.55
   5   0   8    5.82    0.63
   6   0   8   -0.04    0.35
   6   0   8    0.12    0.30
   6   0   8    0.15    0.25
  -6   0  -8   -0.10    0.33
  -6   0  -8    0.15    0.32
  -6   0  -8   -0.14    0.24
  -7   0  -8    7.19    0.76
   7   0   8    7.22    0.72
   7   0   8    6.38    0.70
   7   0   8    6.98    0.66
  -7   0  -8    7.44    0.70
  -7   0  -8    6.93    0.67
  -8   0  -8    3.06    0.49
   8   0   8    4.44    0.48
   8   0   8    3.36    0.51
  -9   0  -8    1.03    0.41
   9   0   8    0.54    0.41
   9   0   8    1.39    0.41
 -10   0  -8    0.14    0.42
  10   0   8   -0.12    0.42
  10   0   8   -0.18    0.45
  11   0   8    0.25    0.52
  11   0   8   -0.11    0.54
 -13  -1   8   -0.27    0.39
  13  -1  -8   -0.37    0.31
  13  -1  -8   -0.43    0.55
  13   1  -8   -0.10    0.34
 -12  -1   8    1.05    0.41
  12  -1  -8    1.16    0.43
  12  -1  -8    0.90    0.29
  12   1  -8    1.09    0.30
  11  -1  -8    0.91    0.26
 -11  -1   8    1.04    0.34
  11  -1  -8    2.09    0.42
  11   1  -8    1.23    0.26
 -10  -1   8    0.42    0.31
  10  -1  -8    0.07    0.33
  10  -1  -8    0.36    0.18
  10   1  -8    0.34    0.19
  -9  -1   8   12.67    1.06
   9  -1  -8   13.26    0.99
   9  -1  -8   14.19    1.11
   9   1  -8   13.36    1.06
   9   1  -8   13.17    0.99
   8  -1  -8    7.66    0.59
  -8  -1   8    7.82    0.69
   8  -1  -8    7.58    0.69
  -8   1   8    7.78    0.68
   8   1  -8    8.81    0.68
   8   1  -8    7.20    0.59
  -7  -1   8    0.26    0.22
   7  -1  -8    0.52    0.33
  -7  -1   8    0.71    0.55
   7  -1  -8    0.14    0.11
   7  -1  -8    0.39    0.26
  -7  -1   8    0.24    0.24
   7   1  -8    0.45    0.25
   7   1  -8    0.39    0.10
  -7   1   8    0.30    0.24
  -6  -1   8    6.65    0.61
   6  -1  -8    6.41    0.60
  -6  -1   8    6.31    0.56
   6  -1  -8    6.44    0.49
  -6  -1   8    6.99    0.58
   6  -1  -8    6.33    0.60
  -6   1   8    7.35    0.59
   6   1  -8    5.80    0.58
   5  -1  -8    6.14    0.61
  -5  -1   8    7.02    0.59
  -5  -1   8    6.55    0.63
   5  -1  -8    7.23    0.50
  -5  -1   8    6.49    0.56
  -5   1   8    5.88    0.61
   5   1  -8    5.75    0.58
  -5   1   8    7.32    0.56
   4  -1  -8    4.27    0.35
   4  -1  -8    3.73    0.41
  -4  -1   8    5.55    0.54
   4  -1  -8    4.15    0.35
  -4  -1   8    5.56    0.46
   4  -1  -8    5.09    0.52
  -4  -1   8    4.74    0.42
  -4   1   8    5.02    0.43
   4   1  -8    4.55    0.45
  -4   1   8    4.56    0.46
  -4   1   8    4.45    0.48
   3  -1  -8   29.33    2.31
  -3  -1   8   33.88    2.32
   3  -1  -8   32.49    2.27
  -3  -1   8   31.47    2.28
  -3  -1   8   31.77    2.28
   3  -1  -8   30.45    2.24
   3   1  -8   30.80    2.23
   3   1  -8   31.52    2.23
   3   1  -8   31.46    2.28
  -3   1   8   29.79    2.31
  -3   1   8   32.93    2.29
  -2  -1   8    1.05    0.24
   2  -1  -8    0.87    0.29
   2  -1  -8    1.50    0.16
  -2  -1   8    1.91    0.27
  -2  -1   8    1.30    0.31
   2  -1  -8    1.27    0.22
  -2   1   8    1.77    0.33
   2   1  -8    1.51    0.16
   2   1  -8    1.18    0.15
   2   1  -8    1.00    0.24
  -2   1   8    1.30    0.27
  -1  -1   8    2.73    0.38
   1  -1  -8    2.32    0.24
   1  -1  -8    3.23    0.31
   1  -1  -8    2.01    0.36
  -1  -1   8    3.05    0.33
  -1   1   8    2.67    0.34
   1   1  -8    2.42    0.34
  -1   1   8    2.93    0.39
   1   1  -8    2.41    0.24
   0  -1   8   18.05    1.38
   0  -1  -8   18.32    1.31
   0  -1  -8   17.05    1.33
   0  -1   8   19.40    1.35
   0  -1  -8   18.07    1.38
   0   1  -8   16.17    1.34
   0   1  -8   18.53    1.30
   0   1   8   18.57    1.38
   0   1   8   16.25    1.34
   1  -1   8   12.71    1.06
  -1  -1  -8   13.74    1.05
   1  -1   8   13.22    0.98
  -1  -1  -8   12.94    1.10
  -1  -1  -8   13.22    1.02
   1  -1   8   14.16    0.99
   1  -1   8   15.56    1.11
   1   1   8   13.85    1.09
  -1   1  -8   13.04    1.06
  -1   1  -8   14.85    1.03
   1   1   8   13.16    1.10
   1   1   8   14.07    1.00
   1   1   8   13.46    1.03
   2  -1   8    1.86    0.32
   2  -1   8    2.18    0.37
  -2  -1  -8    1.29    0.32
   2  -1   8    1.67    0.19
  -2  -1  -8    1.58    0.23
  -2  -1  -8    1.42    0.28
   2   1   8    2.09    0.36
   2   1   8    1.52    0.30
  -2   1  -8    1.35    0.22
  -2   1  -8    1.72    0.29
   2   1   8    1.52    0.20
   3  -1   8    0.94    0.27
   3  -1   8    1.27    0.35
  -3  -1  -8    0.80    0.22
   3  -1   8    1.00    0.19
  -3  -1  -8    1.20    0.26
  -3  -1  -8    0.70    0.31
   3   1   8    1.00    0.33
   3   1   8    0.51    0.28
  -3   1  -8    0.96    0.21
   3   1   8    1.12    0.19
  -3   1  -8    1.06    0.27
   4  -1   8   16.95    1.31
   4  -1   8   15.93    1.25
   4  -1   8   19.29    1.35
  -4  -1  -8   17.59    1.28
  -4  -1  -8   17.74    1.30
  -4  -1  -8   17.13    1.35
   4   1   8   16.65    1.32
  -4   1  -8   17.11    1.27
   4   1   8   17.17    1.36
   4   1   8   15.62    1.26
  -4   1  -8   15.67    1.30
   5  -1   8    0.12    0.32
   5  -1   8    0.32    0.28
  -5  -1  -8    0.44    0.26
  -5  -1  -8    0.13    0.30
  -5  -1  -8    0.21    0.25
   5  -1   8    0.06    0.21
   5   1   8    0.05    0.22
   5   1   8    0.37    0.33
   5   1   8    0.11    0.32
  -5   1  -8    0.05    0.22
  -5   1  -8    0.10    0.28
  -6  -1  -8    2.64    0.37
  -6  -1  -8    2.59    0.38
   6  -1   8    2.67    0.33
   6  -1   8    1.80    0.37
  -6  -1  -8    2.26    0.44
   6  -1   8    2.38    0.46
  -6   1  -8    1.99    0.38
  -6   1  -8    1.90    0.36
   6   1   8    1.98    0.35
   6   1   8    1.79    0.39
   7  -1   8    9.24    0.85
   7  -1   8    8.13    0.73
   7  -1   8    7.49    0.76
  -7  -1  -8    7.30    0.82
  -7  -1  -8    8.11    0.78
  -7  -1  -8    8.24    0.75
  -7   1  -8    7.60    0.76
   7   1   8    9.51    0.76
  -7   1  -8    7.75    0.74
   7   1   8    7.59    0.78
   8  -1   8    0.21    0.32
  -8  -1  -8    0.11    0.33
   8  -1   8    0.43    0.40
  -8   1  -8    1.16    0.37
   8   1   8    0.98    0.38
   8   1   8    0.95    0.38
  -9  -1  -8    2.89    0.54
   9  -1   8    2.76    0.52
   9  -1   8    3.74    0.48
   9   1   8    2.76    0.53
  -9   1  -8    2.67    0.54
   9   1   8    3.76    0.55
  10  -1   8    6.91    0.80
  10  -1   8    7.15    0.76
 -10  -1  -8    8.53    0.81
  10   1   8    6.05    0.79
  10   1   8    6.49    0.78
 -10   1  -8    7.08    0.77
  12  -2  -8    0.53    0.30
  12  -2  -8    0.52    0.44
 -12  -2   8    0.38    0.42
  12   2  -8    0.33    0.31
  11  -2  -8    2.41    0.48
 -11  -2   8    1.28    0.39
  11  -2  -8    2.39    0.33
  11   2  -8    2.64    0.34
 -10  -2   8    0.39    0.31
  10  -2  -8    0.07    0.38
  10  -2  -8    0.31    0.21
  10   2  -8    0.02    0.21
   9  -2  -8    0.51    0.17
  -9  -2   8    0.87    0.32
   9  -2  -8    0.59    0.37
   9   2  -8    0.52    0.19
   8  -2  -8    2.81    0.28
   8  -2  -8    2.24    0.39
  -8  -2   8    2.78    0.38
   8   2  -8    3.43    0.29
  -8   2   8    1.97    0.38
   7  -2  -8    0.37    0.14
   7  -2  -8    0.23    0.29
   7  -2  -8    0.58    0.28
  -7  -2   8    0.35    0.27
   7   2  -8    0.16    0.13
  -7   2   8    0.21    0.26
  -6  -2   8   -0.10    0.23
   6  -2  -8    0.11    0.12
   6  -2  -8   -0.20    0.26
  -6  -2   8    0.01    0.28
   6  -2  -8   -0.06    0.28
   6   2  -8    0.04    0.11
  -6   2   8   -0.20    0.23
  -5  -2   8    2.06    0.37
   5  -2  -8    2.63    0.37
  -5  -2   8    2.96    0.33
   5  -2  -8    2.10    0.22
   5   2  -8    2.07    0.21
  -5   2   8    1.67    0.32
   4  -2  -8    8.23    0.69
  -4  -2   8    8.23    0.68
  -4  -2   8    6.92    0.70
  -4  -2   8    7.69    0.66
   4  -2  -8    8.29    0.60
  -4   2   8    7.45    0.68
   4   2  -8    7.01    0.66
   4   2  -8    7.95    0.58
   3  -2  -8    4.57    0.38
  -3  -2   8    5.35    0.54
   3  -2  -8    4.74    0.49
  -3  -2   8    4.03    0.43
  -3  -2   8    4.48    0.45
  -3   2   8    3.84    0.47
   3   2  -8    4.67    0.46
  -2  -2   8   -0.07    0.20
  -2  -2   8    0.03    0.26
   2  -2  -8    0.63    0.29
  -2  -2   8    0.17    0.21
   2  -2  -8    0.04    0.12
  -2   2   8   -0.09    0.22
   2   2  -8   -0.02    0.11
   2   2  -8    0.12    0.22
  -1  -2   8   41.16    2.93
   1  -2  -8   42.05    2.98
   1  -2  -8   39.77    2.91
  -1  -2   8   41.16    2.99
   1   2  -8   40.77    2.91
   1   2  -8   39.81    2.95
  -1   2   8   40.23    2.97
   0  -2   8    1.42    0.27
   0  -2  -8    1.25    0.20
   0  -2  -8    1.40    0.31
   0  -2   8    1.62    0.34
   0   2   8    1.33    0.29
   0   2  -8    1.51    0.29
   0   2   8    1.44    0.16
   0   2   8    1.50    0.21
   0   2  -8    1.24    0.20
  -1  -2  -8    1.77    0.35
  -1  -2  -8    2.19    0.28
   1  -2   8    2.33    0.37
  -1  -2  -8    1.72    0.25
   1  -2   8    2.78    0.33
   1  -2   8    2.06    0.20
   1  -2   8    1.90    0.20
   1   2   8    1.52    0.32
   1   2   8    1.96    0.22
  -1   2  -8    1.95    0.31
  -1   2  -8    2.55    0.26
   2  -2   8   50.75    3.74
   2  -2   8   49.68    3.66
   2  -2   8   48.66    3.70
  -2  -2  -8   53.24    3.69
  -2  -2  -8   51.52    3.69
  -2  -2  -8   50.90    3.73
  -2   2  -8   51.59    3.71
  -2   2  -8   52.84    3.69
   2   2   8   52.43    3.68
   2   2   8   52.24    3.72
   3  -2   8    3.70    0.37
  -3  -2  -8    5.12    0.50
   3  -2   8    2.98    0.48
   3  -2   8    4.37    0.44
  -3  -2  -8    4.17    0.42
  -3  -2  -8    4.23    0.42
   3   2   8    3.53    0.38
  -3   2  -8    3.63    0.44
   3   2   8    3.40    0.46
  -3   2  -8    4.04    0.41
  -4  -2  -8    6.26    0.54
  -4  -2  -8    4.64    0.56
   4  -2   8    4.85    0.46
   4  -2   8    4.64    0.59
   4  -2   8    5.70    0.57
  -4  -2  -8    5.07    0.50
   4   2   8    4.32    0.55
   4   2   8    5.42    0.49
  -4   2  -8    5.25    0.51
  -4   2  -8    5.00    0.55
   5  -2   8    3.22    0.36
  -5  -2  -8    4.58    0.44
  -5  -2  -8    3.69    0.44
  -5  -2  -8    2.93    0.46
   5  -2   8    3.30    0.55
   5  -2   8    2.94    0.44
  -5   2  -8    3.37    0.41
   5   2   8    3.69    0.40
   5   2   8    3.31    0.47
  -5   2  -8    2.73    0.43
   6  -2   8    0.18    0.43
  -6  -2  -8   -0.09    0.31
   6  -2   8    0.02    0.22
  -6  -2  -8    0.07    0.31
   6  -2   8   -0.06    0.29
  -6  -2  -8   -0.07    0.28
  -6   2  -8    0.02    0.34
   6   2   8    0.05    0.27
   6   2   8   -0.46    0.33
  -6   2  -8   -0.20    0.25
  -7  -2  -8    5.30    0.60
  -7  -2  -8    6.83    0.67
   7  -2   8    4.46    0.58
   7  -2   8    6.56    0.72
   7  -2   8    4.26    0.52
   7   2   8    6.39    0.60
  -7   2  -8    6.08    0.59
  -7   2  -8    4.20    0.58
   8  -2   8    2.40    0.41
  -8  -2  -8    2.82    0.46
   8  -2   8    2.27    0.45
   8   2   8    2.78    0.47
  -8   2  -8    2.54    0.47
   8   2   8    3.19    0.53
   9  -2   8    0.42    0.39
  -9  -2  -8    0.04    0.45
   9  -2   8    0.53    0.43
   9   2   8    0.22    0.43
   9   2   8    0.67    0.48
  -9   2  -8    1.17    0.45
 -10  -2  -8   -0.16    0.48
  10  -2   8    0.06    0.45
  10  -2   8    0.06    0.53
  10   2   8   -0.33    0.48
  10   2   8    0.00    0.60
 -10   2  -8    0.20    0.47
 -12  -3   8    0.91    0.44
  12  -3  -8    0.67    0.35
  12  -3  -8    0.30    0.52
  12   3  -8    0.37    0.37
  11  -3  -8    0.70    0.31
  11  -3  -8    1.54    0.46
 -11  -3   8    0.30    0.44
  11   3  -8    0.70    0.31
  10  -3  -8    0.08    0.37
  10  -3  -8   -0.30    0.23
 -10  -3   8    0.11    0.33
  10   3  -8   -0.01    0.25
   9  -3  -8    7.37    0.71
   9  -3  -8    5.56    0.58
  -9  -3   8    6.50    0.66
   9   3  -8    7.68    0.59
   8  -3  -8    5.15    0.46
  -8  -3   8    4.02    0.52
   8  -3  -8    4.71    0.55
   8   3  -8    5.19    0.46
  -8   3   8    4.90    0.54
  -7  -3   8    0.27    0.25
   7  -3  -8    0.23    0.18
   7  -3  -8    0.04    0.33
   7  -3  -8    0.25    0.30
   7   3  -8    0.24    0.17
  -7   3   8    0.16    0.29
   6  -3  -8    2.18    0.39
   6  -3  -8    2.70    0.27
  -6  -3   8    2.35    0.41
   6  -3  -8    2.71    0.40
  -6  -3   8    1.26    0.32
  -6   3   8    2.23    0.36
   6   3  -8    2.05    0.24
   5  -3  -8    5.15    0.54
   5  -3  -8    4.88    0.43
  -5  -3   8    4.65    0.49
  -5  -3   8    4.58    0.55
  -5   3   8    4.64    0.50
   5   3  -8    4.83    0.41
  -4  -3   8    3.39    0.47
  -4  -3   8    4.46    0.43
   4  -3  -8    4.32    0.46
   4  -3  -8    4.02    0.35
   4   3  -8    3.27    0.33
  -4   3   8    3.05    0.43
   4   3  -8    2.72    0.41
  -3  -3   8   15.79    1.20
  -3  -3   8   15.34    1.23
   3  -3  -8   16.44    1.22
   3  -3  -8   15.36    1.15
  -3   3   8   14.35    1.20
   3   3  -8   15.59    1.20
   2  -3  -8    1.25    0.30
  -2  -3   8    1.45    0.35
   2  -3  -8    2.04    0.22
  -2  -3   8    1.62    0.30
  -2   3   8    1.20    0.13
  -2   3   8    1.30    0.31
  -2   3   8    1.29    0.13
   2   3  -8    1.06    0.29
   2   3  -8    1.09    0.19
   1  -3  -8    1.33    0.22
  -1  -3   8    1.74    0.33
   1  -3  -8    1.89    0.36
  -1   3   8    1.92    0.33
  -1   3   8    1.30    0.18
   1   3  -8    1.38    0.21
   1   3  -8    2.13    0.33
   0  -3  -8    5.87    0.56
   0  -3   8    6.69    0.64
   0  -3  -8    8.10    0.66
   0   3   8    6.11    0.54
   0   3  -8    6.76    0.63
   0   3  -8    7.40    0.57
   0   3   8    7.38    0.65
  -1  -3  -8    6.73    0.65
   1  -3   8    6.22    0.66
   1  -3   8    5.96    0.48
  -1  -3  -8    5.58    0.53
   1   3   8    6.09    0.51
  -1   3  -8    6.84    0.54
  -1   3  -8    5.69    0.60
   1   3   8    6.67    0.61
   2  -3   8    0.51    0.14
  -2  -3  -8    0.68    0.30
   2  -3   8    0.61    0.32
  -2  -3  -8    0.66    0.23
   2   3   8    0.93    0.31
   2   3   8    0.74    0.20
  -2   3  -8    0.41    0.27
  -2   3  -8    0.48    0.23
  -3  -3  -8    0.37    0.22
  -3  -3  -8    0.35    0.30
   3  -3   8    0.30    0.32
   3  -3   8    0.28    0.16
   3  -3   8    0.15    0.28
  -3   3  -8    0.58    0.26
   3   3   8    0.11    0.31
  -3   3  -8    0.33    0.32
   3   3   8    0.30    0.21
   4  -3   8    8.23    0.74
  -4  -3  -8    7.30    0.72
  -4  -3  -8    7.76    0.76
   4  -3   8    7.62    0.66
   4  -3   8    8.25    0.83
  -4   3  -8    8.73    0.75
   4   3   8    8.69    0.77
  -4   3  -8    8.61    0.72
   4   3   8    8.58    0.70
   5  -3   8    0.65    0.34
   5  -3   8    0.18    0.21
  -5  -3  -8    0.60    0.38
  -5  -3  -8   -0.02    0.30
  -5  -3  -8    0.40    0.31
   5  -3   8    0.16    0.36
  -5   3  -8    0.14    0.34
  -5   3  -8    0.12    0.30
   5   3   8    0.30    0.39
   5   3   8   -0.09    0.25
   6  -3   8    1.16    0.41
   6  -3   8    1.90    0.48
   6  -3   8    1.49    0.30
  -6  -3  -8    2.15    0.41
  -6  -3  -8    1.69    0.41
   6   3   8    1.50    0.43
  -6   3  -8    1.77    0.38
  -6   3  -8    1.59    0.40
   6   3   8    1.76    0.36
   7  -3   8    3.30    0.45
   7  -3   8    3.80    0.66
   7  -3   8    3.73    0.51
  -7  -3  -8    5.57    0.83
  -7  -3  -8    3.75    0.50
   7   3   8    3.70    0.58
   7   3   8    3.17    0.48
  -7   3  -8    3.63    0.56
   8  -3   8    0.77    0.35
   8  -3   8    0.28    0.38
  -8  -3  -8    0.70    0.39
   8   3   8   -0.03    0.41
  -8   3  -8    0.50    0.42
   8   3   8    0.22    0.47
  -9  -3  -8    2.72    0.55
   9  -3   8    1.31    0.39
   9  -3   8    1.09    0.53
   9   3   8    1.73    0.52
   9   3   8    1.86    0.66
  -9   3  -8    1.37    0.51
 -11  -4   8    0.65    0.45
  11  -4  -8    1.39    0.59
  11  -4  -8    0.97    0.36
  11   4  -8    0.35    0.35
 -10  -4   8    0.49    0.39
  10  -4  -8    0.18    0.45
  10  -4  -8   -0.18    0.28
  10   4  -8   -0.11    0.28
  -9  -4   8    0.03    0.36
   9  -4  -8    0.10    0.25
   9  -4  -8    0.18    0.40
   9   4  -8   -0.09    0.24
   8  -4  -8    0.83    0.26
   8  -4  -8    0.90    0.40
  -8  -4   8    0.44    0.33
  -8   4   8    0.69    0.39
   8   4  -8    0.81    0.25
  -7  -4   8    0.04    0.31
   7  -4  -8    0.04    0.21
   7  -4  -8    0.15    0.39
   7  -4  -8   -0.28    0.33
  -7   4   8    0.43    0.33
   7   4  -8    0.16    0.20
   6  -4  -8    0.04    0.21
   6  -4  -8    0.04    0.34
  -6  -4   8    0.13    0.35
   6  -4  -8   -0.11    0.32
  -6  -4   8   -0.15    0.27
  -6   4   8    0.29    0.31
   6   4  -8   -0.18    0.18
   5  -4  -8    0.28    0.31
   5  -4  -8    0.23    0.32
   5  -4  -8    0.33    0.21
  -5  -4   8    0.15    0.30
  -5  -4   8    0.24    0.28
   5   4  -8    0.46    0.33
   5   4  -8    0.36    0.18
  -5   4   8    0.05    0.29
  -4  -4   8    2.14    0.39
  -4  -4   8    1.86    0.36
   4  -4  -8    1.88    0.28
   4  -4  -8    2.42    0.41
   4   4  -8    1.53    0.38
   4   4  -8    2.11    0.26
  -4   4   8    2.80    0.41
  -3  -4   8    2.55    0.39
  -3  -4   8    1.70    0.36
   3  -4  -8    2.08    0.27
   3  -4  -8    1.86    0.37
  -3   4   8    1.99    0.41
  -3   4   8    1.34    0.19
   3   4  -8    2.11    0.39
  -2  -4   8    0.05    0.32
   2  -4  -8    0.07    0.30
   2  -4  -8    0.40    0.20
  -2  -4   8    0.43    0.33
  -2   4   8    0.34    0.30
  -2   4   8    0.52    0.16
   2   4  -8    0.20    0.28
   2   4  -8    0.35    0.19
   1  -4  -8   16.23    1.16
  -1  -4   8   15.13    1.24
   1  -4  -8   15.18    1.22
   1   4  -8   14.56    1.22
   1   4  -8   15.64    1.16
  -1   4   8   14.58    1.14
  -1   4   8   15.91    1.26
   0  -4  -8    0.98    0.25
   0  -4  -8    0.75    0.33
   0  -4   8    0.78    0.13
   0  -4   8    0.43    0.31
   0   4  -8    1.20    0.25
   0   4  -8    0.63    0.33
   0   4   8    0.62    0.33
   0   4   8    0.75    0.21
   1  -4   8    0.59    0.32
   1  -4   8    0.95    0.16
  -1  -4  -8    1.00    0.27
  -1  -4  -8    1.06    0.34
   1   4   8    0.66    0.35
  -1   4  -8    0.95    0.26
  -1   4  -8    0.56    0.33
   1   4   8    0.91    0.22
   2  -4   8   18.17    1.43
   2  -4   8   19.98    1.53
  -2  -4  -8   19.03    1.47
  -2  -4  -8   21.30    1.53
  -2   4  -8   18.85    1.48
  -2   4  -8   19.03    1.51
   2   4   8   19.92    1.54
   2   4   8   20.94    1.46
  -3  -4  -8    3.58    0.39
   3  -4   8    2.75    0.46
  -3  -4  -8    2.93    0.46
   3  -4   8    2.61    0.31
  -3   4  -8    2.61    0.39
   3   4   8    2.63    0.37
  -3   4  -8    2.33    0.43
   3   4   8    3.85    0.49
  -4  -4  -8    2.14    0.40
  -4  -4  -8    1.57    0.42
   4  -4   8    2.65    0.47
   4  -4   8    2.26    0.29
   4   4   8    1.55    0.33
   4   4   8    2.26    0.45
  -4   4  -8    2.55    0.40
  -4   4  -8    1.73    0.39
  -5  -4  -8    0.61    0.38
   5  -4   8    0.59    0.24
   5  -4   8    0.82    0.42
   5   4   8    1.09    0.34
  -5   4  -8    0.74    0.36
   5   4   8    0.66    0.45
  -5   4  -8    0.52    0.36
   6  -4   8    0.08    0.43
   6  -4   8    0.25    0.26
  -6  -4  -8    0.26    0.42
   6   4   8    0.00    0.40
  -6   4  -8   -0.33    0.44
  -6   4  -8   -0.35    0.37
   6   4   8    0.00    0.33
   7  -4   8    2.49    0.63
   7  -4   8    2.64    0.40
   7   4   8    2.04    0.45
  -7   4  -8    1.66    0.50
   7   4   8    2.34    0.54
   8  -4   8    1.33    0.40
   8   4   8    0.81    0.55
   8   4   8    1.21    0.45
  -8   4  -8    0.54    0.54
   9  -4   8   -0.11    0.43
   9   4   8    0.04    0.52
  10  -5  -8    0.08    0.51
  10  -5  -8    0.16    0.35
 -10  -5   8    0.07    0.45
  10   5  -8   -0.26    0.34
  -9  -5   8    1.61    0.48
   9  -5  -8    1.42    0.52
   9  -5  -8    1.74    0.39
   9   5  -8    1.71    0.36
   8  -5  -8    2.00    0.50
   8  -5  -8    1.63    0.37
  -8  -5   8    2.42    0.44
  -8   5   8    1.69    0.47
   8   5  -8    2.03    0.36
   7  -5  -8   -0.06    0.29
  -7  -5   8   -0.03    0.33
   7  -5  -8    0.05    0.48
   7  -5  -8   -0.25    0.38
   7   5  -8   -0.16    0.26
  -7   5   8    0.01    0.37
   6  -5  -8    0.56    0.28
   6  -5  -8    0.22    0.44
  -6  -5   8   -0.02    0.36
   6  -5  -8    0.43    0.43
  -6  -5   8    0.19    0.37
  -6   5   8    0.24    0.40
   6   5  -8    0.58    0.25
   5  -5  -8    3.09    0.49
  -5  -5   8    1.83    0.44
  -5  -5   8    3.49    0.48
   5  -5  -8    2.78    0.37
   5  -5  -8    2.63    0.48
   5   5  -8    2.48    0.34
   5   5  -8    2.66    0.51
  -5   5   8    2.50    0.26
  -5   5   8    3.60    0.48
  -4  -5   8    1.47    0.40
   4  -5  -8    1.42    0.41
   4  -5  -8    2.40    0.33
  -4  -5   8    1.99    0.42
  -4   5   8    2.52    0.41
  -4   5   8    1.17    0.22
   4   5  -8    0.57    0.37
   4   5  -8    1.68    0.29
  -3  -5   8    2.86    0.49
   3  -5  -8    3.97    0.42
   3  -5  -8    4.64    0.53
  -3  -5   8    3.52    0.48
  -3   5   8    3.33    0.35
  -3   5   8    3.26    0.48
   3   5  -8    3.10    0.39
   3   5  -8    4.62    0.52
  -2  -5   8    1.26    0.37
   2  -5  -8    1.15    0.29
   2  -5  -8    1.07    0.40
  -2  -5   8    0.39    0.35
   2   5  -8    1.18    0.28
   2   5  -8    0.80    0.37
  -2   5   8    0.91    0.24
  -2   5   8    1.33    0.38
   1  -5  -8    0.60    0.28
  -1  -5   8    0.73    0.13
   1  -5  -8    0.39    0.38
  -1  -5   8    0.60    0.36
  -1   5   8    0.43    0.35
   1   5  -8    0.23    0.36
   1   5  -8    1.09    0.28
  -1   5   8    0.72    0.23
   0  -5   8    1.32    0.19
   0  -5  -8    1.81    0.41
   0  -5  -8    1.54    0.31
   0  -5   8    1.11    0.38
   0   5   8    1.26    0.27
   0   5  -8    1.26    0.32
   0   5  -8    1.49    0.42
   0   5   8    1.96    0.48
   1  -5   8    1.26    0.21
  -1  -5  -8    1.60    0.33
   1  -5   8    0.81    0.38
  -1  -5  -8    2.13    0.46
  -1   5  -8    1.67    0.34
   1   5   8    1.16    0.28
   1   5   8    1.42    0.44
  -1   5  -8    1.66    0.42
   2  -5   8    0.17    0.36
  -2  -5  -8    0.01    0.38
  -2  -5  -8    0.18    0.30
   2  -5   8    0.29    0.19
   2   5   8   -0.11    0.25
   2   5   8   -0.11    0.44
  -2   5  -8    0.27    0.32
  -2   5  -8   -0.01    0.34
   3  -5   8    0.10    0.37
  -3  -5  -8   -0.02    0.37
   3  -5   8   -0.15    0.20
  -3  -5  -8    0.25    0.34
  -3   5  -8   -0.05    0.37
   3   5   8   -0.22    0.29
  -3   5  -8    0.15    0.34
   3   5   8   -0.21    0.42
   4  -5   8    2.12    0.48
   4  -5   8    2.21    0.32
  -4  -5  -8    1.59    0.45
   4   5   8    2.84    0.50
  -4   5  -8    1.95    0.46
  -4   5  -8    1.95    0.45
   4   5   8    1.52    0.38
   5  -5   8    0.30    0.50
   5  -5   8   -0.04    0.27
  -5  -5  -8    0.01    0.40
  -5   5  -8    0.39    0.39
   5   5   8    0.22    0.49
  -5   5  -8    0.15    0.42
   5   5   8   -0.09    0.36
   6  -5   8    0.78    0.52
   6  -5   8    1.06    0.34
  -6  -5  -8    0.78    0.52
   6   5   8    0.06    0.54
   6   5   8    0.72    0.43
  -6   5  -8    0.41    0.45
   7  -5   8    0.57    0.38
   7  -5   8    1.57    0.67
  -7   5  -8    0.94    0.60
   7   5   8    1.76    0.51
   7   5   8    0.72    0.58
   8  -6  -8    0.12    0.53
  -8  -6   8    0.37    0.47
   8  -6  -8    0.20    0.41
   8   6  -8    0.11    0.38
   7  -6  -8    0.22    0.37
   7  -6  -8    0.29    0.52
  -7  -6   8    0.22    0.45
   7   6  -8    0.16    0.35
  -7   6   8    0.24    0.17
  -7   6   8    0.04    0.51
  -6  -6   8   -0.10    0.42
   6  -6  -8   -0.25    0.35
  -6  -6   8   -0.03    0.44
   6  -6  -8    0.25    0.46
   6  -6  -8   -0.54    0.51
  -6   6   8   -0.04    0.20
  -6   6   8    0.26    0.44
   6   6  -8   -0.02    0.46
   6   6  -8    0.01    0.33
   5  -6  -8   -0.19    0.44
  -5  -6   8    0.13    0.42
  -5  -6   8   -0.02    0.47
   5  -6  -8    0.24    0.52
   5  -6  -8    0.14    0.35
  -5   6   8    0.03    0.40
   5   6  -8   -0.14    0.45
  -5   6   8   -0.21    0.22
   5   6  -8   -0.15    0.31
  -4  -6   8    0.22    0.45
   4  -6  -8   -0.06    0.32
   4  -6  -8    0.08    0.44
  -4  -6   8    0.04    0.48
   4  -6  -8    0.10    0.50
   4   6  -8    0.25    0.49
  -4   6   8   -0.11    0.41
  -4   6   8    0.33    0.25
  -3  -6   8    0.16    0.40
   3  -6  -8    0.78    0.35
   3  -6  -8    0.95    0.43
  -3  -6   8    0.66    0.46
   3   6  -8    0.61    0.44
   3   6  -8    0.54    0.32
  -3   6   8    0.46    0.40
  -3   6   8    0.64    0.26
  -2  -6   8    0.18    0.11
   2  -6  -8   -0.15    0.40
  -2  -6   8    0.45    0.41
   2  -6  -8    0.22    0.33
  -2  -6   8   -0.11    0.39
  -2   6   8    0.03    0.27
   2   6  -8    0.53    0.45
  -2   6   8    0.09    0.39
   2   6  -8    0.27    0.32
   1  -6  -8    3.50    0.48
  -1  -6   8    3.42    0.34
  -1  -6   8    3.59    0.55
   1  -6  -8    4.77    0.60
  -1   6   8    3.46    0.55
  -1   6   8    2.96    0.42
   1   6  -8    3.05    0.45
   1   6  -8    3.73    0.59
   0  -6   8    0.47    0.44
   0  -6  -8    0.25    0.41
   0  -6  -8    0.45    0.34
   0  -6   8    0.19    0.18
   0   6   8    0.33    0.29
   0   6  -8    0.81    0.45
   0   6   8    0.18    0.41
   0   6  -8    0.06    0.34
   1  -6   8    0.38    0.21
  -1  -6  -8   -0.34    0.36
  -1  -6  -8    0.16    0.44
   1  -6   8    0.25    0.41
  -1   6  -8    1.08    0.47
  -1   6  -8    0.44    0.36
   1   6   8   -0.14    0.50
   1   6   8    0.19    0.32
   2  -6   8    5.72    0.53
   2  -6   8    6.18    0.72
  -2  -6  -8    4.86    0.69
  -2   6  -8    5.01    0.63
  -2   6  -8    4.67    0.66
   2   6   8    5.79    0.74
   2   6   8    5.54    0.59
   3  -6   8    1.40    0.57
  -3  -6  -8    0.46    0.47
   3  -6   8    1.58    0.30
  -3   6  -8    1.27    0.50
   3   6   8    2.02    0.60
   3   6   8    1.30    0.40
  -3   6  -8    0.67    0.47
   4  -6   8    0.58    0.30
   4  -6   8    0.47    0.50
  -4  -6  -8    0.54    0.49
  -4   6  -8    0.70    0.50
   4   6   8    0.94    0.62
   4   6   8    0.31    0.40
  -5  -6  -8    0.13    0.51
   5  -6   8    0.16    0.60
   5  -6   8    0.41    0.35
  -5   6  -8   -0.23    0.48
   5   6   8   -0.01    0.45
   4  -7  -8    1.26    0.56
  -4  -7   8    0.42    0.53
   4  -7  -8    0.64    0.48
  -4  -7   8    0.53    0.59
   4  -7  -8    0.55    0.56
   4   7  -8    0.29    0.44
   4   7  -8    0.68    0.57
  -4   7   8    0.41    0.34
  -4   7   8    1.50    0.56
   3  -7  -8    0.43    0.55
  -3  -7   8    0.10    0.55
  -3  -7   8    0.36    0.56
   3  -7  -8    0.51    0.61
   3  -7  -8    0.82    0.48
   3   7  -8    0.77    0.56
   3   7  -8    1.09    0.45
  -3   7   8    1.22    0.59
  -3   7   8    0.57    0.33
  -2  -7   8    0.59    0.19
   2  -7  -8    0.68    0.61
  -2  -7   8    0.79    0.51
   2   7  -8    0.15    0.56
  -2   7   8    0.91    0.37
   2   7  -8    0.94    0.46
  -1  -7   8    0.32    0.22
   1  -7  -8   -0.50    0.52
  -1  -7   8    0.38    0.57
  -1   7   8    0.02    0.36
   1   7  -8    0.23    0.64
   1   7  -8    0.08    0.44
   0  -7   8    0.27    0.25
   0  -7  -8   -0.29    0.55
   0  -7   8    0.80    0.60
   0   7   8    0.10    0.38
   0   7  -8    0.27    0.57
   0   7  -8   -0.09    0.46
   1  -7   8    0.25    0.27
  -1  -7  -8    0.67    0.58
   1  -7   8    0.18    0.53
  -1   7  -8    0.69    0.52
  -1   7  -8    0.12    0.60
   1   7   8    0.14    0.41
   2  -7   8   -0.04    0.29
   2  -7   8   -0.04    0.54
  -2   7  -8    0.08    0.53
  -2   7  -8   -0.20    0.52
   2   7   8   -0.04    0.45
  12   0  -9    3.44    0.41
  12   0  -9    3.01    0.58
  11   0  -9    1.79    0.28
  11   0  -9    1.44    0.47
  10   0  -9    0.16    0.18
  10   0  -9   -0.08    0.39
   9   0  -9    0.75    0.37
   9   0  -9    0.82    0.17
  -8   0   9    5.51    0.58
   8   0  -9    6.19    0.60
  -8   0   9    5.80    0.56
   8   0  -9    6.05    0.46
   7   0  -9   19.83    1.39
  -7   0   9   16.96    1.51
   7   0  -9   19.94    1.50
  -7   0   9   20.02    1.46
  -7   0   9   19.47    1.49
  -6   0   9   10.35    0.87
  -6   0   9    9.24    0.81
   6   0  -9    9.76    0.81
  -6   0   9    9.91    0.80
   6   0  -9   10.47    0.83
   6   0  -9    9.66    0.85
   5   0  -9    0.58    0.25
  -5   0   9    0.14    0.27
  -5   0   9    0.05    0.23
  -5   0   9    0.18    0.22
   5   0  -9    0.28    0.28
  -4   0   9   43.33    3.21
  -4   0   9   45.74    3.17
   4   0  -9   44.14    3.17
  -4   0   9   40.30    3.18
   4   0  -9   44.78    3.12
   4   0  -9   43.71    3.12
   4   0  -9   45.23    3.22
  -3   0   9    0.58    0.29
  -3   0   9    1.68    0.32
   3   0  -9    1.39    0.32
   3   0  -9    1.25    0.28
   3   0  -9    1.37    0.14
   2   0  -9    4.69    0.38
   2   0  -9    4.83    0.48
   2   0  -9    5.27    0.54
  -2   0   9    5.17    0.53
  -2   0   9    4.31    0.49
  -1   0   9   19.32    1.43
   1   0  -9   18.93    1.43
   1   0  -9   17.89    1.32
  -1   0   9   18.22    1.38
   1   0  -9   17.36    1.37
   0   0  -9    0.36    0.15
   0   0  -9    0.89    0.31
   0   0   9    0.13    0.23
   0   0   9    0.39    0.27
   0   0  -9    0.03    0.21
  -1   0  -9   12.00    0.96
   1   0   9   11.48    0.98
  -1   0  -9   12.11    1.01
  -1   0  -9   12.46    0.93
   1   0   9   13.46    1.02
  -2   0  -9    6.77    0.68
  -2   0  -9    7.34    0.58
   2   0   9    7.54    0.69
  -2   0  -9    7.33    0.62
   2   0   9    6.43    0.64
   2   0   9    6.79    0.54
  -3   0  -9    3.67    0.38
   3   0   9    3.30    0.47
   3   0   9    3.52    0.35
  -3   0  -9    3.35    0.47
  -3   0  -9    3.70    0.45
   3   0   9    4.60    0.49
  -4   0  -9    5.22    0.55
   4   0   9    3.02    0.49
  -4   0  -9    4.14    0.43
  -4   0  -9    4.72    0.48
   4   0   9    3.15    0.48
   4   0   9    4.14    0.41
  -5   0  -9   11.36    0.89
  -5   0  -9   10.66    0.85
  -5   0  -9   10.93    0.95
   5   0   9    8.57    0.88
   5   0   9    9.50    0.82
   5   0   9   10.21    0.94
  -6   0  -9    1.52    0.33
  -6   0  -9    1.78    0.42
   6   0   9    2.02    0.42
   6   0   9    1.11    0.39
   6   0   9    1.37    0.31
  -6   0  -9    1.35    0.38
   7   0   9   -0.06    0.36
   7   0   9    0.07    0.30
  -7   0  -9    0.11    0.32
  -7   0  -9   -0.27    0.40
   7   0   9   -0.06    0.45
  -7   0  -9   -0.23    0.34
  -8   0  -9    0.03    0.38
   8   0   9   -0.31    0.40
   8   0   9    0.14    0.35
   9   0   9    3.37    0.53
  -9   0  -9    2.47    0.55
   9   0   9    3.18    0.60
  10   0   9    0.38    0.53
  10   0   9   -0.28    0.50
 -10   0  -9   -0.29    0.49
  12  -1  -9    2.97    0.39
  12  -1  -9    3.07    0.56
  12   1  -9    2.85    0.39
  11  -1  -9    1.80    0.45
  11  -1  -9    0.91    0.26
 -11  -1   9    0.72    0.40
  11   1  -9    1.33    0.25
  10  -1  -9    0.27    0.20
 -10  -1   9    0.26    0.35
  10  -1  -9    0.00    0.36
  10   1  -9    0.21    0.19
   9  -1  -9   12.99    1.01
   9  -1  -9   11.63    0.86
  -9  -1   9   11.08    0.96
   9   1  -9   10.69    0.85
   8  -1  -9    1.32    0.38
  -8  -1   9    1.36    0.30
   8  -1  -9    1.82    0.20
   8   1  -9    1.89    0.39
  -8   1   9    2.15    0.35
   8   1  -9    1.53    0.18
  -7  -1   9   -0.01    0.25
   7  -1  -9    0.45    0.33
   7  -1  -9    0.11    0.11
  -7  -1   9   -0.26    0.25
   7  -1  -9    0.27    0.51
  -7   1   9    0.28    0.30
   7   1  -9    0.09    0.08
   7   1  -9    0.16    0.27
  -6  -1   9   27.41    2.03
  -6  -1   9   26.38    1.98
   6  -1  -9   27.04    1.92
   6  -1  -9   28.62    2.01
  -6  -1   9   25.64    1.98
   6  -1  -9   26.86    2.03
   6   1  -9   27.17    1.99
  -6   1   9   26.48    2.00
  -5  -1   9    6.53    0.61
  -5  -1   9    6.96    0.68
  -5  -1   9    7.17    0.65
   5  -1  -9    7.73    0.68
   5  -1  -9    6.97    0.54
   5   1  -9    7.46    0.66
  -5   1   9    8.51    0.65
  -4  -1   9    0.01    0.24
   4  -1  -9    0.17    0.29
  -4  -1   9    0.35    0.24
  -4  -1   9    0.10    0.28
   4  -1  -9    0.10    0.10
  -4   1   9   -0.16    0.28
   4   1  -9    0.05    0.08
   4   1  -9    0.08    0.25
   4   1  -9    0.10    0.07
  -4   1   9    0.05    0.27
   3  -1  -9   20.64    1.49
  -3  -1   9   21.68    1.59
  -3  -1   9   19.68    1.54
   3  -1  -9   20.17    1.58
  -3  -1   9   21.98    1.55
  -3   1   9   20.82    1.55
   3   1  -9   21.07    1.54
  -3   1   9   20.12    1.58
   3   1  -9   20.05    1.48
   2  -1  -9   23.92    1.81
   2  -1  -9   25.36    1.90
   2  -1  -9   25.29    1.85
  -2  -1   9   23.77    1.86
  -2  -1   9   25.81    1.91
  -2   1   9   24.97    1.88
  -2   1   9   27.95    1.92
   2   1  -9   25.51    1.87
   2   1  -9   25.55    1.81
   1  -1  -9    2.70    0.42
  -1  -1   9    2.75    0.43
   1  -1  -9    3.00    0.29
  -1  -1   9    3.39    0.38
   1  -1  -9    2.41    0.34
  -1   1   9    2.62    0.38
   1   1  -9    3.65    0.41
  -1   1   9    2.68    0.42
   1   1  -9    3.22    0.28
   0  -1  -9    0.15    0.22
   0  -1   9    0.36    0.26
   0  -1   9    0.36    0.29
   0  -1  -9    0.57    0.16
   0  -1  -9    0.13    0.30
   0   1   9    0.60    0.31
   0   1  -9    0.32    0.23
   0   1   9    0.72    0.29
   0   1  -9    0.48    0.16
   1  -1   9    6.92    0.68
  -1  -1  -9    6.12    0.56
  -1  -1  -9    6.68    0.61
  -1  -1  -9    7.06    0.68
   1  -1   9    7.68    0.62
   1   1   9    7.26    0.68
   1   1   9    6.66    0.63
   1   1   9    6.44    0.51
  -1   1  -9    6.12    0.56
   1   1   9    7.72    0.52
  -1   1  -9    6.53    0.61
   2  -1   9    0.41    0.13
  -2  -1  -9    0.43    0.19
  -2  -1  -9    0.65    0.31
   2  -1   9    0.60    0.33
   2  -1   9    0.66    0.30
  -2  -1  -9    0.25    0.27
   2   1   9    0.30    0.27
  -2   1  -9    0.13    0.18
   2   1   9    0.39    0.14
   2   1   9    0.24    0.32
  -2   1  -9    0.68    0.25
  -3  -1  -9    0.94    0.35
  -3  -1  -9    0.74    0.23
   3  -1   9    1.10    0.35
   3  -1   9    1.29    0.20
   3  -1   9    1.41    0.32
  -3  -1  -9    0.85    0.31
   3   1   9    1.04    0.36
  -3   1  -9    1.45    0.29
   3   1   9    1.01    0.19
  -3   1  -9    0.64    0.23
   3   1   9    0.46    0.31
  -4  -1  -9   13.79    1.12
  -4  -1  -9   14.57    1.18
   4  -1   9   13.83    1.05
   4  -1   9   14.81    1.19
   4  -1   9   12.47    1.11
  -4  -1  -9   12.81    1.07
   4   1   9   13.34    1.05
  -4   1  -9   13.47    1.07
   4   1   9   14.94    1.19
  -4   1  -9   15.98    1.14
   4   1   9   13.62    1.12
   5  -1   9    1.80    0.38
   5  -1   9    1.38    0.45
  -5  -1  -9    1.47    0.35
  -5  -1  -9    1.94    0.33
  -5  -1  -9    1.36    0.40
   5  -1   9    1.26    0.26
   5   1   9    1.67    0.29
  -5   1  -9    1.98    0.33
   5   1   9    1.11    0.40
   5   1   9    0.94    0.37
  -5   1  -9    1.21    0.34
  -6  -1  -9    4.20    0.50
   6  -1   9    4.16    0.57
  -6  -1  -9    3.72    0.52
   6  -1   9    4.08    0.43
   6  -1   9    3.63    0.51
  -6  -1  -9    3.94    0.54
   6   1   9    3.35    0.43
   6   1   9    4.07    0.54
  -6   1  -9    4.15    0.48
  -6   1  -9    3.97    0.52
   7  -1   9    6.74    0.88
   7  -1   9    9.65    0.83
  -7  -1  -9   10.31    0.96
  -7  -1  -9   10.22    0.88
   7  -1   9   10.03    0.97
   7   1   9   10.20    0.84
  -7   1  -9   10.10    0.97
  -7   1  -9    9.34    0.93
   7   1   9    9.05    0.95
  -7   1  -9    9.99    0.89
   8  -1   9    0.33    0.34
  -8  -1  -9    0.13    0.45
   8  -1   9    0.42    0.46
   8   1   9    0.50    0.45
   8   1   9    0.11    0.37
  -8   1  -9    0.25    0.41
   9  -1   9    1.79    0.46
   9  -1   9    1.17    0.55
  -9  -1  -9    2.29    0.52
   9   1   9    1.85    0.50
   9   1   9    3.16    0.59
  -9   1  -9    2.30    0.51
  10  -1   9    1.67    0.50
  10  -1   9    1.32    0.60
 -10  -1  -9    1.14    0.63
  10   1   9    1.80    0.55
  10   1   9    0.90    0.65
 -10   1  -9    2.29    0.61
 -12  -2   9    2.38    0.50
  12  -2  -9    1.41    0.55
  12  -2  -9    2.18    0.37
  12   2  -9    2.93    0.40
  11  -2  -9    1.11    0.47
  11  -2  -9    0.53    0.27
 -11  -2   9    1.49    0.41
  11   2  -9    1.21    0.29
  10  -2  -9    0.18    0.21
  10  -2  -9    0.04    0.39
 -10  -2   9    0.20    0.37
  10   2  -9    0.32    0.22
   9  -2  -9    0.40    0.36
   9  -2  -9    0.25    0.19
  -9  -2   9    0.44    0.32
   9   2  -9    0.34    0.18
   8  -2  -9    4.71    0.51
  -8  -2   9    4.11    0.46
   8  -2  -9    4.18    0.38
  -8   2   9    3.59    0.49
   8   2  -9    3.54    0.37
   7  -2  -9   11.59    1.12
   7  -2  -9   15.50    1.16
  -7  -2   9   14.42    1.11
   7  -2  -9   14.06    1.03
   7   2  -9   14.37    1.02
  -7   2   9   12.86    1.12
  -6  -2   9    7.57    0.78
   6  -2  -9    8.18    0.74
  -6  -2   9    8.26    0.70
   6  -2  -9    7.76    0.61
   6  -2  -9    9.41    0.77
   6   2  -9    7.54    0.59
  -6   2   9    7.96    0.72
   5  -2  -9    0.12    0.31
   5  -2  -9    0.08    0.13
  -5  -2   9    0.18    0.35
  -5  -2   9   -0.20    0.23
  -5   2   9    0.03    0.25
   5   2  -9    0.02    0.25
   5   2  -9    0.09    0.10
  -4  -2   9   27.49    2.22
   4  -2  -9   30.07    2.14
  -4  -2   9   30.41    2.19
   4  -2  -9   32.15    2.24
   4   2  -9   29.75    2.13
   4   2  -9   29.72    2.20
  -4   2   9   28.81    2.20
   3  -2  -9    1.31    0.19
  -3  -2   9    1.03    0.28
   3  -2  -9    1.33    0.34
  -3  -2   9    1.29    0.35
   3   2  -9    1.05    0.16
   3   2  -9    1.77    0.31
  -3   2   9    1.41    0.31
   2  -2  -9    5.75    0.54
  -2  -2   9    4.16    0.52
   2  -2  -9    3.61    0.36
  -2  -2   9    4.15    0.43
   2   2  -9    3.95    0.35
   2   2  -9    3.03    0.43
  -2   2   9    3.48    0.47
  -1  -2   9   11.00    0.92
   1  -2  -9   11.79    0.89
  -1  -2   9   10.39    0.98
   1  -2  -9   12.20    0.99
   1   2  -9   11.52    0.95
   1   2  -9   12.65    0.88
  -1   2   9   11.34    0.96
   0  -2  -9    0.29    0.30
   0  -2   9    0.13    0.25
   0  -2   9    0.00    0.31
   0  -2  -9    0.23    0.17
   0   2   9    0.28    0.07
   0   2   9    0.22    0.24
   0   2  -9    0.15    0.16
   0   2  -9    0.04    0.26
  -1  -2  -9    8.40    0.83
  -1  -2  -9    8.80    0.74
   1  -2   9    8.82    0.84
   1  -2   9    8.66    0.78
   1   2   9    9.91    0.80
  -1   2  -9    9.30    0.78
   1   2   9    9.53    0.70
  -1   2  -9    9.60    0.74
   2  -2   9    4.06    0.36
  -2  -2  -9    3.63    0.41
  -2  -2  -9    4.07    0.46
   2  -2   9    4.16    0.48
   2  -2   9    4.33    0.55
  -2  -2  -9    4.31    0.53
   2   2   9    4.07    0.49
  -2   2  -9    5.31    0.52
   2   2   9    4.42    0.39
  -2   2  -9    4.53    0.43
  -3  -2  -9    2.18    0.43
   3  -2   9    1.90    0.26
   3  -2   9    2.35    0.38
   3  -2   9    2.83    0.48
  -3  -2  -9    3.10    0.36
  -3  -2  -9    3.30    0.39
   3   2   9    2.41    0.29
  -3   2  -9    2.62    0.33
  -3   2  -9    2.78    0.38
   3   2   9    2.12    0.43
   4  -2   9    3.79    0.47
  -4  -2  -9    2.83    0.42
  -4  -2  -9    2.64    0.47
   4  -2   9    2.61    0.31
  -4  -2  -9    2.68    0.39
   4  -2   9    2.89    0.50
  -4   2  -9    3.02    0.42
  -4   2  -9    2.29    0.35
   4   2   9    3.23    0.34
   4   2   9    2.47    0.43
  -5  -2  -9    9.85    0.80
  -5  -2  -9    7.29    0.74
   5  -2   9    6.45    0.64
   5  -2   9    8.74    0.86
  -5  -2  -9    7.92    0.70
   5  -2   9    8.33    0.73
   5   2   9    7.40    0.67
   5   2   9    7.14    0.76
  -5   2  -9    7.06    0.70
  -5   2  -9    7.51    0.73
   6  -2   9    0.96    0.27
   6  -2   9    0.50    0.36
   6  -2   9    0.63    0.43
  -6  -2  -9    1.03    0.38
  -6  -2  -9    1.13    0.45
  -6  -2  -9    1.00    0.37
   6   2   9    0.29    0.28
   6   2   9    0.75    0.44
  -6   2  -9    0.45    0.36
  -6   2  -9    0.59    0.31
   7  -2   9    0.46    0.31
   7  -2   9    0.24    0.37
   7  -2   9    0.37    0.51
  -7  -2  -9   -0.40    0.39
  -7  -2  -9   -0.12    0.44
   7   2   9    0.05    0.42
  -7   2  -9   -0.13    0.36
  -7   2  -9    0.31    0.34
   7   2   9    0.06    0.32
   8  -2   9    0.12    0.34
   8  -2   9    0.02    0.44
  -8  -2  -9    0.12    0.45
  -8   2  -9    0.15    0.42
   8   2   9   -0.13    0.47
   8   2   9   -0.38    0.37
   9  -2   9    2.27    0.59
  -9  -2  -9    3.07    0.57
   9  -2   9    1.87    0.47
   9   2   9    1.37    0.59
   9   2   9    2.32    0.54
  -9   2  -9    2.15    0.55
  11  -3  -9    0.46    0.50
  11  -3  -9    1.04    0.32
 -11  -3   9   -0.11    0.45
  11   3  -9    0.32    0.29
  10  -3  -9    0.36    0.44
  10  -3  -9   -0.06    0.23
 -10  -3   9    0.01    0.37
  10   3  -9    0.16    0.24
  -9  -3   9    4.02    0.56
   9  -3  -9    6.33    0.65
   9  -3  -9    5.15    0.51
  -9   3   9    5.29    0.62
   9   3  -9    6.07    0.51
   8  -3  -9    1.31    0.24
   8  -3  -9    1.32    0.41
  -8  -3   9    1.05    0.36
  -8   3   9    1.14    0.40
   8   3  -9    0.96    0.21
   7  -3  -9    0.47    0.34
   7  -3  -9    0.44    0.38
   7  -3  -9    0.37    0.19
  -7  -3   9    0.43    0.32
   7   3  -9    0.25    0.17
  -7   3   9    0.32    0.32
   6  -3  -9   13.10    1.10
  -6  -3   9   13.73    1.14
   6  -3  -9   15.24    1.13
  -6  -3   9   11.86    1.06
   6  -3  -9   12.70    1.00
  -6   3   9   11.40    1.08
   6   3  -9   14.15    0.99
  -5  -3   9    4.00    0.48
  -5  -3   9    4.12    0.56
   5  -3  -9    4.10    0.52
   5  -3  -9    4.30    0.40
   5   3  -9    4.16    0.49
   5   3  -9    3.72    0.37
  -5   3   9    4.98    0.51
  -4  -3   9    0.01    0.32
   4  -3  -9   -0.36    0.28
   4  -3  -9    0.24    0.17
  -4  -3   9   -0.05    0.30
  -4   3   9    0.02    0.32
   4   3  -9    0.11    0.29
   4   3  -9    0.19    0.15
  -3  -3   9    9.41    0.86
  -3  -3   9    8.78    0.82
   3  -3  -9    9.83    0.76
   3  -3  -9   10.93    0.89
   3   3  -9    8.94    0.83
   3   3  -9    9.83    0.75
  -3   3   9   10.29    0.85
  -2  -3   9   12.29    1.05
   2  -3  -9   11.85    0.96
   2  -3  -9   13.15    1.05
  -2  -3   9   15.60    1.06
   2   3  -9   12.33    0.95
  -2   3   9   13.08    1.05
   2   3  -9   11.63    1.03
   1  -3  -9    1.53    0.36
   1  -3  -9    2.08    0.27
  -1  -3   9    1.91    0.38
   1   3  -9    2.03    0.25
   1   3  -9    1.84    0.37
  -1   3   9    1.03    0.36
  -1   3   9    1.77    0.18
   0  -3  -9    0.54    0.21
   0  -3  -9   -0.23    0.32
   0  -3   9    0.52    0.32
   0   3   9    0.27    0.14
   0   3  -9    0.29    0.20
   0   3   9    0.66    0.31
   0   3  -9    0.33    0.35
  -1  -3  -9    2.80    0.45
   1  -3   9    2.37    0.44
  -1  -3  -9    1.96    0.32
   1  -3   9    2.72    0.23
  -1   3  -9    2.37    0.41
   1   3   9    2.81    0.28
  -1   3  -9    2.24    0.32
   1   3   9    3.31    0.45
  -2  -3  -9   -0.02    0.23
  -2  -3  -9    0.09    0.35
   2  -3   9    0.26    0.15
   2  -3   9   -0.20    0.33
  -2   3  -9   -0.03    0.32
   2   3   9    0.33    0.30
   2   3   9    0.02    0.18
  -2   3  -9    0.01    0.23
   3  -3   9    0.72    0.19
  -3  -3  -9    0.63    0.28
  -3  -3  -9    0.37    0.34
   3  -3   9    0.81    0.44
   3   3   9    0.60    0.35
  -3   3  -9    0.30    0.26
  -3   3  -9    0.26    0.32
   3   3   9    0.70    0.22
  -4  -3  -9    7.40    0.77
   4  -3   9    8.09    0.97
   4  -3   9    7.61    0.76
  -4  -3  -9    7.36    0.66
   4  -3   9    6.13    0.57
   4   3   9    5.89    0.61
  -4   3  -9    6.65    0.66
  -4   3  -9    6.58    0.67
   4   3   9    6.44    0.69
   5  -3   9    1.64    0.50
  -5  -3  -9    0.86    0.36
  -5  -3  -9    0.97    0.40
   5  -3   9    0.88    0.41
   5  -3   9    1.11    0.24
   5   3   9    1.30    0.30
   5   3   9    0.86    0.39
  -5   3  -9    0.49    0.33
  -5   3  -9    1.09    0.36
  -6  -3  -9    2.69    0.53
   6  -3   9    1.37    0.32
   6  -3   9    2.76    0.49
   6  -3   9    2.35    0.60
  -6   3  -9    2.35    0.41
  -6   3  -9    1.99    0.44
   6   3   9    3.11    0.51
   6   3   9    1.58    0.37
   7  -3   9    4.68    0.51
   7  -3   9    4.26    0.62
   7  -3   9    4.91    0.70
  -7   3  -9    4.53    0.62
   7   3   9    3.83    0.65
   7   3   9    5.39    0.58
   8  -3   9    0.46    0.46
   8  -3   9    0.18    0.35
  -8  -3  -9    0.19    0.45
  -8   3  -9    0.48    0.48
   8   3   9    0.45    0.42
   8   3   9    0.17    0.57
   9  -3   9    1.04    0.46
   9   3   9    1.29    0.52
  10  -4  -9   -0.38    0.48
 -10  -4   9   -0.02    0.40
  10  -4  -9   -0.01    0.31
  10   4  -9   -0.08    0.28
  -9  -4   9    0.13    0.36
   9  -4  -9   -0.22    0.27
   9  -4  -9    0.11    0.44
   9   4  -9    0.64    0.27
  -8  -4   9    1.75    0.44
   8  -4  -9    0.98    0.47
   8  -4  -9    1.35    0.30
   8   4  -9    0.91    0.26
  -8   4   9    2.03    0.47
   7  -4  -9    7.10    0.71
   7  -4  -9    6.71    0.56
   7  -4  -9    4.42    0.64
  -7  -4   9    4.09    0.59
  -7   4   9    5.36    0.63
   7   4  -9    6.13    0.53
   6  -4  -9    5.33    0.61
  -6  -4   9    5.15    0.62
  -6  -4   9    3.52    0.50
   6  -4  -9    3.83    0.43
   6  -4  -9    4.22    0.57
   6   4  -9    3.87    0.41
  -6   4   9    5.07    0.56
   6   4  -9    5.19    0.57
  -5  -4   9   -0.12    0.32
   5  -4  -9    0.01    0.22
   5  -4  -9   -0.09    0.35
  -5  -4   9   -0.04    0.36
  -5   4   9   -0.12    0.32
   5   4  -9   -0.29    0.34
   5   4  -9    0.10    0.19
  -4  -4   9   11.09    0.97
   4  -4  -9   11.98    1.03
  -4  -4   9   11.27    1.03
   4  -4  -9   12.18    0.91
  -4   4   9   12.03    0.98
   4   4  -9    9.60    0.97
  -3  -4   9    0.48    0.31
   3  -4  -9    0.75    0.37
  -3  -4   9    0.56    0.36
   3  -4  -9    0.47    0.23
   3   4  -9    0.44    0.21
  -3   4   9   -0.02    0.36
   3   4  -9    0.52    0.35
   2  -4  -9    2.37    0.31
   2  -4  -9    2.53    0.44
  -2  -4   9    2.11    0.39
  -2  -4   9    2.67    0.44
  -2   4   9    2.74    0.44
   2   4  -9    2.42    0.30
   2   4  -9    2.21    0.41
  -2   4   9    2.01    0.22
   1  -4  -9    3.40    0.50
  -1  -4   9    3.85    0.51
   1  -4  -9    3.51    0.38
   1   4  -9    3.01    0.36
   1   4  -9    2.88    0.47
  -1   4   9    3.01    0.49
  -1   4   9    3.09    0.31
   0  -4   9    0.12    0.34
   0  -4  -9   -0.14    0.24
   0  -4  -9    0.27    0.33
   0   4  -9    0.09    0.23
   0   4  -9   -0.10    0.38
   0   4   9    0.09    0.38
   0   4   9    0.06    0.18
   1  -4   9    4.27    0.57
  -1  -4  -9    5.17    0.59
   1  -4   9    4.27    0.39
  -1  -4  -9    5.47    0.50
  -1   4  -9    4.82    0.48
   1   4   9    5.13    0.59
   1   4   9    4.54    0.46
  -1   4  -9    5.40    0.59
   2  -4   9    1.01    0.18
  -2  -4  -9    0.93    0.39
  -2  -4  -9    0.58    0.29
   2  -4   9    1.35    0.45
  -2   4  -9    1.02    0.31
   2   4   9    0.83    0.37
   2   4   9    0.76    0.24
  -2   4  -9    0.36    0.33
  -3  -4  -9    1.17    0.41
   3  -4   9    0.74    0.41
   3  -4   9    1.05    0.20
  -3  -4  -9    0.92    0.33
  -3   4  -9    0.47    0.32
  -3   4  -9    1.19    0.38
   3   4   9    0.87    0.39
   3   4   9    0.72    0.26
   4  -4   9    1.29    0.25
  -4  -4  -9    1.04    0.36
   4  -4   9    1.26    0.49
  -4  -4  -9    0.71    0.46
   4   4   9    0.67    0.42
   4   4   9    1.11    0.30
  -4   4  -9    1.47    0.41
  -4   4  -9    1.32    0.36
   5  -4   9    5.15    0.67
  -5  -4  -9    3.82    0.57
   5  -4   9    2.03    0.37
  -5   4  -9    3.08    0.50
   5   4   9    3.47    0.45
   5   4   9    2.24    0.57
  -5   4  -9    4.73    0.54
   6  -4   9    0.49    0.29
  -6  -4  -9    0.31    0.46
   6  -4   9    0.35    0.56
  -6   4  -9    0.44    0.45
   6   4   9   -0.02    0.35
   6   4   9    0.42    0.53
  -6   4  -9   -0.26    0.41
   7  -4   9   -0.16    0.66
   7  -4   9   -0.01    0.32
   7   4   9   -0.07    0.41
  -7   4  -9    0.64    0.49
   7   4   9    0.40    0.52
   8  -4   9   -0.10    0.36
   8   4   9    0.18    0.50
   9  -5  -9    2.02    0.41
  -9  -5   9    1.24    0.48
   9  -5  -9    1.68    0.62
   9   5  -9    0.63    0.35
   8  -5  -9    0.22    0.47
   8  -5  -9    0.59    0.33
  -8  -5   9    0.75    0.44
  -8   5   9    0.28    0.44
   8   5  -9    0.49    0.30
   7  -5  -9   -0.09    0.65
   7  -5  -9   -0.20    0.45
   7  -5  -9    0.47    0.31
  -7  -5   9    0.05    0.39
   7   5  -9    0.27    0.27
  -7   5   9    0.54    0.44
   7   5  -9    0.52    0.47
  -6  -5   9    2.21    0.50
   6  -5  -9    4.10    0.60
  -6  -5   9    4.07    0.61
   6  -5  -9    3.96    0.46
   6  -5  -9    4.21    0.60
  -6   5   9    4.19    0.58
   6   5  -9    3.53    0.42
   6   5  -9    3.54    0.58
  -5  -5   9    2.05    0.43
   5  -5  -9    1.57    0.47
   5  -5  -9    1.00    0.45
   5  -5  -9    1.46    0.33
  -5  -5   9    1.17    0.47
  -5   5   9    1.87    0.44
   5   5  -9    1.81    0.31
   5   5  -9    1.08    0.46
   4  -5  -9    0.22    0.28
   4  -5  -9    0.16    0.39
  -4  -5   9    0.12    0.35
  -4  -5   9    0.11    0.36
  -4   5   9   -0.08    0.11
  -4   5   9    0.14    0.40
   4   5  -9    0.07    0.39
   4   5  -9    0.00    0.25
   3  -5  -9    2.56    0.37
  -3  -5   9    2.80    0.52
   3  -5  -9    3.34    0.51
  -3  -5   9    2.55    0.50
   3   5  -9    2.63    0.53
   3   5  -9    2.79    0.36
  -3   5   9    2.76    0.49
  -3   5   9    2.17    0.27
   2  -5  -9    4.27    0.45
  -2  -5   9    3.76    0.55
   2  -5  -9    5.27    0.60
   2   5  -9    4.15    0.57
  -2   5   9    3.84    0.59
   2   5  -9    3.42    0.43
  -2   5   9    3.86    0.38
   1  -5  -9    1.68    0.33
  -1  -5   9    0.90    0.41
   1  -5  -9    1.05    0.41
  -1   5   9    1.11    0.24
   1   5  -9    1.45    0.43
  -1   5   9    1.10    0.42
   1   5  -9    0.84    0.30
   0  -5  -9    1.16    0.41
   0  -5   9    0.49    0.40
   0  -5  -9    0.97    0.33
   0  -5   9    0.73    0.13
   0   5   9    0.53    0.24
   0   5  -9    0.51    0.30
   0   5   9    0.90    0.43
   0   5  -9    0.78    0.42
  -1  -5  -9    0.12    0.33
   1  -5   9    0.56    0.40
  -1  -5  -9    0.09    0.39
   1  -5   9    0.13    0.16
  -1   5  -9    0.32    0.30
  -1   5  -9   -0.46    0.43
   1   5   9   -0.03    0.39
   1   5   9    0.31    0.26
   2  -5   9    0.41    0.42
  -2  -5  -9    0.53    0.43
   2  -5   9    0.22    0.19
  -2  -5  -9   -0.16    0.31
  -2   5  -9    0.12    0.38
  -2   5  -9    0.34    0.33
   2   5   9   -0.09    0.25
   2   5   9    0.09    0.42
  -3  -5  -9    0.49    0.43
   3  -5   9    0.13    0.22
  -3  -5  -9    0.34    0.39
   3  -5   9    0.74    0.47
   3   5   9    0.41    0.29
  -3   5  -9    0.13    0.43
  -3   5  -9    0.15    0.36
   3   5   9    0.22    0.47
  -4  -5  -9    1.45    0.50
   4  -5   9    2.01    0.54
   4  -5   9    0.96    0.28
   4   5   9    1.51    0.38
   4   5   9    1.37    0.54
  -4   5  -9    1.88    0.45
  -4   5  -9    1.35    0.48
   5  -5   9    1.06    0.55
  -5  -5  -9    1.21    0.57
   5  -5   9    0.11    0.28
   5   5   9    0.64    0.56
  -5   5  -9    0.81    0.45
   5   5   9    0.47    0.38
  -5   5  -9    0.21    0.43
  -6  -5  -9    0.80    0.58
   6  -5   9    0.58    0.67
   6  -5   9    0.38    0.34
   6   5   9    0.67    0.61
   6   5   9    1.34    0.46
  -6   5  -9    1.18    0.53
   6  -6  -9    1.98    0.45
   6  -6  -9    2.47    0.62
  -6  -6   9    1.69    0.59
  -6  -6   9    1.28    0.58
   6  -6  -9    2.29    0.59
  -6   6   9    1.69    0.55
   6   6  -9    1.74    0.65
   6   6  -9    1.52    0.40
   5  -6  -9   -0.23    0.54
   5  -6  -9   -0.38    0.38
  -5  -6   9    0.00    0.53
   5  -6  -9   -0.06    0.57
  -5  -6   9   -0.26    0.47
  -5   6   9    0.11    0.17
  -5   6   9    0.24    0.54
   5   6  -9    0.93    0.53
   4  -6  -9    2.32    0.45
  -4  -6   9    3.57    0.59
   4  -6  -9    4.30    0.62
  -4  -6   9    2.28    0.55
   4  -6  -9    3.98    0.62
  -4   6   9    2.46    0.32
   4   6  -9    2.26    0.43
   4   6  -9    2.04    0.57
  -4   6   9    2.75    0.56
  -3  -6   9    0.38    0.45
   3  -6  -9    0.25    0.49
   3  -6  -9    0.29    0.38
  -3  -6   9    0.60    0.47
  -3   6   9    0.46    0.50
   3   6  -9    0.35    0.46
   3   6  -9    0.07    0.34
  -3   6   9    0.16    0.23
   2  -6  -9    1.90    0.58
   2  -6  -9    0.81    0.37
  -2  -6   9    1.36    0.48
  -2   6   9    0.69    0.28
  -2   6   9    0.46    0.47
   2   6  -9    1.01    0.38
   2   6  -9    1.92    0.59
  -1  -6   9    0.58    0.51
   1  -6  -9    0.43    0.48
   1  -6  -9   -0.03    0.38
  -1   6   9    0.34    0.28
   1   6  -9   -0.04    0.50
   1   6  -9    0.73    0.38
  -1   6   9    0.76    0.55
   0  -6   9    0.23    0.51
   0  -6  -9    0.15    0.40
   0  -6   9   -0.06    0.16
   0  -6  -9   -0.13    0.47
   0   6  -9    0.13    0.49
   0   6   9   -0.52    0.47
   0   6   9    0.18    0.29
   0   6  -9   -0.56    0.35
  -1  -6  -9    1.18    0.53
  -1  -6  -9    1.71    0.43
   1  -6   9    1.25    0.24
   1  -6   9    1.78    0.53
  -1   6  -9    1.65    0.51
  -1   6  -9    1.84    0.44
   1   6   9    2.20    0.58
   1   6   9    1.32    0.36
   2  -6   9    0.04    0.48
  -2  -6  -9   -0.49    0.48
   2  -6   9    0.03    0.23
  -2   6  -9   -0.27    0.46
  -2   6  -9    0.11    0.42
   2   6   9    0.14    0.58
   2   6   9   -0.12    0.34
  -3  -6  -9    0.10    0.52
   3  -6   9    0.32    0.27
   3  -6   9    0.48    0.59
   3   6   9    0.14    0.36
  -3   6  -9    0.55    0.48
  -3   6  -9   -0.04    0.50
   3   6   9   -0.29    0.59
   4  -6   9    0.06    0.63
   4  -6   9    0.33    0.31
  -4  -6  -9    0.34    0.62
   4   6   9    0.41    0.42
   4   6   9    0.42    0.58
  -4   6  -9   -0.21    0.51
  12   0 -10    1.33    0.32
  11   0 -10    1.75    0.48
  11   0 -10    1.45    0.27
  10   0 -10    4.74    0.57
  10   0 -10    3.68    0.37
   9   0 -10    3.16    0.30
   9   0 -10    3.78    0.50
   8   0 -10    0.31    0.12
  -8   0  10    0.39    0.34
   8   0 -10    0.16    0.35
  -7   0  10   11.37    1.10
  -7   0  10   12.17    0.99
   7   0 -10   11.68    0.84
   7   0 -10   11.78    1.01
   6   0 -10    1.68    0.43
  -6   0  10    0.83    0.40
   6   0 -10    1.60    0.38
  -6   0  10    1.19    0.32
  -6   0  10    0.80    0.33
  -5   0  10    0.11    0.27
  -5   0  10    0.07    0.25
   5   0 -10   -0.08    0.28
   5   0 -10    0.00    0.08
  -5   0  10   -0.05    0.34
   5   0 -10    0.05    0.35
   4   0 -10   18.09    1.35
   4   0 -10   17.76    1.29
  -4   0  10   16.46    1.30
   4   0 -10   16.16    1.20
  -4   0  10   16.02    1.33
  -3   0  10   -0.27    0.29
   3   0 -10    0.00    0.11
   3   0 -10   -0.02    0.32
   3   0 -10    0.07    0.27
  -3   0  10    0.09    0.32
   2   0 -10    0.36    0.13
  -2   0  10    0.14    0.25
   2   0 -10    0.12    0.27
   2   0 -10    0.76    0.34
  -2   0  10    0.28    0.32
   1   0 -10   34.83    2.51
  -1   0  10   34.07    2.60
   1   0 -10   35.95    2.60
   1   0 -10   36.59    2.55
  -1   0  10   33.46    2.57
   0   0 -10    0.51    0.30
   0   0 -10    0.37    0.26
   0   0  10    0.07    0.29
   0   0  10    0.39    0.30
   0   0 -10    0.28    0.16
   1   0  10    0.57    0.28
  -1   0 -10    0.27    0.18
  -1   0 -10    0.25    0.28
  -1   0 -10    0.18    0.35
   1   0  10    0.12    0.34
   2   0  10    5.25    0.54
  -2   0 -10    4.71    0.59
   2   0  10    6.10    0.62
  -2   0 -10    5.43    0.53
   2   0  10    4.63    0.39
  -2   0 -10    5.37    0.48
  -3   0 -10    2.74    0.46
  -3   0 -10    2.58    0.39
  -3   0 -10    2.76    0.34
   3   0  10    2.67    0.42
   3   0  10    2.65    0.27
   3   0  10    2.33    0.44
  -4   0 -10    0.05    0.24
   4   0  10    0.07    0.19
   4   0  10   -0.06    0.38
   4   0  10    0.15    0.36
  -4   0 -10    0.18    0.39
  -4   0 -10    0.10    0.31
  -5   0 -10    0.15    0.37
   5   0  10   -0.04    0.22
   5   0  10   -0.01    0.37
   5   0  10    0.16    0.37
  -5   0 -10    0.01    0.28
  -5   0 -10   -0.24    0.35
   6   0  10    7.52    0.67
  -6   0 -10    7.06    0.72
  -6   0 -10    7.03    0.74
   6   0  10    7.94    0.80
   6   0  10    8.77    0.79
  -6   0 -10    5.96    0.76
   7   0  10    0.43    0.54
  -7   0 -10    0.37    0.41
   7   0  10    0.77    0.34
   7   0  10    0.10    0.42
  -7   0 -10   -0.10    0.42
  -7   0 -10    0.38    0.36
  -8   0 -10    2.18    0.58
   8   0  10    2.34    0.45
   8   0  10    1.71    0.54
  -9   0 -10    1.67    0.63
   9   0  10    1.96    0.61
   9   0  10    2.29    0.53
  12  -1 -10    2.12    0.57
  12  -1 -10    1.38    0.35
  12   1 -10    1.99    0.34
  11  -1 -10    0.64    0.53
  11  -1 -10    0.36    0.25
  11   1 -10    0.45    0.24
  10  -1 -10    0.82    0.22
 -10  -1  10    1.35    0.35
  10  -1 -10    0.68    0.47
  10   1 -10    1.23    0.21
   9  -1 -10    6.43    0.73
  -9  -1  10    5.29    0.65
   9  -1 -10    6.91    0.55
  -9   1  10    6.59    0.70
   9   1 -10    7.66    0.54
   8  -1 -10    0.50    0.14
  -8  -1  10    0.21    0.31
   8  -1 -10    0.65    0.40
   8   1 -10    0.29    0.12
  -8   1  10    0.28    0.36
   7  -1 -10    2.90    0.27
  -7  -1  10    3.19    0.43
   7  -1 -10    2.64    0.44
  -7  -1  10    2.75    0.38
   7   1 -10    3.04    0.41
  -7   1  10    1.92    0.41
  -6  -1  10    5.48    0.53
   6  -1 -10    4.59    0.55
  -6  -1  10    4.11    0.57
   6  -1 -10    4.35    0.38
   6  -1 -10    4.62    0.57
  -6  -1  10    4.72    0.52
  -6   1  10    4.90    0.54
   6   1 -10    5.98    0.56
   6   1 -10    5.53    0.61
   6   1 -10    5.12    0.54
  -5  -1  10    0.52    0.33
   5  -1 -10    0.58    0.13
  -5  -1  10    0.83    0.30
   5  -1 -10    0.85    0.38
  -5  -1  10    0.90    0.30
  -5   1  10    0.65    0.29
   5   1 -10    0.61    0.09
   5   1 -10    0.52    0.31
  -4  -1  10    2.98    0.41
   4  -1 -10    2.84    0.27
  -4  -1  10    2.34    0.46
  -4  -1  10    3.33    0.42
   4  -1 -10    3.34    0.50
  -4   1  10    3.12    0.48
   4   1 -10    3.11    0.26
   4   1 -10    2.70    0.39
  -4   1  10    2.83    0.42
  -3  -1  10   -0.08    0.24
   3  -1 -10   -0.19    0.13
  -3  -1  10   -0.07    0.29
   3  -1 -10   -0.03    0.32
   3   1 -10    0.08    0.12
  -3   1  10   -0.12    0.31
  -3   1  10   -0.25    0.30
   3   1 -10    0.16    0.26
   2  -1 -10    8.68    0.66
  -2  -1  10    8.35    0.79
  -2  -1  10    8.96    0.76
   2  -1 -10    8.03    0.80
  -2   1  10    8.47    0.75
   2   1 -10    8.03    0.65
   2   1 -10   10.49    0.77
  -2   1  10    7.31    0.79
  -1  -1  10    0.16    0.30
   1  -1 -10   -0.10    0.35
  -1  -1  10    0.00    0.24
   1  -1 -10    0.03    0.15
  -1   1  10    0.16    0.27
  -1   1  10   -0.01    0.36
   1   1 -10    0.35    0.27
   1   1 -10   -0.07    0.15
   0  -1  10    0.28    0.29
   0  -1 -10    0.01    0.31
   0  -1 -10    0.37    0.25
   0  -1 -10    0.49    0.17
   0  -1  10    0.45    0.32
   0   1  10    0.42    0.27
   0   1 -10    0.68    0.17
   0   1 -10    0.14    0.26
   0   1  10    0.28    0.33
   1  -1  10   28.26    2.09
  -1  -1 -10   25.10    2.12
  -1  -1 -10   26.57    2.05
  -1  -1 -10   31.55    2.08
   1  -1  10   29.43    2.14
   1   1  10   28.05    2.11
   1   1  10   27.48    2.13
  -1   1 -10   27.99    2.04
  -1   1 -10   28.99    2.09
   2  -1  10    2.69    0.48
  -2  -1 -10    3.09    0.48
  -2  -1 -10    3.72    0.43
   2  -1  10    2.57    0.41
  -2  -1 -10    2.92    0.34
   2  -1  10    2.88    0.25
  -2   1 -10    2.68    0.40
   2   1  10    3.14    0.43
   2   1  10    2.81    0.48
   2   1  10    2.77    0.28
  -2   1 -10    3.63    0.34
  -3  -1 -10    3.66    0.42
  -3  -1 -10    4.52    0.57
   3  -1  10    3.19    0.48
  -3  -1 -10    4.65    0.48
   3  -1  10    4.93    0.58
   3  -1  10    4.10    0.38
   3   1  10    4.40    0.39
  -3   1 -10    4.32    0.48
  -3   1 -10    4.00    0.42
   3   1  10    2.62    0.47
   3   1  10    4.31    0.56
   4  -1  10   16.02    1.22
  -4  -1 -10   16.03    1.34
   4  -1  10   18.01    1.35
  -4  -1 -10   15.78    1.26
   4  -1  10   16.37    1.31
  -4  -1 -10   17.94    1.32
  -4   1 -10   16.18    1.30
  -4   1 -10   16.36    1.27
   4   1  10   16.58    1.31
   4   1  10   17.90    1.35
   4   1  10   15.06    1.22
   5  -1  10    0.03    0.36
   5  -1  10    0.05    0.23
  -5  -1 -10    0.35    0.40
  -5  -1 -10   -0.03    0.30
  -5  -1 -10    0.07    0.41
   5  -1  10    0.00    0.43
  -5   1 -10   -0.04    0.37
   5   1  10    0.08    0.21
   5   1  10   -0.04    0.35
   5   1  10    0.19    0.42
  -5   1 -10   -0.28    0.28
  -6  -1 -10    3.20    0.47
   6  -1  10    4.00    0.56
  -6  -1 -10    2.27    0.48
   6  -1  10    3.13    0.40
  -6  -1 -10    3.19    0.54
   6  -1  10    2.91    0.52
   6   1  10    2.21    0.53
  -6   1 -10    4.53    0.52
  -6   1 -10    3.04    0.45
   6   1  10    3.40    0.42
  -6   1 -10    4.50    0.62
   7  -1  10    1.94    0.40
   7  -1  10    3.50    0.56
  -7  -1 -10    1.74    0.55
   7  -1  10    2.06    0.51
  -7  -1 -10    2.16    0.49
  -7   1 -10    2.00    0.49
   7   1  10    2.41    0.41
   7   1  10    1.66    0.54
  -7   1 -10    2.42    0.47
  -7   1 -10    3.19    0.58
   8  -1  10    0.79    0.50
   8  -1  10    0.68    0.38
  -8  -1 -10    1.27    0.51
  -8   1 -10    1.05    0.50
   8   1  10    0.63    0.37
   8   1  10    0.81    0.52
   9  -1  10    0.83    0.46
  -9  -1 -10   -0.32    0.59
   9  -1  10    0.68    0.56
   9   1  10    0.64    0.47
   9   1  10    0.22    0.62
  -9   1 -10    0.82    0.57
 -11  -2  10    1.02    0.44
  11  -2 -10    1.55    0.52
  11  -2 -10    1.24    0.29
  11   2 -10    0.87    0.29
  10  -2 -10    2.21    0.31
 -10  -2  10    2.39    0.43
  10  -2 -10    2.47    0.53
   9  -2 -10    2.46    0.28
   9  -2 -10    2.60    0.48
  -9  -2  10    2.78    0.45
  -9   2  10    1.04    0.41
   8  -2 -10    0.17    0.37
  -8  -2  10    0.27    0.30
   8  -2 -10    0.21    0.18
  -8   2  10   -0.23    0.32
   8   2 -10    0.03    0.15
   7  -2 -10    7.76    0.62
   7  -2 -10    8.13    0.78
  -7  -2  10    7.46    0.72
   7  -2 -10    8.67    0.86
  -7   2  10    7.87    0.76
   7   2 -10    7.28    0.59
   7   2 -10    9.91    0.77
  -6  -2  10    1.20    0.35
   6  -2 -10    0.76    0.40
   6  -2 -10    1.31    0.19
   6  -2 -10    1.12    0.38
  -6  -2  10    1.42    0.46
   6   2 -10    1.05    0.15
  -6   2  10    0.94    0.35
   6   2 -10    1.13    0.38
  -5  -2  10    0.02    0.27
  -5  -2  10   -0.02    0.38
   5  -2 -10    0.04    0.36
   5  -2 -10   -0.04    0.15
   5   2 -10    0.28    0.30
   5   2 -10    0.09    0.11
  -5   2  10   -0.14    0.28
   4  -2 -10   11.61    0.92
  -4  -2  10   10.19    0.88
  -4  -2  10    9.68    0.94
   4  -2 -10    9.89    0.77
   4   2 -10    9.79    0.89
  -4   2  10    9.04    0.87
   4   2 -10   10.20    0.75
   3  -2 -10   -0.01    0.16
  -3  -2  10   -0.45    0.32
  -3  -2  10    0.09    0.31
   3  -2 -10    0.10    0.33
  -3   2  10   -0.26    0.28
   3   2 -10    0.35    0.33
   3   2 -10    0.09    0.14
  -2  -2  10    0.47    0.36
   2  -2 -10    0.24    0.17
   2  -2 -10    0.16    0.34
  -2   2  10    0.13    0.31
   2   2 -10    0.32    0.16
   2   2 -10   -0.01    0.30
   1  -2 -10   23.69    1.79
   1  -2 -10   23.82    1.88
  -1  -2  10   23.35    1.88
   1   2 -10   25.61    1.78
   1   2 -10   25.24    1.84
  -1   2  10   24.41    1.87
   0  -2 -10    0.30    0.20
   0  -2  10    0.55    0.30
   0  -2  10    0.43    0.37
   0  -2 -10    1.02    0.36
   0   2 -10    0.59    0.20
   0   2  10    0.27    0.29
   0   2 -10    0.37    0.28
   1  -2  10    0.33    0.27
   1  -2  10    0.00    0.35
  -1  -2 -10    0.14    0.21
  -1  -2 -10    0.46    0.35
   1   2  10    0.09    0.29
  -1   2 -10    0.26    0.32
   1   2  10    0.47    0.12
  -1   2 -10    0.73    0.21
   2  -2  10    2.70    0.53
   2  -2  10    3.07    0.44
  -2  -2 -10    3.47    0.37
  -2  -2 -10    2.58    0.52
   2  -2  10    2.82    0.26
  -2   2 -10    3.40    0.37
   2   2  10    2.72    0.29
   2   2  10    2.89    0.48
  -2   2 -10    3.93    0.45
  -3  -2 -10    2.05    0.32
  -3  -2 -10    1.55    0.43
   3  -2  10    1.27    0.44
   3  -2  10    1.68    0.22
   3  -2  10    1.43    0.36
   3   2  10    0.98    0.38
   3   2  10    1.29    0.23
  -3   2 -10    1.55    0.28
  -3   2 -10    1.48    0.39
   4  -2  10    0.06    0.20
   4  -2  10    0.10    0.35
  -4  -2 -10   -0.06    0.29
  -4  -2 -10   -0.21    0.38
   4  -2  10    0.23    0.42
  -4   2 -10    0.14    0.26
   4   2  10    0.00    0.21
  -4   2 -10    0.15    0.30
   4   2  10    0.29    0.34
  -5  -2 -10    0.08    0.42
   5  -2  10   -0.04    0.23
   5  -2  10    0.14    0.42
  -5  -2 -10    0.09    0.39
   5  -2  10    0.27    0.42
  -5  -2 -10    0.23    0.32
  -5   2 -10    0.56    0.36
   5   2  10    0.03    0.24
   5   2  10    0.19    0.38
  -5   2 -10   -0.17    0.29
   6  -2  10    5.90    0.71
  -6  -2 -10    6.40    0.68
  -6  -2 -10    5.94    0.75
   6  -2  10    6.03    0.57
   6  -2  10    5.42    0.74
  -6  -2 -10    6.92    0.65
   6   2  10    4.73    0.69
  -6   2 -10    5.97    0.61
   6   2  10    5.08    0.56
  -6   2 -10    4.60    0.64
   7  -2  10    0.66    0.58
   7  -2  10   -0.02    0.31
  -7  -2 -10   -0.19    0.47
   7  -2  10    0.33    0.50
   7   2  10    0.41    0.47
  -7   2 -10    0.11    0.54
   7   2  10   -0.15    0.33
  -7   2 -10    0.78    0.44
  -8  -2 -10    1.66    0.58
   8  -2  10    1.87    0.61
   8  -2  10    1.23    0.41
  -8   2 -10    1.25    0.51
   8   2  10    1.59    0.44
   8   2  10    2.13    0.65
  10  -3 -10    0.29    0.26
 -10  -3  10   -0.12    0.41
  10  -3 -10    0.30    0.49
  10   3 -10    0.63    0.27
   9  -3 -10    3.31    0.37
  -9  -3  10    2.61    0.47
   9  -3 -10    3.84    0.57
   9   3 -10    3.07    0.33
  -9   3  10    2.18    0.50
   8  -3 -10    0.16    0.40
   8  -3 -10    0.12    0.22
  -8  -3  10   -0.08    0.33
   8   3 -10    0.11    0.19
  -8   3  10   -0.09    0.38
   7  -3 -10    0.72    0.54
  -7  -3  10    1.38    0.37
   7  -3 -10    1.45    0.42
   7  -3 -10    1.16    0.24
  -7   3  10    0.97    0.38
   7   3 -10    1.33    0.21
   7   3 -10    1.62    0.41
   6  -3 -10    2.25    0.49
  -6  -3  10    1.10    0.48
   6  -3 -10    2.03    0.43
  -6  -3  10    0.81    0.35
   6  -3 -10    1.50    0.24
   6   3 -10    0.99    0.38
   6   3 -10    1.21    0.20
  -6   3  10    1.23    0.38
   5  -3 -10   -0.12    0.39
   5  -3 -10    0.05    0.19
  -5  -3  10    0.17    0.35
  -5  -3  10   -0.09    0.38
   5   3 -10   -0.05    0.15
  -5   3  10   -0.11    0.34
   5   3 -10    0.06    0.33
  -4  -3  10    2.27    0.49
   4  -3 -10    1.74    0.44
   4  -3 -10    1.84    0.25
  -4  -3  10    1.84    0.37
   4   3 -10    1.20    0.38
   4   3 -10    1.90    0.23
  -4   3  10    1.38    0.39
   3  -3 -10    0.27    0.35
  -3  -3  10    0.25    0.41
   3  -3 -10    0.25    0.20
  -3  -3  10    0.56    0.32
   3   3 -10    0.22    0.32
  -3   3  10    0.42    0.37
   3   3 -10    0.18    0.17
   2  -3 -10    3.28    0.36
   2  -3 -10    3.73    0.54
  -2  -3  10    3.36    0.54
  -2   3  10    3.05    0.49
   2   3 -10    2.69    0.46
   2   3 -10    3.27    0.34
   1  -3 -10   -0.05    0.22
   1  -3 -10   -0.01    0.33
  -1  -3  10    0.19    0.37
   1   3 -10    0.18    0.33
  -1   3  10    0.18    0.32
   1   3 -10    0.18    0.20
   0  -3 -10    0.43    0.23
   0  -3  10    0.09    0.37
   0  -3 -10   -0.11    0.34
   0   3  10    0.24    0.11
   0   3 -10   -0.04    0.20
   0   3 -10    0.66    0.34
   0   3  10    0.64    0.34
  -1  -3 -10   12.92    1.09
   1  -3  10   14.85    1.20
  -1  -3 -10   15.01    1.19
  -1   3 -10   13.47    1.13
   1   3  10   14.21    1.04
  -1   3 -10   14.46    1.08
   1   3  10   12.67    1.14
   2  -3  10    2.78    0.27
  -2  -3 -10    2.83    0.38
   2  -3  10    3.23    0.53
  -2  -3 -10    2.51    0.48
   2   3  10    2.99    0.46
  -2   3 -10    3.12    0.37
   2   3  10    2.00    0.28
  -2   3 -10    3.27    0.49
   3  -3  10    3.24    0.59
  -3  -3 -10    1.82    0.50
   3  -3  10    1.93    0.26
  -3  -3 -10    2.49    0.38
   3   3  10    2.49    0.44
   3   3  10    2.33    0.30
  -3   3 -10    2.76    0.38
  -3   3 -10    2.22    0.45
   4  -3  10    9.89    0.95
   4  -3  10    9.46    0.76
  -4  -3 -10    8.12    0.91
  -4  -3 -10    8.71    0.86
   4   3  10    9.90    0.90
   4   3  10    9.77    0.78
  -4   3 -10    9.09    0.87
  -4   3 -10    9.47    0.83
   5  -3  10    0.28    0.55
   5  -3  10    0.06    0.24
  -5  -3 -10    0.60    0.37
  -5  -3 -10    0.27    0.43
  -5   3 -10    0.13    0.37
  -5   3 -10    0.03    0.31
   5   3  10   -0.10    0.41
   5   3  10    0.10    0.28
  -6  -3 -10    2.33    0.54
   6  -3  10    1.25    0.32
   6  -3  10    1.91    0.57
   6   3  10    0.93    0.36
  -6   3 -10    1.23    0.41
   6   3  10    1.55    0.50
  -6   3 -10    1.37    0.46
   7  -3  10    0.70    0.59
   7  -3  10    0.70    0.34
   7   3  10    1.26    0.41
  -7   3 -10    0.85    0.48
   7   3  10    0.41    0.50
   9  -4 -10    1.29    0.53
   9  -4 -10    0.97    0.33
  -9  -4  10    1.22    0.45
  -9   4  10    0.40    0.47
   9   4 -10    0.72    0.29
   8  -4 -10    0.09    0.45
  -8  -4  10   -0.34    0.38
   8  -4 -10    0.03    0.29
   8   4 -10    0.10    0.24
  -8   4  10   -0.08    0.41
  -7  -4  10    2.51    0.47
   7  -4 -10    2.56    0.52
   7  -4 -10    3.06    0.37
  -7   4  10    1.93    0.48
   7   4 -10    3.05    0.52
   7   4 -10    2.30    0.32
   6  -4 -10    0.56    0.50
  -6  -4  10    0.45    0.37
   6  -4 -10    0.47    0.42
   6  -4 -10    0.28    0.25
  -6  -4  10    1.26    0.46
   6   4 -10    0.44    0.22
  -6   4  10    0.24    0.44
   6   4 -10    0.49    0.42
  -5  -4  10    0.27    0.36
   5  -4 -10    0.25    0.25
  -5  -4  10    0.11    0.41
   5  -4 -10    0.31    0.41
   5   4 -10    0.02    0.38
  -5   4  10   -0.05    0.35
   4  -4 -10    3.07    0.37
   4  -4 -10    3.54    0.54
  -4  -4  10    2.98    0.47
  -4  -4  10    3.30    0.57
  -4   4  10    2.15    0.47
   4   4 -10    3.86    0.51
   4   4 -10    3.07    0.34
  -3  -4  10    0.33    0.35
   3  -4 -10   -0.04    0.23
   3  -4 -10    0.28    0.38
  -3  -4  10    0.05    0.39
   3   4 -10    0.12    0.35
   3   4 -10    0.36    0.22
  -3   4  10   -0.20    0.40
  -2  -4  10    0.18    0.38
   2  -4 -10    0.20    0.25
   2  -4 -10    0.31    0.42
   2   4 -10    0.00    0.36
  -2   4  10    0.14    0.37
   2   4 -10    0.11    0.22
   1  -4 -10   11.56    0.92
  -1  -4  10    8.87    0.90
   1  -4 -10    8.49    0.79
   1   4 -10    9.47    0.78
  -1   4  10    9.02    0.70
  -1   4  10   10.17    0.95
   1   4 -10   10.78    0.89
   0  -4  10    0.83    0.41
   0  -4 -10    0.41    0.41
   0  -4 -10    1.04    0.31
   0   4  10    1.34    0.45
   0   4 -10    1.43    0.29
   0   4 -10    0.85    0.39
   0   4  10    1.05    0.20
  -1  -4 -10    0.11    0.30
  -1  -4 -10    0.15    0.44
   1  -4  10    0.21    0.40
  -1   4 -10    0.37    0.27
  -1   4 -10    0.05    0.39
   1   4  10    0.38    0.21
   1   4  10    0.51    0.39
   2  -4  10    1.00    0.18
   2  -4  10    0.64    0.44
  -2  -4 -10    1.21    0.45
  -2  -4 -10    1.40    0.36
   2   4  10    0.61    0.39
   2   4  10    1.06    0.25
  -2   4 -10    0.78    0.33
  -2   4 -10    0.87    0.40
   3  -4  10    0.07    0.20
  -3  -4 -10    0.27    0.45
  -3  -4 -10    0.52    0.36
   3  -4  10    0.39    0.45
  -3   4 -10    0.17    0.41
  -3   4 -10    0.55    0.35
   3   4  10    0.08    0.39
   3   4  10    0.33    0.25
   4  -4  10    0.07    0.49
  -4  -4 -10    0.15    0.50
  -4  -4 -10   -0.02    0.38
   4  -4  10    0.01    0.24
   4   4  10    0.11    0.47
   4   4  10    0.11    0.28
  -4   4 -10   -0.09    0.36
  -4   4 -10   -0.07    0.43
   5  -4  10    0.35    0.61
  -5  -4 -10    0.15    0.48
   5  -4  10    0.00    0.27
  -5   4 -10    0.45    0.43
   5   4  10    0.16    0.32
  -5   4 -10   -0.07    0.40
   5   4  10    0.23    0.47
   6  -4  10    2.05    0.40
  -6  -4 -10    2.42    0.62
   6  -4  10    2.13    0.69
   6   4  10    2.46    0.61
  -6   4 -10    2.30    0.57
  -6   4 -10    2.21    0.55
   6   4  10    3.34    0.47
   8  -5 -10    0.47    0.53
  -8  -5  10    0.04    0.52
   8  -5 -10    0.04    0.35
   8   5 -10    0.08    0.30
  -8   5  10    0.01    0.49
   8   5 -10    0.39    0.60
   7  -5 -10    0.68    0.53
   7  -5 -10    1.22    0.36
  -7  -5  10    0.52    0.46
   7   5 -10    0.32    0.30
   7   5 -10    0.32    0.50
  -7   5  10    0.23    0.49
   6  -5 -10    0.15    0.55
   6  -5 -10   -0.02    0.32
  -6  -5  10    0.10    0.49
  -6  -5  10    0.41    0.55
   6  -5 -10   -0.27    0.55
   6   5 -10    0.10    0.29
   6   5 -10    0.63    0.55
  -6   5  10    0.02    0.51
  -5  -5  10    0.40    0.48
  -5  -5  10   -0.09    0.42
   5  -5 -10    0.27    0.47
   5  -5 -10   -0.10    0.31
   5  -5 -10    0.09    0.53
   5   5 -10    0.18    0.45
   5   5 -10    0.03    0.27
  -5   5  10    0.21    0.48
  -4  -5  10    0.63    0.45
  -4  -5  10    0.24    0.41
   4  -5 -10    0.55    0.45
   4  -5 -10    1.25    0.35
   4   5 -10    0.58    0.29
  -4   5  10    0.49    0.48
   4   5 -10    0.91    0.45
   3  -5 -10    0.46    0.31
  -3  -5  10   -0.06    0.40
  -3  -5  10    0.01    0.48
   3  -5 -10    0.71    0.45
   3   5 -10    0.52    0.30
  -3   5  10    0.81    0.50
   3   5 -10    0.45    0.45
   2  -5 -10    0.62    0.45
   2  -5 -10    0.39    0.33
  -2  -5  10    0.21    0.44
  -2   5  10    0.24    0.16
   2   5 -10    0.07    0.45
  -2   5  10    0.76    0.45
   2   5 -10    0.50    0.30
   1  -5 -10    0.13    0.32
  -1  -5  10    0.59    0.46
   1  -5 -10   -0.07    0.43
  -1   5  10    0.09    0.21
  -1   5  10    0.09    0.44
   1   5 -10    0.27    0.46
   1   5 -10   -0.35    0.29
   0  -5 -10   -0.28    0.44
   0  -5 -10   -0.26    0.32
   0  -5  10   -0.12    0.44
   0   5 -10    0.26    0.32
   0   5  10    0.35    0.22
   0   5 -10   -0.19    0.43
   0   5  10    0.35    0.46
  -1  -5 -10    5.20    0.54
  -1  -5 -10    3.79    0.63
   1  -5  10    4.08    0.62
  -1   5 -10    3.92    0.50
  -1   5 -10    2.92    0.56
   1   5  10    3.57    0.42
   1   5  10    2.96    0.60
   2  -5  10    1.65    0.54
   2  -5  10    1.29    0.24
  -2  -5 -10    1.95    0.43
  -2  -5 -10    1.02    0.52
  -2   5 -10    2.23    0.51
   2   5  10    0.91    0.56
   2   5  10    1.87    0.33
  -2   5 -10    1.76    0.42
   3  -5  10    1.06    0.54
  -3  -5 -10    0.79    0.43
  -3  -5 -10    0.89    0.53
   3  -5  10    0.66    0.23
   3   5  10    0.24    0.31
  -3   5 -10    0.91    0.54
   3   5  10    1.06    0.56
  -3   5 -10    0.68    0.42
  -4  -5 -10    3.60    0.70
   4  -5  10    2.40    0.35
   4  -5  10    3.28    0.68
  -4   5 -10    3.71    0.54
  -4   5 -10    2.92    0.62
   4   5  10    2.58    0.65
   4   5  10    2.96    0.44
  -5  -5 -10   -0.04    0.54
   5  -5  10    0.13    0.28
   5  -5  10    0.03    0.68
  -5   5 -10   -0.21    0.50
   5   5  10    0.32    0.55
  -5   5 -10    0.10    0.48
   5   5  10    0.48    0.39
   5  -6 -10    0.09    0.42
   5  -6 -10   -0.15    0.57
  -5  -6  10   -0.25    0.49
  -5  -6  10    0.21    0.61
   5  -6 -10    0.45    0.66
  -5   6  10    0.63    0.57
   5   6 -10    0.12    0.54
   5   6 -10   -0.06    0.36
  -4  -6  10    0.09    0.52
  -4  -6  10    0.61    0.54
   4  -6 -10    0.54    0.39
   4  -6 -10    0.18    0.55
   4  -6 -10    0.41    0.59
  -4   6  10    0.42    0.53
   4   6 -10    0.08    0.38
   4   6 -10   -0.10    0.55
  -3  -6  10   -0.22    0.48
   3  -6 -10    0.01    0.39
   3  -6 -10    0.08    0.55
  -3   6  10   -0.09    0.20
  -3   6  10   -0.12    0.57
   3   6 -10    0.09    0.38
   3   6 -10    0.64    0.55
   2  -6 -10    0.12    0.40
  -2  -6  10    0.25    0.51
   2  -6 -10    0.48    0.54
  -2   6  10   -0.03    0.22
   2   6 -10    0.17    0.56
   2   6 -10    0.02    0.36
  -2   6  10    0.20    0.60
   1  -6 -10    3.24    0.70
  -1  -6  10    2.97    0.67
   1  -6 -10    2.25    0.49
  -1   6  10    2.59    0.36
   1   6 -10    2.17    0.63
   1   6 -10    1.74    0.47
  -1   6  10    2.52    0.68
   0  -6  10    0.72    0.53
   0  -6 -10    0.51    0.45
   0  -6 -10    0.57    0.62
   0   6  10    0.24    0.56
   0   6  10    1.17    0.32
   0   6 -10    0.91    0.43
   0   6 -10    0.77    0.60
  -1  -6 -10   -0.06    0.47
  -1  -6 -10    0.12    0.56
   1  -6  10    0.67    0.63
  -1   6 -10   -0.04    0.44
  -1   6 -10    0.18    0.52
   1   6  10    0.55    0.33
   1   6  10    0.41    0.64
  -2  -6 -10    0.18    0.57
   2  -6  10    0.79    0.65
   2  -6  10    0.26    0.22
  -2   6 -10    0.20    0.46
  -2   6 -10    0.29    0.53
   2   6  10    0.54    0.68
   2   6  10   -0.19    0.35
  11   0 -11    0.06    0.22
  10   0 -11    8.07    0.89
  10   0 -11    7.79    0.63
   9   0 -11    0.02    0.44
   9   0 -11    0.31    0.15
  -8   0  11    0.11    0.38
   8   0 -11   -0.20    0.41
   8   0 -11    0.03    0.10
   7   0 -11   13.45    1.11
  -7   0  11   12.25    1.09
   6   0 -11    0.09    0.09
  -6   0  11   -0.15    0.34
   6   0 -11   -0.09    0.41
  -6   0  11    0.24    0.43
   6   0 -11   -0.01    0.39
  -5   0  11   -0.12    0.33
  -5   0  11    0.14    0.35
   5   0 -11    0.17    0.35
   5   0 -11    0.09    0.10
  -4   0  11   14.16    1.15
   4   0 -11   13.46    1.15
  -4   0  11   12.82    1.08
   4   0 -11   13.05    0.97
   3   0 -11    1.49    0.19
  -3   0  11    1.02    0.37
  -3   0  11    1.30    0.35
   3   0 -11    1.04    0.38
   3   0 -11    1.63    0.38
   2   0 -11    0.64    0.31
   2   0 -11    0.51    0.35
  -2   0  11    0.44    0.34
  -2   0  11    0.95    0.32
   2   0 -11    0.16    0.15
  -1   0  11    3.15    0.50
  -1   0  11    3.71    0.47
   1   0 -11    3.53    0.43
   1   0 -11    3.66    0.52
   1   0 -11    3.79    0.36
   0   0  11   13.27    1.06
   0   0 -11   12.82    1.12
   0   0 -11   13.59    1.07
   0   0 -11   13.05    1.00
   0   0  11   12.92    1.11
   1   0  11    0.15    0.34
  -1   0 -11    0.18    0.39
   1   0  11    0.45    0.39
  -1   0 -11   -0.02    0.19
  -1   0 -11    0.14    0.28
   2   0  11    0.00    0.35
  -2   0 -11    0.08    0.21
   2   0  11   -0.22    0.35
  -2   0 -11    0.36    0.30
  -2   0 -11    0.30    0.35
  -3   0 -11   13.44    1.11
   3   0  11   11.31    0.90
  -3   0 -11   11.97    0.96
   3   0  11   13.92    1.11
   3   0  11   11.40    1.06
  -3   0 -11   13.39    1.05
  -4   0 -11   -0.11    0.26
   4   0  11    0.27    0.41
  -4   0 -11    0.11    0.39
   4   0  11    0.17    0.18
  -4   0 -11    0.25    0.38
   4   0  11   -0.13    0.38
  -5   0 -11    1.35    0.41
   5   0  11    0.87    0.43
  -5   0 -11    1.27    0.34
   5   0  11    0.95    0.26
   5   0  11    2.00    0.52
  -5   0 -11    1.05    0.50
  -6   0 -11   12.24    1.03
   6   0  11    9.98    0.91
  -6   0 -11   12.26    1.12
  -6   0 -11   10.42    0.95
   6   0  11   11.15    1.04
   6   0  11   11.50    1.13
   7   0  11    0.44    0.51
  -7   0 -11   -0.20    0.44
  -7   0 -11   -0.13    0.51
  -7   0 -11   -0.29    0.50
   7   0  11   -0.21    0.31
  -8   0 -11    1.56    0.56
   8   0  11    1.24    0.42
   8   0  11    1.58    0.61
  11  -1 -11    0.68    0.54
  11  -1 -11    0.17    0.26
  11   1 -11    0.02    0.23
  10  -1 -11    0.12    0.52
  10  -1 -11   -0.07    0.21
  10   1 -11    0.24    0.18
   9  -1 -11    1.12    0.20
   9  -1 -11    0.57    0.42
  -9   1  11    1.49    0.43
   9   1 -11    1.39    0.18
   8  -1 -11    4.30    0.61
   8  -1 -11    4.26    0.38
  -8  -1  11    3.89    0.50
  -8   1  11    3.94    0.57
   7  -1 -11    0.27    0.42
  -7  -1  11    0.11    0.34
   7  -1 -11    0.37    0.14
  -7   1  11    0.20    0.40
   7   1 -11    0.32    0.39
  -6  -1  11    1.08    0.38
   6  -1 -11    1.20    0.43
   6  -1 -11    1.28    0.18
  -6  -1  11    1.40    0.41
   6   1 -11    1.43    0.41
   6   1 -11    1.90    0.45
  -6   1  11    1.54    0.38
   5  -1 -11   19.69    1.55
   5  -1 -11   19.50    1.39
  -5  -1  11   17.92    1.53
  -5  -1  11   19.33    1.48
  -5  -1  11   20.13    1.48
   5   1 -11   18.38    1.49
   5   1 -11   18.46    1.37
   5   1 -11   21.23    1.55
  -5   1  11   18.35    1.51
   4  -1 -11    1.85    0.46
   4  -1 -11    2.12    0.22
  -4  -1  11    1.56    0.45
  -4  -1  11    1.29    0.38
  -4   1  11    1.25    0.38
   4   1 -11    1.72    0.20
   4   1 -11    1.41    0.39
  -4   1  11    1.85    0.45
  -3  -1  11    0.35    0.33
   3  -1 -11    0.36    0.37
   3  -1 -11   -0.01    0.15
  -3  -1  11    0.46    0.36
  -3   1  11    0.21    0.35
  -3   1  11    0.16    0.31
   3   1 -11    0.25    0.14
   3   1 -11    0.25    0.34
   2  -1 -11   23.79    1.71
  -2  -1  11   22.42    1.64
  -2  -1  11   23.02    1.69
   2  -1 -11   20.95    1.58
   2   1 -11   21.76    1.57
  -2   1  11   18.89    1.68
   2   1 -11   21.37    1.64
  -2   1  11   21.26    1.66
   1  -1 -11    0.69    0.42
  -1  -1  11    1.28    0.35
   1  -1 -11    1.29    0.21
  -1  -1  11    1.11    0.38
   1   1 -11    1.16    0.35
  -1   1  11    0.93    0.34
   1   1 -11    0.83    0.19
  -1   1  11    0.62    0.43
   0  -1  11    1.41    0.41
   0  -1  11    2.25    0.40
   0  -1 -11    2.21    0.27
   0  -1 -11    2.53    0.47
   0   1 -11    1.85    0.36
   0   1  11    1.51    0.35
   0   1  11    1.33    0.44
   0   1 -11    1.78    0.26
   1  -1  11   20.63    1.53
  -1  -1 -11   18.16    1.52
   1  -1  11   19.27    1.49
  -1  -1 -11   19.40    1.42
   1   1  11   18.42    1.48
  -1   1 -11   18.13    1.41
  -1   1 -11   18.96    1.49
   1   1  11   19.90    1.53
   2  -1  11   -0.46    0.31
  -2  -1 -11    0.07    0.34
   2  -1  11   -0.33    0.32
  -2  -1 -11   -0.06    0.22
  -2  -1 -11   -0.25    0.35
   2   1  11    0.04    0.36
  -2   1 -11    0.16    0.22
  -2   1 -11   -0.14    0.34
   2   1  11   -0.25    0.37
  -3  -1 -11    1.39    0.41
   3  -1  11    0.97    0.42
  -3  -1 -11    1.44    0.44
   3  -1  11    1.20    0.18
   3  -1  11    1.59    0.43
  -3  -1 -11    1.43    0.31
   3   1  11    1.97    0.42
   3   1  11    1.36    0.20
  -3   1 -11    1.29    0.36
   3   1  11    1.50    0.45
  -3   1 -11    1.44    0.29
   4  -1  11    5.59    0.66
   4  -1  11    5.73    0.66
  -4  -1 -11    6.15    0.63
  -4  -1 -11    5.33    0.55
   4  -1  11    4.96    0.47
  -4  -1 -11    5.75    0.67
  -4   1 -11    4.79    0.64
   4   1  11    5.00    0.48
  -4   1 -11    5.34    0.54
  -4   1 -11    5.07    0.59
   4   1  11    5.52    0.66
   4   1  11    4.52    0.60
  -5  -1 -11    1.36    0.46
  -5  -1 -11    1.20    0.37
   5  -1  11    0.57    0.47
  -5  -1 -11    1.19    0.41
   5  -1  11    2.59    0.55
   5  -1  11    0.99    0.27
  -5   1 -11    1.44    0.53
  -5   1 -11    0.95    0.41
   5   1  11    0.82    0.43
  -5   1 -11    2.03    0.37
   5   1  11    1.36    0.27
   6  -1  11    1.36    0.55
  -6  -1 -11    0.09    0.41
   6  -1  11    0.37    0.30
   6  -1  11    1.03    0.54
  -6  -1 -11    1.06    0.40
  -6  -1 -11   -0.10    0.44
  -6   1 -11    0.31    0.47
   6   1  11    0.25    0.28
  -6   1 -11    0.09    0.50
  -6   1 -11    0.35    0.36
   6   1  11    0.22    0.46
   7  -1  11    0.50    0.58
   7  -1  11    0.41    0.35
  -7  -1 -11    0.79    0.49
   7   1  11    0.62    0.52
  -7   1 -11    0.65    0.48
  -7   1 -11    0.56    0.43
  -7   1 -11    1.00    0.57
   7   1  11    0.44    0.34
 -10  -2  11    5.97    0.64
  10  -2 -11    4.35    0.48
  10  -2 -11    5.93    0.74
  10   2 -11    5.44    0.50
  -9  -2  11    0.16    0.38
   9  -2 -11    0.41    0.45
   9  -2 -11    0.33    0.22
   9   2 -11    0.32    0.19
  -9   2  11    0.48    0.41
   8  -2 -11   -0.15    0.18
  -8  -2  11    0.16    0.39
   8  -2 -11   -0.32    0.41
  -8   2  11    0.05    0.39
   8   2 -11    0.11    0.15
   8   2 -11   -0.01    0.43
   7  -2 -11    8.72    0.85
  -7  -2  11    8.26    0.78
   7  -2 -11    7.92    0.66
   7   2 -11    8.03    0.62
   7   2 -11    8.78    0.81
  -7   2  11    8.91    0.83
  -6  -2  11    0.06    0.37
   6  -2 -11    0.04    0.17
  -6  -2  11    0.58    0.45
   6  -2 -11    0.14    0.40
  -6   2  11    0.46    0.35
   6   2 -11    0.37    0.40
  -5  -2  11   -0.15    0.35
  -5  -2  11    0.14    0.38
   5  -2 -11   -0.33    0.42
   5  -2 -11    0.15    0.17
   5   2 -11    0.02    0.38
   5   2 -11    0.00    0.13
  -5   2  11   -0.03    0.36
   4  -2 -11    9.00    0.76
   4  -2 -11    9.58    0.98
  -4  -2  11   10.69    0.94
  -4  -2  11   10.80    0.87
  -4   2  11    9.35    0.89
   4   2 -11    9.80    0.87
   4   2 -11    9.96    0.75
   3  -2 -11    0.57    0.20
  -3  -2  11    1.17    0.41
   3  -2 -11    0.40    0.43
   3   2 -11    0.62    0.17
   3   2 -11    0.35    0.38
  -3   2  11    0.08    0.33
   2  -2 -11    0.21    0.18
  -2  -2  11    0.22    0.38
   2  -2 -11    0.52    0.42
  -2   2  11    0.20    0.33
   2   2 -11    0.16    0.18
   2   2 -11    0.23    0.33
   1  -2 -11    1.77    0.46
  -1  -2  11    1.49    0.48
   1  -2 -11    1.75    0.28
   1   2 -11    1.99    0.40
  -1   2  11    1.93    0.43
   1   2 -11    2.94    0.29
   0  -2 -11    8.99    0.85
   0  -2 -11    7.81    0.70
   0  -2  11    8.64    0.85
   0   2 -11    8.45    0.77
   0   2  11    8.72    0.80
   0   2 -11    8.51    0.69
  -1  -2 -11    0.24    0.41
  -1  -2 -11    0.17    0.23
   1  -2  11    0.24    0.39
  -1   2 -11   -0.14    0.32
   1   2  11    0.17    0.32
  -1   2 -11   -0.33    0.22
   2  -2  11   -0.12    0.36
  -2  -2 -11   -0.04    0.25
   2  -2  11    0.16    0.40
  -2  -2 -11    0.14    0.38
   2   2  11    0.12    0.33
   2   2  11    0.08    0.14
  -2   2 -11   -0.08    0.23
  -2   2 -11    0.10    0.33
   3  -2  11    7.92    0.62
   3  -2  11    9.34    0.93
  -3  -2 -11    7.81    0.87
   3  -2  11    8.93    0.83
  -3  -2 -11    8.07    0.73
  -3   2 -11    8.19    0.73
   3   2  11    7.37    0.65
  -3   2 -11    9.30    0.79
   3   2  11    8.38    0.81
   4  -2  11    0.02    0.43
   4  -2  11    0.31    0.50
   4  -2  11    0.22    0.20
  -4  -2 -11   -0.03    0.31
  -4  -2 -11   -0.10    0.42
   4   2  11   -0.17    0.37
  -4   2 -11    0.02    0.29
   4   2  11    0.28    0.22
  -4   2 -11    0.13    0.35
  -5  -2 -11    0.82    0.55
   5  -2  11    1.44    0.52
   5  -2  11    0.91    0.28
  -5  -2 -11    0.75    0.36
   5  -2  11   -0.03    0.49
  -5   2 -11    1.25    0.37
  -5   2 -11    0.91    0.42
   5   2  11    0.73    0.45
   5   2  11    0.77    0.29
   6  -2  11    7.03    0.71
   6  -2  11    9.33    0.94
  -6  -2 -11    7.91    0.78
  -6  -2 -11    8.84    0.92
   6  -2  11    7.14    0.88
  -6   2 -11    9.00    0.85
  -6   2 -11    6.46    0.75
   6   2  11    7.12    0.84
   7  -2  11   -0.21    0.59
   7  -2  11   -0.17    0.35
   7   2  11   -0.18    0.51
  -7   2 -11    0.11    0.49
   7   2  11    0.20    0.34
  10  -3 -11    0.10    0.30
 -10  -3  11   -0.36    0.51
  10  -3 -11    0.05    0.54
  10   3 -11    0.04    0.27
   9  -3 -11    0.22    0.27
   9  -3 -11   -0.19    0.48
  -9  -3  11    0.18    0.43
  -9   3  11    0.73    0.47
   9   3 -11    0.38    0.23
   8  -3 -11    1.49    0.51
   8  -3 -11    2.05    0.30
  -8  -3  11    1.62    0.45
   8   3 -11    1.72    0.25
   8   3 -11    2.04    0.50
  -8   3  11    1.58    0.54
   7  -3 -11    0.35    0.44
  -7  -3  11    0.03    0.37
   7  -3 -11    0.09    0.23
   7   3 -11    0.38    0.19
  -7   3  11    0.67    0.44
   7   3 -11    0.49    0.43
  -6  -3  11    0.90    0.46
   6  -3 -11    0.87    0.43
   6  -3 -11    0.33    0.23
   6  -3 -11    0.31    0.43
  -6  -3  11    0.23    0.37
   6   3 -11    0.68    0.40
   6   3 -11    0.93    0.19
  -6   3  11    0.17    0.38
   5  -3 -11   10.95    0.79
  -5  -3  11    9.88    0.89
   5  -3 -11   10.04    0.99
  -5  -3  11    9.62    1.01
   5   3 -11    8.54    0.90
  -5   3  11    8.21    0.90
   5   3 -11    9.82    0.76
  -4  -3  11    0.39    0.37
  -4  -3  11    1.47    0.47
   4  -3 -11    1.43    0.25
   4  -3 -11    1.30    0.44
   4   3 -11    1.02    0.21
   4   3 -11    0.50    0.38
  -4   3  11    1.13    0.42
   3  -3 -11    0.41    0.39
  -3  -3  11   -0.08    0.45
   3  -3 -11    0.13    0.22
   3   3 -11    0.07    0.36
  -3   3  11   -0.01    0.39
   3   3 -11   -0.13    0.19
   2  -3 -11    8.84    0.79
   2  -3 -11   10.82    0.99
  -2  -3  11    8.59    0.98
   2   3 -11    9.14    0.88
   2   3 -11   10.73    0.78
  -2   3  11    9.43    0.90
   1  -3 -11    1.10    0.43
   1  -3 -11    0.84    0.27
  -1  -3  11    1.61    0.46
   1   3 -11    1.12    0.41
  -1   3  11    0.58    0.40
   1   3 -11    0.73    0.24
   0  -3  11    0.71    0.43
   0  -3 -11    0.59    0.42
   0  -3 -11    0.81    0.28
   0   3  11    1.00    0.39
   0   3 -11    1.01    0.41
   0   3 -11    1.24    0.27
  -1  -3 -11    8.57    0.93
  -1  -3 -11    9.06    0.79
   1  -3  11    8.20    0.93
   1   3  11    8.85    0.68
  -1   3 -11   10.78    0.79
   1   3  11   10.74    0.88
  -1   3 -11    8.73    0.85
  -2  -3 -11   -0.09    0.29
   2  -3  11    0.28    0.44
  -2  -3 -11    0.01    0.41
  -2   3 -11   -0.01    0.41
   2   3  11    0.41    0.35
  -2   3 -11   -0.15    0.27
   2   3  11    0.11    0.17
  -3  -3 -11    0.21    0.31
   3  -3  11    0.77    0.18
   3  -3  11    0.36    0.49
  -3  -3 -11    1.07    0.48
   3   3  11    0.72    0.41
  -3   3 -11    1.02    0.40
   3   3  11    0.61    0.23
  -3   3 -11    1.09    0.34
   4  -3  11    3.82    0.64
  -4  -3 -11    3.65    0.62
  -4  -3 -11    2.51    0.45
   4  -3  11    2.41    0.31
   4   3  11    3.63    0.60
   4   3  11    1.88    0.34
  -4   3 -11    2.37    0.48
  -4   3 -11    2.69    0.43
  -5  -3 -11    0.25    0.58
   5  -3  11    1.04    0.65
   5  -3  11    0.22    0.26
  -5  -3 -11    1.53    0.45
   5   3  11    0.51    0.31
  -5   3 -11    0.41    0.37
  -5   3 -11    0.17    0.43
   5   3  11    1.04    0.49
   6  -3  11    0.69    0.58
  -6  -3 -11    0.45    0.63
   6  -3  11    0.27    0.30
   6   3  11    0.39    0.51
  -6   3 -11    0.14    0.41
   6   3  11    0.22    0.34
  -6   3 -11    0.42    0.49
  -8  -4  11    0.12    0.51
   8  -4 -11   -0.47    0.53
   8  -4 -11    0.11    0.31
   8   4 -11    0.03    0.58
   8   4 -11    0.03    0.26
  -8   4  11   -0.16    0.50
   7  -4 -11    2.52    0.40
  -7  -4  11    3.51    0.56
   7  -4 -11    3.60    0.64
  -7   4  11    2.90    0.60
   7   4 -11    3.52    0.37
   7   4 -11    2.83    0.60
  -6  -4  11   -0.36    0.49
   6  -4 -11    0.16    0.27
  -6  -4  11   -0.10    0.43
   6  -4 -11   -0.39    0.48
   6  -4 -11    0.22    0.46
  -6   4  11    0.33    0.43
   6   4 -11   -0.28    0.44
  -5  -4  11    0.19    0.40
   5  -4 -11    0.23    0.27
   5  -4 -11    0.08    0.52
  -5  -4  11    0.14    0.47
   5   4 -11    0.04    0.24
  -5   4  11    0.13    0.45
   5   4 -11   -0.08    0.43
   4  -4 -11    3.05    0.39
  -4  -4  11    2.46    0.51
  -4  -4  11    3.12    0.59
   4  -4 -11    4.13    0.64
   4   4 -11    3.20    0.37
   4   4 -11    2.24    0.51
  -4   4  11    2.70    0.54
   3  -4 -11   -0.06    0.26
  -3  -4  11    0.11    0.50
   3  -4 -11   -0.30    0.42
   3   4 -11    0.01    0.25
   3   4 -11   -0.23    0.40
  -3   4  11    0.04    0.41
   2  -4 -11    0.36    0.29
  -2  -4  11   -0.06    0.44
   2  -4 -11    0.53    0.51
  -2   4  11    0.27    0.41
   2   4 -11    0.45    0.47
   2   4 -11   -0.10    0.25
   1  -4 -11    0.46    0.46
   1  -4 -11    0.87    0.32
  -1  -4  11    0.28    0.45
   1   4 -11    0.31    0.27
   1   4 -11    0.63    0.43
  -1   4  11    0.40    0.47
   0  -4  11    2.26    0.58
   0  -4 -11    3.10    0.59
   0  -4 -11    3.22    0.44
   0   4  11    3.89    0.56
   0   4 -11    3.21    0.52
   0   4 -11    2.66    0.41
   0   4  11    3.57    0.30
  -1  -4 -11   -0.06    0.47
  -1  -4 -11    0.10    0.33
   1  -4  11    0.07    0.52
   1   4  11    0.44    0.49
  -1   4 -11    0.08    0.32
   1   4  11    0.03    0.19
  -1   4 -11    0.22    0.39
  -2  -4 -11    0.05    0.55
   2  -4  11   -0.36    0.48
  -2  -4 -11   -0.10    0.35
  -2   4 -11    0.05    0.34
   2   4  11    0.10    0.23
   2   4  11   -0.12    0.42
  -2   4 -11    0.02    0.41
  -3  -4 -11    3.49    0.53
   3  -4  11    2.76    0.31
   3  -4  11    2.74    0.66
  -3  -4 -11    3.73    0.71
   3   4  11    3.50    0.39
  -3   4 -11    2.36    0.52
   3   4  11    3.64    0.62
  -3   4 -11    3.09    0.47
   4  -4  11    0.39    0.59
  -4  -4 -11    0.33    0.41
   4  -4  11    0.12    0.23
  -4  -4 -11    0.19    0.55
  -4   4 -11    0.07    0.40
  -4   4 -11    0.24    0.46
   4   4  11    0.73    0.55
   4   4  11    0.13    0.29
  -5  -4 -11    1.27    0.67
   5  -4  11    0.52    0.31
   5  -4  11    0.03    0.71
   5   4  11    0.10    0.33
  -5   4 -11    0.55    0.47
  -5   4 -11    0.39    0.43
   5   4  11    0.63    0.54
  -6  -5  11    0.17    0.56
   6  -5 -11    0.13    0.37
   6  -5 -11   -0.66    0.64
   6  -5 -11    0.27    0.56
  -6  -5  11    0.23    0.49
  -6   5  11   -0.06    0.59
   6   5 -11   -0.06    0.31
   6   5 -11    0.64    0.56
   5  -5 -11    3.66    0.66
  -5  -5  11    1.78    0.55
  -5  -5  11    3.52    0.70
   5  -5 -11    2.76    0.64
   5  -5 -11    2.29    0.44
  -5   5  11    2.40    0.59
   5   5 -11    2.53    0.40
   5   5 -11    2.64    0.60
   4  -5 -11    0.23    0.59
  -4  -5  11    0.12    0.57
   4  -5 -11    0.31    0.35
  -4  -5  11    0.77    0.49
   4   5 -11    0.91    0.52
  -4   5  11    0.43    0.54
   4   5 -11    0.41    0.31
   3  -5 -11   -0.20    0.56
   3  -5 -11   -0.23    0.34
  -3  -5  11   -0.10    0.50
   3   5 -11   -0.12    0.32
  -3   5  11    0.32    0.51
   3   5 -11   -0.08    0.54
   2  -5 -11    2.45    0.65
  -2  -5  11    2.66    0.61
   2  -5 -11    2.66    0.45
   2   5 -11    2.65    0.58
  -2   5  11    2.78    0.60
   2   5 -11    2.40    0.41
  -1  -5  11    0.57    0.51
   1  -5 -11    0.85    0.53
   1  -5 -11    0.42    0.36
  -1   5  11    0.79    0.56
   1   5 -11    0.65    0.35
  -1   5  11    0.46    0.15
   1   5 -11    0.82    0.51
   0  -5  11   -0.09    0.57
   0  -5 -11    0.53    0.54
   0  -5 -11    0.61    0.38
   0   5 -11    0.64    0.36
   0   5 -11    1.36    0.49
   0   5  11    0.54    0.23
   0   5  11    0.18    0.50
   1  -5  11    3.01    0.63
  -1  -5 -11    2.72    0.48
  -1  -5 -11    2.65    0.65
   1   5  11    2.40    0.33
  -1   5 -11    1.72    0.46
  -1   5 -11    3.46    0.57
   1   5  11    2.09    0.64
  -2  -5 -11   -0.25    0.53
   2  -5  11   -0.34    0.63
  -2  -5 -11    0.64    0.46
   2   5  11    0.22    0.30
  -2   5 -11    0.41    0.53
   2   5  11    0.35    0.59
  -2   5 -11    0.16    0.42
   3  -5  11    0.22    0.62
   3  -5  11    0.64    0.23
  -3  -5 -11    0.33    0.58
  -3  -5 -11    0.19    0.49
  -3   5 -11    0.02    0.50
   3   5  11    0.23    0.62
  -3   5 -11    0.48    0.47
   3   5  11    0.23    0.32
   9   0 -12    0.33    0.15
   8   0 -12    0.62    0.44
  -8   0  12   -0.02    0.40
   8   0 -12    0.09    0.11
  -7   0  12    4.88    0.65
   7   0 -12    5.59    0.68
   6   0 -12    2.75    0.56
  -6   0  12    2.19    0.44
  -6   0  12    2.28    0.54
   6   0 -12    1.82    0.46
   6   0 -12    1.68    0.19
  -5   0  12   -0.30    0.37
   5   0 -12    0.14    0.40
   5   0 -12    0.05    0.13
  -5   0  12    0.12    0.40
  -4   0  12    1.51    0.45
   4   0 -12    2.15    0.47
  -4   0  12    2.23    0.46
   4   0 -12    2.22    0.23
  -3   0  12    6.91    0.80
  -3   0  12    7.12    0.77
   3   0 -12    8.21    0.61
   3   0 -12    7.95    0.85
  -2   0  12    0.90    0.40
  -2   0  12    0.56    0.36
   2   0 -12    1.80    0.44
   2   0 -12    0.65    0.19
   1   0 -12   -0.01    0.36
   1   0 -12    0.08    0.32
  -1   0  12    0.28    0.38
   1   0 -12    0.00    0.19
  -1   0  12   -0.20    0.37
   0   0 -12   18.82    1.30
   0   0 -12   15.47    1.21
   0   0  12   16.57    1.28
   0   0  12   15.65    1.33
   0   0 -12   14.28    1.32
   1   0  12    0.20    0.43
  -1   0 -12    0.24    0.22
  -1   0 -12   -0.02    0.41
  -1   0 -12    0.10    0.34
   1   0  12    0.50    0.35
  -2   0 -12    1.74    0.47
  -2   0 -12    2.03    0.31
  -2   0 -12    2.09    0.44
   2   0  12    2.17    0.47
   2   0  12    1.54    0.45
  -3   0 -12   13.69    1.20
   3   0  12   12.64    1.10
  -3   0 -12   11.50    1.01
   3   0  12   13.35    1.18
  -3   0 -12   13.18    1.08
   4   0  12    1.03    0.21
  -4   0 -12    1.32    0.49
  -4   0 -12    0.70    0.45
   4   0  12    1.19    0.48
  -4   0 -12    1.56    0.34
   4   0  12    1.37    0.49
   5   0  12    3.28    0.62
  -5   0 -12    2.59    0.43
  -5   0 -12    2.33    0.58
   5   0  12    2.39    0.54
  -5   0 -12    1.61    0.53
   5   0  12    2.13    0.31
  -6   0 -12    2.05    0.56
  -6   0 -12    2.21    0.49
   6   0  12    2.76    0.64
   6   0  12    2.67    0.37
   6   0  12    2.38    0.64
  -6   0 -12    2.28    0.67
  10  -1 -12    0.45    0.59
  10  -1 -12    0.02    0.24
  10   1 -12    0.53    0.19
   9  -1 -12    0.05    0.19
   9  -1 -12    0.59    0.49
  -9   1  12   -0.17    0.48
   8  -1 -12    9.64    0.93
   8  -1 -12    8.10    0.65
  -8   1  12    8.72    0.89
   7  -1 -12   -0.15    0.15
   7  -1 -12    0.02    0.44
  -7   1  12    0.11    0.40
   6  -1 -12   -0.57    0.41
  -6  -1  12    0.12    0.40
   6  -1 -12    0.09    0.15
  -6  -1  12   -0.02    0.39
  -6   1  12    0.18    0.38
   6   1 -12    0.02    0.10
   6   1 -12    0.04    0.44
  -5  -1  12   14.91    1.22
   5  -1 -12   13.92    1.19
   5  -1 -12   13.18    1.01
   5   1 -12   14.17    1.23
  -5   1  12   12.79    1.15
   5   1 -12   13.67    1.00
   5   1 -12   13.59    1.14
   4  -1 -12    0.43    0.17
  -4  -1  12    0.45    0.42
   4  -1 -12    0.56    0.44
  -4   1  12    0.51    0.39
   4   1 -12    0.15    0.14
   4   1 -12   -0.06    0.43
  -4   1  12    0.01    0.35
   4   1 -12    0.64    0.38
  -3  -1  12    0.14    0.32
   3  -1 -12    0.31    0.18
   3  -1 -12    0.28    0.39
  -3  -1  12    0.34    0.37
   3   1 -12    0.35    0.39
   3   1 -12    0.42    0.40
  -3   1  12    0.02    0.38
  -3   1  12    0.04    0.37
   3   1 -12    0.56    0.16
  -2  -1  12   15.36    1.23
  -2  -1  12   15.17    1.26
   2  -1 -12   15.46    1.12
   2  -1 -12   13.61    1.26
  -2   1  12   13.04    1.25
  -2   1  12   13.23    1.22
   2   1 -12   14.58    1.20
   2   1 -12   16.45    1.12
   1  -1 -12    0.22    0.20
  -1  -1  12    0.14    0.37
   1  -1 -12    0.18    0.40
  -1  -1  12    0.18    0.37
  -1   1  12    0.01    0.34
  -1   1  12    0.20    0.40
   1   1 -12   -0.05    0.18
   1   1 -12    0.07    0.32
   0  -1  12    0.51    0.37
   0  -1  12    0.46    0.38
   0  -1 -12    0.46    0.46
   0  -1 -12    0.58    0.23
   0   1  12    0.69    0.39
   0   1 -12    0.44    0.21
   0   1 -12    0.71    0.39
   0   1  12    0.51    0.46
   1  -1  12    8.75    0.83
  -1  -1 -12    7.73    0.84
   1  -1  12    9.11    0.80
  -1  -1 -12    7.23    0.66
  -1   1 -12    8.13    0.75
  -1   1 -12    7.60    0.66
   1   1  12    7.02    0.74
   1   1  12    6.10    0.79
   2  -1  12    1.86    0.46
  -2  -1 -12    1.77    0.31
   2  -1  12    1.64    0.49
  -2  -1 -12    1.39    0.48
  -2   1 -12    1.39    0.37
  -2   1 -12    1.75    0.31
   2   1  12    1.25    0.41
  -2   1 -12    1.47    0.51
   2   1  12    1.28    0.48
  -3  -1 -12   -0.25    0.28
  -3  -1 -12    0.23    0.49
   3  -1  12   -0.26    0.45
   3  -1  12    0.29    0.43
   3   1  12    0.27    0.48
   3   1  12    0.03    0.13
   3   1  12    0.18    0.40
  -3   1 -12   -0.32    0.27
  -3   1 -12   -0.35    0.35
  -3   1 -12    0.48    0.50
  -4  -1 -12   -0.28    0.50
  -4  -1 -12   -0.04    0.31
  -4  -1 -12    0.24    0.44
   4  -1  12   -0.12    0.41
   4  -1  12    0.25    0.17
   4  -1  12    0.33    0.46
  -4   1 -12   -0.03    0.31
   4   1  12    0.49    0.49
   4   1  12    0.28    0.45
  -4   1 -12    0.15    0.47
  -4   1 -12    0.04    0.40
   4   1  12   -0.05    0.19
   5  -1  12    1.39    0.27
   5  -1  12    1.21    0.51
  -5  -1 -12    2.24    0.43
  -5  -1 -12    2.09    0.48
  -5  -1 -12    2.27    0.60
   5  -1  12    1.58    0.58
  -5   1 -12    1.30    0.46
   5   1  12    1.62    0.49
  -5   1 -12    1.51    0.41
   5   1  12    1.04    0.28
  -5   1 -12    0.98    0.51
   6  -1  12   -0.02    0.52
  -6  -1 -12   -0.13    0.47
   6  -1  12   -0.34    0.56
  -6  -1 -12   -0.13    0.40
   6  -1  12   -0.34    0.28
  -6  -1 -12   -0.22    0.51
  -6   1 -12    0.20    0.53
  -6   1 -12    0.61    0.55
   6   1  12   -0.50    0.55
  -6   1 -12    0.21    0.41
   6   1  12   -0.16    0.29
   9  -2 -12    0.00    0.24
  -9  -2  12    0.17    0.49
   9  -2 -12    0.37    0.52
  -9   2  12   -0.04    0.47
   9   2 -12    0.10    0.17
   9   2 -12    0.19    0.55
  -8  -2  12   -0.10    0.46
   8  -2 -12    0.48    0.50
   8  -2 -12    0.15    0.22
   8   2 -12    0.14    0.14
   8   2 -12    0.14    0.50
  -8   2  12    0.31    0.46
  -7  -2  12    3.20    0.53
   7  -2 -12    2.95    0.33
   7  -2 -12    3.25    0.65
  -7   2  12    2.10    0.52
   7   2 -12    3.19    0.57
   7   2 -12    3.02    0.29
  -6  -2  12    1.27    0.52
   6  -2 -12    1.49    0.57
   6  -2 -12    1.19    0.24
  -6  -2  12    1.24    0.45
   6   2 -12    1.36    0.19
   6   2 -12    1.40    0.43
  -6   2  12    1.43    0.45
  -5  -2  12    0.25    0.42
  -5  -2  12    0.15    0.40
   5  -2 -12    0.09    0.20
   5  -2 -12    0.08    0.47
  -5   2  12   -0.36    0.37
   5   2 -12   -0.10    0.16
   5   2 -12   -0.22    0.44
   4  -2 -12    0.82    0.47
  -4  -2  12    1.43    0.51
   4  -2 -12    1.04    0.24
  -4   2  12    0.89    0.41
   4   2 -12    1.19    0.46
   4   2 -12    1.30    0.21
   3  -2 -12    5.93    0.49
   3  -2 -12    2.60    0.61
  -3  -2  12    5.46    0.70
   3   2 -12    5.21    0.63
   3   2 -12    5.27    0.46
  -3   2  12    3.94    0.58
   2  -2 -12    0.87    0.43
   2  -2 -12    0.63    0.23
  -2  -2  12    1.02    0.48
  -2   2  12    0.21    0.37
   2   2 -12    0.59    0.21
   2   2 -12    1.18    0.44
   1  -2 -12   -0.11    0.22
  -1  -2  12    0.15    0.41
   1  -2 -12   -0.17    0.40
   1   2 -12   -0.15    0.21
   1   2 -12    0.13    0.38
  -1   2  12    0.01    0.35
   0  -2 -12    9.44    0.82
   0  -2 -12    9.59    1.02
   0  -2  12   10.91    0.98
   0   2 -12   10.19    0.81
   0   2  12    9.06    0.91
   0   2 -12   10.25    0.90
  -1  -2 -12    0.22    0.27
   1  -2  12   -0.01    0.44
  -1  -2 -12    0.25    0.41
  -1   2 -12    0.23    0.37
  -1   2 -12    0.40    0.25
   1   2  12    0.26    0.36
  -2  -2 -12    1.59    0.54
  -2  -2 -12    0.45    0.31
   2  -2  12    1.74    0.51
  -2   2 -12    1.37    0.41
  -2   2 -12    1.91    0.32
   2   2  12    1.43    0.47
   3  -2  12    7.22    0.92
  -3  -2 -12    9.09    0.95
  -3  -2 -12   10.36    0.82
   3   2  12    8.69    0.68
  -3   2 -12    8.69    0.86
  -3   2 -12    9.32    0.78
   3   2  12    8.01    0.88
   4  -2  12    0.80    0.19
   4  -2  12    1.54    0.60
  -4  -2 -12    0.95    0.37
  -4  -2 -12    1.25    0.54
   4  -2  12    1.49    0.48
   4   2  12    0.99    0.24
  -4   2 -12    0.77    0.44
   4   2  12    0.88    0.48
  -4   2 -12    0.72    0.36
   5  -2  12    1.55    0.30
   5  -2  12    2.45    0.61
   5  -2  12    2.62    0.56
  -5  -2 -12    2.05    0.47
  -5  -2 -12    1.06    0.62
   5   2  12    1.20    0.58
   5   2  12    1.81    0.33
  -5   2 -12    2.21    0.58
  -5   2 -12    2.08    0.44
   6  -2  12    2.38    0.65
  -6  -2 -12    1.08    0.60
   6  -2  12    1.77    0.59
  -6  -2 -12    1.33    0.50
   6  -2  12    1.17    0.34
  -6   2 -12    1.64    0.49
   6   2  12    1.29    0.55
   6   2  12    1.71    0.36
   8  -3 -12    3.97    0.71
  -8  -3  12    4.51    0.65
   8  -3 -12    4.17    0.47
   8   3 -12    3.80    0.66
  -8   3  12    3.58    0.67
   8   3 -12    5.13    0.45
   7  -3 -12   -0.09    0.25
   7  -3 -12    0.20    0.59
  -7  -3  12   -0.10    0.45
   7   3 -12   -0.08    0.48
  -7   3  12   -0.10    0.53
  -6  -3  12   -0.01    0.49
  -6  -3  12   -0.34    0.39
   6  -3 -12   -0.13    0.47
   6  -3 -12    0.02    0.24
   6  -3 -12    0.26    0.55
   6   3 -12    0.07    0.51
   6   3 -12    0.13    0.20
  -6   3  12    0.01    0.44
  -5  -3  12    5.87    0.74
   5  -3 -12    5.94    0.81
   5  -3 -12    6.13    0.60
  -5  -3  12    5.85    0.77
   5   3 -12    6.49    0.56
   5   3 -12    8.22    0.80
  -5   3  12    7.47    0.78
  -4  -3  12    0.20    0.52
   4  -3 -12    0.01    0.47
   4  -3 -12    0.26    0.25
  -4   3  12    0.39    0.50
   4   3 -12    0.11    0.42
   4   3 -12    0.22    0.21
  -3  -3  12   -0.04    0.46
   3  -3 -12    0.35    0.26
   3  -3 -12   -0.07    0.47
   3   3 -12    0.23    0.43
  -3   3  12   -0.17    0.40
   3   3 -12    0.10    0.22
  -2  -3  12    7.25    0.82
   2  -3 -12    6.24    0.65
   2  -3 -12    8.59    0.87
  -2   3  12    6.28    0.74
   2   3 -12    8.11    0.80
   2   3 -12    6.71    0.63
   1  -3 -12   -0.14    0.44
  -1  -3  12    0.17    0.45
   1  -3 -12    0.16    0.28
   1   3 -12   -0.05    0.40
  -1   3  12    0.16    0.48
   1   3 -12    0.09    0.25
   0  -3 -12    0.75    0.48
   0  -3 -12    0.52    0.30
   0  -3  12    0.29    0.48
   0   3 -12    0.21    0.26
   0   3  12   -0.02    0.40
   0   3 -12    0.52    0.39
   1  -3  12    2.61    0.63
  -1  -3 -12    3.18    0.45
  -1  -3 -12    3.02    0.62
   1   3  12    3.29    0.58
  -1   3 -12    4.13    0.56
  -1   3 -12    4.61    0.46
  -2  -3 -12    0.41    0.50
  -2  -3 -12    0.48    0.33
   2  -3  12    0.26    0.52
  -2   3 -12    0.90    0.33
   2   3  12   -0.01    0.45
  -2   3 -12    0.62    0.42
   2   3  12    0.38    0.16
  -3  -3 -12   -0.15    0.35
   3  -3  12    0.26    0.55
  -3  -3 -12    0.21    0.52
  -3   3 -12    0.42    0.48
   3   3  12   -0.28    0.44
   3   3  12   -0.14    0.20
  -3   3 -12    0.07    0.33
   4  -3  12   -0.35    0.57
  -4  -3 -12   -0.27    0.54
   4  -3  12    0.10    0.19
  -4  -3 -12    0.25    0.40
   4   3  12    0.12    0.25
   4   3  12    0.27    0.49
  -4   3 -12   -0.11    0.35
  -4   3 -12    0.33    0.44
  -5  -3 -12    1.38    0.69
   5  -3  12    0.55    0.29
  -5  -3 -12    0.70    0.46
   5  -3  12    0.92    0.71
   5   3  12    0.48    0.31
   5   3  12    0.88    0.54
  -5   3 -12    0.38    0.49
  -5   3 -12    0.87    0.43
   7  -4 -12    1.62    0.68
  -7  -4  12    1.03    0.52
   7  -4 -12    0.95    0.35
   7   4 -12    1.72    0.60
   7   4 -12    0.58    0.29
  -7   4  12    1.27    0.62
   6  -4 -12    0.61    0.34
   6  -4 -12   -0.25    0.63
  -6  -4  12    0.20    0.48
   6  -4 -12   -0.06    0.63
  -6  -4  12    0.26    0.65
   6   4 -12    0.28    0.28
  -6   4  12    0.25    0.59
   6   4 -12    0.40    0.53
   5  -4 -12   -0.19    0.30
  -5  -4  12   -0.16    0.54
   5  -4 -12    0.47    0.62
  -5  -4  12    0.35    0.53
  -5   4  12    0.42    0.49
   5   4 -12   -0.60    0.54
   5   4 -12   -0.01    0.27
   4  -4 -12   -0.03    0.31
   4  -4 -12    0.83    0.55
  -4  -4  12    0.25    0.55
   4   4 -12    0.07    0.27
  -4   4  12    0.44    0.49
   4   4 -12    0.04    0.54
  -3  -4  12    1.13    0.64
   3  -4 -12    0.74    0.61
   3  -4 -12    1.81    0.36
   3   4 -12    1.57    0.32
  -3   4  12    0.86    0.55
   3   4 -12    0.87    0.51
  -2  -4  12    0.01    0.53
   2  -4 -12    0.28    0.34
   2  -4 -12   -0.23    0.58
  -2   4  12    0.09    0.45
   2   4 -12    1.25    0.51
   2   4 -12    0.06    0.28
   1  -4 -12    0.42    0.54
   1  -4 -12    0.05    0.35
  -1  -4  12   -0.21    0.53
   1   4 -12   -0.08    0.46
   1   4 -12   -0.15    0.29
  -1   4  12   -0.26    0.46
   0  -4 -12    2.81    0.67
   0  -4 -12    3.27    0.50
   0  -4  12    2.99    0.69
   0   4 -12    4.65    0.50
   0   4  12    4.83    0.64
   0   4 -12    2.93    0.61
  -1  -4 -12    0.21    0.37
   1  -4  12   -0.10    0.62
  -1  -4 -12    0.56    0.58
   1   4  12    0.70    0.48
  -1   4 -12    0.25    0.46
  -1   4 -12    0.61    0.37
  -2  -4 -12    0.40    0.58
  -2  -4 -12    0.82    0.42
   2  -4  12    1.10    0.62
  -2   4 -12    0.89    0.38
   2   4  12    0.34    0.23
  -2   4 -12    0.77    0.55
   2   4  12    1.03    0.50
  -3  -4 -12    3.64    0.76
   3  -4  12    5.02    0.87
  -3  -4 -12    5.42    0.62
   3   4  12    3.85    0.42
  -3   4 -12    2.54    0.60
   3   4  12    2.92    0.63
  -3   4 -12    3.32    0.55
   3  -5 -12   -0.02    0.59
  -3  -5  12   -0.30    0.66
   3  -5 -12   -0.06    0.39
   3   5 -12   -0.99    0.53
   3   5 -12    0.28    0.36
  -3   5  12    0.36    0.58
   2  -5 -12    1.45    0.46
   2  -5 -12    2.49    0.67
  -2  -5  12    0.75    0.62
   2   5 -12    1.85    0.41
   2   5 -12    2.37    0.63
  -2   5  12    1.38    0.60
  -1  -5  12   -0.06    0.59
   1  -5 -12   -0.08    0.41
   1  -5 -12    0.16    0.66
  -1   5  12   -0.47    0.59
   1   5 -12    0.27    0.36
   1   5 -12   -0.02    0.53
   7   0 -13    0.65    0.14
  -7   0  13    0.00    0.51
  -6   0  13    9.95    0.96
  -6   0  13    8.74    0.97
   6   0 -13    9.13    0.71
   6   0 -13   11.68    1.01
  -5   0  13    0.31    0.45
   5   0 -13    0.89    0.54
  -5   0  13    0.42    0.51
   5   0 -13    0.76    0.17
  -4   0  13    1.21    0.48
   4   0 -13    1.01    0.20
  -4   0  13    1.75    0.55
   4   0 -13    0.72    0.52
  -3   0  13   15.53    1.37
   3   0 -13   16.76    1.23
  -3   0  13   16.14    1.39
   3   0 -13   17.76    1.41
  -2   0  13    0.15    0.42
   2   0 -13    0.04    0.19
   2   0 -13    0.52    0.43
  -2   0  13    0.13    0.37
   1   0 -13    1.08    0.24
  -1   0  13    1.19    0.46
   1   0 -13    1.30    0.47
  -1   0  13    1.43    0.41
   0   0 -13   10.42    1.02
   0   0  13    9.78    0.99
   0   0 -13   10.06    0.85
   0   0  13   12.44    1.03
   1   0  13    0.07    0.37
   1   0  13    0.16    0.49
  -1   0 -13    0.40    0.50
  -1   0 -13    0.54    0.26
  -2   0 -13    0.68    0.29
   2   0  13    0.65    0.47
  -2   0 -13    0.92    0.41
  -2   0 -13    1.16    0.50
   2   0  13    0.39    0.41
  -3   0 -13    4.40    0.61
   3   0  13    3.26    0.61
   3   0  13    7.07    0.81
  -3   0 -13    5.75    0.78
  -3   0 -13    4.32    0.51
  -4   0 -13   -0.13    0.45
   4   0  13   -0.11    0.53
  -4   0 -13    0.22    0.53
   4   0  13   -0.18    0.47
  -4   0 -13    0.26    0.35
  -5   0 -13    0.08    0.40
  -5   0 -13   -0.25    0.56
   5   0  13    0.00    0.22
   5   0  13   -0.33    0.59
   8  -1 -13    2.29    0.61
   8  -1 -13    2.41    0.27
  -8   1  13    1.63    0.57
   7  -1 -13    0.56    0.54
   7  -1 -13    0.43    0.19
  -7   1  13    0.80    0.49
   6  -1 -13    0.08    0.19
   6  -1 -13   -0.03    0.54
  -6  -1  13    0.22    0.51
  -6   1  13    0.00    0.43
   6   1 -13    0.14    0.13
   6   1 -13    0.36    0.52
  -5  -1  13    6.46    0.71
   5  -1 -13    5.86    0.77
   5  -1 -13    4.76    0.49
  -5   1  13    7.00    0.74
   5   1 -13    5.40    0.46
   5   1 -13    5.37    0.71
   4  -1 -13    2.14    0.56
   4  -1 -13    1.40    0.25
  -4  -1  13    1.91    0.48
  -4   1  13    1.81    0.47
   4   1 -13    1.72    0.22
   4   1 -13    1.29    0.47
   3  -1 -13    0.72    0.45
  -3  -1  13    0.77    0.44
   3  -1 -13    0.21    0.20
   3   1 -13    0.37    0.19
   3   1 -13    0.90    0.46
   3   1 -13   -0.07    0.43
  -3   1  13    0.38    0.44
  -3   1  13    0.30    0.39
   2  -1 -13    3.90    0.43
   2  -1 -13    5.30    0.70
  -2  -1  13    3.54    0.61
  -2   1  13    4.50    0.63
   2   1 -13    4.76    0.45
   2   1 -13    5.18    0.67
  -2   1  13    3.47    0.65
   2   1 -13    6.04    0.58
   1  -1 -13    6.09    0.76
  -1  -1  13    6.61    0.72
   1  -1 -13    6.80    0.58
  -1  -1  13    6.25    0.78
   1   1 -13    7.30    0.69
  -1   1  13    5.61    0.69
  -1   1  13    5.34    0.78
   1   1 -13    7.00    0.81
   1   1 -13    6.34    0.58
   0  -1  13   -0.01    0.47
   0  -1  13   -0.26    0.41
   0  -1 -13    0.20    0.43
   0  -1 -13    0.01    0.24
   0   1  13    0.27    0.44
   0   1 -13   -0.07    0.23
   0   1 -13    0.14    0.36
   0   1  13   -0.07    0.43
   0   1 -13    0.16    0.51
   1  -1  13    0.17    0.45
   1  -1  13   -0.34    0.41
  -1  -1 -13    0.18    0.27
  -1  -1 -13    0.31    0.47
   1   1  13   -0.12    0.43
  -1   1 -13   -0.06    0.45
  -1   1 -13   -0.17    0.25
  -1   1 -13    0.13    0.42
   1   1  13   -0.15    0.42
  -2  -1 -13    4.38    0.57
   2  -1  13    6.01    0.68
   2  -1  13    5.26    0.73
  -2  -1 -13    7.16    0.78
  -2   1 -13    6.29    0.82
   2   1  13    5.73    0.69
   2   1  13    6.74    0.76
  -2   1 -13    6.58    0.59
   3  -1  13   -0.04    0.53
  -3  -1 -13    0.14    0.33
  -3  -1 -13    0.31    0.49
   3  -1  13    0.38    0.50
  -3   1 -13    0.03    0.47
   3   1  13   -0.30    0.49
  -3   1 -13    0.05    0.32
   3   1  13   -0.09    0.48
  -3   1 -13   -0.09    0.54
   4  -1  13    0.27    0.49
  -4  -1 -13   -0.29    0.36
   4  -1  13   -0.25    0.51
  -4  -1 -13    0.40    0.58
  -4   1 -13   -0.03    0.51
   4   1  13    0.20    0.54
  -4   1 -13    0.04    0.35
  -4   1 -13    0.16    0.47
  -8  -2  13    0.47    0.56
   8  -2 -13    0.17    0.26
   8  -2 -13    0.55    0.60
  -8   2  13    0.31    0.54
   7  -2 -13    0.04    0.64
  -7  -2  13    0.34    0.45
   7  -2 -13    0.22    0.24
  -7   2  13    0.22    0.57
   7   2 -13    0.44    0.50
   7   2 -13    0.51    0.18
  -6  -2  13    5.92    0.77
   6  -2 -13    7.90    0.61
  -6  -2  13    5.30    0.78
   6  -2 -13    6.93    0.85
   6   2 -13    7.20    0.81
  -6   2  13    6.19    0.79
   6   2 -13    6.68    0.55
   5  -2 -13    0.14    0.49
   5  -2 -13    0.50    0.25
  -5  -2  13    0.72    0.49
   5   2 -13    0.93    0.48
   5   2 -13    0.28    0.20
  -5   2  13    1.73    0.53
   4  -2 -13    0.70    0.25
   4  -2 -13    0.53    0.49
  -4  -2  13    0.73    0.54
   4   2 -13    0.95    0.22
  -4   2  13    0.12    0.44
   4   2 -13    0.50    0.49
   3  -2 -13   10.11    1.08
  -3  -2  13    9.34    1.05
   3  -2 -13   11.29    0.89
   3   2 -13   11.42    0.87
  -3   2  13    9.43    1.06
   3   2 -13   13.67    1.03
   2  -2 -13    0.20    0.24
  -2  -2  13    0.27    0.47
   2  -2 -13   -0.04    0.53
  -2   2  13    0.18    0.47
   2   2 -13    0.08    0.23
   2   2 -13    0.01    0.39
   1  -2 -13    0.60    0.56
  -1  -2  13    1.02    0.50
   1  -2 -13    0.94    0.28
   1   2 -13    1.09    0.27
  -1   2  13    0.64    0.44
   1   2 -13    1.14    0.42
   0  -2 -13    9.11    0.92
   0  -2 -13    7.77    0.72
   0  -2  13    7.70    0.91
   0   2 -13    8.06    0.70
   0   2  13    6.90    0.81
   0   2 -13    7.98    0.83
  -1  -2 -13   -0.05    0.30
  -1  -2 -13    0.16    0.48
   1  -2  13    0.33    0.55
   1   2  13    0.19    0.43
  -1   2 -13    0.02    0.27
  -1   2 -13    0.08    0.41
   2  -2  13    0.40    0.53
  -2  -2 -13    0.33    0.53
  -2  -2 -13    0.52    0.34
   2   2  13   -0.01    0.42
  -2   2 -13    0.49    0.31
  -2   2 -13    0.20    0.47
  -3  -2 -13    3.21    0.72
   3  -2  13    4.06    0.69
  -3  -2 -13    3.08    0.48
  -3   2 -13    3.71    0.57
  -3   2 -13    3.43    0.47
   3   2  13    2.44    0.58
  -4  -2 -13   -0.10    0.64
  -4  -2 -13    0.01    0.41
   4  -2  13   -0.17    0.64
  -4   2 -13   -0.16    0.49
   4   2  13    0.27    0.50
   4   2  13    0.24    0.20
  -4   2 -13    0.10    0.38
   6  -3 -13    0.00    0.29
  -6  -3  13    0.45    0.62
  -6  -3  13   -0.24    0.54
   6  -3 -13   -0.01    0.57
   6  -3 -13    0.23    0.59
  -6   3  13   -0.20    0.51
   6   3 -13    0.29    0.24
   6   3 -13   -0.29    0.57
  -5  -3  13    3.31    0.71
   5  -3 -13    2.52    0.37
   5  -3 -13    3.08    0.67
  -5   3  13    1.39    0.54
   5   3 -13    1.62    0.63
   5   3 -13    2.42    0.33
  -4  -3  13    0.07    0.59
   4  -3 -13    0.50    0.30
   4  -3 -13   -0.03    0.54
  -4   3  13    0.44    0.50
   4   3 -13    0.32    0.26
   4   3 -13    0.81    0.58
   3  -3 -13    0.01    0.29
  -3  -3  13    0.46    0.54
   3  -3 -13    0.54    0.54
   3   3 -13    0.23    0.27
  -3   3  13    0.34    0.54
   3   3 -13    0.45    0.49
   2  -3 -13    1.54    0.37
  -2  -3  13    2.57    0.62
   2  -3 -13    2.20    0.66
  -2   3  13    2.14    0.53
   2   3 -13    3.33    0.38
   2   3 -13    1.66    0.53
   1  -3 -13    2.57    0.62
   1  -3 -13    1.88    0.40
  -1  -3  13    1.32    0.59
   1   3 -13    3.04    0.38
  -1   3  13    2.45    0.56
   1   3 -13    3.41    0.55
   0  -3 -13    0.00    0.52
   0  -3 -13    0.18    0.32
   0  -3  13   -0.17    0.54
   0   3 -13   -0.12    0.31
   0   3  13    0.04    0.45
   0   3 -13   -0.27    0.49
   1  -3  13    0.14    0.56
  -1  -3 -13    0.00    0.53
  -1  -3 -13    0.13    0.35
  -1   3 -13    0.23    0.32
   1   3  13   -0.09    0.47
  -1   3 -13    0.57    0.48
   2  -3  13    2.31    0.67
  -2  -3 -13    2.58    0.46
  -2  -3 -13    2.84    0.72
  -2   3 -13    2.24    0.43
  -2   3 -13    4.01    0.60
   2   3  13    2.72    0.63
   3  -4 -13    4.99    0.82
  -3  -4  13    5.46    0.82
   3  -4 -13    4.39    0.54
  -3   4  13    4.46    0.77
   3   4 -13    3.58    0.71
   3   4 -13    4.12    0.49
   2  -4 -13   -0.11    0.62
  -2  -4  13   -0.40    0.60
   2  -4 -13   -0.41    0.36
   2   4 -13    0.17    0.56
   2   4 -13    0.07    0.33
  -2   4  13    0.31    0.59
   1  -4 -13    0.63    0.40
  -1  -4  13    0.33    0.64
   1  -4 -13    0.59    0.62
   1   4 -13    0.63    0.36
   1   4 -13   -0.19    0.51
  -1   4  13    0.77    0.55
   6   0 -14    4.60    0.42
  -6   0  14    4.72    0.77
   6   0 -14    4.05    0.78
  -5   0  14    0.19    0.53
  -5   0  14    0.18    0.51
   5   0 -14    0.53    0.55
   5   0 -14    0.23    0.19
   4   0 -14   -0.06    0.52
   4   0 -14    0.24    0.20
  -4   0  14    0.23    0.45
  -4   0  14    0.52    0.52
  -3   0  14    4.68    0.75
  -3   0  14    6.10    0.70
   3   0 -14    6.38    0.80
   3   0 -14    5.84    0.53
  -2   0  14   -0.15    0.48
   2   0 -14    0.27    0.52
  -2   0  14    0.32    0.51
   2   0 -14    0.17    0.23
  -1   0  14    0.45    0.45
  -1   0  14    0.97    0.54
   1   0 -14    1.24    0.53
   1   0 -14    1.22    0.27
   0   0  14    5.88    0.75
   0   0 -14    6.76    0.60
   0   0 -14    6.26    0.81
   0   0  14    5.39    0.79
  -1   0 -14    1.10    0.57
   1   0  14    0.70    0.50
   1   0  14    1.96    0.58
  -1   0 -14    0.81    0.31
  -2   0 -14    0.80    0.58
   2   0  14    0.93    0.48
   2   0  14    0.13    0.57
  -2   0 -14    0.38    0.33
   6  -1 -14    0.18    0.22
   6  -1 -14   -0.38    0.62
  -6  -1  14   -0.10    0.51
   6   1 -14    0.06    0.15
  -6   1  14   -0.08    0.50
   6   1 -14    0.21    0.54
   5  -1 -14    2.83    0.64
  -5  -1  14    3.32    0.69
   5  -1 -14    3.51    0.37
  -5   1  14    2.68    0.63
   5   1 -14    3.43    0.33
   5   1 -14    4.07    0.72
  -4  -1  14    0.99    0.52
   4  -1 -14    1.07    0.55
   4  -1 -14    1.19    0.25
   4   1 -14    1.05    0.23
   4   1 -14    1.00    0.54
  -4   1  14    0.65    0.49
   3  -1 -14    0.68    0.52
   3  -1 -14    0.12    0.24
  -3  -1  14   -0.12    0.47
   3   1 -14    0.09    0.22
  -3   1  14    0.18    0.51
   3   1 -14    0.42    0.50
  -2  -1  14    0.50    0.50
   2  -1 -14    0.31    0.25
   2  -1 -14    0.47    0.56
   2   1 -14    0.07    0.49
   2   1 -14    0.15    0.24
  -2   1  14   -0.57    0.49
  -1  -1  14    4.34    0.74
   1  -1 -14    4.85    0.50
   1  -1 -14    4.98    0.76
   1   1 -14    4.91    0.48
  -1   1  14    4.57    0.65
   1   1 -14    5.19    0.66
   1   1 -14    4.82    0.75
   0  -1 -14    0.63    0.58
   0  -1 -14    0.07    0.30
   0  -1  14   -0.24    0.49
   0   1 -14    0.14    0.27
   0   1  14    0.17    0.49
   0   1 -14    0.43    0.50
   0   1 -14    0.10    0.48
   0   1  14    0.38    0.52
   1  -1  14    0.61    0.57
  -1  -1 -14   -0.09    0.31
  -1  -1 -14    0.16    0.51
  -1   1 -14   -0.15    0.56
   1   1  14    0.00    0.46
  -1   1 -14    0.08    0.30
  -1   1 -14   -0.26    0.47
   2  -1  14    9.82    0.98
   2  -1  14    6.71    0.86
  -2  -1 -14    7.52    0.93
  -2  -1 -14    8.99    0.79
  -2   1 -14    7.59    0.93
  -2   1 -14    8.95    0.78
   2   1  14    6.54    0.83
  -2   1 -14    7.79    0.88
   5  -2 -14    0.07    0.59
  -5  -2  14   -0.05    0.58
   5  -2 -14   -0.05    0.28
   5   2 -14   -0.12    0.63
  -5   2  14   -0.15    0.49
   5   2 -14    0.06    0.22
   5   2 -14    0.67    0.62
   4  -2 -14    0.72    0.59
  -4  -2  14    0.22    0.54
   4  -2 -14    0.30    0.29
   4   2 -14   -0.15    0.58
  -4   2  14    0.43    0.50
   4   2 -14    0.29    0.24
   3  -2 -14    4.81    0.75
  -3  -2  14    3.55    0.72
   3  -2 -14    3.87    0.45
   3   2 -14    4.22    0.62
  -3   2  14    3.48    0.66
   3   2 -14    4.25    0.42
   2  -2 -14    0.10    0.61
  -2  -2  14    0.08    0.59
   2  -2 -14   -0.01    0.28
   2   2 -14    0.01    0.26
  -2   2  14   -0.23    0.46
   2   2 -14    0.18    0.46
  -1  -2  14    0.53    0.54
   1  -2 -14    0.09    0.62
   1  -2 -14    0.07    0.29
  -1   2  14    0.05    0.47
   1   2 -14    0.32    0.47
   1   2 -14    0.43    0.28
   0  -2 -14    4.80    0.76
   0  -2 -14    4.04    0.49
   0  -2  14    4.06    0.77
   0   2 -14    3.69    0.47
   0   2 -14    4.82    0.65
   0   2  14    3.85    0.67
  -1  -2 -14    0.16    0.65
  -1  -2 -14    0.91    0.37
   1  -2  14    1.25    0.63
  -1   2 -14    1.67    0.36
   1   2  14    0.51    0.49
  -1   2 -14    0.33    0.49
   0   0   0    0.00    0.00
;
_shelx_hkl_checksum              48169
_shelx_res_file
;
    JTM585_0m.res created by SHELXL-2014/7
TITL JTM585_0m_a.res in P2(1)/m
REM Old TITL JTM585_0m in P2(1)/m
REM SHELXT solution in P2(1)/m
REM R1 0.172,  Rweak 0.009,  Alpha 0.057,  Orientation as input
REM Formula found by SHELXT:  C15 N5 Br2
CELL  0.71073  11.0395   6.4734  11.1397   90.000   98.889   90.000
ZERR    4.000   0.0012   0.0007   0.0012    0.000    0.001    0.000
LATT  1
SYMM -X, 1/2+Y, -Z
SFAC C H N Br
UNIT 28 24 12 4
TEMP -123
SIZE 0.064 0.172 0.183
L.S. 5
BOND $H
LIST 4
FMAP 2
PLAN 5
HTAB N2 N4
HTAB C3 N5
EQIV $1 x-1, y, z
HTAB N6 N1_$1
HTAB C10 N3_$1
CONF
ACTA 56.6
WGHT    0.052100
FVAR       0.10781
BR1   4    0.647144    0.250000    0.959457    10.50000    0.04645    0.09741 =
         0.02214    0.00000    0.01081    0.00000
N1    3    0.841298    0.250000    0.673189    10.50000    0.01952    0.02896 =
         0.02790    0.00000    0.00266    0.00000
N2    3    0.564704    0.250000    0.472504    10.50000    0.01840    0.03242 =
         0.02235    0.00000    0.00344    0.00000
AFIX   3
H2    2    0.482537    0.250000    0.445756    10.50000   -1.50000
AFIX   0
N3    3    0.765088    0.250000    0.457819    10.50000    0.02424    0.02915 =
         0.02572    0.00000    0.00879    0.00000
C1    1    0.652578    0.250000    0.398762    10.50000    0.02313    0.02549 =
         0.02794    0.00000    0.00910    0.00000
C2    1    0.624673    0.250000    0.589402    10.50000    0.02049    0.02523 =
         0.02491    0.00000    0.00307    0.00000
C3    1    0.588280    0.250000    0.702736    10.50000    0.02248    0.03195 =
         0.02804    0.00000    0.00532    0.00000
AFIX  43
H3    2    0.504640    0.250000    0.713729    10.50000   -1.20000
AFIX   0
C4    1    0.683770    0.250000    0.798364    10.50000    0.02936    0.03926 =
         0.02287    0.00000    0.00769    0.00000
C5    1    0.806230    0.250000    0.781789    10.50000    0.02820    0.03388 =
         0.03002    0.00000    0.00253    0.00000
AFIX  43
H5    2    0.867631    0.250000    0.851678    10.50000   -1.20000
AFIX   0
C6    1    0.751541    0.250000    0.578223    10.50000    0.02168    0.02043 =
         0.02597    0.00000    0.00722    0.00000
C7    1    0.618531    0.250000    0.264214    10.50000    0.03131    0.04224 =
         0.02114    0.00000    0.00403    0.00000
AFIX 137
H7A   2    0.686931    0.304249    0.227144    10.50000   -1.50000
H7B   2    0.546117    0.337207    0.241117    10.50000   -1.50000
H7C   2    0.600119    0.108543    0.235758    10.50000   -1.50000
AFIX   0
BR2   4    0.028400    0.250000    0.117971    10.50000    0.03706    0.05735 =
         0.02975    0.00000   -0.00230    0.00000
N4    3    0.304650    0.250000    0.412346    10.50000    0.01988    0.02584 =
         0.03167    0.00000    0.00770    0.00000
N5    3    0.288616    0.250000    0.626664    10.50000    0.02110    0.02851 =
         0.02975    0.00000    0.00538    0.00000
N6    3    0.082404    0.250000    0.605541    10.50000    0.02008    0.03110 =
         0.03065    0.00000    0.00688    0.00000
AFIX   3
H6    2    0.006216    0.250000    0.627166    10.50000   -1.50000
AFIX   0
C8    1    0.190861    0.250000    0.682968    10.50000    0.02407    0.02737 =
         0.03337    0.00000    0.00582    0.00000
C9    1    0.111010    0.250000    0.489663    10.50000    0.01929    0.02336 =
         0.03076    0.00000    0.00796    0.00000
C10   1    0.040814    0.250000    0.375448    10.50000    0.02002    0.02360 =
         0.03635    0.00000    0.00283    0.00000
AFIX  43
H10   2   -0.046284    0.250000    0.362670    10.50000   -1.20000
AFIX   0
C11   1    0.109887    0.250000    0.281259    10.50000    0.02518    0.02583 =
         0.02938    0.00000    0.00139    0.00000
C12   1    0.238005    0.250000    0.301596    10.50000    0.02493    0.02433 =
         0.02769    0.00000    0.00702    0.00000
AFIX  43
H12   2    0.279797    0.250000    0.233173    10.50000   -1.20000
AFIX   0
C13   1    0.240098    0.250000    0.505244    10.50000    0.02120    0.02302 =
         0.02739    0.00000    0.00326    0.00000
C14   1    0.195225    0.250000    0.816404    10.50000    0.03855    0.04746 =
         0.02975    0.00000    0.00569    0.00000
AFIX 137
H14A  2    0.172859    0.387205    0.843024    10.50000   -1.50000
H14B  2    0.278341    0.215457    0.855853    10.50000   -1.50000
H14C  2    0.137367    0.147338    0.838707    10.50000   -1.50000
REM #####
AFIX   0
HKLF 4
REM  JTM585_0m_a.res in P2(1)/m
REM R1 =  0.0348 for    1578 Fo > 4sig(Fo)  and  0.0524 for all    2117 data
REM    135 parameters refined using      0 restraints
END
WGHT      0.0521      0.0000
REM Highest difference peak  0.709,  deepest hole -0.366,  1-sigma level  0.086
Q1    1   0.6186  0.1184  0.9370  11.00000  0.05    0.71
Q2    1   0.2884  0.2500  0.8064  10.50000  0.05    0.70
Q3    1   0.0306  0.0890  0.1216  11.00000  0.05    0.63
Q4    1   0.0014  0.2500  0.1720  10.50000  0.05    0.53
Q5    1   0.6862  0.2500  0.6033  10.50000  0.05    0.45
;
_shelx_res_checksum              67553
loop_
_space_group_symop_operation_xyz
'x, y, z'
'-x, y+1/2, -z'
'-x, -y, -z'
'x, -y-1/2, z'
loop_
_atom_site_type_symbol
_atom_site_label
_atom_site_fract_x
_atom_site_fract_y
_atom_site_fract_z
_atom_site_U_iso_or_equiv
_atom_site_adp_type
_atom_site_calc_flag
_atom_site_occupancy
Br Br1 0.64714(4) 0.2500 0.95946(3) 0.05475(17) Uani d 1
N N1 0.8413(2) 0.2500 0.6732(2) 0.0256(6) Uani d 1
N N2 0.5647(2) 0.2500 0.4725(2) 0.0244(6) Uani d 1
H H2 0.4825 0.2500 0.4458 0.037 Uiso d 1
N N3 0.7651(2) 0.2500 0.4578(2) 0.0258(6) Uani d 1
C C1 0.6526(3) 0.2500 0.3988(3) 0.0250(7) Uani d 1
C C2 0.6247(3) 0.2500 0.5894(3) 0.0236(7) Uani d 1
C C3 0.5883(3) 0.2500 0.7027(3) 0.0273(7) Uani d 1
H H3 0.5046 0.2500 0.7137 0.033 Uiso calc 1
C C4 0.6838(3) 0.2500 0.7984(3) 0.0301(7) Uani d 1
C C5 0.8062(3) 0.2500 0.7818(3) 0.0309(8) Uani d 1
H H5 0.8676 0.2500 0.8517 0.037 Uiso calc 1
C C6 0.7515(3) 0.2500 0.5782(3) 0.0223(6) Uani d 1
C C7 0.6185(3) 0.2500 0.2642(3) 0.0316(8) Uani d 1
H H7A 0.6869 0.3042 0.2271 0.047 Uiso calc 0.5
H H7B 0.5461 0.3372 0.2411 0.047 Uiso calc 0.5
H H7C 0.6001 0.1085 0.2358 0.047 Uiso calc 0.5
Br Br2 0.02840(4) 0.2500 0.11797(3) 0.04217(15) Uani d 1
N N4 0.3046(2) 0.2500 0.4123(2) 0.0254(6) Uani d 1
N N5 0.2886(2) 0.2500 0.6267(2) 0.0263(6) Uani d 1
N N6 0.0824(2) 0.2500 0.6055(2) 0.0270(6) Uani d 1
H H6 0.0062 0.2500 0.6272 0.040 Uiso d 1
C C8 0.1909(3) 0.2500 0.6830(3) 0.0281(7) Uani d 1
C C9 0.1110(3) 0.2500 0.4897(3) 0.0240(7) Uani d 1
C C10 0.0408(3) 0.2500 0.3754(3) 0.0268(7) Uani d 1
H H10 -0.0463 0.2500 0.3627 0.032 Uiso calc 1
C C11 0.1099(3) 0.2500 0.2813(3) 0.0271(7) Uani d 1
C C12 0.2380(3) 0.2500 0.3016(3) 0.0253(7) Uani d 1
H H12 0.2798 0.2500 0.2332 0.030 Uiso calc 1
C C13 0.2401(3) 0.2500 0.5052(3) 0.0239(7) Uani d 1
C C14 0.1952(3) 0.2500 0.8164(3) 0.0385(9) Uani d 1
H H14A 0.1729 0.3872 0.8430 0.058 Uiso calc 0.5
H H14B 0.2783 0.2155 0.8559 0.058 Uiso calc 0.5
H H14C 0.1374 0.1473 0.8387 0.058 Uiso calc 0.5
loop_
_atom_site_aniso_label
_atom_site_aniso_U_11
_atom_site_aniso_U_22
_atom_site_aniso_U_33
_atom_site_aniso_U_12
_atom_site_aniso_U_13
_atom_site_aniso_U_23
Br1 0.0464(3) 0.0974(4) 0.0221(2) 0.000 0.01081(17) 0.000
N1 0.0195(13) 0.0290(15) 0.0279(14) 0.000 0.0027(11) 0.000
N2 0.0184(13) 0.0324(15) 0.0224(13) 0.000 0.0034(10) 0.000
N3 0.0242(14) 0.0291(15) 0.0257(13) 0.000 0.0088(11) 0.000
C1 0.0231(16) 0.0255(17) 0.0279(17) 0.000 0.0091(13) 0.000
C2 0.0205(16) 0.0252(17) 0.0249(16) 0.000 0.0031(13) 0.000
C3 0.0225(16) 0.0320(19) 0.0280(17) 0.000 0.0053(13) 0.000
C4 0.0294(18) 0.039(2) 0.0229(16) 0.000 0.0077(14) 0.000
C5 0.0282(18) 0.034(2) 0.0300(17) 0.000 0.0025(14) 0.000
C6 0.0217(15) 0.0204(16) 0.0260(15) 0.000 0.0072(12) 0.000
C7 0.0313(18) 0.042(2) 0.0211(16) 0.000 0.0040(13) 0.000
Br2 0.0371(2) 0.0574(3) 0.0297(2) 0.000 -0.00230(15) 0.000
N4 0.0199(13) 0.0258(14) 0.0317(15) 0.000 0.0077(11) 0.000
N5 0.0211(14) 0.0285(15) 0.0298(14) 0.000 0.0054(11) 0.000
N6 0.0201(14) 0.0311(16) 0.0306(15) 0.000 0.0069(11) 0.000
C8 0.0241(17) 0.0274(18) 0.0334(18) 0.000 0.0058(14) 0.000
C9 0.0193(15) 0.0234(17) 0.0308(16) 0.000 0.0080(13) 0.000
C10 0.0200(15) 0.0236(17) 0.0364(19) 0.000 0.0028(14) 0.000
C11 0.0252(16) 0.0258(18) 0.0294(17) 0.000 0.0014(13) 0.000
C12 0.0249(16) 0.0243(17) 0.0277(16) 0.000 0.0070(13) 0.000
C13 0.0212(15) 0.0230(17) 0.0274(16) 0.000 0.0033(13) 0.000
C14 0.039(2) 0.047(2) 0.0298(18) 0.000 0.0057(16) 0.000
loop_
_atom_type_symbol
_atom_type_description
_atom_type_scat_dispersion_real
_atom_type_scat_dispersion_imag
_atom_type_scat_source
C C 0.0033 0.0016 'International Tables Vol C Tables 4.2.6.8 and 6.1.1.4'
H H 0.0000 0.0000 'International Tables Vol C Tables 4.2.6.8 and 6.1.1.4'
N N 0.0061 0.0033 'International Tables Vol C Tables 4.2.6.8 and 6.1.1.4'
Br Br -0.2901 2.4595 'International Tables Vol C Tables 4.2.6.8 and 6.1.1.4'
loop_
_geom_angle_atom_site_label_1
_geom_angle_atom_site_label_2
_geom_angle_atom_site_label_3
_geom_angle
C5 N1 C6 116.0(3)
C1 N2 C2 106.8(3)
C1 N2 H2 124.6
C2 N2 H2 128.6
C1 N3 C6 104.6(2)
N3 C1 N2 113.8(3)
N3 C1 C7 125.2(3)
N2 C1 C7 120.9(3)
N2 C2 C3 134.7(3)
N2 C2 C6 104.8(3)
C3 C2 C6 120.5(3)
C4 C3 C2 114.2(3)
C4 C3 H3 122.9
C2 C3 H3 122.9
C3 C4 C5 122.7(3)
C3 C4 Br1 118.8(2)
C5 C4 Br1 118.6(2)
N1 C5 C4 123.2(3)
N1 C5 H5 118.4
C4 C5 H5 118.4
N1 C6 N3 126.6(3)
N1 C6 C2 123.4(3)
N3 C6 C2 110.0(3)
C1 C7 H7A 109.5
C1 C7 H7B 109.5
H7A C7 H7B 109.5
C1 C7 H7C 109.5
H7A C7 H7C 109.5
H7B C7 H7C 109.5
C12 N4 C13 115.4(3)
C8 N5 C13 104.1(3)
C8 N6 C9 106.7(3)
C8 N6 H6 126.1
C9 N6 H6 127.2
N5 C8 N6 113.5(3)
N5 C8 C14 124.8(3)
N6 C8 C14 121.6(3)
N6 C9 C10 133.3(3)
N6 C9 C13 105.0(3)
C10 C9 C13 121.7(3)
C9 C10 C11 113.6(3)
C9 C10 H10 123.2
C11 C10 H10 123.2
C10 C11 C12 122.5(3)
C10 C11 Br2 119.3(2)
C12 C11 Br2 118.2(2)
N4 C12 C11 123.3(3)
N4 C12 H12 118.3
C11 C12 H12 118.3
N4 C13 N5 125.8(3)
N4 C13 C9 123.5(3)
N5 C13 C9 110.7(3)
C8 C14 H14A 109.5
C8 C14 H14B 109.5
H14A C14 H14B 109.5
C8 C14 H14C 109.5
H14A C14 H14C 109.5
H14B C14 H14C 109.5
loop_
_geom_bond_atom_site_label_1
_geom_bond_atom_site_label_2
_geom_bond_distance
Br1 C4 1.899(3)
N1 C5 1.326(4)
N1 C6 1.333(4)
N2 C1 1.365(4)
N2 C2 1.367(4)
N2 H2 0.9100
N3 C1 1.313(4)
N3 C6 1.372(4)
C1 C7 1.488(4)
C2 C3 1.383(4)
C2 C6 1.425(4)
C3 C4 1.378(5)
C3 H3 0.9500
C4 C5 1.392(4)
C5 H5 0.9500
C7 H7A 0.9800
C7 H7B 0.9800
C7 H7C 0.9800
Br2 C11 1.901(3)
N4 C12 1.335(4)
N4 C13 1.344(4)
N5 C8 1.329(4)
N5 C13 1.376(4)
N6 C8 1.363(4)
N6 C9 1.375(4)
N6 H6 0.9100
C8 C14 1.480(5)
C9 C10 1.384(4)
C9 C13 1.409(4)
C10 C11 1.389(4)
C10 H10 0.9500
C11 C12 1.397(4)
C12 H12 0.9500
C14 H14A 0.9800
C14 H14B 0.9800
C14 H14C 0.9800
loop_
_geom_hbond_atom_site_label_D
_geom_hbond_atom_site_label_H
_geom_hbond_atom_site_label_A
_geom_hbond_site_symmetry_A
_geom_hbond_distance_DH
_geom_hbond_distance_HA
_geom_hbond_distance_DA
_geom_hbond_angle_DHA
N2 H2 N4 . 0.91 1.94 2.845(4) 172.0
C3 H3 N5 . 0.95 2.43 3.286(4) 150
N6 H6 N1 1_455 0.91 1.97 2.876(4) 180
C10 H10 N3 1_455 0.95 2.48 3.312(4) 146
loop_
_geom_torsion_atom_site_label_1
_geom_torsion_atom_site_label_2
_geom_torsion_atom_site_label_3
_geom_torsion_atom_site_label_4
_geom_torsion
C6 N3 C1 N2 0.0000(10)
C6 N3 C1 C7 180.000000
C2 N2 C1 N3 0.0000(10)
C2 N2 C1 C7 180.000000
C1 N2 C2 C3 180.0000(10)
C1 N2 C2 C6 0.0000(10)
N2 C2 C3 C4 180.0000(10)
C6 C2 C3 C4 0.0000(10)
C2 C3 C4 C5 0.0000(10)
C2 C3 C4 Br1 180.0000(10)
C6 N1 C5 C4 0.0000(10)
C3 C4 C5 N1 0.0000(10)
Br1 C4 C5 N1 180.0000(10)
C5 N1 C6 N3 180.0000(10)
C5 N1 C6 C2 0.0000(10)
C1 N3 C6 N1 180.0000(10)
C1 N3 C6 C2 0.0000(10)
N2 C2 C6 N1 180.0000(10)
C3 C2 C6 N1 0.0000(10)
N2 C2 C6 N3 0.0000(10)
C3 C2 C6 N3 180.0000(10)
C13 N5 C8 N6 0.0000(10)
C13 N5 C8 C14 180.0000(10)
C9 N6 C8 N5 0.0000(10)
C9 N6 C8 C14 180.0000(10)
C8 N6 C9 C10 180.0000(10)
C8 N6 C9 C13 0.0000(10)
N6 C9 C10 C11 180.0000(10)
C13 C9 C10 C11 0.0000(10)
C9 C10 C11 C12 0.0000(10)
C9 C10 C11 Br2 180.000000
C13 N4 C12 C11 0.0000(10)
C10 C11 C12 N4 0.0000(10)
Br2 C11 C12 N4 180.000000
C12 N4 C13 N5 180.0000(10)
C12 N4 C13 C9 0.0000(10)
C8 N5 C13 N4 180.0000(10)
C8 N5 C13 C9 0.0000(10)
N6 C9 C13 N4 180.0000(10)
C10 C9 C13 N4 0.0000(10)
N6 C9 C13 N5 0.0000(10)
C10 C9 C13 N5 180.0000(10)

_cod_database_fobs_code 1543342
