#------------------------------------------------------------------------------
#$Date: 2016-04-30 05:07:25 +0300 (Sat, 30 Apr 2016) $
#$Revision: 182423 $
#$URL: svn://www.crystallography.net/cod/cif/1/54/32/1543224.cif $
#------------------------------------------------------------------------------
#
# This file is available in the Crystallography Open Database (COD),
# http://www.crystallography.net/. The original data for this entry
# were provided by IUCr Journals, http://journals.iucr.org/.
#
# The file may be used within the scientific community so long as
# proper attribution is given to the journal article from which the
# data were obtained.
#
data_1543224
loop_
_publ_author_name
'Juma, Rashid M.'
'Golen, James A.'
'Manke, David R.'
_publ_section_title
;
 4-Chloro-1<i>H</i>-indole-2,3-dione
;
_journal_coeditor_code           SJ4026
_journal_issue                   4
_journal_name_full               IUCrData
_journal_page_first              x160689
_journal_paper_doi               10.1107/S2414314616006891
_journal_volume                  1
_journal_year                    2016
_chemical_formula_iupac          'C8 H4 Cl N O2'
_chemical_formula_moiety         'C8 H4 Cl N O2'
_chemical_formula_sum            'C8 H4 Cl N O2'
_chemical_formula_weight         181.57
_chemical_name_systematic
;
4-Chloro-1<i>H</i>-indole-2,3-dione
;
_space_group_crystal_system      monoclinic
_space_group_IT_number           4
_space_group_name_Hall           'P 2yb'
_space_group_name_H-M_alt        'P 1 21 1'
_symmetry_space_group_name_Hall  'P 2yb'
_symmetry_space_group_name_H-M   'P 1 21 1'
_atom_sites_solution_hydrogens   mixed
_audit_creation_method
;
Olex2 1.2
(compiled 2016.02.19 svn.r3266 for OlexSys, GUI svn.r5155)
;
_cell_angle_alpha                90
_cell_angle_beta                 104.746(5)
_cell_angle_gamma                90
_cell_formula_units_Z            4
_cell_length_a                   8.2745(8)
_cell_length_b                   6.0367(6)
_cell_length_c                   14.8609(14)
_cell_measurement_reflns_used    6743
_cell_measurement_temperature    120(2)
_cell_measurement_theta_max      68.50
_cell_measurement_theta_min      3.08
_cell_volume                     717.86(12)
_computing_cell_refinement
;
SAINT (Bruker, 2014)
;
_computing_data_collection
;
APEX2 (Bruker, 2014)
;
_computing_data_reduction
;
SAINT (Bruker, 2014)
;
_computing_molecular_graphics
;
<i>OLEX2</i> (Dolomanov <i>et al.</i>,  2009)
;
_computing_publication_material
;
<i>OLEX2</i> (Dolomanov <i>et al.</i>,  2009) and publCIF (Westrip,
2010)
;
_computing_structure_refinement
;
SHELXL2014 (Sheldrick, 2015)
;
_computing_structure_solution
;
SHELXS97 (Sheldrick, 2008)
;
_diffrn_ambient_temperature      120.06
_diffrn_measured_fraction_theta_full 0.998
_diffrn_measured_fraction_theta_max 0.997
_diffrn_measurement_device_type  'Bruker CMOS'
_diffrn_measurement_method       '\f and \w scans'
_diffrn_radiation_monochromator  'HELIOS MX'
_diffrn_radiation_type           CuK\a
_diffrn_radiation_wavelength     1.54178
_diffrn_reflns_av_R_equivalents  0.0580
_diffrn_reflns_limit_h_max       9
_diffrn_reflns_limit_h_min       -9
_diffrn_reflns_limit_k_max       7
_diffrn_reflns_limit_k_min       -7
_diffrn_reflns_limit_l_max       17
_diffrn_reflns_limit_l_min       -17
_diffrn_reflns_number            9961
_diffrn_reflns_theta_full        68.000
_diffrn_reflns_theta_max         68.494
_diffrn_reflns_theta_min         3.075
_diffrn_standards_number         0
_exptl_absorpt_coefficient_mu    4.314
_exptl_absorpt_correction_T_max  0.3107
_exptl_absorpt_correction_T_min  0.2052
_exptl_absorpt_correction_type   multi-scan
_exptl_absorpt_process_details
;
(SADABS; Bruker, 2014)
;
_exptl_crystal_colour            orange
_exptl_crystal_density_diffrn    1.680
_exptl_crystal_description       block
_exptl_crystal_F_000             368
_exptl_crystal_size_max          0.25
_exptl_crystal_size_mid          0.04
_exptl_crystal_size_min          0.04
_refine_diff_density_max         0.579
_refine_diff_density_min         -0.269
_refine_ls_abs_structure_details
;
 Refined as an inversion twin.
;
_refine_ls_abs_structure_Flack   0.11(3)
_refine_ls_extinction_method     none
_refine_ls_goodness_of_fit_ref   1.037
_refine_ls_hydrogen_treatment    mixed
_refine_ls_matrix_type           full
_refine_ls_number_parameters     224
_refine_ls_number_reflns         2579
_refine_ls_number_restraints     3
_refine_ls_restrained_S_all      1.036
_refine_ls_R_factor_all          0.0423
_refine_ls_R_factor_gt           0.0379
_refine_ls_shift/su_max          0.000
_refine_ls_shift/su_mean         0.000
_refine_ls_structure_factor_coef Fsqd
_refine_ls_weighting_details
'w=1/[\s^2^(Fo^2^)+(0.0531P)^2^+0.1710P] where P=(Fo^2^+2Fc^2^)/3'
_refine_ls_weighting_scheme      calc
_refine_ls_wR_factor_gt          0.0923
_refine_ls_wR_factor_ref         0.0959
_reflns_number_gt                2388
_reflns_number_total             2579
_reflns_threshold_expression     'I > 2\s(I)'
_cod_data_source_file            sj4026sup1.cif
_cod_data_source_block           I
_cod_database_code               1543224
_shelx_space_group_comment
;
The symmetry employed for this shelxl refinement is uniquely defined
by the following loop, which should always be used as a source of
symmetry information in preference to the above space-group names.
They are only intended as comments.
;
_shelx_hkl_file
;
  -1   0   0 1057.29   72.99
  -1   0   0 1071.59   72.99
   1   0   0 1127.99   73.09
   1   0   0 1084.89   73.09
  -2   0   0  243.48   20.20
   2   0   0  287.57   19.10
   2   0   0  277.57   19.30
   2   0   0  238.48   18.80
  -2   0   0  279.17   19.10
  -3   0   0  128.89   11.60
  -3   0   0  121.99   13.20
   3   0   0  122.99   11.20
   3   0   0  120.19   10.60
   3   0   0  143.59   13.40
  -4   0   0   23.70    5.80
   4   0   0   22.30    4.60
  -4   0   0   14.20    6.10
   4   0   0    8.20    6.50
  -5   0   0  126.19   12.90
  -5   0   0  143.69   17.10
   5   0   0  128.19   12.60
  -5   0   0  125.89   11.40
  -6   0   0    9.40    5.80
  -6   0   0   -4.90    9.50
  -6   0   0   10.90   12.30
  -6   0   0    0.70    4.00
  -7   0   0   58.69   10.00
   7   0   0   53.39   20.50
  -7   0   0   40.20    7.90
  -7   0   0   72.29   15.40
  -7   0   0   35.20   10.10
  -8   0   0  388.46   27.90
  -8   0   0  347.87   26.90
  -8   0   0  363.16   28.80
  -8   0   0  303.17   38.40
   8   0   0  350.56   40.20
  -9   0   0  750.82   52.99
  -9   0   0  753.22   52.39
   0  -1   0   -9.00    1.20
   0  -1   0   -6.50    2.50
   0   1   0   -8.70    2.20
  -1   1   0  625.34   42.00
  -1   1   0  631.04   42.00
  -1   1   0  671.53   42.00
  -1   1   0  640.54   41.90
   1   1   0  559.44   41.40
   1   1   0  571.74   41.40
   2  -1   0 1049.49   75.79
   2  -1   0 1010.40   75.49
   2  -1   0 1045.30   75.79
   2   1   0 1244.68   75.39
  -2   1   0 1228.78   75.89
   3  -1   0 2898.51  192.48
   3  -1   0 2623.74  191.98
   3  -1   0 2951.20  192.58
   3  -1   0 2839.32  191.78
  -3  -1   0 2757.72  191.28
  -3   1   0 2743.63  191.58
  -3   1   0 3187.58  192.58
  -3   1   0 2753.42  192.08
   3   1   0 2903.11  191.98
  -4  -1   0  185.68   12.70
   4  -1   0  167.78   14.40
   4  -1   0  134.19   18.00
   4  -1   0  150.88   17.60
   4  -1   0  181.68   18.20
  -4   1   0  155.68   16.10
  -4   1   0  146.69   15.20
  -4   1   0  164.88   13.80
   4   1   0  144.79   16.50
   5  -1   0  127.19   14.00
   5  -1   0  143.59   20.10
  -5  -1   0  137.29   13.50
  -5  -1   0  132.39   11.70
   5  -1   0   92.49   21.10
  -5   1   0  133.59   12.80
  -5   1   0  141.59   16.60
  -5   1   0  144.39   14.00
  -5   1   0  155.98   17.50
  -6  -1   0  341.47   29.40
  -6  -1   0  308.17   22.50
  -6  -1   0  321.57   21.80
   6  -1   0  312.07   33.50
   6  -1   0  300.07   23.50
  -6   1   0  247.48   22.60
   6   1   0  302.27   39.50
  -6   1   0  231.98   27.60
  -6   1   0  236.78   22.90
   7  -1   0  362.56   37.80
  -7  -1   0  352.06   28.50
  -7  -1   0  364.06   32.40
  -7  -1   0  405.86   28.70
  -7   1   0  400.26   32.50
  -7   1   0  353.06   32.50
  -7   1   0  398.06   30.80
   7   1   0  462.45   44.10
  -7   1   0  378.06   28.90
  -8  -1   0   26.90    6.50
  -8  -1   0   20.60    5.60
  -8  -1   0   14.00    8.00
  -8   1   0   39.70   14.80
  -9  -1   0   84.79   10.70
  -9  -1   0   94.79   11.80
  -9  -1   0   67.79   10.70
  -9   1   0  103.89   12.40
   9   1   0  119.59   21.60
   0  -2   0 5360.96  355.46
   0  -2   0 5343.37  354.86
   0  -2   0 4851.71  354.76
   0   2   0 5611.54  355.56
   1  -2   0 1520.45   98.89
  -1  -2   0 1368.36   99.09
   1  -2   0 1566.34   98.99
  -1   2   0 1397.46   99.19
  -2  -2   0  340.47   26.00
   2  -2   0  378.56   26.20
   2  -2   0  305.07   26.50
   2  -2   0  366.76   26.30
   2  -2   0  348.67   25.50
  -2   2   0  391.56   26.30
  -2   2   0  372.66   25.40
  -3  -2   0 1316.27   95.29
  -3  -2   0 1240.68   93.79
   3  -2   0 1299.17   95.19
   3  -2   0 1527.05   96.19
   3  -2   0 1501.35   94.69
   3  -2   0 1417.26   95.19
   3  -2   0 1469.25   95.99
  -3   2   0 1378.56   94.79
  -3   2   0 1410.16   95.39
   4  -2   0   46.80    9.00
  -4  -2   0   36.10    5.70
   4  -2   0   27.80    6.70
   4  -2   0   42.30    6.80
   4  -2   0   53.89   15.00
  -4   2   0   52.89   13.10
   4   2   0   44.10    8.80
  -4   2   0   46.90    7.30
  -5  -2   0  496.75   35.10
   5  -2   0  482.15   40.40
   5  -2   0  494.05   36.00
  -5  -2   0  468.95   33.90
   5  -2   0  452.25   36.20
   5  -2   0  490.85   36.60
  -5   2   0  460.65   40.10
  -5   2   0  533.95   41.00
  -5   2   0  529.75   36.10
  -5   2   0  459.75   42.30
   5   2   0  467.05   49.00
   6  -2   0  184.28   22.40
   6  -2   0  163.38   24.80
  -6  -2   0  160.38   32.40
  -6  -2   0  162.98   16.00
  -6   2   0  214.08   19.80
   6   2   0  224.48   35.00
  -6   2   0  193.48   23.00
   7  -2   0  540.05   41.90
   7  -2   0  570.34   40.10
  -7  -2   0  478.25   41.00
  -7  -2   0  453.55   36.70
  -7  -2   0  476.55   37.30
   7   2   0  528.25   46.40
  -7   2   0  565.14   40.40
  -7   2   0  522.05   40.50
   8  -2   0  356.36   34.30
  -8  -2   0  399.16   29.00
  -8  -2   0  345.87   31.20
  -8  -2   0  387.16   28.70
  -8   2   0  407.16   31.90
   8   2   0  431.66   39.80
  -8   2   0  445.86   36.10
  -9  -2   0  259.17   20.10
  -9  -2   0  248.38   19.10
  -9   2   0  257.67   20.90
   9   2   0  235.68   24.10
   0  -3   0    0.90    8.00
   0   3   0   -6.60    7.40
  -1  -3   0  845.32   64.19
   1  -3   0  997.00   63.19
   1  -3   0  967.10   62.59
   1  -3   0  918.61   63.29
  -1   3   0  866.21   64.19
   2  -3   0  345.77   23.50
   2  -3   0  348.77   25.90
   2  -3   0  316.47   25.60
   2  -3   0  337.47   26.30
  -2  -3   0  284.57   26.80
  -2   3   0  273.47   26.60
   3  -3   0  905.81   66.39
   3  -3   0 1041.30   64.49
   3  -3   0 1012.10   64.99
  -3   3   0  910.31   63.79
  -3   3   0  950.40   68.99
   3   3   0  905.71   85.19
  -3   3   0  813.92   68.19
   4  -3   0   76.69   14.80
   4  -3   0   61.49   14.10
  -4  -3   0   68.39    7.20
   4  -3   0   58.29    9.70
   4  -3   0   66.39   13.00
  -4   3   0   64.99   15.40
  -4   3   0   62.09   15.20
  -4   3   0   47.30   10.40
   4   3   0   40.80   21.00
  -5  -3   0  149.99   12.20
   5  -3   0  139.29   15.80
   5  -3   0  144.79   17.20
   5  -3   0  130.19   23.30
   5  -3   0  144.39   18.30
  -5   3   0  175.08   27.60
  -5   3   0  150.98   15.50
   5   3   0  171.28   32.80
  -5   3   0  137.79   22.10
  -6  -3   0  100.39   12.00
   6  -3   0  124.49   18.70
   6  -3   0  108.59   16.30
   6  -3   0  124.19   21.60
  -6  -3   0   97.49   10.80
  -6   3   0  117.49   16.10
   6   3   0   83.69   20.20
  -6   3   0  106.09   20.70
  -7  -3   0  121.29   12.70
   7  -3   0  148.89   19.50
   7  -3   0  132.79   21.50
  -7  -3   0  123.29   12.00
  -7   3   0   98.69   21.00
   7   3   0  150.18   26.80
  -7   3   0  116.59   21.80
  -7   3   0  100.89   20.10
  -8  -3   0   74.99   10.50
  -8  -3   0   67.99    9.30
   8  -3   0   92.79   14.20
  -8   3   0  111.79   19.60
   0  -4   0 3918.21  271.77
   0   4   0 4313.47  275.67
   0   4   0 3917.91  275.57
  -1   4   0  582.54   47.60
   1   4   0  544.85   48.10
  -1   4   0  653.63   49.00
   2  -4   0  688.93   45.10
   2  -4   0  650.83   43.70
   2   4   0  499.85   64.59
  -2   4   0  588.44   48.30
  -2   4   0  635.84   49.60
   3  -4   0   42.10   16.80
   3  -4   0   33.00    8.10
   3  -4   0   29.80    6.20
  -3   4   0   32.40   13.20
   3   4   0   29.30   23.00
  -3   4   0   11.90   12.10
   3   4   0   20.10   17.90
   4  -4   0  377.26   28.70
   4  -4   0  388.36   29.00
   4  -4   0  376.76   34.20
  -4   4   0  378.86   33.20
   4   4   0  300.77   40.50
   5  -4   0   91.29   14.90
   5  -4   0  108.39   16.30
  -5  -4   0  111.69   11.70
  -5   4   0  119.29   20.10
   6  -4   0   41.90   10.70
   6  -4   0   51.79   10.20
   6  -4   0   36.80   12.20
  -6  -4   0   43.20    6.40
   6  -4   0   58.79   17.20
   6   4   0   24.70   13.50
  -7  -4   0   39.40    7.10
  -7  -4   0   28.00    6.30
   7  -4   0   44.10    9.40
   7   4   0   23.70   12.20
  -7   4   0   10.10    9.90
   8  -4   0  313.67   23.90
   8   4   0  288.97   25.80
   0  -5   0    7.00    5.90
   0   5   0   17.50   13.30
   1  -5   0 1059.19   68.39
   1  -5   0  940.81   66.99
  -1   5   0 1035.00   71.29
  -1   5   0  953.60   70.49
   1   5   0  859.11   70.29
   2  -5   0  198.68   20.30
   2  -5   0  202.48   18.40
   2   5   0  158.78   32.00
   2   5   0  256.77   26.70
  -2   5   0  250.67   26.60
   3  -5   0  443.66   41.80
   3  -5   0  458.65   33.60
   3  -5   0  446.56   34.20
   3   5   0  406.56   40.50
   3   5   0  409.96   51.89
  -3   5   0  544.45   38.90
   4  -5   0   43.60   13.30
   4  -5   0   25.20    9.00
   4  -5   0   29.40    7.30
   4   5   0   25.20   18.00
   5  -5   0  103.89   14.50
   5  -5   0   93.49   14.90
   5   5   0  110.49   20.40
  -5   5   0  110.49   18.00
   6  -5   0   55.49   14.90
   6  -5   0   68.59   14.00
  -6   5   0   70.19   13.90
   6   5   0   72.49   15.80
   7  -5   0  106.89   12.60
   7   5   0  101.39   15.30
   0  -6   0   92.79   15.20
   0   6   0  150.98   18.90
   1   6   0  104.29   19.10
  -1   6   0  144.99   19.40
   2  -6   0  282.37   23.70
   2  -6   0  259.27   22.30
   2   6   0  307.27   29.30
   3  -6   0  102.99   12.80
   3  -6   0   93.19   12.90
   4  -6   0   18.80    6.80
   4  -6   0   19.80    5.90
   4  -6   0   24.40   11.80
   4   6   0  -20.80   23.00
   5  -6   0   66.19   10.10
   5  -6   0   78.89   14.80
   0   7   0   23.00    9.00
   1   7   0  208.38   20.00
  -1   7   0  190.88   18.20
   2  -7   0   39.10    8.70
  -9   0   1  494.45   38.10
   9   0  -1  578.14   45.70
  -9   0   1  512.45   37.40
  -8   0   1   17.20   15.70
  -8   0   1   44.80    8.50
  -8   0   1   21.00    8.80
   8   0  -1   24.00   17.60
  -8   0   1   25.30    6.30
  -7   0   1   -7.10    8.60
  -7   0   1    2.80    5.90
  -7   0   1   11.00    6.30
  -7   0   1   15.90   12.10
  -6   0   1   18.20    9.40
  -6   0   1   -4.60    4.10
  -6   0   1    1.20    9.90
  -6   0   1   -3.20    5.60
  -5   0   1  751.62   49.00
  -5   0   1  657.73   50.89
  -5   0   1  778.82   48.60
   5   0  -1  621.04   48.70
   4   0  -1  667.93   46.20
   4   0  -1  601.74   44.70
  -4   0   1  661.03   45.00
  -4   0   1  650.53   46.10
  -3   0   1 1395.16   97.09
   3   0  -1 1545.25   96.89
  -3   0   1 1537.55   96.19
  -3   0   1 1464.95   96.69
   3   0  -1 1374.06   96.79
   3   0  -1 1240.38   96.29
   2   0  -1    8.10    2.70
  -2   0   1   12.20    4.20
   2   0  -1   10.10    3.50
  -2   0   1   11.30    3.20
   2   0  -1   13.70    3.40
   1   0  -1   71.09    6.30
  -1   0   1   70.29    6.30
   0   0   1    4.50    1.50
   0   0  -1    6.10    1.90
  -1   0  -1 1135.89   78.19
   1   0   1 1205.08   78.29
   1   0   1 1133.89   78.19
   2   0   1   98.79    8.90
   2   0   1   74.19    8.00
  -2   0  -1   83.59    8.50
   2   0   1   81.99    8.10
  -2   0  -1   72.09   11.10
   3   0   1   28.90    4.40
  -3   0  -1   14.90    4.80
  -3   0  -1   20.00    5.90
   3   0   1   24.80    5.00
   4   0   1 1907.51  132.99
   4   0   1 2037.00  134.49
  -4   0  -1 2162.78  134.39
  -4   0  -1 1856.31  132.89
  -4   0  -1 1908.31  133.99
   4   0   1 2014.20  134.39
  -4   0  -1 1892.61  132.59
   5   0   1  496.05   34.30
  -5   0  -1  541.65   34.10
  -5   0  -1  487.65   36.90
  -5   0  -1  469.45   39.70
  -5   0  -1  399.06   34.30
  -6   0  -1 1525.65   97.79
  -6   0  -1 1366.06  100.19
  -6   0  -1 1474.35   97.99
   6   0   1 1423.36  106.79
  -6   0  -1 1372.96   99.89
  -7   0  -1   78.59   14.60
  -7   0  -1   51.59   10.20
  -7   0  -1   81.39   12.50
  -7   0  -1   55.59   10.30
   7   0   1   59.49   23.10
  -8   0  -1  255.37   24.00
   8   0   1  275.47   45.40
  -8   0  -1  264.57   24.50
  -8   0  -1  316.37   23.00
  -8   0  -1  341.27   36.50
  -9   0  -1   31.30    6.70
  -9   0  -1   19.50    7.70
  -9  -1   1   30.60    7.60
  -9  -1   1   26.30    5.50
  -9  -1   1   34.90    6.30
   9   1  -1   25.60   12.90
  -9   1   1   22.60    6.80
  -8  -1   1  397.46   29.30
  -8  -1   1  392.56   29.40
  -8  -1   1  369.76   31.50
   8  -1  -1  436.06   52.69
  -8   1   1  402.76   31.40
   8   1  -1  438.76   39.30
  -8   1   1  339.57   30.30
  -8   1   1  405.76   35.90
  -7  -1   1  116.69   12.50
  -7  -1   1   90.99   12.50
   7  -1  -1   95.09   18.00
  -7  -1   1   89.89   19.00
   7   1  -1  118.69   22.70
  -7   1   1  109.69   12.50
  -7   1   1  132.29   19.70
  -7   1   1  135.89   19.50
  -7   1   1   89.29   17.00
  -6  -1   1    6.10   11.50
  -6  -1   1   22.60    5.90
  -6  -1   1   12.80    4.10
   6  -1  -1   17.10   14.50
   6  -1  -1   24.40    6.90
  -6   1   1   16.80    8.10
  -6   1   1   20.90    6.20
  -6   1   1   21.40   10.90
  -6   1   1   26.00    6.70
  -5  -1   1   64.69    7.20
  -5  -1   1   60.99    9.30
   5  -1  -1   36.70   11.60
   5  -1  -1   73.09   16.90
   5  -1  -1   65.49   10.50
  -5   1   1   42.00    7.30
  -5   1   1   47.70   13.20
  -5   1   1   61.69    8.90
  -4  -1   1   93.99    8.60
   4  -1  -1   87.99   16.20
   4  -1  -1   89.29   15.00
   4  -1  -1   95.69   10.70
   4  -1  -1  111.79   13.50
  -4   1   1   85.29    9.60
  -4   1   1   95.79   12.20
  -4   1   1  101.99   12.40
   4   1  -1  106.59   13.00
   3  -1  -1 2469.05  191.28
   3  -1  -1 2851.21  191.18
  -3  -1   1 2846.92  190.38
   3  -1  -1 3153.08  191.78
   3  -1  -1 3133.79  190.98
  -3   1   1 2788.02  191.38
  -3   1   1 2713.73  191.18
  -3   1   1 2717.83  190.68
   3   1  -1 2905.01  191.08
   3   1  -1 2801.12  190.98
   2  -1  -1 5225.78  316.77
  -2  -1   1 4823.42  316.07
   2  -1  -1 4826.62  316.47
   2  -1  -1 5333.37  316.67
  -2   1   1 4531.75  316.47
   2   1  -1 4497.15  316.07
   2   1  -1 4347.06  316.17
  -2   1   1 4492.25  316.27
  -2   1   1 4350.26  316.37
  -1  -1   1  356.66   26.00
  -1  -1   1  372.16   26.30
   1  -1  -1  420.16   26.50
   1  -1  -1  382.16   26.50
   1  -1  -1  383.46   26.50
   0  -1  -1 3191.78  209.08
   0  -1   1 3055.49  209.18
   0  -1  -1 3277.47  209.38
   0   1   1 3234.58  209.28
   0   1   1 3076.09  209.08
   0   1  -1 2935.81  209.18
   0   1  -1 3064.29  209.18
   1  -1   1  970.60   61.59
  -1  -1  -1  815.92   61.09
   1  -1   1 1014.90   61.79
  -1   1  -1  905.91   61.59
   1   1   1  809.12   61.19
  -1   1  -1  937.51   61.69
   2  -1   1 1076.69   76.89
   2  -1   1 1068.69   77.09
   2  -1   1 1203.58   77.19
  -2  -1  -1 1125.39   76.69
   2  -1   1 1245.68   77.49
  -2   1  -1 1108.49   77.19
   2   1   1 1136.59   76.59
   2   1   1 1107.19   76.79
  -2   1  -1 1127.09   77.19
   3  -1   1 2834.92  181.78
   3  -1   1 2748.43  181.78
   3  -1   1 2538.35  181.18
  -3  -1  -1 2574.34  180.98
  -3  -1  -1 2656.83  180.38
   3  -1   1 2741.83  180.88
  -3   1  -1 2724.43  181.68
  -3   1  -1 2773.72  181.48
  -3   1  -1 2536.45  180.68
   3   1   1 2748.63  181.28
   4  -1   1  161.88   19.00
   4  -1   1  169.78   14.00
   4  -1   1  190.58   19.10
   4  -1   1  130.99   17.50
  -4  -1  -1  180.38   15.00
  -4  -1  -1  172.38   12.40
  -4   1  -1  127.19   15.50
  -4   1  -1  144.79   13.60
  -4   1  -1  144.89   14.50
   4   1   1  151.18   17.00
  -4   1  -1  141.69   19.00
   5  -1   1  354.46   27.30
  -5  -1  -1  355.36   25.30
  -5  -1  -1  269.37   46.70
  -5  -1  -1  345.67   26.00
   5  -1   1  355.86   36.40
  -5   1  -1  370.06   26.40
  -5   1  -1  329.47   28.40
  -5   1  -1  334.57   31.90
   5   1   1  371.56   46.80
  -5   1  -1  358.96   26.10
  -6  -1  -1  329.97   24.20
  -6  -1  -1  355.56   30.70
  -6  -1  -1  349.96   23.40
   6  -1   1  341.77   25.10
   6  -1   1  284.17   34.20
  -6   1  -1  271.57   24.00
   6   1   1  296.07   41.30
  -6   1  -1  246.28   28.30
  -6   1  -1  268.07   24.40
  -6   1  -1  314.87   27.40
  -7  -1  -1 1117.79   78.29
   7  -1   1 1016.40   82.59
  -7  -1  -1 1037.40   79.99
  -7  -1  -1 1129.89   78.39
  -7   1  -1 1247.98   81.69
  -7   1  -1 1188.98   80.39
  -7   1  -1 1236.88   78.69
   7   1   1 1167.08   85.29
  -7   1  -1 1108.09   79.19
  -8  -1  -1   13.10    8.50
  -8  -1  -1   11.50    5.30
  -8  -1  -1   21.10    6.90
  -8   1  -1   13.70   16.00
   8   1   1    7.80   17.80
  -8   1  -1   14.40    7.30
  -8   1  -1   12.90    9.70
  -9  -1  -1  228.38   19.10
  -9  -1  -1  236.18   18.40
   9   1   1  184.98   28.00
  -9   1  -1  272.17   19.30
  -9  -2   1  430.66   30.00
  -9  -2   1  395.46   30.40
  -9  -2   1  425.76   30.80
   9   2  -1  421.66   34.20
  -8  -2   1   73.99    9.80
   8  -2  -1   61.69   14.60
  -8  -2   1   72.19   10.10
  -8  -2   1   74.99   16.00
  -8   2   1   52.39   14.10
   8   2  -1   31.70   17.80
  -7  -2   1  124.49   12.50
   7  -2  -1  144.79   23.50
  -7  -2   1  146.89   13.40
  -7  -2   1  115.09   21.40
   7  -2  -1  115.99   18.10
  -7   2   1  145.89   20.40
  -7   2   1  134.99   23.30
   7   2  -1  134.39   30.40
  -7   2   1  138.79   19.00
  -6  -2   1   64.99   10.30
  -6  -2   1   65.99    8.50
   6  -2  -1   73.59   14.00
   6  -2  -1   54.09   11.50
   6  -2  -1   63.99   13.50
  -6   2   1   54.99   12.30
  -6   2   1   61.69   13.60
   6   2  -1   71.09   20.00
  -6   2   1   64.79   14.80
   5  -2  -1  115.39   15.40
   5  -2  -1   89.19   14.20
  -5  -2   1  104.59    9.50
   5  -2  -1   92.69   15.20
   5  -2  -1  108.59   16.40
   5   2  -1  143.69   25.00
  -5   2   1  135.99   24.70
  -5   2   1   92.59   24.40
  -5   2   1  138.29   14.10
   4  -2  -1  627.84   49.90
  -4  -2   1  645.14   51.39
   4  -2  -1  730.13   50.29
   4  -2  -1  683.83   52.69
   4  -2  -1  798.52   49.60
  -4   2   1  693.23   51.29
   4   2  -1  684.33   49.90
  -4   2   1  819.52   50.09
  -3  -2   1 1097.89   80.69
   3  -2  -1 1298.57   81.99
   3  -2  -1 1116.19   80.89
   3  -2  -1 1177.58   80.99
   3  -2  -1 1275.77   81.89
  -3   2   1 1210.98   81.19
  -3   2   1 1116.49   80.59
   3   2  -1 1175.68   79.89
   2  -2  -1   84.39    9.80
  -2  -2   1   92.29    9.30
   2  -2  -1   81.29   11.20
   2  -2  -1   83.19    9.10
   2  -2  -1   94.09    9.50
  -2   2   1   97.19    9.80
  -2   2   1   95.89    8.90
  -2   2   1   94.49    9.30
   1  -2  -1  819.72   59.59
  -1  -2   1  866.51   59.49
   1  -2  -1  919.41   59.39
   1  -2  -1  895.61   59.39
  -1   2   1  861.11   59.29
  -1   2   1  870.71   59.79
   0  -2  -1 2381.36  152.38
   0  -2   1 2244.38  151.58
   0  -2  -1 2314.57  151.48
   0  -2   1 2172.38  152.08
   0  -2   1 1916.41  151.68
   0  -2  -1 2097.59  151.48
   0   2   1 2405.06  152.28
   0   2  -1 2538.95  152.28
   1  -2   1 1182.68   76.29
   1  -2   1 1313.97   76.69
   1  -2   1 1211.48   76.79
  -1  -2  -1 1055.19   76.79
  -1   2  -1 1227.88   76.59
  -1   2  -1 1128.39   76.79
  -1   2  -1  958.90   75.79
  -1   2  -1  948.41   76.69
   2  -2   1   95.99   12.10
   2  -2   1  121.99   11.00
   2  -2   1  116.69   11.40
  -2  -2  -1   93.79   11.50
  -2   2  -1   96.89   11.10
  -2   2  -1  103.09   10.00
  -2   2  -1  106.69   10.70
   3  -2   1   -8.20    4.40
   3  -2   1    2.90    8.20
   3  -2   1    9.10    6.00
   3  -2   1   -7.50    7.30
   3  -2   1    1.50    8.10
  -3   2  -1   -2.00    5.20
   3   2   1   -5.50    3.80
  -3   2  -1    4.10    8.40
   3   2   1    0.60    4.60
  -3   2  -1   -6.20    7.90
   4  -2   1  114.99   23.30
   4  -2   1  127.39   13.30
   4  -2   1  130.89   15.40
   4  -2   1  114.39   14.30
   4  -2   1  145.99   24.70
  -4  -2  -1  123.39   10.60
  -4   2  -1  155.58   13.90
   4   2   1  173.98   39.10
  -4   2  -1  156.58   18.90
   4   2   1  122.29   16.80
   5  -2   1  690.03   55.69
   5  -2   1  666.13   52.19
   5  -2   1  713.83   51.99
  -5  -2  -1  709.63   50.39
  -5  -2  -1  718.33   51.29
   5  -2   1  712.83   52.39
  -5   2  -1  824.82   52.59
  -5   2  -1  732.43   57.99
   5   2   1  785.52   63.49
  -5   2  -1  797.12   54.89
  -6  -2  -1 1035.30   68.29
  -6  -2  -1  981.70   67.99
   6  -2   1 1009.20   69.79
   6  -2   1  965.20   71.89
  -6  -2  -1  969.00   72.69
   6   2   1 1000.20   77.09
  -6   2  -1  839.12   73.59
  -6   2  -1 1137.39   71.39
  -6   2  -1  956.80   69.69
  -7  -2  -1  173.28   14.90
  -7  -2  -1  139.79   21.50
   7  -2   1  165.58   23.50
  -7  -2  -1  155.58   16.00
   7  -2   1  174.98   20.60
  -7   2  -1  186.98   19.80
  -7   2  -1  171.98   21.30
   7   2   1  161.68   30.40
  -8  -2  -1   31.50    7.40
   8  -2   1   -6.90   12.70
  -8  -2  -1   16.60    6.20
  -8  -2  -1   18.90    4.80
  -8   2  -1    2.10    8.40
   8   2   1   19.90   13.10
  -9  -2  -1   51.19    7.50
  -9  -2  -1   44.20    7.50
  -8  -3   1  281.57   21.30
  -8  -3   1  276.87   21.10
   8  -3  -1  312.57   25.40
  -8   3   1  278.07   26.90
   8   3  -1  240.18   27.40
  -7  -3   1   96.29   11.30
   7  -3  -1  100.09   20.30
  -7  -3   1   77.09   10.20
   7  -3  -1   88.79   18.90
   7   3  -1   94.09   19.00
  -7   3   1   85.59   18.50
  -7   3   1  110.19   15.20
  -7   3   1   89.79   18.60
   6  -3  -1   25.70    8.90
  -6  -3   1   18.90    4.90
   6  -3  -1   11.60   10.60
   6  -3  -1    0.20   10.60
   6  -3  -1   17.70   11.30
  -6  -3   1   32.10    6.30
  -6   3   1   10.40   11.30
  -6   3   1   34.20    9.60
  -6   3   1   38.00   12.00
   6   3  -1   14.20   17.00
   5  -3  -1  354.56   33.20
   5  -3  -1  362.26   26.80
   5  -3  -1  335.47   27.20
  -5  -3   1  339.77   24.50
   5  -3  -1  315.17   29.30
  -5   3   1  358.86   36.00
  -5   3   1  388.76   33.70
  -5   3   1  345.87   27.00
  -5   3   1  312.87   32.70
   4  -3  -1   41.20   14.40
   4  -3  -1   41.40    8.80
   4  -3  -1   37.10    9.00
  -4  -3   1   42.90    5.30
  -4   3   1   58.59   16.30
  -4   3   1   34.10   13.60
   4   3  -1   32.20   23.30
  -4   3   1   51.69    7.80
   3  -3  -1  475.45   37.30
   3  -3  -1  487.35   35.90
   3  -3  -1  514.45   34.90
  -3   3   1  506.55   39.20
  -3   3   1  530.15   34.40
  -3   3   1  432.16   40.90
   2  -3  -1 1471.45  102.49
  -2  -3   1 1306.87  103.59
   2  -3  -1 1460.55  103.29
   2  -3  -1 1539.95  103.99
   2  -3  -1 1572.64  103.79
  -2   3   1 1744.93  104.49
   1  -3  -1 1312.67   81.59
   1  -3  -1 1257.37   81.59
  -1  -3   1 1121.39   82.19
   1  -3  -1 1195.78   80.89
  -1   3   1 1090.79   82.49
   0  -3  -1   83.09   13.00
   0  -3   1   83.79    6.40
   0  -3   1   70.69    6.40
   0   3  -1   68.89   11.60
   1  -3   1  427.66   32.30
   1  -3   1  504.95   32.10
  -1  -3  -1  371.06   34.30
   1  -3   1  446.46   31.30
  -1   3  -1  471.45   33.90
   2  -3   1  762.82   55.49
   2  -3   1  837.62   53.79
   2  -3   1  725.53   54.69
   2  -3   1  794.12   55.99
  -2   3  -1  784.72   56.09
   3  -3   1  482.05   38.20
   3  -3   1  528.65   35.50
   3  -3   1  486.05   36.20
  -3   3  -1  523.95   35.20
   3   3   1  466.15   52.69
  -3   3  -1  488.95   42.20
   4  -3   1  464.95   35.60
   4  -3   1  528.05   34.80
   4  -3   1  470.85   37.00
   4  -3   1  469.05   40.70
  -4  -3  -1  475.25   33.20
   4   3   1  455.55   48.80
  -4   3  -1  492.75   40.60
  -4   3  -1  512.25   34.90
   4   3   1  409.06   47.60
   5  -3   1  385.66   29.00
   5  -3   1  385.66   29.00
  -5  -3  -1  347.97   26.00
   5  -3   1  379.16   33.90
   5  -3   1  366.86   30.30
   5   3   1  322.77   40.60
  -5   3  -1  380.86   28.70
  -5   3  -1  333.37   32.50
  -6  -3  -1  248.58   18.80
   6  -3   1  247.18   27.10
   6  -3   1  234.78   24.70
   6  -3   1  243.18   22.90
  -6  -3  -1  215.98   19.80
   6  -3   1  261.67   27.10
   7  -3   1  702.83   50.79
  -7  -3  -1  665.63   47.60
   7  -3   1  705.23   51.69
  -7  -3  -1  726.83   47.50
  -7   3  -1  634.94   51.79
  -7   3  -1  660.73   52.59
   7   3   1  663.83   54.79
  -7   3  -1  666.63   50.69
  -8  -3  -1   25.50    5.50
   8  -3   1   36.20   10.10
  -8  -3  -1   42.80    6.60
   8   3   1   23.80   11.20
  -8  -4   1   66.39    9.80
   8   4  -1   76.89   15.60
   7  -4  -1   17.30    8.80
  -7  -4   1   35.60    6.90
  -7  -4   1   28.20    5.80
  -7   4   1   25.30   10.80
   7   4  -1   36.70   14.20
   6  -4  -1  105.19   15.70
   6  -4  -1   73.89   14.00
  -6  -4   1   70.09    9.80
   6  -4  -1   54.89   15.70
   6   4  -1   87.29   18.40
  -6   4   1   81.69   16.80
   5  -4  -1  340.57   27.90
   5  -4  -1  381.66   33.30
  -5  -4   1  352.76   25.70
   5  -4  -1  328.37   35.80
   5  -4  -1  346.67   27.70
  -5   4   1  310.17   31.50
  -5   4   1  414.26   33.20
   4  -4  -1  132.19   24.10
   4  -4  -1  117.29   14.60
   4  -4  -1   87.89   15.10
   4   4  -1  147.79   34.90
  -4   4   1  145.59   21.10
   3  -4  -1  154.58   15.60
   3  -4  -1  112.39   19.20
   3  -4  -1  132.39   13.00
   3   4  -1  124.99   26.50
   2  -4  -1   52.59    9.10
   2  -4  -1   51.39    9.40
   2   4  -1   40.40   19.20
  -2   4   1   66.79   15.30
   2   4  -1   20.90   33.90
  -2   4   1   56.09   15.90
   1  -4  -1   56.99    8.50
  -1   4   1   62.69   19.50
   1   4  -1   53.99   19.00
  -1   4   1   31.70   15.10
   0   4  -1   16.60   14.80
   0   4  -1   20.60   15.50
   0   4   1   31.70   14.60
   0   4   1   20.00   23.50
   1  -4   1  112.29   17.50
   1  -4   1  122.29   12.00
  -1   4  -1  128.49   23.30
   1   4   1  149.99   35.30
   1   4   1  115.19   20.60
  -1   4  -1  141.59   25.80
   2  -4   1   31.60    5.70
  -2   4  -1   30.10   13.70
   2   4   1   29.20   23.70
  -2   4  -1   56.19   14.20
   2   4   1   39.70   17.10
   3  -4   1   90.79   10.90
   3  -4   1   87.49   17.10
   3  -4   1   67.19   10.00
   3   4   1  149.99   34.00
  -3   4  -1   95.49   20.70
   3   4   1   79.29   20.30
   4  -4   1  245.98   22.10
   4  -4   1  265.37   22.30
   4  -4   1  257.77   29.80
  -4   4  -1  271.77   27.50
   4   4   1  211.88   32.80
   4   4   1  289.27   37.30
  -4   4  -1  312.07   27.00
   5  -4   1  367.86   32.50
   5  -4   1  445.46   37.50
  -5  -4  -1  413.56   30.60
   5  -4   1  424.36   33.00
   5  -4   1  420.86   39.60
  -5   4  -1  459.65   35.80
   5   4   1  451.65   42.80
   6  -4   1  230.18   24.20
   6  -4   1  228.18   28.90
   6  -4   1  193.58   23.00
   6  -4   1  204.18   20.10
  -6  -4  -1  198.68   17.40
  -6   4  -1  228.28   23.90
   6   4   1  210.48   29.20
  -7  -4  -1   24.70    6.50
  -7  -4  -1    7.60    6.70
   7  -4   1   12.80    7.80
   7   4   1    8.40    9.40
   7  -5  -1   57.59   10.10
   7   5  -1   40.30   11.90
   6  -5  -1   38.10    8.40
   6  -5  -1   27.40   11.90
   6  -5  -1   33.70    8.60
   6   5  -1   59.99   15.00
  -6   5   1   53.99   10.60
   5  -5  -1   17.60    7.20
   5  -5  -1   21.90    8.70
   5  -5  -1   44.90   13.30
   5   5  -1   32.90   19.60
  -5   5   1   22.90   11.00
  -5   5   1   24.80   11.10
   4  -5  -1   18.10   12.60
   4  -5  -1   21.50    8.30
   4  -5  -1   16.90    6.10
  -4   5   1   30.70   11.70
   4   5  -1  -11.20   17.10
   3  -5  -1  722.53   52.49
   3  -5  -1  779.02   58.59
   3  -5  -1  795.32   53.49
  -3   5   1  805.22   56.79
   3   5  -1  625.94   69.79
  -3   5   1  720.23   55.99
   2  -5  -1  618.74   40.60
   2  -5  -1  595.64   39.50
  -2   5   1  551.44   45.10
  -2   5   1  510.75   43.90
   2   5  -1  459.95   44.80
   1  -5  -1   74.09   12.50
  -1   5   1   85.19   20.20
   1   5  -1   62.89   16.00
  -1   5   1   65.19   15.40
   0  -5  -1  194.58   16.70
   0  -5   1  202.18   16.30
   0   5   1  162.68   22.70
   0   5  -1  181.38   23.30
   1  -5   1  167.38   17.10
   1  -5   1  178.68   20.10
   1   5   1  189.48   24.70
   1   5   1  154.98   43.90
  -1   5  -1  209.28   23.70
   2  -5   1   16.20    6.40
   2  -5   1   10.70    7.60
   2   5   1   17.10   21.80
  -2   5  -1   24.70   12.60
  -2   5  -1   22.20   12.30
   2   5   1   11.10   12.20
   3  -5   1  921.11   62.89
   3  -5   1  922.41   63.29
   3  -5   1  931.11   68.69
   3   5   1  800.12   72.89
  -3   5  -1  917.51   66.09
   4  -5   1   32.60    7.70
   4  -5   1   17.80    7.90
   4  -5   1   37.80   12.40
   4   5   1   24.70   14.40
   4   5   1   41.10   17.10
  -4   5  -1   38.70   10.60
   5  -5   1    8.00   11.10
   5  -5   1   16.30    9.40
   5  -5   1   10.70    7.60
   5   5   1    9.70   16.70
  -5   5  -1   26.60   13.20
  -5   5  -1    8.90   11.50
   6  -5   1  239.78   19.50
   6  -5   1  186.98   18.20
   6   5   1  193.78   25.80
   5  -6  -1   11.30    6.50
   5  -6  -1   15.10    9.70
   5  -6  -1    3.30   13.30
  -5   6   1   20.90    7.60
   4  -6  -1   50.49   13.00
   4  -6  -1   60.89    8.80
   4  -6  -1   52.59   10.70
   3  -6  -1   97.09   12.80
   3  -6  -1   96.29   12.70
   2  -6  -1   79.29   14.60
   2  -6  -1   89.59   12.40
   2   6  -1  110.69   22.60
   1  -6  -1  184.68   22.50
   1  -6  -1  185.48   19.00
  -1   6   1  269.27   24.10
   1   6  -1  247.08   24.10
   0  -6   1   97.89   14.10
   0  -6  -1   88.79   15.20
   0   6  -1  130.69   18.70
   0   6   1  113.09   18.20
   1  -6   1  346.47   28.00
   1  -6   1  352.56   30.30
   1   6   1  423.56   32.40
   2  -6   1   60.99   11.00
   2   6   1   70.89   15.30
   3  -6   1   27.60    7.10
   3  -6   1   38.30    7.30
   3   6   1   25.10   20.00
  -3   6  -1   29.10   10.60
   4  -6   1  169.38   20.50
   4  -6   1  140.09   15.20
   4  -6   1  136.29   14.70
   4   6   1  131.69   30.60
   5  -6   1   69.09   11.10
   5  -6   1   60.49   10.40
   5   6   1   67.09   14.50
   2  -7  -1   64.79    9.20
   1   7  -1  196.28   24.40
  -1   7   1  274.97   22.00
   0   7   1  183.68   19.10
   0   7  -1  230.78   20.20
   1  -7   1    6.90   11.50
   1   7   1    3.10    8.70
  -2   7  -1  128.39   14.40
   9   0  -2  157.08   24.40
  -9   0   2  121.59   14.30
  -9   0   2  118.99   12.70
  -9   0   2   95.69   15.80
  -8   0   2  259.07   23.20
  -8   0   2  232.48   21.30
   8   0  -2  277.97   34.00
  -8   0   2  179.88   30.20
  -7   0   2  276.37   25.40
  -7   0   2  251.67   21.00
  -7   0   2  243.88   21.60
  -7   0   2  249.58   27.10
  -6   0   2   26.30    5.50
  -6   0   2   12.40   10.90
  -6   0   2   19.50    6.20
  -6   0   2   34.90   11.60
  -5   0   2 3169.18  232.08
  -5   0   2 3544.85  231.08
  -5   0   2 3583.54  230.88
  -4   0   2  343.37   26.80
   4   0  -2  350.86   25.00
   4   0  -2  332.27   26.90
  -4   0   2  340.87   26.00
   3   0  -2    2.40    4.00
  -3   0   2    3.60    4.60
   3   0  -2    7.20    3.70
  -3   0   2    3.00    2.70
  -3   0   2    7.60    4.10
   3   0  -2    3.50    4.20
   2   0  -2 6703.13  455.45
  -2   0   2 6354.36  455.65
   2   0  -2 7234.28  455.75
  -2   0   2 6896.61  455.65
   1   0  -2 1107.89   73.09
  -1   0   2 1055.69   73.09
   0   0  -2 2642.34  176.48
   0   0   2 2606.54  176.48
   1   0   2  334.87   24.30
  -1   0  -2  346.47   24.30
   1   0   2  357.16   24.40
  -1   0  -2  347.07   25.10
  -2   0  -2 1586.64  105.29
   2   0   2 1685.03  105.99
   2   0   2 1459.35  105.49
  -2   0  -2 1491.85  106.09
  -2   0  -2 1595.94  105.79
  -3   0  -2  839.42   56.99
   3   0   2  760.02   56.19
   3   0   2  877.71   56.99
  -3   0  -2  806.82   57.39
  -4   0  -2   89.39    8.90
  -4   0  -2   80.19   13.70
  -4   0  -2   88.09   12.80
   4   0   2  105.09   16.00
   4   0   2   87.69    9.40
  -4   0  -2   75.59   10.60
   4   0   2   85.79   16.40
  -5   0  -2  543.75   38.50
  -5   0  -2  513.45   41.50
  -5   0  -2  556.94   38.00
  -5   0  -2  546.75   43.10
   5   0   2  535.85   38.40
  -6   0  -2   88.99   18.40
  -6   0  -2  115.69   12.80
  -6   0  -2  134.79   20.90
   6   0   2  107.09   27.50
  -6   0  -2  111.59   12.70
  -7   0  -2  450.35   41.90
  -7   0  -2  477.25   37.20
   7   0   2  515.25   51.49
  -7   0  -2  446.46   34.30
  -7   0  -2  461.05   34.20
  -8   0  -2    4.30    5.40
  -8   0  -2    8.70    7.40
  -8   0  -2   15.10    8.30
  -9   0  -2   32.60    6.60
  -9  -1   2  246.18   21.80
  -9  -1   2  257.57   19.80
  -9  -1   2  259.47   21.60
  -9   1   2  256.77   22.10
   9   1  -2  285.07   28.30
  -8  -1   2   54.09   10.40
  -8  -1   2   58.99   10.80
   8  -1  -2   79.59   21.00
  -8  -1   2   62.79   11.10
   8   1  -2   62.69   18.20
  -8   1   2   46.00    9.60
  -8   1   2   66.19    8.90
  -7  -1   2  151.28   14.40
  -7  -1   2  144.99   14.80
   7  -1  -2  172.88   27.90
  -7  -1   2  166.18   21.00
  -7   1   2  166.68   20.70
  -7   1   2  140.89   20.60
  -7   1   2  152.28   19.50
   7   1  -2  180.48   34.40
  -6  -1   2  238.38   17.80
   6  -1  -2  246.68   29.80
  -6  -1   2  251.57   26.70
   6  -1  -2  257.57   20.20
  -6  -1   2  258.37   19.30
  -6   1   2  198.28   19.20
  -6   1   2  224.28   24.20
  -6   1   2  196.98   19.40
  -6   1   2  235.58   32.70
  -6   1   2  227.28   21.60
   5  -1  -2  766.72   64.19
  -5  -1   2  878.51   62.09
   5  -1  -2  950.10   63.49
   5  -1  -2  868.51   67.69
  -5   1   2  975.80   62.99
  -5   1   2  919.51   66.29
  -5   1   2  868.51   62.49
  -5   1   2  973.40   64.29
  -5   1   2  990.80   64.09
   4  -1  -2  100.69   15.60
   4  -1  -2  107.59   16.10
   4  -1  -2  102.69   13.60
   4  -1  -2  108.39   11.00
  -4   1   2   98.59   12.40
  -4   1   2   97.99   12.10
   4   1  -2  106.79   12.60
  -4   1   2   97.29   11.00
  -4   1   2  103.39   12.00
  -4   1   2  112.19   10.30
   3  -1  -2  541.55   34.30
  -3  -1   2  536.25   34.00
  -3  -1   2  507.65   33.40
   3  -1  -2  509.95   34.90
   3  -1  -2  549.45   34.50
   3  -1  -2  568.74   35.30
   3   1  -2  409.46   34.00
  -3   1   2  447.06   34.50
  -3   1   2  490.75   34.50
  -3   1   2  440.46   33.90
  -3   1   2  444.26   34.00
   3   1  -2  418.86   33.90
   1  -1  -2  333.27   22.90
  -1  -1   2  288.97   22.30
  -1  -1   2  291.97   22.60
   1  -1  -2  325.67   23.10
  -1   1   2  334.27   23.00
  -1   1   2  333.67   22.80
   1   1  -2  363.16   22.50
   1   1  -2  326.77   22.90
  -1   1   2  351.76   23.00
   0  -1  -2  455.05   32.80
   0  -1  -2  476.05   32.60
   0  -1   2  462.25   32.70
   0   1  -2  497.55   32.60
   0   1   2  446.46   32.10
   0   1  -2  504.05   32.50
   0   1  -2  468.85   32.70
   0   1   2  498.85   32.60
   1  -1   2 1008.70   68.49
   1  -1   2 1028.40   68.39
  -1  -1  -2  961.90   67.79
  -1   1  -2 1054.09   68.39
   1   1   2  973.60   67.89
  -1   1  -2  990.70   68.19
  -2  -1  -2  442.66   29.90
   2  -1   2  419.96   30.30
   2  -1   2  458.75   30.60
   2  -1   2  416.76   30.50
   2  -1   2  477.25   31.10
  -2   1  -2  444.06   32.40
  -2   1  -2  396.66   30.60
  -2   1  -2  380.26   30.70
   3  -1   2 1170.08   87.19
   3  -1   2 1241.28   87.59
   3  -1   2 1211.88   86.39
   3  -1   2 1150.18   86.69
  -3  -1  -2 1220.98   85.89
  -3  -1  -2 1243.68   86.59
  -3   1  -2 1397.76   86.39
  -3   1  -2 1365.26   87.19
  -3   1  -2 1446.16   87.69
  -4  -1  -2  433.96   32.00
   4  -1   2  405.06   34.60
   4  -1   2  494.95   37.90
  -4  -1  -2  456.95   33.00
   4  -1   2  451.55   33.30
   4  -1   2  400.06   38.00
  -4   1  -2  471.05   32.60
  -4   1  -2  496.95   34.20
   4   1   2  437.06   35.50
  -4   1  -2  464.45   32.90
  -4   1  -2  557.44   42.30
  -5  -1  -2  153.28   13.00
  -5  -1  -2  139.99   14.30
   5  -1   2  168.98   15.10
  -5  -1  -2  137.79   25.90
   5  -1   2  141.49   20.80
  -5   1  -2  153.08   19.60
  -5   1  -2  149.39   14.40
  -5   1  -2  155.18   14.60
  -5   1  -2  133.09   21.20
   5   1   2  198.58   41.10
  -6  -1  -2  566.44   46.20
   6  -1   2  707.23   47.40
  -6  -1  -2  648.04   49.70
   6  -1   2  678.93   53.79
  -6  -1  -2  711.63   46.70
   6   1   2  664.03   57.29
  -6   1  -2  696.13   49.90
  -6   1  -2  611.54   49.30
  -6   1  -2  657.93   47.10
  -6   1  -2  649.43   46.60
  -7  -1  -2  322.17   27.50
  -7  -1  -2  299.97   24.10
   7  -1   2  305.87   35.40
  -7  -1  -2  277.37   23.70
  -7   1  -2  337.87   27.00
  -7   1  -2  291.27   27.10
  -7   1  -2  285.07   25.70
  -7   1  -2  340.77   29.20
   7   1   2  323.97   38.20
  -8  -1  -2   61.29   11.90
  -8  -1  -2   78.79   14.00
  -8  -1  -2   67.49   10.10
   8   1   2   65.49   17.00
  -8   1  -2   73.69   15.80
  -9  -1  -2  220.08   18.40
  -9  -1  -2  231.18   18.60
  -9   1  -2  258.97   19.20
  -9  -2   2   53.89   10.50
  -9  -2   2   14.70    6.70
  -9  -2   2   33.70    6.80
   9   2  -2   26.90   11.00
  -9   2   2   28.70    6.90
  -8  -2   2   61.49    9.80
  -8  -2   2   39.10   11.20
  -8  -2   2   65.59    9.30
   8  -2  -2   28.50   16.00
   8  -2  -2   59.99   15.40
  -8   2   2   82.39   15.70
  -8   2   2   81.69   15.50
   8   2  -2   64.89   16.40
  -7  -2   2   95.49   10.70
   7  -2  -2   69.99   15.90
  -7  -2   2   82.79    9.50
   7  -2  -2   71.79   13.70
  -7   2   2   59.79   11.40
  -7   2   2   60.49   11.90
   7   2  -2  101.69   20.80
  -7   2   2   43.40   15.60
   6  -2  -2  160.48   23.70
   6  -2  -2  126.89   16.50
  -6  -2   2  131.09   11.90
   6  -2  -2  138.49   19.50
  -6  -2   2  128.59   13.00
  -6   2   2  135.89   21.90
  -6   2   2  147.99   16.70
  -6   2   2  136.69   24.60
   6   2  -2  132.29   23.60
  -5  -2   2  716.83   52.89
   5  -2  -2  810.82   53.79
   5  -2  -2  719.43   57.79
  -5  -2   2  770.02   52.39
   5  -2  -2  812.72   54.89
   5  -2  -2  795.52   54.39
  -5   2   2  704.43   58.59
  -5   2   2  755.12   54.19
  -5   2   2  834.32   61.19
  -5   2   2  730.23   57.19
  -4  -2   2 1404.96  109.09
   4  -2  -2 1511.35  110.69
   4  -2  -2 1493.65  109.89
   4  -2  -2 1669.93  112.29
   4  -2  -2 1681.53  110.49
  -4   2   2 1762.82  111.39
   4   2  -2 1671.03  110.39
  -4   2   2 1785.62  110.59
   3  -2  -2  588.94   40.40
   3  -2  -2  613.24   39.70
   3  -2  -2  567.24   39.00
   3  -2  -2  589.64   39.80
  -3  -2   2  506.05   38.40
  -3  -2   2  461.15   37.40
  -3   2   2  556.34   38.70
  -3   2   2  547.85   39.20
   3   2  -2  526.75   37.80
   2  -2  -2 1272.47   84.39
  -2  -2   2 1194.28   84.39
   2  -2  -2 1073.19   84.79
   2  -2  -2 1321.17   84.99
   2  -2  -2 1390.56   85.29
  -2   2   2 1251.57   84.89
   2   2  -2 1135.49   83.79
  -2   2   2 1346.97   85.09
  -2   2   2 1238.48   84.39
   1  -2  -2  629.94   47.70
   1  -2  -2  720.03   47.30
  -1  -2   2  637.44   46.70
  -1  -2   2  673.83   47.20
   1  -2  -2  739.23   47.60
   1  -2  -2  739.33   47.30
  -1   2   2  725.83   47.30
   1   2  -2  666.83   47.30
  -1   2   2  724.33   47.80
   1   2  -2  649.74   46.80
   0  -2  -2  976.50   62.99
   0  -2  -2  941.01   63.89
   0  -2  -2  861.91   62.99
   0  -2   2  821.42   63.29
   0   2   2  973.10   63.09
   0   2  -2 1002.00   63.69
   0   2  -2  949.31   63.29
   1  -2   2  833.22   57.69
   1  -2   2  872.21   57.09
   1  -2   2  919.11   57.49
  -1  -2  -2  816.22   57.89
   1  -2   2  761.32   58.29
   1   2   2  789.02   56.49
  -1   2  -2  836.62   56.89
  -1   2  -2  875.21   57.59
  -1   2  -2  847.82   57.59
   2  -2   2  380.66   27.80
   2  -2   2  406.66   27.60
  -2  -2  -2  366.06   28.30
  -2   2  -2  359.86   27.60
  -2   2  -2  350.06   27.40
  -2   2  -2  358.76   26.60
  -3  -2  -2  299.57   22.70
   3  -2   2  295.47   25.20
   3  -2   2  323.77   27.40
   3  -2   2  320.67   25.10
   3  -2   2  303.97   27.80
   3  -2   2  326.57   24.00
  -3   2  -2  349.96   24.50
  -3   2  -2  339.77   26.40
  -3   2  -2  353.86   27.80
  -4  -2  -2 1233.38   79.09
   4  -2   2 1164.48   80.99
   4  -2   2 1201.38   83.99
  -4  -2  -2 1131.39   79.99
   4  -2   2 1220.28   79.99
   4  -2   2 1196.28   80.49
  -4   2  -2 1066.89   83.69
  -4   2  -2 1086.29   80.59
   4   2   2 1025.90   89.59
  -4   2  -2 1321.17   83.69
   5  -2   2  850.81   64.79
  -5  -2  -2  956.90   63.39
   5  -2   2  846.22   64.89
   5  -2   2  991.50   65.29
  -5  -2  -2  917.71   63.89
   5  -2   2  938.81   68.49
  -5   2  -2  900.31   69.99
  -5   2  -2  996.10   67.19
  -5   2  -2  942.31   64.99
   5   2   2  912.61   73.49
   6  -2   2   41.70   14.10
  -6  -2  -2   50.29    7.30
   6  -2   2   49.20    9.60
  -6  -2  -2   31.50   14.00
  -6  -2  -2   49.40    6.90
  -6   2  -2   51.89   11.00
   6   2   2   56.89   19.50
  -6   2  -2   52.09   11.70
   7  -2   2   -9.30   10.50
   7  -2   2    2.30    9.80
  -7  -2  -2    1.50    5.00
  -7  -2  -2    3.60    5.10
  -7  -2  -2   -7.80    8.80
   7  -2   2   13.00   16.00
   7   2   2    8.40   13.70
  -7   2  -2    4.50    8.40
   8  -2   2   -6.20   13.40
  -8  -2  -2    7.70    4.40
  -8  -2  -2    1.40    6.00
  -8  -2  -2   10.20    6.60
   8   2   2   -8.30   11.70
  -8   2  -2    3.30    8.40
   9  -3  -2   71.19   19.00
   9   3  -2   39.20   10.00
  -8  -3   2   52.79    8.70
   8  -3  -2   72.09   11.50
  -8  -3   2   51.29    7.00
  -8   3   2   63.39   15.20
   8   3  -2   46.90   13.60
  -7  -3   2   99.49   11.50
  -7  -3   2   96.69   10.40
   7  -3  -2  114.09   15.50
   7  -3  -2   89.09   19.10
  -7   3   2  104.49   18.30
  -7   3   2  115.29   13.80
  -7   3   2   86.29   17.70
   7   3  -2   78.99   17.00
   6  -3  -2  440.16   36.10
  -6  -3   2  484.35   33.90
   6  -3  -2  456.15   38.70
   6  -3  -2  476.75   39.40
  -6   3   2  472.35   36.40
  -6   3   2  522.75   40.30
   6   3  -2  476.05   46.90
  -6   3   2  523.45   40.40
   5  -3  -2  215.68   25.60
   5  -3  -2  233.88   21.70
  -5  -3   2  201.08   15.70
   5  -3  -2  190.08   18.80
   5  -3  -2  207.38   20.10
  -5   3   2  235.88   18.80
  -5   3   2  169.18   23.90
   5   3  -2  177.78   36.40
  -5   3   2  197.08   29.70
  -5   3   2  245.28   26.30
   4  -3  -2  185.28   25.80
   4  -3  -2  156.68   16.10
   4  -3  -2  157.98   14.50
  -4  -3   2  143.29   12.00
   4  -3  -2  149.59   18.60
  -4   3   2  120.99   24.50
   4   3  -2  184.28   30.70
  -4   3   2  170.68   24.20
  -4   3   2  149.79   24.40
  -4   3   2  141.79   15.30
   3  -3  -2  685.73   44.50
   3  -3  -2  693.33   43.50
   3  -3  -2  618.74   45.50
  -3   3   2  576.64   49.40
  -3   3   2  549.05   46.90
  -3   3   2  591.34   42.50
  -2  -3   2 2690.23  197.58
   2  -3  -2 2866.51  198.08
   2  -3  -2 2951.50  196.88
   2  -3  -2 2993.30  197.48
  -2   3   2 3131.89  198.48
   1  -3  -2  357.06   26.60
   1  -3  -2  410.56   27.50
   1  -3  -2  363.66   27.60
  -1   3   2  378.36   29.30
   0  -3   2  273.27   18.60
   0  -3   2  222.18   18.60
   0  -3   2  255.77   19.10
   0   3  -2  278.57   21.70
   1  -3   2  949.01   63.59
   1  -3   2  921.31   63.99
   1  -3   2  893.11   62.69
  -1   3  -2  919.61   64.49
   2  -3   2   43.70   12.50
   2  -3   2   31.80    5.40
   2  -3   2   39.00    7.80
  -2   3  -2   52.59   14.40
   3  -3   2 2075.89  134.29
   3  -3   2 2180.98  133.89
   3  -3   2 1923.71  137.49
   3  -3   2 1974.40  135.49
  -3   3  -2 1938.61  136.99
  -3   3  -2 2034.70  133.49
   3   3   2 1680.03  140.39
   4  -3   2  201.08   23.20
  -4  -3  -2  212.78   16.40
   4  -3   2  226.78   19.50
   4  -3   2  229.88   27.10
   4  -3   2  252.17   18.60
  -4   3  -2  201.78   18.70
  -4   3  -2  213.98   26.90
   4   3   2  181.58   36.10
   5  -3   2  226.48   20.90
   5  -3   2  247.08   27.60
  -5  -3  -2  221.48   20.00
  -5  -3  -2  222.48   17.90
   5  -3   2  232.38   23.10
   5  -3   2  224.68   22.90
  -5   3  -2  229.08   20.80
   5   3   2  243.28   34.00
   5   3   2  188.38   34.40
  -5   3  -2  249.48   26.40
  -5   3  -2  168.68   28.30
   6  -3   2  421.86   35.30
   6  -3   2  416.16   36.00
  -6  -3  -2  403.16   31.70
  -6  -3  -2  408.36   30.40
   6  -3   2  390.66   34.30
  -6   3  -2  432.66   36.60
   6   3   2  405.96   41.50
  -6   3  -2  483.15   34.30
  -6   3  -2  445.86   36.70
   7  -3   2  110.19   19.50
  -7  -3  -2  115.69   12.30
   7  -3   2  114.19   20.50
  -7  -3  -2  116.79   12.30
   7   3   2  135.99   27.30
  -7   3  -2  161.68   22.10
  -7   3  -2  135.99   24.60
  -8  -3  -2   39.20    5.80
  -8  -3  -2   31.30    6.70
   8   3   2   26.80    9.00
  -8  -4   2    6.50    5.30
   8  -4  -2    7.90    6.20
   8   4  -2   14.90    9.70
  -8   4   2    6.40    8.20
   7  -4  -2  -24.70   25.70
  -7  -4   2    5.00    6.20
   7  -4  -2   -0.50    9.30
   7  -4  -2   18.70   11.70
  -7  -4   2    6.80    5.30
   7   4  -2   12.70   13.40
  -7   4   2   15.40    8.20
   6  -4  -2   20.70    8.40
   6  -4  -2   11.70   15.30
  -6  -4   2   26.40    5.60
   6  -4  -2   13.80    9.70
   6  -4  -2   11.40    9.70
   6   4  -2   21.10   15.70
  -6   4   2   39.90   11.30
  -6   4   2   32.30   10.60
  -5  -4   2  949.40   66.79
   5  -4  -2  860.01   68.09
   5  -4  -2 1026.20   71.79
   5  -4  -2  913.71   73.19
   5  -4  -2 1033.50   68.69
   5   4  -2  999.30   77.69
  -5   4   2 1078.29   71.79
   4  -4  -2  560.74   40.90
   4  -4  -2  547.55   40.20
   4  -4  -2  552.24   45.40
  -4   4   2  569.24   45.10
  -4   4   2  592.14   44.60
   4   4  -2  488.05   55.69
   3  -4  -2 1015.10   70.09
   3  -4  -2 1101.09   71.09
   3  -4  -2 1100.49   76.69
  -3   4   2 1014.30   74.59
  -3   4   2 1018.90   74.49
   3   4  -2  836.72   84.39
   2  -4  -2  110.69   11.50
   2  -4  -2  115.89   15.50
  -2   4   2  122.59   21.60
  -2   4   2   95.79   21.00
  -2   4   2  153.88   25.60
   1  -4  -2  521.55   34.50
   1   4  -2  444.56   43.60
  -1   4   2  483.95   46.10
  -1   4   2  534.75   42.80
  -1   4   2  464.15   41.30
   0  -4  -2  267.57   21.50
   0  -4   2  315.67   21.90
   0   4   2  290.47   31.40
   0   4  -2  303.07   31.80
   0   4   2  251.57   41.50
   0   4   2  332.77   35.90
   1  -4   2  146.19   13.50
   1  -4   2  131.89   18.20
   1   4   2  165.18   33.00
  -1   4  -2  171.68   25.40
   1   4   2  156.78   25.70
  -1   4  -2  160.38   24.30
   2  -4   2  101.09   14.20
   2  -4   2  110.89   11.10
   2  -4   2   85.09   21.40
  -2   4  -2   94.09   21.80
   2   4   2   77.79   23.40
  -2   4  -2   88.99   22.00
   3  -4   2  280.57   31.70
   3  -4   2  256.37   20.70
   3  -4   2  229.78   21.30
   3   4   2  189.68   37.00
  -3   4  -2  249.18   26.30
  -3   4  -2  291.37   27.80
   4  -4   2  139.89   16.20
   4  -4   2  145.29   16.00
   4  -4   2  122.89   25.80
   4  -4   2  108.79   23.20
   4   4   2  192.18   32.20
   4   4   2  173.08   26.80
   5  -4   2  291.97   32.10
  -5  -4  -2  285.57   22.00
   5  -4   2  276.97   25.10
   5  -4   2  283.07   24.70
   5  -4   2  295.37   28.50
   5   4   2  262.17   34.50
  -5   4  -2  303.57   28.20
   6  -4   2  273.37   30.20
   6  -4   2  238.58   22.60
   6  -4   2  261.77   25.70
  -6  -4  -2  238.28   20.40
   6  -4   2  300.97   32.00
  -6  -4  -2  269.47   21.70
   6   4   2  285.67   31.60
  -7  -4  -2   25.70    6.40
   7  -4   2   -4.40    9.20
   7  -4   2    1.00    7.20
   7   4   2    9.20    9.30
   7  -5  -2   19.70    5.80
   7   5  -2   -0.10   11.80
  -7   5   2   24.70    8.30
   6  -5  -2  316.27   27.60
   6  -5  -2  334.97   28.50
   6  -5  -2  310.77   25.80
  -6   5   2  360.86   28.60
   6   5  -2  369.16   34.90
   5  -5  -2   79.09   13.20
   5  -5  -2   71.99   12.70
   5  -5  -2   64.39   12.90
  -5   5   2   66.29   15.70
   4  -5  -2   87.79   14.50
   4  -5  -2   76.59   14.10
   4  -5  -2  100.49   13.20
  -4   5   2  117.29   18.90
  -4   5   2  124.99   19.40
   4   5  -2  108.09   23.60
   3  -5  -2  100.39   18.30
   3  -5  -2   57.39   10.10
   3  -5  -2   72.79    9.30
  -3   5   2   84.89   19.90
   2  -5  -2  571.94   43.70
   2  -5  -2  604.64   44.80
   2   5  -2  604.24   50.69
  -2   5   2  672.73   48.70
  -2   5   2  637.84   48.70
   1  -5  -2  130.19   14.50
  -1   5   2  118.29   20.80
   1   5  -2  122.19   24.10
  -1   5   2  125.19   25.90
   0  -5  -2  480.65   33.90
   0  -5   2  452.05   34.00
   0   5  -2  484.45   39.60
   0   5   2  461.65   39.50
   1  -5   2   13.90    8.80
   1  -5   2    5.50    5.90
   1   5   2   28.60   13.10
  -1   5  -2   38.30   14.50
   1   5   2    0.60   21.90
   2  -5   2  215.38   18.70
   2  -5   2  211.98   19.50
  -2   5  -2  241.98   25.50
   2   5   2  193.48   25.80
   3  -5   2  207.88   20.70
   3  -5   2  196.68   28.70
   3  -5   2  205.38   18.90
   3   5   2  214.28   35.40
   3   5   2  217.38   25.90
  -3   5  -2  244.18   24.50
   4  -5   2   35.70    7.80
   4  -5   2   25.50   11.50
   4  -5   2   36.00    8.10
   4   5   2   24.40   14.30
   4   5   2   46.50   15.10
   5  -5   2   46.10   11.20
   5  -5   2   26.60    9.40
   5  -5   2   33.20    7.60
   5   5   2   20.10   13.50
   6  -5   2   78.29   12.60
   6  -5   2   69.09   13.30
   6   5   2   89.09   18.10
   5  -6  -2  187.58   19.00
   5  -6  -2  235.08   21.20
   5  -6  -2  201.38   17.00
   4  -6  -2  235.88   26.50
   4  -6  -2  211.98   18.80
   4  -6  -2  230.68   19.20
   3  -6  -2  226.18   19.00
   3  -6  -2  216.98   19.70
   2  -6  -2   74.29   10.40
   2  -6  -2   60.09   11.80
   1  -6  -2  231.68   19.60
   1  -6  -2  212.98   23.10
  -1   6   2  244.18   23.80
   1   6  -2  217.08   25.80
   0  -6  -2   93.39   16.00
   0  -6   2  114.89   13.70
   0   6   2  135.39   19.00
   0   6  -2  161.98   20.10
   1  -6   2  207.58   18.20
   1  -6   2  188.48   19.70
   1   6   2  252.17   24.10
   2  -6   2   37.00    7.60
   2  -6   2   40.30    7.10
   2   6   2   -4.90   22.70
   2   6   2   42.20   13.50
  -2   6  -2   41.20   12.30
   3  -6   2   43.00    8.10
   3  -6   2   47.10    8.30
   3  -6   2   37.20   15.50
   3   6   2   76.59   17.90
   3   6   2   60.79   13.10
   4  -6   2  213.38   23.90
   4  -6   2  226.98   18.10
   4  -6   2  201.58   19.70
   4   6   2  251.67   29.00
   5  -6   2  175.38   16.30
   5  -6   2  216.08   17.70
   5   6   2  194.98   23.00
   2  -7  -2   51.49    9.40
  -1   7   2   85.29   12.20
   0   7   2   34.80    9.60
   0   7  -2   28.30   10.90
   1  -7   2   53.29   10.80
   1   7   2   58.49   12.70
  -1   7  -2   80.79   13.20
   2  -7   2   35.80    6.80
   2   7   2   21.30   12.50
   9   0  -3    5.60   13.90
  -9   0   3   -4.90    5.60
  -9   0   3    1.60    6.00
  -9   0   3    6.30   11.90
  -8   0   3  326.27   25.40
  -8   0   3  236.28   34.90
  -8   0   3  344.97   27.20
  -8   0   3  309.67   24.90
  -7   0   3   -4.60   10.60
  -7   0   3    7.30    9.50
  -7   0   3    8.50    6.30
  -7   0   3    6.20    5.90
  -6   0   3   63.79   10.20
  -6   0   3   45.60    8.50
  -6   0   3   55.39   12.10
  -6   0   3   47.40   12.70
   6   0  -3   57.39    9.20
  -5   0   3 1140.69   82.49
  -5   0   3 1102.59   81.19
  -5   0   3 1185.18   80.89
  -5   0   3 1327.47   81.29
   4   0  -3 1831.82  118.59
  -4   0   3 1665.43  117.79
  -4   0   3 1670.73  116.89
  -4   0   3 1774.52  116.69
  -4   0   3 1708.63  117.79
   3   0  -3   65.69    8.80
   3   0  -3   76.99   10.10
  -3   0   3   65.29    8.00
  -3   0   3   63.49    5.60
  -3   0   3   54.09    8.80
  -2   0   3   89.29    9.50
  -2   0   3   83.49    8.90
   2   0  -3   93.49    9.30
  -2   0   3   91.19    6.80
   1   0  -3 2054.79  133.79
  -1   0   3 1877.91  133.59
   1   0  -3 2018.00  132.89
  -1   0   3 1822.32  133.49
   1   0  -3 2144.19  133.79
   0   0  -3  508.25   33.40
   0   0  -3  470.55   32.70
   0   0   3  475.15   32.70
   0   0   3  420.26   32.50
  -1   0  -3 4987.40  313.17
  -1   0  -3 4329.87  312.87
   1   0   3 4914.81  313.07
   1   0   3 4392.06  312.77
  -2   0  -3  723.93   50.09
  -2   0  -3  748.93   50.59
  -2   0  -3  702.63   49.40
   2   0   3  727.43   49.70
   2   0   3  711.43   50.19
   3   0   3 1947.81  123.19
   3   0   3 1762.82  122.29
  -3   0  -3 1819.62  123.19
  -3   0  -3 1778.82  122.49
  -3   0  -3 1731.33  123.19
   4   0   3    1.60    4.40
   4   0   3   35.70   13.10
  -4   0  -3    1.40    6.90
  -4   0  -3    1.10    4.40
  -4   0  -3    5.50    4.90
  -5   0  -3 1013.90   72.89
  -5   0  -3 1005.80   72.99
  -5   0  -3  996.80   70.39
   5   0   3 1139.09  107.69
  -5   0  -3 1034.50   70.19
   5   0   3 1008.80   70.29
  -6   0  -3   29.50   10.20
  -6   0  -3   32.70    6.80
   6   0   3   45.70   30.10
  -6   0  -3   43.30   14.70
  -6   0  -3   23.50    7.00
  -7   0  -3   29.80   19.40
  -7   0  -3   14.50    7.00
  -7   0  -3   17.10    7.00
  -7   0  -3   29.80    8.60
  -8   0  -3   25.70    6.50
  -8   0  -3   29.40   10.90
  -8   0  -3   14.80    6.90
  -9   0  -3   65.39    9.80
  -9  -1   3   47.10    8.90
   9  -1  -3   30.50   18.00
  -9  -1   3   50.29    8.10
  -9  -1   3   41.50    7.60
   9   1  -3   64.79   13.30
   8  -1  -3   30.50   22.00
   8  -1  -3   34.30   18.40
  -8  -1   3   15.30    6.50
  -8  -1   3   20.50    8.00
  -8   1   3   19.20    8.00
  -8   1   3   12.50    7.60
   8   1  -3   29.00   16.60
  -8   1   3   21.00   13.10
  -7  -1   3  121.59   13.60
  -7  -1   3  139.29   13.70
  -7  -1   3  135.59   20.80
   7  -1  -3  114.39   18.60
  -7   1   3  130.39   26.20
  -7   1   3  166.38   15.10
  -7   1   3  152.08   21.00
  -7   1   3  177.68   20.50
   6  -1  -3  689.93   52.29
  -6  -1   3  747.13   51.39
   6  -1  -3  714.13   57.39
  -6  -1   3  751.62   50.99
  -6   1   3  759.92   54.79
  -6   1   3  722.13   53.29
  -6   1   3  693.13   57.69
  -6   1   3  784.52   51.79
  -6   1   3  760.62   51.69
   5  -1  -3 1208.68   87.29
  -5  -1   3 1234.68   82.69
  -5  -1   3 1269.87   82.49
   5  -1  -3 1265.87   83.69
  -5   1   3 1266.37   82.79
  -5   1   3 1108.19   83.89
  -5   1   3 1255.17   82.99
  -5   1   3 1183.68   85.99
  -5   1   3 1131.39   83.79
  -4  -1   3   61.19    9.40
  -4  -1   3   55.79   10.80
   4  -1  -3   65.99   10.20
   4  -1  -3   71.89   13.30
   4  -1  -3   77.79   12.50
   4  -1  -3   66.49   10.50
  -4  -1   3   66.69   10.00
  -4   1   3   80.09   12.30
  -4   1   3   75.49   11.30
  -4   1   3   45.50   10.50
  -4   1   3   65.59    8.90
   4   1  -3   65.89   11.20
  -4   1   3   54.89    8.70
   3  -1  -3  253.47   18.00
  -3  -1   3  213.08   20.00
  -3  -1   3  256.17   16.70
  -3  -1   3  230.18   17.50
   3  -1  -3  275.07   18.60
   3  -1  -3  252.37   19.20
   3  -1  -3  271.77   18.20
  -3  -1   3  240.68   16.30
   3   1  -3  200.08   17.00
   3   1  -3  205.78   17.50
   3   1  -3  199.98   17.90
  -3   1   3  232.28   18.50
  -3   1   3  217.38   17.70
  -3   1   3  232.98   17.20
  -3   1   3  222.78   18.10
   2  -1  -3 7972.80  609.84
   2  -1  -3 9320.47  609.64
   2  -1  -3 9420.96  610.24
  -2  -1   3 8298.67  609.74
  -2   1   3 9999.00  610.24
  -2   1   3 9156.98  609.84
   2   1  -3 8646.74  609.94
  -2   1   3 9231.78  609.54
   2   1  -3 9798.92  609.34
  -1  -1   3 2965.50  219.18
   1  -1  -3 3327.47  219.18
   1  -1  -3 2991.70  219.28
   1  -1  -3 3289.77  219.48
  -1   1   3 3331.67  219.48
   1   1  -3 3205.48  219.38
   1   1  -3 3644.24  219.08
   1   1  -3 3150.58  218.68
  -1   1   3 3473.55  219.18
   0  -1   3   60.99    7.40
   0  -1   3   50.59    9.40
   0  -1  -3   51.69    7.10
   0   1   3   61.79    7.00
   0   1  -3   44.80    7.80
   0   1  -3   70.49    8.20
   1  -1   3  205.08   16.40
  -1  -1  -3  198.78   15.40
   1  -1   3  198.78   15.80
   1  -1   3  215.18   16.30
   1   1   3  204.38   15.70
  -1   1  -3  216.38   16.10
   1   1   3  211.98   14.60
   2  -1   3 1662.23  124.19
  -2  -1  -3 1704.03  123.99
   2  -1   3 1784.82  123.89
   2  -1   3 2042.60  124.99
  -2  -1  -3 1785.72  123.49
  -2   1  -3 1808.12  123.89
  -2   1  -3 1985.20  124.79
  -2   1  -3 1950.70  124.49
   2   1   3 1752.02  124.29
   2   1   3 1887.31  123.19
   3  -1   3 1436.06   90.29
  -3  -1  -3 1387.26   87.89
   3  -1   3 1232.28   88.89
   3  -1   3 1396.76   88.79
  -3  -1  -3 1474.85   88.99
  -3   1  -3 1114.99   88.39
  -3   1  -3 1271.07   89.79
   3   1   3 1098.99   88.99
  -3   1  -3 1273.47   88.99
   4  -1   3 2949.00  186.68
   4  -1   3 2542.85  186.18
  -4  -1  -3 2938.71  185.98
  -4  -1  -3 2765.42  185.58
  -4   1  -3 3067.09  187.18
  -4   1  -3 2704.53  185.88
  -4   1  -3 2758.62  185.78
  -4   1  -3 2317.67  189.18
  -5  -1  -3    9.60   12.00
   5  -1   3   53.99   16.80
  -5  -1  -3   17.30    4.60
   5  -1   3   28.80    6.90
  -5  -1  -3   31.00    6.40
  -5   1  -3   49.90   12.20
  -5   1  -3   25.10    6.50
   5   1   3   53.29   22.20
  -5   1  -3   30.40    9.00
  -5   1  -3   16.30    6.00
   6  -1   3    3.10   15.30
   6  -1   3    2.20    6.90
   6  -1   3    2.90   16.60
  -6  -1  -3    4.60    5.70
  -6  -1  -3    7.50    4.80
  -6  -1  -3    8.80   10.90
  -6   1  -3    0.60    5.60
  -6   1  -3  -10.40    8.30
  -6   1  -3   -0.70    8.80
   6   1   3   14.70   19.80
  -6   1  -3   -6.40    9.60
  -7  -1  -3  470.55   35.70
  -7  -1  -3  441.76   33.00
  -7  -1  -3  475.55   33.20
   7  -1   3  393.86   41.00
   7   1   3  448.86   44.20
  -7   1  -3  448.06   37.80
  -7   1  -3  475.95   35.50
  -7   1  -3  438.96   34.10
  -8  -1  -3   90.39   11.90
  -8  -1  -3   80.69   12.70
  -8  -1  -3   88.29   10.30
   8   1   3   77.39   19.20
  -8   1  -3   91.19   14.20
  -9  -2   3   34.20    7.50
  -9  -2   3   37.50    7.30
  -9  -2   3   36.90    7.50
  -9   2   3   23.30    7.40
   9   2  -3   25.10   11.40
  -8  -2   3   -2.90    5.10
   8  -2  -3  -13.10   12.90
  -8  -2   3   -1.80    4.70
  -8  -2   3   -5.80   10.30
   8  -2  -3  -17.40   14.10
  -8   2   3   -2.80    8.20
  -8   2   3  -16.70   11.10
   8   2  -3  -13.50   14.30
  -8   2   3  -18.00   14.80
  -7  -2   3  265.77   21.20
  -7  -2   3  242.68   27.90
   7  -2  -3  294.57   29.00
  -7  -2   3  283.17   21.80
  -7   2   3  266.27   26.90
   7   2  -3  282.57   35.30
  -7   2   3  309.57   26.60
  -7   2   3  265.37   27.80
   6  -2  -3  114.09   15.90
   6  -2  -3   71.19   15.00
  -6  -2   3  126.49   26.90
   6  -2  -3   90.39   17.90
  -6  -2   3  100.89    9.90
  -6   2   3  101.99   21.50
  -6   2   3  106.09   20.10
   5  -2  -3  221.98   19.00
   5  -2  -3  204.98   19.60
  -5  -2   3  207.38   17.60
   5  -2  -3  233.98   20.50
   5  -2  -3  188.08   26.60
  -5   2   3  233.68   19.30
  -5   2   3  181.58   30.90
  -5   2   3  209.18   25.70
  -5   2   3  203.08   26.20
   4  -2  -3  494.05   34.30
   4  -2  -3  511.35   33.50
   4  -2  -3  485.35   34.40
   4  -2  -3  452.25   36.90
  -4  -2   3  479.75   32.20
  -4   2   3  405.66   35.20
  -4   2   3  429.76   33.80
   3  -2  -3  381.76   27.00
   3  -2  -3  392.66   27.60
  -3  -2   3  319.97   25.10
  -3  -2   3  352.16   25.50
   3  -2  -3  399.96   28.00
  -3  -2   3  369.86   25.40
   3  -2  -3  370.66   28.70
  -3   2   3  330.17   26.40
  -3   2   3  390.06   31.90
  -3   2   3  326.97   26.90
   2  -2  -3  273.67   20.90
   2  -2  -3  252.77   19.40
  -2  -2   3  250.57   18.70
   2  -2  -3  279.57   20.50
   2  -2  -3  232.18   20.50
  -2  -2   3  247.18   18.90
  -2   2   3  294.67   19.70
  -2   2   3  287.17   20.30
   1  -2  -3  134.69   13.20
   1  -2  -3  164.98   12.10
  -1  -2   3  144.99   11.60
   1  -2  -3  156.38   12.80
   1  -2  -3  147.99   11.90
   1   2  -3  136.79   11.70
   0  -2   3  749.33   56.29
   0  -2   3  832.52   55.89
   0  -2  -3  776.32   55.99
   0   2  -3  816.32   56.29
   0   2   3  855.91   55.99
   0   2  -3  904.41   56.39
   1  -2   3 7914.71  545.95
   1  -2   3 8534.75  545.95
  -1  -2  -3 7641.44  545.15
   1  -2   3 8448.85  545.35
   1  -2   3 7629.84  546.15
  -1   2  -3 8870.71  546.05
  -1   2  -3 8209.38  545.05
   1   2   3 7825.22  545.35
  -1   2  -3 8158.48  546.05
   2  -2   3 1057.09   74.39
  -2  -2  -3 1033.90   72.89
  -2  -2  -3 1065.39   73.09
   2  -2   3 1078.19   74.49
   2  -2   3 1046.50   74.49
   2  -2   3  974.50   74.99
  -2   2  -3 1190.38   74.99
  -2   2  -3 1232.28   73.89
   2   2   3 1032.30   73.49
   3  -2   3  545.35   39.30
  -3  -2  -3  536.55   37.40
   3  -2   3  529.05   39.10
   3  -2   3  566.24   38.40
   3  -2   3  536.35   43.20
  -3   2  -3  524.95   42.90
  -3   2  -3  542.35   41.00
  -3   2  -3  556.84   39.00
   4  -2   3  268.27   21.80
  -4  -2  -3  273.27   20.50
   4  -2   3  214.38   28.30
   4  -2   3  269.77   20.60
  -4  -2  -3  230.28   17.80
   4  -2   3  236.38   21.40
  -4   2  -3  219.98   28.80
  -4   2  -3  165.68   34.10
   4   2   3  167.78   38.80
  -5  -2  -3  446.96   33.10
   5  -2   3  429.96   39.30
   5  -2   3  424.26   34.90
   5  -2   3  400.36   35.70
  -5  -2  -3  454.55   32.30
   5  -2   3  458.55   34.70
   5   2   3  440.56   46.90
  -5   2  -3  486.45   38.10
  -5   2  -3  534.55   35.50
  -6  -2  -3  102.89   11.50
  -6  -2  -3   81.49   14.30
  -6  -2  -3   86.49   11.10
   6  -2   3  116.99   16.30
  -6   2  -3  114.49   17.00
   6   2   3   68.49   18.80
  -6   2  -3   98.49   14.00
   7  -2   3   27.00   12.50
   7  -2   3   10.10   10.50
  -7  -2  -3   39.20   10.20
   7  -2   3   22.30   16.70
  -7  -2  -3   34.00    6.20
  -7  -2  -3   18.50    5.60
  -7   2  -3   27.50    8.30
   7   2   3   39.90   14.50
  -7   2  -3   44.30   13.70
  -8  -2  -3   51.89    9.20
  -8  -2  -3   31.30    8.10
  -8  -2  -3   41.50    8.20
   8   2   3   48.40   12.90
  -8   2  -3   41.20    8.70
  -9  -3   3   49.99    6.90
   9  -3  -3   43.30   13.10
   9   3  -3   33.50    9.80
   8  -3  -3   36.50   10.50
  -8  -3   3   42.70    6.40
  -8  -3   3   57.39    6.90
  -8   3   3   54.29   11.20
   8   3  -3   48.70   14.50
   7  -3  -3    5.60    9.90
   7  -3  -3   13.20   13.50
  -7  -3   3   20.50    5.70
  -7   3   3   30.50   11.20
  -7   3   3   -2.90   11.50
   7   3  -3   -6.30   14.80
  -7   3   3   -1.50   10.10
   6  -3  -3  408.96   32.40
   6  -3  -3  455.45   36.50
  -6  -3   3  418.66   29.80
   6  -3  -3  439.86   35.50
   6  -3  -3  378.66   33.40
  -6   3   3  464.45   37.50
  -6   3   3  425.96   32.50
  -6   3   3  354.36   35.40
  -6   3   3  437.36   36.70
   6   3  -3  398.26   43.50
   5  -3  -3   56.59   10.00
   5  -3  -3   60.69    9.20
   5  -3  -3   41.80   10.90
   5  -3  -3   33.60   12.60
  -5   3   3   61.69   11.70
   5   3  -3  105.69   24.40
  -5   3   3   71.19   17.40
  -5   3   3   93.09   20.30
  -5   3   3   90.09   22.70
   4  -3  -3  239.98   28.50
   4  -3  -3  256.57   20.50
   4  -3  -3  220.48   19.20
   4  -3  -3  240.28   22.80
  -4  -3   3  226.58   17.30
   4   3  -3  248.98   46.20
  -4   3   3  262.37   29.70
  -4   3   3  226.18   26.80
  -4   3   3  245.88   27.40
   3  -3  -3  109.69   14.20
   3  -3  -3  121.29   12.40
   3  -3  -3  143.39   17.10
  -3   3   3  155.38   20.90
  -3   3   3  133.29   24.50
  -3   3   3  146.89   24.30
   2  -3  -3  175.28   20.30
   2  -3  -3  183.78   15.20
   2  -3  -3  195.38   18.40
   2  -3  -3  199.58   18.30
  -2   3   3  192.48   19.80
  -2   3   3  216.18   18.40
  -1  -3   3  139.09   12.30
   1  -3  -3  172.28   13.70
   1  -3  -3  133.69   12.00
   1  -3  -3  124.19   14.10
  -1   3   3  171.88   13.30
   0  -3  -3  796.22   58.09
   0  -3   3  791.92   59.09
   0  -3   3  950.10   58.39
   0  -3   3  921.51   58.79
   0   3  -3  818.82   59.89
   1  -3   3  297.97   20.60
   1  -3   3  274.77   22.80
   1  -3   3  290.97   23.80
   1  -3   3  255.47   23.50
  -1   3  -3  276.07   24.30
   2  -3   3  374.66   29.50
   2  -3   3  393.56   28.60
   2  -3   3  355.66   32.00
  -2   3  -3  405.96   36.40
   2   3   3  437.56   50.29
  -2   3  -3  442.56   34.40
  -3  -3  -3  920.51   64.39
   3  -3   3  996.90   65.39
   3  -3   3  944.71   70.99
   3  -3   3  955.30   65.79
   3  -3   3  938.21   67.49
   3   3   3  899.11   74.39
  -3   3  -3 1041.30   69.69
   3   3   3  873.51   72.19
   4  -3   3  210.48   18.10
  -4  -3  -3  212.38   16.00
   4  -3   3  186.38   19.00
   4  -3   3  205.18   21.90
   4  -3   3  211.88   27.00
   4   3   3  203.88   32.30
  -4   3  -3  244.88   26.80
  -4   3  -3  215.18   32.90
   4   3   3  188.08   31.30
  -5  -3  -3  385.06   30.30
   5  -3   3  387.86   32.70
   5  -3   3  399.36   36.20
  -5  -3  -3  409.86   29.40
   5  -3   3  377.36   31.10
   5  -3   3  447.46   34.40
   5   3   3  430.96   42.90
  -5   3  -3  421.96   37.00
  -5   3  -3  481.55   32.40
  -5   3  -3  397.46   37.10
   5   3   3  336.87   39.90
   6  -3   3   26.00   11.30
   6  -3   3   47.80   14.00
  -6  -3  -3   19.20    5.50
  -6  -3  -3   17.90    6.10
   6  -3   3   27.90   12.20
  -6   3  -3   16.00   11.70
   6   3   3   14.30   14.20
   6   3   3   14.90   17.00
  -6   3  -3    3.60   11.30
   7  -3   3   94.49   19.90
  -7  -3  -3  152.38   13.30
  -7  -3  -3  145.29   13.20
   7  -3   3  142.99   19.50
   7  -3   3  116.29   19.90
  -7   3  -3  145.99   20.60
   7   3   3  116.89   24.60
   8  -3   3   75.39   14.90
  -8  -3  -3   49.40    8.20
  -8  -4   3   53.99    9.30
   8  -4  -3   67.99   11.50
  -8   4   3   57.59   12.20
   8   4  -3   74.69   17.60
   7  -4  -3  197.38   24.20
  -7  -4   3  257.97   19.10
  -7  -4   3  268.77   19.80
   7  -4  -3  293.07   25.80
   7   4  -3  254.07   28.70
  -7   4   3  209.28   22.80
  -6  -4   3   39.60    7.10
   6  -4  -3   32.10    9.60
   6  -4  -3   22.30    9.50
   6  -4  -3   31.00   10.10
   6  -4  -3   15.20   13.40
  -6   4   3   34.60   10.30
   6   4  -3   42.70   16.70
  -6   4   3   18.00   10.80
   5  -4  -3  575.54   44.70
   5  -4  -3  548.25   51.39
   5  -4  -3  703.73   48.90
   5  -4  -3  620.14   44.70
   5   4  -3  602.94   56.99
  -5   4   3  648.44   48.60
   4  -4  -3  490.85   41.80
   4  -4  -3  443.86   36.30
   4  -4  -3  498.15   36.20
  -4   4   3  500.05   41.40
   4   4  -3  451.15   54.99
  -4   4   3  543.45   41.40
   3  -4  -3  327.17   35.30
   3  -4  -3  338.97   25.90
   3  -4  -3  326.77   24.20
  -3   4   3  301.37   32.30
  -3   4   3  291.57   29.70
   3   4  -3  265.37   61.99
  -3   4   3  320.97   29.60
   2  -4  -3  216.58   19.40
   2  -4  -3  201.38   16.00
  -2   4   3  174.78   25.40
  -2   4   3  181.98   25.00
  -2   4   3  175.08   28.80
   1  -4  -3   53.09    7.90
  -1  -4   3   59.99    8.80
  -1   4   3   60.99   33.80
   1   4  -3   42.50   20.70
  -1   4   3   54.79   21.20
  -1   4   3   51.39   14.40
  -1   4   3   35.00   14.30
   0  -4   3  324.07   22.10
   0  -4  -3  284.17   21.80
   0   4   3  268.17   47.60
   0   4   3  295.77   37.00
   0   4  -3  293.87   33.30
   1  -4   3  655.13   49.30
   1  -4   3  700.33   47.80
  -1   4  -3  772.62   53.59
   1   4   3  609.34   63.49
  -1   4  -3  753.62   53.19
   1   4   3  612.24   54.19
   2  -4   3  293.97   24.90
   2  -4   3  308.07   23.30
   2  -4   3  318.57   39.60
   2   4   3  280.27   31.60
   2   4   3  274.57   39.30
  -2   4  -3  355.16   29.50
   3  -4   3   44.40   15.60
   3  -4   3   23.10    7.50
   3  -4   3   30.10    7.70
   3   4   3   27.20   15.20
  -3   4  -3   37.50   13.50
  -3   4  -3   29.80   12.40
   4  -4   3  186.58   17.70
   4  -4   3  156.78   17.30
   4  -4   3  197.28   26.00
  -4  -4  -3  171.38   15.30
   4  -4   3  202.88   25.70
   4   4   3  145.69   30.50
  -4   4  -3  189.98   23.40
  -4   4  -3  154.38   22.10
   5  -4   3  233.78   22.10
   5  -4   3  203.78   27.80
   5  -4   3  244.18   24.50
  -5  -4  -3  242.18   18.20
   5  -4   3  245.08   21.00
   5   4   3  207.48   27.90
   5   4   3  164.98   30.10
  -6  -4  -3   68.59   13.00
   6  -4   3   89.19   18.20
  -6  -4  -3   88.19   11.00
   6  -4   3   76.79   17.40
   6  -4   3   77.79   14.70
   6   4   3   60.49   15.10
   7  -4   3  111.19   14.00
   7  -4   3   87.29   13.40
  -7  -4  -3   97.29   11.40
   7   4   3   95.99   18.20
   7  -5  -3   64.39   10.60
   7   5  -3   44.20   15.00
  -7   5   3   77.49   10.80
   6  -5  -3   67.59   13.30
   6  -5  -3   78.59   16.10
  -6   5   3   81.19   14.10
   5  -5  -3   72.49   12.60
   5  -5  -3   85.49   13.50
   5  -5  -3   72.49   13.20
   5   5  -3   60.09   23.40
  -5   5   3   75.19   17.00
   4  -5  -3   27.20   12.50
   4  -5  -3   11.20    8.60
   4  -5  -3   15.90    6.90
   4   5  -3   12.90   24.00
  -4   5   3   17.60   12.20
  -4   5   3   18.40   11.30
   3  -5  -3  393.26   38.30
   3  -5  -3  319.07   27.30
   3  -5  -3  311.57   26.10
  -3   5   3  355.86   31.30
  -3   5   3  371.46   33.00
   2  -5  -3  113.89   14.00
   2  -5  -3  137.89   16.30
  -2   5   3  122.29   22.40
  -2   5   3  158.58   21.70
   1  -5  -3   64.39   11.40
   1  -5  -3   72.59   12.50
  -1  -5   3   73.39   12.40
   1   5  -3   46.20   15.90
  -1   5   3   43.60   12.80
  -1   5   3   67.69   17.40
   0  -5   3  114.29   13.20
   0  -5  -3  110.09   13.90
   0   5  -3  102.79   20.90
   0   5   3   99.39   20.90
   0   5   3   80.69   26.60
   1  -5   3   67.29   13.60
   1  -5   3   70.59   11.10
   1   5   3   49.40   14.00
  -1   5  -3   80.19   20.80
   1   5   3   71.89   22.10
   2  -5   3  433.26   33.40
   2  -5   3  369.56   44.10
   2  -5   3  488.95   32.80
   2   5   3  453.35   44.30
   2   5   3  439.46   39.30
   3  -5   3  137.29   25.10
   3  -5   3  176.68   15.40
   3  -5   3  153.18   17.80
   3   5   3  139.39   23.70
   4  -5   3  464.75   31.90
   4  -5   3  466.45   35.90
   4  -5   3  410.66   32.00
   4   5   3  389.46   39.40
   4   5   3  359.26   38.10
   5  -5   3   11.30    9.90
   5  -5   3    7.80    8.60
   5  -5   3    9.00    6.70
   5   5   3   25.50   22.10
   5   5   3   26.90   12.60
   6  -5   3  186.68   17.90
   6  -5   3  141.89   21.20
   6   5   3  215.78   21.10
   5  -6  -3    8.20    9.40
   5  -6  -3   29.90    6.80
   5  -6  -3   37.00    9.50
  -5   6   3   30.20    9.70
   4  -6  -3  159.48   14.80
   4  -6  -3  180.38   24.90
   4  -6  -3  137.69   15.40
  -4   6   3  146.99   18.90
   3  -6  -3    3.10    6.10
   3  -6  -3    6.30    5.40
  -3   6   3    5.70   12.00
  -3   6   3   13.20   11.60
   2  -6  -3  286.97   24.90
   2  -6  -3  297.27   23.30
  -2   6   3  311.97   27.80
   1  -6  -3  338.27   29.40
   1  -6  -3  324.97   26.90
  -1   6   3  388.46   30.80
   0  -6   3  289.57   24.90
   0  -6  -3  339.97   26.00
   0   6   3  327.37   28.80
   1  -6   3  983.10   78.59
   1  -6   3 1066.19   78.19
   1   6   3 1185.18   87.49
   1   6   3 1340.27   82.09
   2  -6   3  252.67   19.70
   2  -6   3  221.18   20.00
   2   6   3  255.47   24.10
   2   6   3  164.28   37.20
   3  -6   3    8.20   12.70
   3  -6   3    6.70    5.50
   3  -6   3    2.50    7.00
  -3   6  -3   14.20   10.20
   3   6   3   12.40    9.70
   3   6   3   27.30   13.60
   4  -6   3    6.40    5.60
   4  -6   3   22.70    8.70
   4  -6   3   14.00    7.80
   4   6   3   -0.10   12.20
   2  -7  -3   42.50    9.80
  -2   7   3   38.70    8.70
  -1   7   3  115.39   14.30
   0   7   3   11.00    6.90
   1  -7   3   18.40   11.40
   1   7   3   36.80    8.80
  -9   0   4   91.89   10.90
   9   0  -4   91.99   17.00
  -9   0   4   57.39   14.50
  -9   0   4   76.49   13.00
  -8   0   4  294.87   26.40
  -8   0   4  283.97   24.90
  -8   0   4  312.67   24.40
  -8   0   4  327.17   33.60
  -7   0   4  464.45   41.00
  -7   0   4  533.65   36.60
  -7   0   4  513.75   36.30
  -7   0   4  481.45   39.30
  -6   0   4   36.40    7.10
  -6   0   4   43.30    6.30
   6   0  -4   62.59   12.70
  -6   0   4   29.80   18.10
   6   0  -4   47.90   22.40
  -6   0   4   41.40   11.40
  -5   0   4  595.64   45.20
  -5   0   4  600.04   40.80
   5   0  -4  614.14   42.20
  -5   0   4  535.85   42.90
  -4   0   4  432.66   30.80
  -4   0   4  384.86   28.90
  -4   0   4  405.16   28.10
  -4   0   4  432.16   28.70
   4   0  -4  373.26   31.80
  -4   0   4  412.56   30.50
   4   0  -4  431.46   30.40
   4   0  -4  385.46   30.40
   3   0  -4   85.99   10.50
  -3   0   4   60.19    9.60
  -3   0   4   68.29    5.50
  -3   0   4   79.39    8.70
   3   0  -4   60.39    9.60
   2   0  -4  189.88   16.10
  -2   0   4  185.48   15.10
  -2   0   4  189.88   14.10
  -2   0   4  191.38   15.30
   2   0  -4  196.78   15.70
  -1   0   4  108.59   11.40
  -1   0   4  110.09   11.30
   1   0  -4  112.59   13.70
   0   0   4 2738.53  187.68
   0   0  -4 2577.74  187.68
   0   0  -4 3029.20  188.08
   0   0   4 2799.52  187.48
  -1   0  -4 5552.84  345.17
   1   0   4 5164.78  344.67
   1   0   4 5113.89  345.07
  -1   0  -4 5077.29  344.27
  -1   0  -4 4766.22  344.87
  -2   0  -4  569.04   39.30
   2   0   4  539.65   38.50
  -2   0  -4  546.35   39.70
  -3   0  -4   87.29    9.60
   3   0   4   88.39   15.10
   3   0   4   70.59   10.40
   3   0   4   97.69   14.10
  -3   0  -4   74.19   15.10
  -3   0  -4  105.69   11.60
  -3   0  -4   72.19   14.60
  -4   0  -4  195.98   26.20
  -4   0  -4  184.08   15.00
  -4   0  -4  186.68   19.50
  -4   0  -4  176.98   15.70
   4   0   4  183.28   15.80
  -5   0  -4   10.40   10.20
   5   0   4   10.60    5.30
  -5   0  -4    9.10    5.80
  -5   0  -4    7.40   10.40
  -5   0  -4   10.60    4.70
   5   0   4  -19.10   18.80
  -6   0  -4  223.08   27.70
  -6   0  -4  230.88   24.90
  -6   0  -4  241.18   20.60
  -6   0  -4  276.97   20.50
  -7   0  -4 1518.05  103.89
  -7   0  -4 1568.14  102.79
  -7   0  -4 1407.26  107.69
  -7   0  -4 1506.35  102.59
  -8   0  -4   -2.20    6.10
  -8   0  -4    2.10    6.40
  -9  -1   4  176.28   16.50
   9  -1  -4  235.48   29.10
  -9  -1   4  195.68   18.70
  -9  -1   4  177.38   17.40
   9   1  -4  215.78   26.00
  -9   1   4  232.48   19.50
   8  -1  -4    1.50   13.80
  -8  -1   4   16.90    6.10
  -8  -1   4   22.50    6.50
  -8  -1   4   15.00    8.20
  -8   1   4   28.80    7.40
   8   1  -4   15.40   15.90
  -8   1   4    5.40   14.20
  -8   1   4   45.20   15.90
  -8   1   4   12.30    7.70
  -7  -1   4  647.34   48.00
  -7  -1   4  678.23   44.80
   7  -1  -4  664.93   50.49
   7  -1  -4  710.93   47.20
  -7  -1   4  688.93   44.80
  -7   1   4  547.35   49.80
  -7   1   4  583.94   47.30
  -7   1   4  600.54   44.90
  -7   1   4  577.94   47.60
  -7   1   4  608.64   46.40
   6  -1  -4  465.55   40.80
  -6  -1   4  455.75   32.00
  -6   1   4  455.75   37.20
  -6   1   4  436.16   32.90
  -6   1   4  436.76   35.30
  -6   1   4  484.55   41.10
  -6   1   4  427.16   32.60
   5  -1  -4  225.88   17.90
  -5  -1   4  226.08   15.00
   5  -1  -4  168.48   28.10
  -5  -1   4  190.98   15.60
   5  -1  -4  198.68   22.00
  -5   1   4  165.68   15.90
  -5   1   4  186.58   16.90
  -5   1   4  181.08   18.60
  -5   1   4  156.88   29.70
  -4  -1   4  411.86   31.00
   4  -1  -4  425.56   32.30
   4  -1  -4  399.86   33.90
  -4  -1   4  360.56   32.40
   4  -1  -4  377.36   30.10
  -4  -1   4  416.46   29.80
  -4  -1   4  399.16   28.90
   4  -1  -4  415.86   31.50
   4  -1  -4  454.25   30.70
  -4   1   4  466.25   30.80
  -4   1   4  448.26   31.10
  -4   1   4  443.16   29.90
   4   1  -4  362.66   31.10
   4   1  -4  384.06   29.30
  -4   1   4  448.36   32.30
  -4   1   4  441.96   29.70
   3  -1  -4  798.12   52.89
   3  -1  -4  681.23   53.89
   3  -1  -4  739.43   53.19
   3  -1  -4  782.22   53.69
  -3  -1   4  741.53   52.99
  -3  -1   4  686.43   52.09
  -3   1   4  812.42   52.49
  -3   1   4  789.82   52.59
  -3   1   4  782.42   53.69
   3   1  -4  768.32   52.79
  -3   1   4  850.21   53.49
   2  -1  -4 7075.49  468.65
   2  -1  -4 6846.42  469.15
  -2  -1   4 6530.35  469.05
   2  -1  -4 6927.31  469.55
   2  -1  -4 7078.99  468.75
  -2   1   4 7450.35  469.55
   2   1  -4 6652.13  468.75
   2   1  -4 6804.02  469.35
  -2   1   4 7583.84  469.15
   1  -1  -4 1804.42  120.19
   1  -1  -4 1593.24  119.99
  -1  -1   4 1593.94  120.49
   1  -1  -4 1629.54  120.59
  -1   1   4 1810.52  120.69
  -1   1   4 1981.20  120.29
   1   1  -4 1738.63  120.69
   1   1  -4 1899.01  119.69
   1   1  -4 1989.70  120.39
   0  -1  -4  638.94   42.40
   0  -1  -4  592.84   43.20
   0  -1   4  641.24   42.60
   0  -1   4  632.44   42.70
   0  -1  -4  645.64   41.80
   0  -1   4  557.64   41.80
   0   1   4  553.24   41.70
   0   1   4  566.24   42.30
   0   1  -4  580.04   42.50
   0   1  -4  698.23   42.40
  -1  -1  -4 1422.36   96.39
  -1  -1  -4 1473.75   98.29
   1  -1   4 1412.86   97.49
   1  -1   4 1329.67   96.59
   1  -1   4 1388.86   97.19
  -1  -1  -4 1383.16   96.99
   1   1   4 1345.87   97.09
  -1   1  -4 1613.64   97.39
   1   1   4 1430.56   96.29
  -1   1  -4 1495.95   97.49
   2  -1   4  586.84   42.90
  -2  -1  -4  602.94   40.80
   2  -1   4  558.34   42.00
   2  -1   4  575.54   41.50
  -2  -1  -4  541.95   44.30
  -2  -1  -4  555.74   41.80
  -2   1  -4  609.94   42.90
  -2   1  -4  608.14   41.50
  -2   1  -4  666.13   42.50
   2   1   4  619.74   40.50
  -3  -1  -4  436.76   31.30
   3  -1   4  426.96   32.50
   3  -1   4  397.06   33.50
   3  -1   4  450.25   35.50
  -3  -1  -4  444.86   35.80
   3  -1   4  499.35   32.80
   3  -1   4  492.05   35.60
  -3  -1  -4  435.76   33.70
  -3  -1  -4  444.06   32.40
  -3   1  -4  469.05   31.90
  -3   1  -4  417.96   32.40
   3   1   4  412.86   34.40
  -3   1  -4  440.46   36.10
  -3   1  -4  492.55   33.50
  -4  -1  -4  217.18   16.00
   4  -1   4  205.18   18.60
  -4  -1  -4  227.18   17.10
   4  -1   4  174.28   21.50
  -4   1  -4  203.08   16.80
  -4   1  -4  184.38   17.10
  -4   1  -4  188.88   20.20
  -4   1  -4  177.08   25.60
   4   1   4  205.78   43.30
   5  -1   4  101.09   13.10
   5  -1   4   76.09   16.80
  -5  -1  -4   96.69   10.70
  -5  -1  -4   89.79   11.50
   5  -1   4  100.49   18.60
  -5  -1  -4  110.29   20.60
   5   1   4   71.79   21.90
  -5   1  -4   92.99   15.30
  -5   1  -4   98.99   12.60
  -5   1  -4  115.19   12.70
  -5   1  -4  120.79   20.10
   6  -1   4  208.78   29.10
  -6  -1  -4  171.48   14.80
  -6  -1  -4  168.08   20.80
  -6  -1  -4  163.78   14.80
   6  -1   4  157.58   16.80
   6  -1   4  148.19   26.80
  -6   1  -4  159.88   20.50
   6   1   4  148.89   24.50
  -6   1  -4  148.69   22.00
  -6   1  -4  124.09   19.00
  -6   1  -4  142.19   15.80
  -7  -1  -4   14.40    7.80
  -7  -1  -4   11.20    6.20
  -7  -1  -4   16.50    6.20
  -7   1  -4   14.40   13.00
   7   1   4   36.40   18.60
  -7   1  -4   25.90    8.20
  -7   1  -4   25.00    9.00
  -8  -1  -4  235.78   18.30
  -8  -1  -4  225.78   19.80
  -8  -1  -4  216.68   20.90
  -8   1  -4  237.58   20.30
  -9  -2   4  162.18   16.30
  -9  -2   4  170.18   14.20
  -9  -2   4  174.78   15.40
   9   2  -4  184.18   22.10
   8  -2  -4  381.96   34.10
  -8  -2   4  355.96   27.00
  -8  -2   4  362.96   26.70
   8  -2  -4  383.46   34.00
  -8  -2   4  353.16   30.70
  -8   2   4  386.26   30.30
   8   2  -4  364.76   36.00
  -8   2   4  370.76   32.60
  -8   2   4  318.37   33.20
   7  -2  -4  381.36   33.30
  -7  -2   4  390.36   26.60
  -7  -2   4  380.66   32.60
  -7  -2   4  368.06   26.90
  -7   2   4  336.57   29.30
   7   2  -4  345.17   40.10
  -7   2   4  357.16   31.30
  -7   2   4  312.87   32.80
   6  -2  -4   52.59   13.60
   6  -2  -4   55.19   10.40
   6  -2  -4   37.00   10.40
  -6  -2   4   52.09    7.10
  -6  -2   4   52.79    7.80
  -6   2   4   64.49   14.20
  -6   2   4   43.80   11.70
  -6   2   4   41.80   12.70
   5  -2  -4  149.99   16.70
   5  -2  -4  168.18   24.60
   5  -2  -4  148.79   17.80
  -5  -2   4  148.79   13.60
   5  -2  -4  143.39   14.80
  -5   2   4  121.49   23.20
  -5   2   4  144.09   24.00
  -5   2   4  122.19   26.40
  -5   2   4  160.58   15.90
   4  -2  -4 5879.21  370.86
  -4  -2   4 5188.18  369.56
  -4  -2   4 5117.29  369.16
   4  -2  -4 5798.62  370.16
   4  -2  -4 5257.47  371.66
   4  -2  -4 5897.91  369.96
   4   2  -4 4706.13  370.16
  -4   2   4 6111.89  370.66
  -4   2   4 5606.14  370.16
   3  -2  -4  181.78   15.00
   3  -2  -4  155.38   19.00
   3  -2  -4  219.48   18.50
  -3  -2   4  166.98   13.40
   3  -2  -4  171.08   16.80
   3  -2  -4  202.18   17.50
  -3  -2   4  167.28   14.70
  -3   2   4  174.58   17.70
  -3   2   4  178.98   16.00
  -2  -2   4  128.49   11.60
   2  -2  -4  145.09   14.00
   2  -2  -4  160.38   13.60
   2  -2  -4  132.59   11.80
   2  -2  -4  122.49   14.30
  -2   2   4  167.98   13.90
  -1  -2   4  245.28   19.50
   1  -2  -4  260.37   19.80
   1  -2  -4  289.57   21.60
   1  -2  -4  269.67   22.40
   1  -2  -4  290.77   21.10
  -1  -2   4  281.97   20.20
   1   2  -4  262.87   19.70
  -1   2   4  271.17   18.90
  -1   2   4  282.47   20.60
   0  -2  -4  116.09   17.70
   0  -2  -4  115.89   10.70
   0  -2   4  115.59   15.00
   0  -2  -4  121.59    9.90
   0  -2   4  129.19   10.20
   0  -2   4  123.89   11.50
   0   2  -4  100.49    9.50
   0   2   4  100.79   10.50
   0   2  -4  113.89   10.60
  -1  -2  -4 1422.36  103.39
  -1  -2  -4 1477.45  103.09
   1  -2   4 1353.06  104.29
   1  -2   4 1451.65  104.59
  -1   2  -4 1712.63  103.69
  -1   2  -4 1761.32  104.29
   1   2   4 1532.55  103.79
  -2  -2  -4  715.83   47.50
   2  -2   4  746.13   47.60
   2  -2   4  665.03   48.30
   2  -2   4  621.54   48.50
   2  -2   4  665.93   49.90
  -2  -2  -4  712.53   46.80
   2  -2   4  698.23   49.40
  -2   2  -4  691.43   47.90
  -2   2  -4  640.04   49.70
  -3  -2  -4  127.09   15.20
  -3  -2  -4  107.29   15.40
   3  -2   4  155.38   15.30
   3  -2   4  126.79   14.60
  -3  -2  -4  120.49   10.80
   3  -2   4  114.49   19.00
   3  -2   4  144.29   13.60
   3   2   4  115.49   31.90
  -3   2  -4  133.69   13.80
  -3   2  -4  132.59   25.70
   4  -2   4  469.25   36.10
  -4  -2  -4  483.55   35.40
   4  -2   4  530.25   37.10
  -4  -2  -4  453.75   34.30
   4  -2   4  454.65   41.20
   4  -2   4  540.65   36.20
   4   2   4  486.45   49.00
  -4   2  -4  468.25   45.10
  -4   2  -4  462.05   41.00
  -4   2  -4  537.05   36.80
  -5  -2  -4  260.77   19.50
  -5  -2  -4  209.48   27.90
   5  -2   4  256.07   21.80
   5  -2   4  201.98   23.20
   5  -2   4  273.97   28.20
  -5  -2  -4  222.48   19.00
   5   2   4  236.78   35.00
  -5   2  -4  207.58   26.20
  -5   2  -4  252.97   22.80
  -6  -2  -4  291.27   22.90
  -6  -2  -4  265.37   28.50
   6  -2   4  288.37   30.50
  -6  -2  -4  315.17   23.60
   6  -2   4  254.77   28.50
   6  -2   4  322.37   27.20
   6   2   4  320.77   36.50
  -6   2  -4  319.97   27.80
  -6   2  -4  342.27   27.90
  -7  -2  -4   68.69   10.60
   7  -2   4   86.89   13.60
  -7  -2  -4   84.89   11.00
   7  -2   4   75.39   15.30
   7  -2   4  123.59   22.80
   7   2   4   68.09   16.60
  -7   2  -4   88.59   17.20
  -7   2  -4  115.59   21.60
   7   2   4   73.89   19.10
  -8  -2  -4   28.00    5.40
  -8  -2  -4   37.50    7.30
  -8  -2  -4   30.30    8.20
  -8   2  -4   40.20    7.90
   8   2   4    7.10   12.40
  -9  -3   4  104.39    9.90
   9  -3  -4  115.19   17.90
   9   3  -4  107.99   16.10
  -8  -3   4    8.60    4.30
   8  -3  -4    5.20    9.90
   8  -3  -4  -16.90   21.20
  -8  -3   4   16.50    4.70
   8   3  -4   19.70   13.80
  -8   3   4   12.50    9.90
  -8   3   4   20.60   10.10
   7  -3  -4  570.84   44.80
  -7  -3   4  598.84   40.60
  -7  -3   4  563.14   40.90
   7  -3  -4  475.85   49.60
  -7   3   4  600.14   43.40
   7   3  -4  557.44   48.90
  -7   3   4  622.64   45.30
  -7   3   4  615.64   44.60
   6  -3  -4  456.85   41.10
   6  -3  -4  535.35   43.20
  -6  -3   4  536.85   39.10
  -6  -3   4  505.95   39.50
   6  -3  -4  550.94   44.70
   6   3  -4  632.94   52.49
  -6   3   4  592.74   41.40
  -6   3   4  599.04   45.40
  -6   3   4  612.34   46.20
  -6   3   4  625.04   46.10
   5  -3  -4  218.78   22.00
   5  -3  -4  246.48   21.30
   5  -3  -4  296.57   24.90
  -5  -3   4  242.88   18.60
  -5  -3   4  234.68   20.40
   5  -3  -4  224.28   28.50
  -5   3   4  273.67   34.60
  -5   3   4  271.87   26.90
  -5   3   4  235.68   29.10
   5   3  -4  261.77   41.40
  -5   3   4  236.98   27.20
  -5   3   4  277.57   21.00
  -4  -3   4  295.37   21.90
   4  -3  -4  290.67   24.50
   4  -3  -4  354.76   23.90
   4  -3  -4  309.57   28.30
   4  -3  -4  280.57   31.40
  -4   3   4  326.27   31.70
  -4   3   4  253.77   31.90
  -4   3   4  300.47   30.30
  -4   3   4  336.57   23.70
   4   3  -4  285.07   51.39
   3  -3  -4    4.30    6.80
   3  -3  -4    3.40    9.30
  -3  -3   4    7.60    3.60
   3  -3  -4    4.40    4.10
  -3   3   4    1.00   13.60
  -3   3   4  -12.40   14.60
  -3   3   4   14.90   11.30
  -3   3   4   13.80   18.00
  -2  -3   4 1773.82  140.69
   2  -3  -4 2210.68  143.39
   2  -3  -4 2174.88  141.29
   2  -3  -4 2220.68  141.89
   1  -3  -4  231.68   19.40
  -1  -3   4  231.68   15.80
  -1  -3   4  186.98   15.20
   1  -3  -4  176.18   18.30
   1  -3  -4  211.88   15.40
  -1  -3   4  170.38   17.00
   0  -3   4  252.67   25.80
   0  -3  -4  289.87   20.80
   0  -3   4  325.37   22.60
   0  -3   4  290.57   20.90
   0  -3  -4  289.57   20.80
   0   3  -4  255.47   24.30
  -1  -3  -4   12.70    3.90
   1  -3   4   10.00    4.60
   1  -3   4   19.50    7.70
  -1   3  -4   23.30   13.30
  -2  -3  -4  378.16   26.30
   2  -3   4  319.17   40.90
   2  -3   4  366.46   28.40
   2  -3   4  332.07   31.10
   2  -3   4  425.46   27.50
  -2   3  -4  392.06   35.50
   2   3   4  343.97   41.20
  -2   3  -4  377.36   33.70
   3  -3   4  359.36   26.40
  -3  -3  -4  358.66   25.20
   3  -3   4  355.06   30.20
   3  -3   4  371.96   35.50
   3  -3   4  350.66   27.30
   3   3   4  294.67   36.50
   3   3   4  367.16   41.00
  -3   3  -4  367.96   26.90
  -3   3  -4  338.17   34.00
  -4  -3  -4   52.69    8.60
   4  -3   4   49.10    8.90
   4  -3   4   33.50   12.80
   4  -3   4   42.50    8.00
   4   3   4   29.90   18.40
  -4   3  -4   38.70   16.00
  -4   3  -4   30.90    8.00
  -4   3  -4   30.80   14.80
   4   3   4   29.20   17.10
   5  -3   4   -3.20    9.90
   5  -3   4   -3.70   11.20
   5  -3   4    9.50   10.50
  -5  -3  -4    4.10    4.70
  -5  -3  -4    2.00    5.60
   5   3   4    0.30   15.40
  -5   3  -4  -17.60   12.00
  -5   3  -4   19.10   10.20
   5   3   4    3.00   14.50
   6  -3   4  182.48   21.10
  -6  -3  -4  150.58   14.60
  -6  -3  -4  148.09   15.00
   6  -3   4  151.28   23.30
   6   3   4  201.18   28.30
  -6   3  -4  163.38   23.00
   6   3   4  147.59   26.10
  -6   3  -4  193.08   22.80
   7  -3   4  136.89   19.40
   7  -3   4  190.88   19.10
  -7  -3  -4  186.58   15.10
  -7  -3  -4  189.98   15.60
  -7   3  -4  167.18   22.00
   7   3   4  173.08   23.90
  -8  -4   4  267.57   19.70
   8  -4  -4  248.08   21.50
   8   4  -4  267.87   29.10
  -7  -4   4   69.79    9.90
  -7  -4   4   63.89    9.00
   7  -4  -4   66.49   12.30
   7  -4  -4   53.39   11.70
   7   4  -4   92.89   17.20
  -7   4   4   62.49   11.70
   6  -4  -4  -22.40   15.20
  -6  -4   4    7.70    4.00
   6  -4  -4   11.00    7.90
   6  -4  -4    3.70   10.20
   6  -4  -4    3.30    9.80
   6   4  -4   23.70   17.80
  -6   4   4    4.60   10.80
  -6   4   4   14.50   10.50
   5  -4  -4  225.38   22.00
   5  -4  -4  215.68   31.90
   5  -4  -4  270.07   27.50
   5  -4  -4  244.68   22.30
  -5   4   4  276.47   27.80
   5   4  -4  268.37   43.00
  -5   4   4  286.47   27.00
   4  -4  -4   93.49   13.60
   4  -4  -4   80.29   13.30
   4  -4  -4  136.29   24.30
  -4  -4   4   93.19    9.90
  -4   4   4  117.29   21.40
  -4   4   4  113.69   20.00
  -4   4   4  107.39   21.50
   3  -4  -4   77.59   13.80
   3  -4  -4  129.39   26.40
  -3  -4   4   89.49   10.10
   3  -4  -4   79.79   11.00
  -3   4   4  118.59   33.40
  -3   4   4   94.09   21.30
  -3   4   4  106.89   18.40
  -3   4   4   73.09   13.70
   2  -4  -4  323.87   23.70
   2  -4  -4  324.17   25.40
  -2  -4   4  276.47   23.30
  -2   4   4  293.97   31.20
  -2   4   4  399.96   52.79
  -2   4   4  321.57   30.80
  -2   4   4  372.86   35.20
  -1  -4   4  305.57   23.00
   1  -4  -4  262.47   30.00
   1  -4  -4  336.87   23.10
  -1   4   4  310.17   41.10
  -1   4   4  395.36   49.00
  -1   4   4  299.37   31.40
  -1   4   4  322.77   32.40
   0  -4   4  818.62   59.89
   0  -4   4  881.81   58.39
   0  -4  -4  816.82   58.09
   0   4   4  827.92   64.09
   0   4   4  931.01   65.79
   0   4   4  818.62   70.89
  -1  -4  -4 1376.66   92.39
   1  -4   4 1407.76   93.69
   1  -4   4 1560.84   93.19
   1   4   4 1260.87  100.89
   1   4   4 1201.78   96.89
   2  -4   4   12.50    6.30
   2  -4   4    9.10    6.90
  -2  -4  -4   -0.10    4.40
   2  -4   4    3.60   16.70
  -2   4  -4   20.20   13.00
   2   4   4   33.80   19.50
   2   4   4    3.60   14.10
  -3  -4  -4  135.89   13.10
   3  -4   4  141.99   15.90
   3  -4   4  165.88   26.50
   3  -4   4  160.38   16.00
   3   4   4  148.89   26.30
   3   4   4  157.88   30.50
  -4  -4  -4   49.20    8.80
   4  -4   4   80.39   16.80
   4  -4   4   41.20    8.50
   4  -4   4   54.49   12.50
   4  -4   4   40.90    8.50
   4   4   4   34.90   16.00
   5  -4   4  268.57   25.70
  -5  -4  -4  267.97   23.00
   5  -4   4  288.67   31.20
   5  -4   4  266.17   23.00
   5  -4   4  286.87   24.90
  -5  -4  -4  300.77   20.80
   5   4   4  242.98   31.50
   5   4   4  225.98   29.20
  -6  -4  -4   39.00    7.10
  -6  -4  -4   36.40    7.50
   6  -4   4   46.20   11.20
   6   4   4   32.70   12.30
   6   4   4   28.00   18.00
   7  -4   4  437.06   31.50
  -7  -4  -4  394.06   30.00
   7  -4   4  409.96   30.50
   7   4   4  435.56   32.70
   7  -5  -4  259.37   20.40
   7   5  -4  225.98   30.10
   6  -5  -4  135.79   15.30
   6  -5  -4  109.79   18.20
   6  -5  -4  139.69   18.40
  -6   5   4  147.79   17.80
   6   5  -4  173.78   31.50
  -6   5   4  146.89   17.00
   5  -5  -4  130.19   16.50
   5  -5  -4  138.69   16.80
   5  -5  -4  163.68   24.10
  -5   5   4  168.88   20.50
  -5   5   4  190.78   21.70
   5   5  -4  201.58   41.30
   4  -5  -4  131.79   16.00
   4  -5  -4  133.09   22.50
   4  -5  -4  145.29   14.80
   3  -5  -4   39.80    7.20
   3  -5  -4   83.89   17.80
   3  -5  -4   50.99    9.20
  -3   5   4   51.49   13.10
  -3   5   4   46.80   13.20
   2  -5  -4  341.77   25.80
   2  -5  -4  331.27   27.40
  -2  -5   4  311.87   26.30
  -2   5   4  381.06   32.20
  -2   5   4  352.26   33.80
   1  -5  -4  250.07   20.50
   1  -5  -4  271.27   23.00
  -1  -5   4  215.18   20.10
  -1   5   4  298.07   33.90
   0  -5   4  330.67   25.40
   0  -5   4  301.37   26.50
   0  -5  -4  344.87   25.30
   0   5   4  291.17   31.40
   0   5  -4  387.06   32.90
   0   5   4  380.96   44.30
   1  -5   4  145.79   16.60
  -1  -5  -4  151.48   15.50
   1  -5   4  177.18   15.50
   1   5   4  211.98   34.40
   1   5   4  181.38   24.20
   2  -5   4  143.69   28.80
   2  -5   4  204.88   17.20
   2  -5   4  162.08   18.10
   2   5   4  199.68   32.80
   2   5   4  179.28   25.70
   3  -5   4   65.49   10.90
   3  -5   4   48.00   12.00
   3  -5   4   39.40    8.70
   3   5   4   30.50   12.70
   3   5   4   36.70   15.20
   4  -5   4   99.09   14.50
   4  -5   4  107.79   21.90
   4  -5   4   88.39   13.20
   4   5   4   95.89   17.90
   5  -5   4   30.50    7.40
   5  -5   4   26.70    9.20
   5   5   4   48.40   13.00
   5   5   4   44.70   12.30
   6  -5   4    4.70    6.20
   6   5   4   15.70    8.00
   5  -6  -4   52.09    9.30
  -5   6   4   31.70    9.60
   4  -6  -4   71.29   14.70
   4  -6  -4   59.39   11.30
   4  -6  -4   72.89   10.80
  -4   6   4   76.29   16.40
   3  -6  -4   18.10    7.20
   3  -6  -4   31.00    7.20
  -3   6   4   11.80   11.20
  -3   6   4   33.30   10.50
   2  -6  -4   27.00    7.00
   2  -6  -4   37.60    8.40
  -2   6   4   32.30   11.90
  -1  -6   4  124.69   16.10
   1  -6  -4  119.19   14.40
   1  -6  -4  121.29   18.60
  -1   6   4  156.38   19.30
   0  -6  -4   47.20   10.00
   0  -6   4   42.60    9.50
   0  -6   4   50.89    8.40
   0   6  -4   41.90   13.70
   0   6   4   31.70   10.60
   0   6   4  -10.10   29.00
   1  -6   4   87.79   12.30
   1  -6   4   70.79   12.90
   1   6   4  100.09   17.90
   1   6   4  144.29   32.00
   2  -6   4  124.89   13.20
   2  -6   4  107.09   12.80
   2   6   4  103.79   17.60
   2   6   4   74.19   18.60
   3  -6   4   18.00    7.80
   3  -6   4   16.40    5.90
   3  -6   4   17.80   11.90
   3   6   4   29.20   13.10
   3   6   4   21.50    9.20
   4  -6   4  220.58   19.00
   4   6   4  283.97   24.80
   4   6   4  238.28   23.10
  -2   7   4   94.79   11.60
  -1   7   4   47.90   10.60
   0   7   4   61.79   11.80
  -9   0   5  250.87   21.80
   9   0  -5  307.27   31.60
  -9   0   5  303.77   24.00
  -8   0   5  227.28   22.50
  -8   0   5  264.97   21.70
  -8   0   5  291.77   23.70
  -8   0   5  249.18   33.30
  -7   0   5  377.76   27.50
  -7   0   5  317.67   36.10
  -7   0   5  373.66   33.00
  -7   0   5  399.26   27.90
  -7   0   5  347.67   31.50
   6   0  -5    2.60   20.20
  -6   0   5   -4.90    9.50
   6   0  -5   -2.80    6.60
  -6   0   5   26.10   16.40
  -6   0   5    3.00    5.10
  -6   0   5   15.10    5.00
  -5   0   5   28.70    9.20
   5   0  -5   44.10    8.10
  -5   0   5   49.10    6.00
  -5   0   5   37.40   12.20
  -5   0   5   31.70   12.90
  -4   0   5  781.82   55.09
   4   0  -5  744.73   57.99
  -4   0   5  824.52   56.49
   4   0  -5  810.72   57.19
  -4   0   5  803.12   57.09
   4   0  -5  853.11   56.39
  -3   0   5 2489.35  182.88
  -3   0   5 2692.23  183.18
   3   0  -5 2984.80  183.08
   3   0  -5 2664.23  183.48
  -2   0   5   88.29    8.40
   2   0  -5   92.89   11.70
  -2   0   5   96.79   10.40
   2   0  -5  100.39   11.80
  -2   0   5   95.09   10.40
   1   0  -5 1297.47   87.59
  -1   0   5 1383.76   87.09
   1   0  -5 1403.06   87.59
  -1   0   5 1289.37   87.39
   1   0  -5 1116.79   86.49
  -1   0   5 1190.68   86.39
   0   0   5  208.18   16.70
   0   0  -5  206.48   16.20
   0   0  -5  216.58   17.30
   0   0  -5  222.98   17.90
   0   0   5  185.28   16.30
  -1   0  -5  556.54   38.60
  -1   0  -5  528.85   38.70
   1   0   5  500.25   38.30
  -1   0  -5  559.84   37.20
   1   0   5  532.95   37.60
  -2   0  -5 1969.70  117.99
   2   0   5 1710.63  116.79
  -2   0  -5 1729.63  116.39
  -2   0  -5 1482.15  117.49
  -3   0  -5  299.97   22.40
  -3   0  -5  274.37   21.40
   3   0   5  302.47   22.30
   3   0   5  309.57   27.50
  -3   0  -5  263.67   24.90
   4   0   5  373.06   39.10
   4   0   5  349.96   47.50
  -4   0  -5  442.76   29.80
   4   0   5  368.06   30.10
  -4   0  -5  408.96   35.10
  -4   0  -5  463.55   33.70
  -4   0  -5  429.86   30.30
   5   0   5 1425.46  100.69
  -5   0  -5 1450.45  103.09
   5   0   5 1438.56  104.19
  -5   0  -5 1519.65  103.69
  -5   0  -5 1541.05  101.29
  -5   0  -5 1522.75  101.19
  -6   0  -5  517.85   36.30
  -6   0  -5  420.66   42.10
  -6   0  -5  503.85   39.00
  -6   0  -5  518.75   36.10
  -7   0  -5   58.59   20.30
  -7   0  -5   72.09   14.10
  -7   0  -5   67.89   11.40
  -7   0  -5   70.89   15.10
  -8   0  -5   24.80    8.50
  -8   0  -5   36.50    7.00
  -9  -1   5   30.40    7.90
  -9  -1   5   18.80    7.20
  -9  -1   5   30.70    6.00
   9  -1  -5   43.10   16.00
  -9   1   5   33.40    7.40
   9   1  -5   36.70   13.60
  -8  -1   5   48.30    9.70
  -8  -1   5   53.29    9.50
   8  -1  -5   32.60   14.40
   8  -1  -5   21.00   15.70
  -8  -1   5   35.80    7.10
  -8   1   5   34.90    9.20
  -8   1   5   30.30    8.30
  -8   1   5   22.90   13.10
  -7  -1   5  249.78   21.10
   7  -1  -5  289.67   31.80
   7  -1  -5  257.07   25.50
  -7  -1   5  277.47   21.40
  -7  -1   5  250.97   26.60
  -7   1   5  296.47   25.20
  -7   1   5  312.77   26.60
  -7   1   5  238.38   27.90
  -7   1   5  266.67   22.00
   6  -1  -5   88.79   16.40
  -6  -1   5   70.29   14.60
  -6  -1   5   57.99   19.10
  -6  -1   5   75.09    8.50
  -6   1   5   59.39   15.50
  -6   1   5   65.09   13.00
  -6   1   5   65.59   11.20
  -6   1   5   72.39   14.10
  -5  -1   5  332.77   36.20
  -5  -1   5  401.16   27.90
  -5  -1   5  323.47   33.40
   5  -1  -5  359.26   31.30
   5  -1  -5  352.96   37.30
  -5   1   5  441.76   30.50
  -5   1   5  403.96   37.40
  -5   1   5  382.36   28.20
  -5   1   5  430.66   28.90
  -4  -1   5 1022.40   80.49
   4  -1  -5 1143.79   80.89
  -4  -1   5 1196.18   78.79
   4  -1  -5 1212.28   79.69
   4  -1  -5 1089.09   82.19
  -4  -1   5 1184.88   80.29
   4  -1  -5 1186.58   79.19
  -4  -1   5 1210.98   78.49
  -4   1   5 1153.48   78.79
  -4   1   5 1200.28   78.89
   4   1  -5 1116.99   78.79
  -4   1   5 1112.29   80.99
  -4   1   5 1246.48   79.99
  -4   1   5 1240.38   79.29
   4   1  -5 1040.50   80.19
   3  -1  -5  908.11   65.99
  -3  -1   5  894.61   66.59
  -3  -1   5  935.91   64.69
  -3  -1   5  892.01   65.79
   3  -1  -5 1003.80   67.09
  -3   1   5  942.11   66.39
   3   1  -5 1000.60   65.49
  -3   1   5  977.00   65.09
  -3   1   5 1030.20   65.89
   2  -1  -5 1307.87   81.89
  -2  -1   5 1151.78   80.19
  -2  -1   5 1099.09   81.29
   2  -1  -5 1246.08   80.59
  -2  -1   5 1225.58   81.19
   2  -1  -5 1266.57   80.49
  -2   1   5 1073.29   80.79
   2   1  -5 1164.88   80.89
  -2   1   5 1153.78   83.19
   1  -1  -5 5411.36  369.26
  -1  -1   5 5003.50  369.06
   1  -1  -5 5456.05  368.56
   1  -1  -5 6171.98  369.46
  -1  -1   5 5400.66  369.06
   1   1  -5 6122.19  368.86
   1   1  -5 5345.87  369.26
  -1   1   5 5027.80  368.56
   0  -1   5  996.50   69.19
   0  -1  -5 1028.70   70.19
   0  -1  -5  967.80   68.39
   0  -1  -5  906.11   69.19
   0  -1   5  932.71   69.29
   0   1  -5 1072.29   69.69
   0   1   5 1047.90   69.39
   0   1   5 1111.39   68.59
   1  -1   5  379.56   29.20
   1  -1   5  344.17   27.50
  -1  -1  -5  395.86   28.60
  -1  -1  -5  429.46   31.00
   1  -1   5  396.66   28.50
  -1  -1  -5  407.06   27.20
   1   1   5  381.96   30.00
  -1   1  -5  370.26   28.50
  -1   1  -5  407.66   29.40
  -1   1  -5  384.16   28.70
   1   1   5  369.76   27.20
   2  -1   5  955.10   70.79
  -2  -1  -5  953.60   72.39
   2  -1   5 1046.60   70.39
  -2  -1  -5 1055.19   70.59
   2  -1   5 1078.39   70.99
  -2  -1  -5 1008.60   71.19
   2  -1   5 1052.99   72.49
  -2  -1  -5  960.60   69.89
  -2   1  -5 1105.39   71.29
   2   1   5 1106.49   69.79
  -2   1  -5 1056.49   72.39
   2   1   5  945.21   71.59
  -2   1  -5 1044.00   70.79
   3  -1   5  167.28   19.10
  -3  -1  -5  198.68   16.70
   3  -1   5  166.58   17.50
  -3  -1  -5  180.68   23.20
   3  -1   5  192.58   17.20
  -3  -1  -5  201.88   15.20
  -3   1  -5  213.98   17.30
  -3   1  -5  208.38   16.40
   4  -1   5  666.33   53.89
   4  -1   5  746.53   48.20
   4  -1   5  599.84   52.99
  -4  -1  -5  689.43   47.10
  -4  -1  -5  670.63   51.09
  -4  -1  -5  724.03   46.60
   4   1   5  614.64   61.99
   4   1   5  677.83   54.79
  -4   1  -5  667.33   47.10
  -4   1  -5  648.64   47.10
  -4   1  -5  714.13   51.09
  -4   1  -5  590.34   49.30
  -5  -1  -5  385.26   26.30
   5  -1   5  370.26   33.60
   5  -1   5  374.26   36.30
  -5  -1  -5  346.47   26.10
  -5  -1  -5  281.67   30.60
   5  -1   5  411.96   27.70
   5   1   5  307.37   45.60
  -5   1  -5  340.27   31.40
  -5   1  -5  325.07   26.70
  -5   1  -5  341.57   27.30
  -5   1  -5  309.07   29.70
   6  -1   5   24.70   15.30
  -6  -1  -5   33.20    6.70
  -6  -1  -5   29.50    9.50
   6  -1   5   29.70    8.50
   6  -1   5   24.70   15.90
  -6  -1  -5   23.50    6.40
   6   1   5   33.90   21.50
  -6   1  -5   38.70    8.50
  -6   1  -5   29.20   11.70
  -7  -1  -5  415.66   31.90
  -7  -1  -5  416.06   33.90
  -7  -1  -5  447.56   31.70
  -7   1  -5  442.66   37.90
  -8  -1  -5  479.55   34.70
  -8  -1  -5  470.05   35.30
  -8   1  -5  511.55   35.30
  -9  -2   5   14.40    6.70
  -9  -2   5    2.70    6.30
  -9  -2   5    7.50    4.20
   9   2  -5   13.50   11.00
  -9   2   5   15.50    7.00
   8  -2  -5  219.08   25.50
  -8  -2   5  128.19   21.10
  -8  -2   5  175.78   14.80
   8  -2  -5  192.78   26.00
  -8  -2   5  168.78   14.80
   8   2  -5  168.18   27.30
  -8   2   5  155.68   22.50
  -7  -2   5   10.70    4.60
   7  -2  -5    0.90   12.10
  -7  -2   5   26.50   11.00
   7  -2  -5   -1.80   11.10
  -7  -2   5   13.60    5.20
  -7   2   5   10.30   10.30
  -7   2   5   20.10    9.90
   7   2  -5   -4.70   15.90
  -7   2   5   27.80   10.60
   6  -2  -5  128.79   23.50
  -6  -2   5  156.58   19.40
   6  -2  -5  118.59   19.60
  -6  -2   5  141.19   12.60
  -6  -2   5  141.09   13.10
  -6   2   5  132.19   21.20
  -6   2   5  142.19   21.50
  -6   2   5  136.49   17.00
  -5  -2   5  214.98   16.00
   5  -2  -5  195.78   20.10
   5  -2  -5  198.78   20.40
   5  -2  -5  169.38   25.90
  -5  -2   5  215.68   17.10
   5  -2  -5  201.38   19.20
  -5   2   5  248.98   19.30
  -5   2   5  163.68   27.20
  -5   2   5  232.48   26.10
  -5   2   5  219.48   26.30
   4  -2  -5 3520.95  241.18
   4  -2  -5 3740.03  243.88
   4  -2  -5 3512.65  243.78
   4  -2  -5 3633.04  241.58
   4  -2  -5 3287.97  241.98
  -4  -2   5 3545.65  240.58
  -4  -2   5 3488.65  240.88
  -4   2   5 3762.72  241.68
  -4   2   5 3877.31  241.98
  -4   2   5 3459.75  243.88
   3  -2  -5 2180.68  164.18
   3  -2  -5 2450.35  163.48
  -3  -2   5 2228.88  162.98
   3  -2  -5 2185.28  165.28
   3  -2  -5 2748.82  165.18
   3  -2  -5 2616.84  163.98
  -3  -2   5 2328.97  163.78
  -3   2   5 2560.94  163.78
  -3   2   5 2520.35  165.18
   2  -2  -5 1010.30   67.69
  -2  -2   5  987.40   67.19
   2  -2  -5  913.21   66.59
   2  -2  -5 1055.39   67.99
   2  -2  -5  888.11   68.19
  -2   2   5 1009.30   66.69
  -2   2   5  980.30   67.99
  -1  -2   5   63.99    7.60
   1  -2  -5   77.89   11.80
  -1  -2   5   71.19    9.60
   1  -2  -5   70.69    8.40
  -1   2   5   74.49    7.20
  -1   2   5   82.39   10.80
   0  -2  -5 1357.96   88.19
   0  -2  -5 1382.16   89.19
   0  -2   5 1256.57   88.29
   0  -2   5 1327.07   89.59
   0  -2   5 1238.58   89.79
   0  -2  -5 1255.37   89.69
  -1  -2  -5  418.46   29.30
   1  -2   5  423.26   28.60
  -1  -2  -5  413.06   27.90
   1  -2   5  404.66   30.60
   1  -2   5  365.56   31.40
   1  -2   5  392.66   30.20
  -1   2  -5  363.96   29.80
  -1   2  -5  430.86   29.30
   1   2   5  351.56   29.50
   2  -2   5   85.89   10.30
   2  -2   5   88.09   13.20
  -2  -2  -5   71.99   10.20
   2  -2   5   59.89   14.20
  -2  -2  -5   76.19    8.30
   2  -2   5   84.99   12.50
  -2  -2  -5   98.59   12.40
  -2   2  -5  104.49   12.20
   2   2   5   75.79   14.90
  -2   2  -5  118.39   20.40
   3  -2   5   71.09   10.00
   3  -2   5   55.59   10.90
  -3  -2  -5   50.49    7.30
   3  -2   5   47.00    8.70
   3  -2   5   43.20   14.50
  -3  -2  -5   55.89   10.80
  -3   2  -5   71.29   16.70
   3   2   5   62.89   22.90
  -3   2  -5   67.29   12.90
   4  -2   5   11.20   12.60
   4  -2   5   12.50    7.50
   4  -2   5    1.30    7.70
  -4  -2  -5   37.10   23.00
  -4  -2  -5   14.00    4.40
  -4  -2  -5    8.20    5.70
   4  -2   5    9.30    7.20
   4   2   5   30.60   18.60
  -4   2  -5    3.70    6.80
  -4   2  -5   27.20   13.30
  -5  -2  -5  966.10   64.59
   5  -2   5  907.81   68.49
   5  -2   5  957.40   66.29
  -5  -2  -5  997.10   64.49
  -5  -2  -5  800.22   67.69
   5   2   5  909.91   74.29
  -5   2  -5  961.20   66.79
  -5   2  -5  953.80   67.79
  -6  -2  -5  142.19   19.00
   6  -2   5  156.58   20.50
  -6  -2  -5  132.09   13.40
  -6  -2  -5  111.29   14.60
   6  -2   5  133.09   21.70
   6  -2   5  173.08   19.70
   6   2   5  136.49   29.40
  -6   2  -5  168.18   19.20
   7  -2   5  273.27   25.90
  -7  -2  -5  277.07   24.40
  -7  -2  -5  300.67   21.80
  -7  -2  -5  280.87   22.40
   7  -2   5  293.97   27.70
   7   2   5  263.17   32.80
  -7   2  -5  271.57   24.10
   7   2   5  274.47   28.20
  -7   2  -5  317.47   30.70
  -8  -2  -5   43.00    7.60
  -8  -2  -5   29.40    5.90
  -8   2  -5   48.50    9.80
   9  -3  -5   90.79   16.10
  -9  -3   5  110.39    9.90
   9   3  -5  137.59   16.30
  -9   3   5  108.89   14.70
  -8  -3   5   18.50    4.60
  -8  -3   5   19.80    5.10
   8  -3  -5   25.40    9.40
   8   3  -5   38.70   14.10
  -8   3   5   -3.50   13.90
  -8   3   5   30.80    9.90
  -7  -3   5  280.87   19.40
   7  -3  -5  299.57   26.30
  -7   3   5  263.17   27.00
  -7   3   5  228.98   24.50
   7   3  -5  254.87   31.90
  -7   3   5  210.98   24.10
   6  -3  -5  134.29   22.20
   6  -3  -5  135.79   16.60
  -6  -3   5  108.79   11.90
   6  -3  -5  112.09   18.10
  -6  -3   5  139.59   10.90
   6   3  -5  141.59   32.40
  -6   3   5  110.79   20.10
  -6   3   5   83.19   16.40
  -6   3   5  120.79   16.10
   5  -3  -5  668.53   48.60
   5  -3  -5  697.53   52.29
  -5  -3   5  689.13   47.30
  -5  -3   5  655.73   46.50
   5  -3  -5  665.43   48.40
   5  -3  -5  654.93   50.19
  -5   3   5  677.73   62.49
  -5   3   5  660.53   47.80
  -5   3   5  721.03   53.69
   5   3  -5  663.73   63.09
  -5   3   5  642.54   51.59
  -5   3   5  720.03   52.79
   4  -3  -5  210.18   18.80
  -4  -3   5  211.48   16.70
   4  -3  -5  220.48   20.10
   4  -3  -5  226.98   28.80
   4  -3  -5  185.68   24.20
  -4   3   5  260.77   18.30
  -4   3   5  247.68   26.60
  -4   3   5  226.68   30.00
   4   3  -5  224.58   38.40
  -4   3   5  242.78   27.00
   3  -3  -5  152.38   29.00
   3  -3  -5   85.99   13.50
   3  -3  -5   93.69   10.90
  -3  -3   5   81.99    9.00
  -3   3   5  101.39   24.70
  -3   3   5  108.59   21.00
  -3   3   5  143.09   29.60
  -3   3   5  127.99   28.10
  -2  -3   5   74.39    8.30
   2  -3  -5   82.29   12.60
   2  -3  -5   93.19    9.00
  -2   3   5  132.29   23.10
   1  -3  -5 2841.42  192.18
   1  -3  -5 3023.70  190.88
  -1  -3   5 2670.13  190.68
  -1  -3   5 2453.55  191.38
   1  -3  -5 2836.62  191.48
  -1   3   5 3195.08  192.28
   0  -3  -5  558.04   34.70
   0  -3   5  486.85   38.50
   0  -3   5  433.56   35.90
   0  -3  -5  486.75   35.70
   0  -3   5  499.15   34.80
   0   3  -5  509.85   38.40
  -1  -3  -5   76.69    7.70
   1  -3   5   77.09    9.40
   1  -3   5   56.69   10.90
   1   3   5   49.70   16.70
  -1   3  -5   76.79   18.70
  -2  -3  -5  139.09   11.20
   2  -3   5  141.09   18.10
   2  -3   5  122.89   14.80
   2  -3   5  129.79   27.60
   2   3   5  102.59   20.50
  -2   3  -5  118.79   13.50
   2   3   5  113.19   22.80
   2   3   5  165.28   25.50
   3  -3   5  109.19   12.30
  -3  -3  -5   86.89    9.50
   3  -3   5  101.19   14.20
   3  -3   5  148.49   23.90
   3  -3   5   93.39   16.10
  -3  -3  -5   84.09   13.90
  -3   3  -5  112.39   13.10
   3   3   5   71.59   19.50
   3   3   5  104.09   20.90
  -4  -3  -5  918.91   66.59
   4  -3   5  941.11   67.59
   4  -3   5  944.01   68.09
  -4  -3  -5  978.30   67.19
   4  -3   5 1014.70   70.99
   4  -3   5  975.30   69.69
  -4   3  -5 1018.60   71.79
   4   3   5 1004.60   75.49
   4   3   5  808.62   72.49
  -4   3  -5 1102.69   68.09
   5  -3   5  151.28   22.30
   5  -3   5  121.79   19.30
   5  -3   5  158.48   22.80
   5  -3   5  132.29   21.70
  -5  -3  -5  155.08   15.90
  -5  -3  -5  147.19   13.70
  -5   3  -5  181.18   19.60
   5   3   5  143.09   24.60
   5   3   5  124.19   28.90
  -5   3  -5  178.78   23.50
   6  -3   5   97.99   18.20
  -6  -3  -5  110.99   12.30
  -6  -3  -5  111.49   11.70
   6  -3   5  118.49   19.40
   6  -3   5  111.39   22.10
  -6   3  -5   85.99   17.90
   6   3   5  123.79   24.10
   6   3   5  119.79   26.20
  -6   3  -5  115.09   22.80
   7  -3   5  157.98   18.00
  -7  -3  -5  164.88   14.40
  -7  -3  -5  165.18   14.20
   7  -3   5  162.18   16.40
   7   3   5  163.48   23.80
  -8  -4   5   49.80    8.30
   8  -4  -5   60.09   11.30
   8   4  -5   47.10   13.60
   7  -4  -5   23.40    9.50
   7  -4  -5   37.20    9.80
  -7   4   5   18.00    7.80
   7   4  -5   19.60   15.80
  -6  -4   5   12.00    6.50
   6  -4  -5   18.00    9.80
   6  -4  -5    6.90    8.30
   6  -4  -5   14.60    9.10
  -6  -4   5    8.00    4.50
  -6   4   5   15.40   11.60
   6   4  -5    6.80   17.70
  -6   4   5   12.80    9.20
   5  -4  -5  461.95   36.60
   5  -4  -5  436.86   32.60
   5  -4  -5  362.86   41.10
  -5  -4   5  428.26   30.10
   5  -4  -5  412.56   32.40
  -5   4   5  409.96   35.80
  -5   4   5  425.36   36.70
  -5   4   5  443.06   36.40
  -4  -4   5  146.39   13.10
   4  -4  -5  150.48   15.60
   4  -4  -5  139.09   24.30
   4  -4  -5  129.69   15.40
  -4   4   5  148.89   23.00
  -4   4   5  126.19   21.60
  -4   4   5  141.79   21.90
   3  -4  -5   82.99   13.60
  -3  -4   5   74.99    9.00
   3  -4  -5   67.99   16.50
   3  -4  -5   76.59   10.80
  -3   4   5   85.39   20.00
  -3   4   5   67.89   12.90
  -3   4   5   86.59   25.30
   2  -4  -5  806.42   52.09
  -2  -4   5  640.74   51.39
   2  -4  -5  806.22   53.09
  -2   4   5  817.72   57.79
  -2   4   5  697.93   57.29
  -2   4   5  747.73   59.79
  -2   4   5  726.73   68.09
   1  -4  -5  145.19   12.60
   1  -4  -5  150.28   16.10
  -1  -4   5  112.49   12.20
  -1   4   5  217.38   40.50
  -1   4   5  141.99   22.30
  -1   4   5  187.58   26.60
   0  -4  -5   27.50    5.00
   0  -4   5   16.70    7.20
   0  -4   5   24.20    5.40
   0   4   5   27.90   14.20
   0   4   5   39.90   20.00
   0   4   5   12.50   16.30
   0   4  -5   22.80   17.80
   1  -4   5   43.30    7.00
  -1  -4  -5   45.50    6.10
   1  -4   5   49.00   19.40
   1  -4   5   26.10    7.30
   1   4   5   63.49   19.00
   1   4   5   29.20   14.10
  -1   4  -5   85.99   21.60
   1   4   5   52.19   19.00
   2  -4   5  166.78   16.70
   2  -4   5  154.28   26.90
  -2  -4  -5  137.39   13.10
   2  -4   5  179.88   16.80
   2   4   5  188.18   34.10
   2   4   5  147.29   24.40
   2   4   5  163.78   27.00
  -3  -4  -5  417.46   33.50
   3  -4   5  499.75   35.10
   3  -4   5  457.55   40.40
   3  -4   5  480.65   35.30
   3   4   5  462.85   42.90
   3   4   5  549.74   46.30
   4  -4   5  151.38   18.10
  -4  -4  -5  143.09   14.20
   4  -4   5  167.38   30.40
   4  -4   5  184.48   23.00
   4  -4   5  159.38   17.60
   4   4   5  155.58   25.80
   4   4   5  196.58   29.90
  -5  -4  -5  401.36   29.50
   5  -4   5  394.36   33.30
   5  -4   5  454.45   37.70
  -5  -4  -5  410.76   30.90
   5  -4   5  392.26   30.90
   5  -4   5  458.95   34.50
   5   4   5  354.66   37.10
  -6  -4  -5   55.89   10.40
   6  -4   5   83.19   13.90
   6  -4   5   66.49   12.40
  -6  -4  -5   54.99   10.90
   6   4   5   93.49   18.10
   6   4   5   72.59   14.90
   7  -5  -5   44.00    7.10
  -7   5   5   22.60    7.90
   6  -5  -5   12.80   10.10
   6  -5  -5    9.10    7.20
   6  -5  -5    8.60    7.60
  -6   5   5    2.00    8.10
   5  -5  -5    6.80    6.60
   5  -5  -5    4.50   11.20
  -5   5   5    6.30   10.40
  -5   5   5    4.20   10.80
  -4  -5   5  259.77   20.80
   4  -5  -5  275.77   28.20
   4  -5  -5  253.27   22.30
   4  -5  -5  259.37   22.00
  -4   5   5  275.87   27.10
  -4   5   5  281.87   26.20
   3  -5  -5  168.58   19.40
   3  -5  -5  217.08   31.60
   3  -5  -5  198.28   17.70
  -3  -5   5  196.48   17.40
  -3   5   5  220.38   24.50
   2  -5  -5  292.87   22.10
  -2  -5   5  233.78   22.10
   2  -5  -5  316.47   23.80
  -2   5   5  265.37   27.40
  -2   5   5  302.17   28.90
  -2   5   5  268.97   31.50
  -2   5   5  280.67   44.80
   1  -5  -5  674.83   47.30
  -1  -5   5  602.44   46.20
  -1  -5   5  560.44   47.30
   1  -5  -5  671.63   46.30
  -1   5   5  746.23   58.79
  -1   5   5  726.73   51.89
   0  -5  -5  404.46   27.90
   0  -5   5  350.96   29.40
   0  -5   5  347.47   28.40
   0   5   5  384.86   34.90
   0   5   5  437.86   43.80
  -1  -5  -5    5.90    6.30
   1  -5   5    7.40    5.80
   1  -5   5    7.50    7.50
   1   5   5   -0.10   13.10
   1   5   5   19.40   16.90
   2  -5   5   36.60    8.80
  -2  -5  -5   33.90    7.10
   2  -5   5   34.80    7.40
   2  -5   5   50.09   14.70
   2   5   5   23.50   14.70
   2   5   5   26.20   13.80
   3  -5   5   80.89   12.40
   3  -5   5   61.99   12.60
   3  -5   5  104.19   20.60
   3   5   5   54.89   14.60
   3   5   5   76.49   16.90
   4  -5   5  369.66   28.10
   4  -5   5  397.16   29.10
   4  -5   5  392.86   32.10
   4   5   5  329.47   35.90
   4   5   5  363.76   33.20
   5  -5   5   34.10    8.40
   5  -5   5   50.89    7.70
   5   5   5   30.90   10.40
   5   5   5   62.49   15.40
   5  -6  -5   42.60   10.00
   5  -6  -5   17.80    6.50
  -5   6   5   26.40    9.30
   4  -6  -5  137.59   14.50
   4  -6  -5  140.89   24.90
   4  -6  -5  132.79   13.60
  -4   6   5  145.39   18.20
   3  -6  -5  127.69   12.30
   3  -6  -5  106.09   13.50
  -3   6   5   80.49   18.60
  -3   6   5  122.59   16.40
  -2  -6   5   46.70   11.00
   2  -6  -5   73.99   12.30
   2  -6  -5   69.09   10.80
  -2   6   5   41.30   11.30
   1  -6  -5   36.50    8.10
  -1  -6   5   51.29    9.60
  -1  -6   5   27.60    8.20
  -1   6   5   47.30   12.90
   0  -6   5   79.79   12.80
   0  -6   5  104.09   13.80
   0  -6  -5  130.39   15.20
   0   6   5  103.99   17.40
   0   6   5   57.79   19.30
   1  -6   5    2.70    5.90
   1  -6   5    8.80    6.50
   1   6   5    8.10    9.80
  -1   6  -5   16.60   11.30
   1   6   5   -1.30   14.10
   2  -6   5    3.50    6.50
   2  -6   5   19.60    6.00
   2   6   5    7.40   10.90
   2   6   5   21.30   13.50
   3  -6   5   23.30   11.90
   3  -6   5   46.00    8.30
   3  -6   5   41.70    6.80
   3   6   5   33.20    9.30
   3   6   5   34.20   13.30
   4  -6   5   18.20    6.00
   4  -6   5   24.80    5.90
   4   6   5   16.20    9.80
   4   6   5   14.10   10.40
  -9   0   6   30.50    6.70
  -9   0   6   43.40    7.70
   9   0  -6   42.50   13.50
  -8   0   6   63.89   11.80
  -8   0   6   54.99   16.60
  -8   0   6   77.79   14.60
  -8   0   6   75.39   10.30
  -8   0   6   48.60   15.10
  -7   0   6  347.37   32.20
  -7   0   6  408.56   28.20
  -7   0   6  331.87   33.90
  -7   0   6  368.46   35.60
  -7   0   6  399.16   28.50
  -6   0   6   88.59   17.10
  -6   0   6   62.89    9.10
  -6   0   6   64.79   10.00
   6   0  -6   68.29   13.10
  -6   0   6   67.69   13.00
   6   0  -6   52.89   21.10
  -5   0   6  317.17   27.40
   5   0  -6  250.77   40.40
  -5   0   6  310.47   24.00
  -5   0   6  329.17   23.70
  -5   0   6  360.26   34.50
   5   0  -6  331.27   26.40
  -5   0   6  341.47   29.70
  -4   0   6 1553.34  110.19
   4   0  -6 1482.45  111.39
  -4   0   6 1632.74  107.89
   4   0  -6 1672.93  108.99
  -4   0   6 1625.84  109.19
  -3   0   6 1233.78   77.89
   3   0  -6 1159.38   79.39
   3   0  -6 1178.48   80.59
  -3   0   6 1202.18   79.09
  -3   0   6 1150.18   79.69
   3   0  -6  972.40   78.69
   2   0  -6  118.59   14.60
  -2   0   6  100.29    9.40
   2   0  -6  105.09   12.40
  -2   0   6   96.69   11.60
   2   0  -6  132.09   13.20
  -2   0   6  110.09   11.60
  -1   0   6 1259.67   92.99
  -1   0   6 1260.97   91.69
   1   0  -6 1353.56   93.39
   1   0  -6 1501.95   93.29
  -1   0   6 1421.46   92.59
   0   0  -6 1204.08   81.29
   0   0  -6 1163.28   79.89
   0   0   6 1208.68   80.39
   0   0   6 1197.68   81.29
   0   0   6 1124.59   79.79
   0   0  -6 1167.58   81.09
   1   0   6   74.49   10.70
  -1   0  -6   80.09   12.20
   1   0   6   50.59    9.90
  -1   0  -6   63.59   12.50
   1   0   6   57.09    9.10
  -2   0  -6 4016.20  277.37
  -2   0  -6 4483.85  277.07
   2   0   6 4108.19  275.97
  -2   0  -6 3958.20  275.47
  -2   0  -6 4397.26  275.77
   2   0   6 3641.74  277.27
  -3   0  -6  162.88   25.70
   3   0   6  191.38   16.70
  -3   0  -6  199.48   16.80
  -3   0  -6  186.58   20.80
   3   0   6  216.48   29.10
  -3   0  -6  200.98   15.80
   4   0   6  193.48   38.50
   4   0   6  228.28   19.60
   4   0   6  211.98   27.80
  -4   0  -6  273.57   19.40
  -4   0  -6  237.78   26.00
  -4   0  -6  229.98   25.50
  -4   0  -6  277.67   20.30
   5   0   6  119.39   20.80
  -5   0  -6  127.19   15.10
   5   0   6  131.49   13.20
  -5   0  -6  139.19   22.10
  -5   0  -6  157.28   14.50
  -5   0  -6  122.79   19.50
  -6   0  -6  302.57   35.80
  -6   0  -6  343.07   26.90
  -6   0  -6  363.36   27.00
   6   0   6  355.76   31.30
  -6   0  -6  330.77   29.20
  -7   0  -6   57.09   11.60
  -7   0  -6   73.09   28.20
  -8   0  -6   -3.50    4.70
  -9  -1   6  106.69   11.30
  -9  -1   6  106.29   13.10
  -9  -1   6  103.19   13.90
  -9   1   6  102.29   14.00
   9   1  -6  100.79   20.00
  -8  -1   6   25.00    6.30
  -8  -1   6    8.50    7.50
   8  -1  -6   25.20   15.00
   8  -1  -6   33.30   15.90
  -8   1   6   25.40    8.40
  -8   1   6   35.10   12.30
  -8   1   6    7.20    9.10
  -8   1   6   19.60   11.90
  -7  -1   6  208.18   17.20
   7  -1  -6  165.58   28.70
  -7  -1   6  184.58   29.70
  -7  -1   6  209.98   17.50
   7  -1  -6  216.48   22.30
  -7   1   6  218.28   18.70
  -7   1   6  201.28   22.60
  -7   1   6  211.58   21.60
  -7   1   6  224.38   22.70
  -7   1   6  204.88   25.80
   6  -1  -6   38.90   10.00
   6  -1  -6   67.29   16.40
  -6  -1   6   48.80    6.80
  -6  -1   6   49.80    8.00
  -6  -1   6   60.39   13.50
  -6   1   6   39.60    8.20
  -6   1   6   31.80   14.20
   5  -1  -6  225.78   23.30
  -5  -1   6  237.88   18.20
  -5  -1   6  225.38   26.70
   5  -1  -6  236.88   30.10
   5  -1  -6  209.98   23.80
  -5  -1   6  196.58   26.40
  -5   1   6  252.17   21.70
  -5   1   6  230.08   18.70
  -5   1   6  235.08   28.00
  -5   1   6  211.28   26.20
  -5   1   6  270.07   19.90
   4  -1  -6  177.48   18.30
  -4  -1   6  201.58   20.60
  -4  -1   6  203.18   15.90
   4  -1  -6  206.88   19.50
  -4  -1   6  203.28   15.10
   4  -1  -6  199.28   22.90
   4  -1  -6  221.28   18.00
  -4  -1   6  200.28   20.90
  -4   1   6  188.88   17.80
   4   1  -6  218.68   17.00
  -4   1   6  174.08   16.20
  -3  -1   6   32.30    7.00
   3  -1  -6   22.10    5.60
   3  -1  -6   17.90   10.20
   3  -1  -6   14.20    7.50
   3  -1  -6   37.60    8.20
  -3  -1   6   32.80    6.00
  -3  -1   6   31.30    7.70
  -3  -1   6   22.00    3.70
  -3   1   6   45.70   11.00
  -3   1   6   26.50    5.50
   3   1  -6   26.00    6.60
  -3   1   6   20.80    5.70
   2  -1  -6   23.30    6.80
   2  -1  -6   16.50    8.10
  -2  -1   6   17.80    6.00
  -2  -1   6   17.90    6.20
   2  -1  -6   18.70    5.70
   2   1  -6   22.70    8.00
  -2   1   6   31.60    8.50
   2   1  -6   19.30    5.80
  -2   1   6   13.60    6.80
   1  -1  -6 2065.19  138.99
  -1  -1   6 1970.20  139.49
   1  -1  -6 2051.29  139.99
   1  -1  -6 1945.21  139.89
  -1  -1   6 2033.00  139.79
   1   1  -6 2184.98  139.49
  -1   1   6 2213.38  139.09
   1   1  -6 1982.60  139.99
   0  -1  -6  290.37   24.00
   0  -1  -6  302.67   26.40
   0  -1   6  315.07   23.70
   0   1   6  296.77   22.10
   0   1  -6  276.57   24.50
   1  -1   6  705.53   46.00
  -1  -1  -6  603.24   45.50
  -1  -1  -6  605.04   47.70
   1  -1   6  572.64   44.80
  -1  -1  -6  690.83   44.70
  -1  -1  -6  627.64   46.60
   1  -1   6  610.44   46.90
  -1   1  -6  683.73   47.50
   1   1   6  646.64   46.90
  -1   1  -6  667.03   45.60
   1   1   6  707.13   44.80
   2  -1   6  303.87   25.00
   2  -1   6  342.47   24.10
  -2  -1  -6  324.47   24.10
   2  -1   6  290.97   29.30
   2  -1   6  327.07   24.90
  -2  -1  -6  346.77   23.20
  -2  -1  -6  312.67   27.40
  -2  -1  -6  369.76   28.70
   2   1   6  286.27   28.10
  -2   1  -6  340.77   25.60
   2   1   6  305.37   23.00
  -2   1  -6  325.47   24.60
  -2   1  -6  296.47   25.00
  -2   1  -6  303.77   29.60
  -3  -1  -6  683.73   51.19
  -3  -1  -6  716.33   46.10
   3  -1   6  699.93   54.49
   3  -1   6  659.23   47.30
  -3  -1  -6  708.93   46.60
   3  -1   6  639.44   52.99
   3  -1   6  758.42   47.70
  -3   1  -6  585.04   46.50
  -3   1  -6  640.14   48.30
   3   1   6  563.64   51.69
  -3   1  -6  586.84   46.70
  -3   1  -6  710.93   51.19
  -4  -1  -6  635.64   51.19
  -4  -1  -6  679.43   47.00
   4  -1   6  576.54   53.29
  -4  -1  -6  655.03   47.40
   4  -1   6  703.23   48.40
   4  -1   6  605.84   51.69
  -4   1  -6  756.42   51.39
  -4   1  -6  700.53   47.70
  -4   1  -6  755.82   48.00
  -4   1  -6  681.73   49.70
   4   1   6  649.24   64.29
   4   1   6  659.63   52.59
   5  -1   6 1065.29   79.89
  -5  -1  -6 1121.19   75.09
  -5  -1  -6 1009.70   74.79
  -5  -1  -6  973.40   77.09
   5  -1   6 1201.78   75.99
   5  -1   6 1091.09   77.99
  -5   1  -6 1129.79   76.39
   5   1   6 1056.29   78.89
   5   1   6 1007.30   86.39
  -5   1  -6 1157.38   77.89
  -5   1  -6 1139.29   75.39
  -5   1  -6 1108.19   77.79
   6  -1   6   84.29   16.50
  -6  -1  -6   43.90    9.60
   6  -1   6   50.49    9.90
  -6  -1  -6   65.59    9.30
   6  -1   6   51.69   12.20
  -6   1  -6   63.09   13.60
  -6   1  -6   81.09   14.40
  -6   1  -6   60.49   11.20
   6   1   6   66.59   21.40
  -7  -1  -6  177.28   18.40
  -7  -1  -6  191.48   16.10
  -7  -1  -6  184.38   17.70
  -7   1  -6  170.68   18.40
  -8  -1  -6   14.40    6.50
  -8  -1  -6   22.00    5.70
  -8   1  -6    6.50    5.70
  -9  -2   6  128.59   11.40
  -9  -2   6  126.19   13.50
  -9  -2   6  113.29   14.30
  -9   2   6  160.28   14.60
  -9   2   6  103.59   16.90
   9   2  -6  135.79   18.80
  -8  -2   6   31.40    6.40
  -8  -2   6   29.20    9.70
  -8  -2   6   46.30    6.40
   8  -2  -6   30.50   13.70
   8  -2  -6   15.70   14.90
  -8   2   6   38.30   13.90
  -8   2   6   41.50   10.60
  -8   2   6   11.10   11.90
   8   2  -6   38.40   15.40
   7  -2  -6   18.20   11.40
  -7  -2   6   27.80    5.70
  -7   2   6   33.50   12.60
  -7   2   6   31.20   11.00
  -7   2   6   13.20    9.20
  -6  -2   6   23.90    5.50
   6  -2  -6   13.50   11.00
   6  -2  -6   28.50   12.50
  -6  -2   6   25.00   13.50
   6  -2  -6   15.10   17.00
  -6  -2   6   37.60    5.90
  -6   2   6   21.50   14.60
  -6   2   6   50.89   11.10
  -6   2   6   35.70    8.70
  -6   2   6   38.70   13.00
   5  -2  -6  174.68   18.20
  -5  -2   6  204.08   27.70
  -5  -2   6  184.98   14.80
   5  -2  -6  199.88   25.30
  -5  -2   6  205.48   15.80
   5  -2  -6  178.18   19.20
  -5   2   6  186.28   24.90
  -5   2   6  173.08   24.50
  -5   2   6  201.28   18.20
  -5   2   6  178.88   26.00
   4  -2  -6 4241.18  282.57
   4  -2  -6 4255.47  284.67
  -4  -2   6 4178.78  281.67
   4  -2  -6 4162.78  282.17
  -4  -2   6 4121.99  281.87
  -4   2   6 4584.64  285.47
  -4   2   6 3826.72  284.57
   3  -2  -6  567.84   41.20
   3  -2  -6  624.54   44.50
  -3  -2   6  559.04   39.60
   3  -2  -6  586.74   40.40
  -3  -2   6  546.45   40.60
   2  -2  -6  104.09   15.60
  -2  -2   6  108.29    9.30
   2  -2  -6   95.09   12.90
   2  -2  -6   81.49   16.90
   2  -2  -6  121.49   10.20
  -2  -2   6   84.49   12.80
  -2  -2   6  119.59   13.00
  -2   2   6   94.69   15.60
   1  -2  -6   32.50    7.80
  -1  -2   6   45.00    7.10
  -1  -2   6   71.79   11.60
   1  -2  -6   54.49    8.00
   1  -2  -6   66.59   10.60
  -1  -2   6   68.09   14.80
   1  -2  -6   78.49   12.60
  -1  -2   6   65.79   11.80
  -1   2   6   59.39   11.90
   1   2  -6   41.70    7.80
   0  -2  -6  224.28   17.10
   0  -2  -6  226.68   19.70
   0  -2   6  240.38   20.40
   0  -2   6  213.78   19.20
   0  -2   6  227.38   20.60
   0  -2  -6  222.58   20.40
   0  -2   6  210.88   17.20
   0   2   6  243.78   20.80
   0   2  -6  242.78   18.70
   1  -2   6   49.10   12.30
  -1  -2  -6   68.89   10.60
   1  -2   6   52.99    8.40
   1  -2   6   52.79   12.10
  -1  -2  -6   56.69    7.00
  -1  -2  -6   51.39    8.20
   1  -2   6   54.39    8.50
  -1   2  -6   77.59   12.60
   1   2   6   53.39   10.90
   2  -2   6  330.57   26.30
   2  -2   6  268.97   33.80
   2  -2   6  326.77   24.40
  -2  -2  -6  324.37   24.50
   2  -2   6  344.27   25.30
  -2  -2  -6  319.37   23.30
  -2   2  -6  348.57   44.90
  -2   2  -6  346.97   25.90
   2   2   6  255.07   42.70
  -3  -2  -6   69.49    8.20
  -3  -2  -6   80.89   11.00
   3  -2   6   58.19    9.40
   3  -2   6   60.59   15.00
   3  -2   6   69.29   14.90
   3  -2   6   63.19   11.30
   3   2   6   46.90   21.60
  -3   2  -6   62.69   14.90
  -3   2  -6   79.79   12.70
   3   2   6   84.49   20.90
  -4  -2  -6  424.66   30.30
  -4  -2  -6  395.36   37.60
  -4  -2  -6  420.46   31.00
   4  -2   6  393.36   32.20
   4  -2   6  431.36   33.10
   4  -2   6  419.36   37.60
   4  -2   6  409.56   33.10
  -4   2  -6  474.95   36.50
  -4   2  -6  418.36   32.70
   4   2   6  353.06   43.90
   4   2   6  462.25   41.70
  -5  -2  -6  435.36   33.50
  -5  -2  -6  458.75   33.80
   5  -2   6  441.86   38.00
  -5  -2  -6  484.95   38.10
   5  -2   6  481.75   36.40
   5  -2   6  471.05   39.60
  -5   2  -6  477.75   37.30
  -5   2  -6  488.85   38.00
   5   2   6  465.95   46.00
  -6  -2  -6   58.09   10.20
   6  -2   6   85.49   17.30
  -6  -2  -6   40.00    9.70
  -6  -2  -6   53.09   10.70
   6  -2   6   55.29   12.00
   6   2   6   71.99   15.00
   6   2   6   66.89   17.70
  -6   2  -6   88.29   13.50
  -6   2  -6   70.59   15.20
  -7  -2  -6   59.39    9.10
   7  -2   6   51.79   13.30
   7  -2   6   72.39   13.60
  -7  -2  -6   39.00    7.70
  -7  -2  -6   66.69    9.00
   7   2   6   58.19   14.00
  -7   2  -6   64.99   13.50
   7   2   6   50.09   12.00
  -9  -3   6   24.50    4.30
   9  -3  -6   28.50   10.00
   9   3  -6   16.30   10.30
  -9   3   6   28.20    7.30
   8  -3  -6   12.80    9.40
  -8  -3   6   20.70    5.30
  -8  -3   6   10.70    4.40
   8   3  -6   24.10   12.10
  -8   3   6   10.10    8.40
   7  -3  -6  207.48   31.80
   7  -3  -6  203.08   24.70
  -7  -3   6  234.28   18.80
  -7   3   6  222.18   23.30
  -7   3   6  303.97   29.10
   7   3  -6  288.07   34.20
  -7   3   6  283.37   25.00
   6  -3  -6  244.08   26.30
   6  -3  -6  289.27   24.60
   6  -3  -6  315.97   28.90
  -6  -3   6  327.97   21.80
  -6   3   6  301.57   33.30
  -6   3   6  266.57   28.10
   6   3  -6  269.47   38.30
  -6   3   6  277.07   23.70
  -6   3   6  225.18   28.70
   5  -3  -6  332.17   28.70
   5  -3  -6  350.86   27.90
   5  -3  -6  370.36   32.90
  -5  -3   6  354.06   25.50
  -5  -3   6  379.06   26.00
  -5   3   6  358.06   33.10
  -5   3   6  358.96   26.80
  -5   3   6  313.07   32.50
   5   3  -6  285.07   51.79
  -4  -3   6  214.48   17.70
   4  -3  -6  220.38   17.60
   4  -3  -6  213.78   18.80
  -4  -3   6  218.18   15.80
   4  -3  -6  254.37   27.80
  -4   3   6  164.68   29.20
  -4   3   6  177.78   23.80
   4   3  -6  262.67   62.29
  -4   3   6  164.48   25.40
  -4   3   6  202.68   16.90
   3  -3  -6  131.29   19.10
  -3  -3   6  114.79   10.80
  -3  -3   6  118.89   14.60
   3  -3  -6  120.89   14.30
   3  -3  -6  129.69   12.10
  -3   3   6  139.49   21.40
  -3   3   6  168.08   39.10
  -3   3   6  115.29   28.50
  -3   3   6  133.09   25.50
   2  -3  -6   87.89   12.60
  -2  -3   6   60.69    9.50
  -2  -3   6   67.99    8.30
   2  -3  -6   84.99    9.10
  -2   3   6   30.10   21.40
  -2   3   6   92.39   21.90
  -2   3   6   69.69   15.40
  -2   3   6   79.59   17.20
  -2   3   6   59.99   19.70
   1  -3  -6  205.48   17.60
  -1  -3   6  170.88   17.40
  -1  -3   6  164.08   14.70
   1  -3  -6  194.48   15.00
  -1   3   6  172.88   27.60
  -1   3   6  229.08   28.10
  -1   3   6  207.38   37.10
  -1   3   6  188.48   27.10
   0  -3  -6    9.10    7.30
   0  -3   6   17.30    4.70
   0  -3  -6   23.10    4.30
   0  -3   6   12.40    6.30
   0  -3  -6   12.80   10.70
   0   3  -6   21.80   16.20
   0   3   6   -6.00   19.10
   0   3   6   22.40   18.30
   0   3   6    7.70   14.50
  -1  -3  -6   75.79   14.20
  -1  -3  -6   87.69    8.90
   1  -3   6   84.79   19.00
   1  -3   6   88.89   15.90
   1  -3   6   84.09   10.70
   1  -3   6   80.19   12.50
   1   3   6  108.49   19.00
   1   3   6  121.19   22.10
   1   3   6   84.79   21.90
  -1   3  -6  109.19   18.70
   2  -3   6  100.19   11.50
  -2  -3  -6   85.19   13.60
  -2  -3  -6   91.49    9.10
   2  -3   6   85.89   13.30
   2  -3   6   99.19   18.60
   2  -3   6  115.39   17.80
   2   3   6   71.89   21.30
   2   3   6   92.99   21.10
  -2   3  -6   65.59   13.50
   2   3   6   89.49   18.90
   3  -3   6  682.53   52.09
  -3  -3  -6  730.23   50.09
   3  -3   6  741.63   50.49
   3  -3   6  803.92   50.29
  -3  -3  -6  723.83   49.10
   3  -3   6  719.23   54.49
  -3   3  -6  657.93   50.89
   3   3   6  688.73   58.79
   3   3   6  599.74   59.89
   4  -3   6  277.87   28.30
  -4  -3  -6  299.47   22.30
   4  -3   6  271.37   23.80
  -4  -3  -6  268.67   23.00
   4  -3   6  280.27   29.90
   4  -3   6  313.37   25.50
  -4   3  -6  322.37   26.10
   4   3   6  346.87   36.80
   4   3   6  268.17   31.00
  -4   3  -6  338.47   33.00
   5  -3   6  525.45   41.70
  -5  -3  -6  554.54   39.80
   5  -3   6  618.34   44.30
   5  -3   6  634.34   45.10
  -5  -3  -6  579.54   40.60
   5  -3   6  576.64   43.50
   5   3   6  573.54   49.90
  -5   3  -6  548.85   44.30
   5   3   6  502.75   45.00
  -5   3  -6  529.35   43.30
  -6  -3  -6   64.19    9.70
   6  -3   6   50.39   11.70
   6  -3   6   44.70   14.80
  -6  -3  -6   72.69   10.00
   6  -3   6   71.59   15.40
   6   3   6   55.29   13.70
   6   3   6   58.49   15.50
  -6   3  -6   53.79   13.50
  -7  -3  -6    7.90    5.00
   7  -3   6   16.40    8.50
   7   3   6   45.70   20.20
   7   3   6   20.50   11.10
  -8  -4   6   36.80    6.80
  -8   4   6   25.70    7.80
   8   4  -6   16.90   13.10
  -7  -4   6   99.09   10.10
   7  -4  -6   90.89   12.60
  -7  -4   6   77.79    9.30
   7   4  -6  104.49   19.30
  -7   4   6   84.39   15.50
  -6  -4   6   47.10    6.80
   6  -4  -6   24.70   10.20
  -6  -4   6   56.79    9.10
   6  -4  -6   23.20   10.30
   6   4  -6   45.00   22.10
  -6   4   6   42.50   11.30
   5  -4  -6  150.38   22.00
  -5  -4   6  117.39   14.80
   5  -4  -6  118.09   17.10
  -5  -4   6  147.89   12.60
   5  -4  -6  139.59   16.40
  -5   4   6  150.28   20.00
  -5   4   6  119.59   19.90
   5   4  -6  121.59   28.20
  -4  -4   6  553.04   38.20
   4  -4  -6  545.65   44.40
  -4  -4   6  501.15   39.80
   4  -4  -6  540.45   39.70
   4  -4  -6  565.14   39.90
  -4   4   6  545.55   44.10
  -4   4   6  591.54   45.10
  -4   4   6  523.15   43.20
  -3  -4   6   90.39   11.10
   3  -4  -6  106.49   13.40
   3  -4  -6  104.39   13.80
   3  -4  -6  163.28   26.90
  -3   4   6  121.99   20.50
  -3   4   6  142.39   24.40
  -3   4   6  134.49   23.90
  -2  -4   6  355.36   31.70
   2  -4  -6  455.75   30.30
   2  -4  -6  419.16   31.40
  -2  -4   6  368.76   29.70
   2  -4  -6  379.96   43.20
  -2   4   6  428.06   37.70
  -2   4   6  509.65   47.50
  -2   4   6  437.66   41.30
  -2   4   6  416.66   38.10
  -1  -4   6  220.78   21.10
   1  -4  -6  258.97   20.80
  -1  -4   6  226.08   18.70
   1  -4  -6  245.98   18.70
  -1   4   6  206.18   26.80
  -1   4   6  296.77   30.30
  -1   4   6  264.27   38.50
   0  -4   6   73.19   12.60
   0  -4  -6   86.39   14.00
   0  -4   6   71.29   10.70
   0  -4  -6   90.39    9.70
   0   4  -6  102.59   20.50
   0   4   6   76.89   16.90
   0   4   6   79.29   17.40
   0   4   6   71.79   21.10
   1  -4   6   81.49   18.50
  -1  -4  -6   60.49    8.60
   1  -4   6   72.89   11.50
   1  -4   6   60.19   12.20
   1   4   6   62.09   18.90
   1   4   6   50.09   16.00
   1   4   6   62.89   16.60
   2  -4   6 1128.99   74.79
   2  -4   6 1025.50   78.69
  -2  -4  -6 1048.00   73.79
   2  -4   6 1103.89   74.99
   2   4   6 1254.17   80.69
   2   4   6 1065.69   81.59
   2   4   6  952.10   79.69
  -3  -4  -6   96.69   10.40
   3  -4   6  113.39   13.70
   3  -4   6  100.39   13.30
  -3  -4  -6   70.99   13.90
   3  -4   6   77.09   14.80
   4  -4   6   80.09   19.20
   4  -4   6   53.49    9.50
  -4  -4  -6   78.39   10.30
   4  -4   6  114.29   19.30
   4  -4   6   83.69   14.60
  -4  -4  -6   60.09    9.70
   4   4   6   81.69   16.70
   4   4   6   86.19   17.00
   5  -4   6   31.50   16.80
   5  -4   6   35.10   11.50
   5  -4   6   28.80   10.00
   5  -4   6   17.60    7.90
  -5  -4  -6   35.10    7.10
  -5  -4  -6   28.70    6.00
   5   4   6   29.40   13.00
   5   4   6   39.30   13.60
  -6  -4  -6  264.47   20.90
   6  -4   6  280.37   21.80
  -6  -4  -6  255.47   22.10
   6  -4   6  294.17   22.30
   6   4   6  268.37   26.30
   7  -5  -6   19.80    6.80
  -7   5   6   19.30    7.10
   6  -5  -6   92.89   17.00
   6  -5  -6  112.79   15.10
   6  -5  -6  101.19   13.70
  -6  -5   6   86.49   13.30
  -6   5   6   92.39   14.90
   5  -5  -6  114.59   15.90
   5  -5  -6  144.49   20.60
   5  -5  -6  136.99   14.80
  -5   5   6  121.49   20.10
  -5   5   6  137.39   18.80
  -4  -5   6  249.88   18.90
   4  -5  -6  223.28   26.40
   4  -5  -6  220.88   20.30
   4  -5  -6  228.38   19.50
  -4   5   6  194.28   24.60
  -4   5   6  271.07   24.70
   3  -5  -6  112.89   13.40
  -3  -5   6  135.39   12.40
   3  -5  -6  120.09   15.20
   3  -5  -6  112.79   17.00
  -3   5   6  127.19   21.80
  -3   5   6  112.79   18.30
  -3   5   6   97.89   19.20
   2  -5  -6   36.50    6.50
   2  -5  -6   44.30    8.80
  -2  -5   6   27.60    9.80
  -2  -5   6   26.30    6.80
  -2   5   6   27.00   15.30
  -2   5   6   19.00   11.70
  -2   5   6   53.89   13.80
  -2   5   6   22.60   18.30
   1  -5  -6  403.26   30.20
  -1  -5   6  348.57   28.50
   1  -5  -6  395.76   28.40
  -1  -5   6  353.66   29.70
  -1   5   6  356.96   34.00
  -1   5   6  393.56   42.20
  -1   5   6  459.05   36.20
   0  -5  -6  177.68   15.10
   0  -5  -6  180.18   19.50
   0  -5   6  150.38   15.90
   0  -5   6  175.88   18.00
   0   5   6  189.98   32.60
   0   5   6  153.18   23.70
   1  -5   6  148.99   28.50
   1  -5   6  219.98   17.70
  -1  -5  -6  203.68   17.10
   1  -5   6  205.58   19.90
   1   5   6  167.88   29.70
   1   5   6  203.78   25.60
   2  -5   6  347.17   26.90
   2  -5   6  326.97   26.90
   2  -5   6  366.16   32.60
  -2  -5  -6  339.67   26.20
   2   5   6  357.96   35.10
   3  -5   6  383.36   28.20
   3  -5   6  329.27   33.80
   3  -5   6  402.96   28.40
  -3  -5  -6  382.36   28.10
   3   5   6  323.37   35.60
  -4  -5  -6   18.60    8.90
   4  -5   6    2.60    5.70
   4  -5   6    1.60    9.70
   4  -5   6   -2.20    8.50
   4   5   6   14.60    9.70
   4   5   6   37.00   10.90
   5  -5   6  157.88   14.80
   5  -5   6  132.09   13.60
   5  -5   6   97.49   19.20
   5   5   6  154.28   18.10
   5   5   6  143.19   15.80
   5  -6  -6   37.70    7.40
   5  -6  -6   46.20   10.30
  -5   6   6   21.60    9.00
   4  -6  -6  160.58   16.60
   4  -6  -6  218.08   26.40
   4  -6  -6  188.98   16.20
   3  -6  -6  129.49   13.60
   3  -6  -6  143.09   14.00
   2  -6  -6  139.09   14.60
   2  -6  -6  148.49   15.50
  -2  -6   6  156.78   15.80
  -2   6   6  158.58   18.20
   1  -6  -6    7.80    7.10
  -1  -6   6   23.40    7.90
  -1  -6   6   26.50    7.40
   1  -6  -6   13.00    8.40
  -1   6   6   18.90   16.10
  -1   6   6   14.80    8.80
   0  -6  -6   98.89   15.10
   0  -6   6   77.79   12.40
   0  -6   6   90.39   12.80
   0   6   6  120.39   24.70
   0   6   6  115.39   16.60
   1  -6   6   15.80    6.10
   1  -6   6   23.60    7.50
   1   6   6   27.30   13.60
   2  -6   6   -5.00   13.10
   2  -6   6   13.20    5.30
   2  -6   6   10.10    8.30
   2   6   6    9.10   11.10
   2   6   6    6.40   10.00
   3  -6   6   92.59   11.20
   3  -6   6   76.39   10.00
   3  -6   6  100.59   16.60
   3   6   6  120.99   17.90
   3   6   6   77.49   12.80
  -9   0   7   30.00    7.10
  -9   0   7   35.00    7.60
  -8   0   7   28.40    8.10
  -8   0   7   23.40    6.60
  -8   0   7   41.80   13.50
  -8   0   7   20.60   13.40
  -7   0   7  836.92   61.59
  -7   0   7  805.02   57.49
  -7   0   7  781.12   61.39
  -7   0   7  870.41   57.49
  -6   0   7  391.06   33.70
  -6   0   7  386.36   28.20
  -6   0   7  460.75   35.90
  -6   0   7  350.26   32.10
   6   0  -7  378.96   30.40
   6   0  -7  331.97   43.10
  -5   0   7   -1.00    8.80
  -5   0   7   17.10   10.80
  -5   0   7   50.69   16.50
   5   0  -7   22.50   17.90
   5   0  -7    3.80    7.10
   4   0  -7  333.37   39.30
   4   0  -7  389.56   29.40
  -4   0   7  394.36   33.00
  -4   0   7  391.46   27.30
  -4   0   7  371.56   29.00
   3   0  -7 1525.65  108.19
  -3   0   7 1565.84  105.29
   3   0  -7 1763.02  106.79
  -3   0   7 1554.84  107.49
   3   0  -7 1353.66  105.79
  -3   0   7 1652.03  105.19
  -3   0   7 1477.05  106.19
  -2   0   7   69.09   12.50
  -2   0   7   97.19   12.00
   2   0  -7  101.39   17.20
  -2   0   7   91.49   10.40
   2   0  -7  103.09   14.60
   2   0  -7   68.39   11.70
  -1   0   7   26.80    7.30
  -1   0   7   30.40    4.80
  -1   0   7   28.20    6.00
   1   0  -7   34.10    6.40
   1   0  -7   30.30   10.30
   1   0  -7   48.70    8.90
   0   0   7 2526.95  164.08
   0   0   7 2579.24  164.98
   0   0  -7 2365.66  166.08
   0   0   7 2352.46  165.88
   0   0  -7 2452.55  164.78
   0   0  -7 2348.27  165.58
  -1   0  -7   71.89   11.00
   1   0   7   74.99   10.50
   1   0   7   64.99   12.50
  -1   0  -7   96.39   18.40
  -1   0  -7   90.99    9.80
   1   0   7   71.19   12.60
  -1   0  -7   65.19   13.50
  -2   0  -7 1740.53  123.09
  -2   0  -7 1820.02  121.69
  -2   0  -7 1762.32  121.39
   2   0   7 1851.71  121.99
   3   0   7  289.47   29.30
  -3   0  -7  259.57   27.20
  -3   0  -7  308.67   22.60
  -3   0  -7  270.17   27.90
   3   0   7  228.58   37.40
  -3   0  -7  281.57   21.60
   3   0   7  301.57   22.60
   4   0   7   -5.60    5.20
  -4   0  -7    0.60   10.30
  -4   0  -7    7.80    9.80
  -4   0  -7   -0.80    6.10
   4   0   7  -20.80   19.60
  -4   0  -7   -2.60    5.00
   4   0   7   -7.50   10.80
  -5   0  -7  737.43   56.29
  -5   0  -7  719.73   51.69
   5   0   7  738.73   53.79
  -5   0  -7  741.83   51.39
  -5   0  -7  704.73   53.69
  -6   0  -7  228.98   20.30
  -6   0  -7  237.18   22.00
   6   0   7  250.17   25.80
  -6   0  -7  204.28   31.00
  -7   0  -7    7.40    7.20
  -7   0  -7   11.40    7.20
  -9  -1   7   73.39    9.60
  -9  -1   7   75.39   11.00
  -9   1   7   91.09   16.80
  -9   1   7   57.39   12.30
   9   1  -7   49.00   11.80
   8  -1  -7   -5.70   18.20
  -8  -1   7   18.40    7.20
   8  -1  -7   -0.30   19.60
  -8  -1   7   19.40    5.90
  -8  -1   7   13.00    5.40
  -8   1   7   23.50   11.20
  -8   1   7   41.60   13.40
  -8   1   7   25.60    8.10
  -7  -1   7  108.69   11.70
   7  -1  -7  114.79   19.10
  -7  -1   7  112.19   23.00
  -7  -1   7   93.39   11.20
   7  -1  -7  116.39   23.80
  -7   1   7  103.29   14.40
  -7   1   7  105.09   14.10
  -7   1   7   94.89   17.80
  -7   1   7  104.39   20.00
  -6  -1   7  800.22   57.99
  -6  -1   7  784.32   52.79
  -6  -1   7  753.62   52.79
   6  -1  -7  769.52   58.49
   6  -1  -7  722.23   55.09
  -6  -1   7  628.14   55.59
  -6   1   7  794.82   53.39
  -6   1   7  801.02   57.49
  -6   1   7  757.82   55.19
  -6   1   7  791.72   53.49
  -5  -1   7 1004.10   82.49
   5  -1  -7 1251.57   83.79
   5  -1  -7 1148.29   81.09
  -5  -1   7 1117.49   81.89
   5  -1  -7 1026.40   80.79
  -5  -1   7 1233.48   79.09
  -5   1   7 1148.49   82.39
  -5   1   7 1222.68   79.49
  -5   1   7 1152.68   80.69
  -5   1   7 1253.67   83.59
  -5   1   7 1078.39   86.29
  -5   1   7 1258.67   79.69
   4  -1  -7  313.27   25.40
  -4  -1   7  355.36   24.10
  -4  -1   7  294.97   27.80
   4  -1  -7  366.26   35.10
  -4  -1   7  348.47   23.60
   4  -1  -7  348.67   27.50
   4  -1  -7  328.77   26.20
  -4   1   7  313.27   24.60
   4   1  -7  348.47   25.50
  -4   1   7  327.47   26.20
  -4   1   7  272.57   33.80
  -4   1   7  324.67   30.90
  -3  -1   7  143.79   11.60
  -3  -1   7  114.89   15.50
  -3  -1   7  146.49   12.70
   3  -1  -7  120.69   22.50
   3  -1  -7  131.09   15.30
   3  -1  -7  144.09   13.50
   3  -1  -7  148.09   16.20
  -3  -1   7  153.18   17.30
   3   1  -7  172.68   14.80
  -3   1   7  169.78   18.90
  -2  -1   7  481.45   33.50
   2  -1  -7  444.76   35.20
   2  -1  -7  498.65   36.40
   2  -1  -7  482.55   38.20
  -2  -1   7  468.35   34.30
   2  -1  -7  485.25   34.40
   2  -1  -7  461.45   34.20
  -2  -1   7  522.95   35.80
  -2  -1   7  477.45   36.20
  -2   1   7  489.55   36.70
   2   1  -7  499.15   38.50
  -2   1   7  419.06   37.90
   2   1  -7  521.15   35.60
   1  -1  -7  311.37   25.20
  -1  -1   7  266.47   22.90
   1  -1  -7  293.97   25.60
  -1  -1   7  283.47   24.00
   1  -1  -7  293.77   23.00
  -1  -1   7  273.17   20.70
   1  -1  -7  274.47   21.20
   1  -1  -7  240.18   22.30
  -1   1   7  296.87   21.90
   1   1  -7  311.77   22.70
   1   1  -7  299.57   25.50
   0  -1   7  599.44   44.20
   0  -1  -7  564.14   45.30
   0  -1   7  574.44   42.40
   0  -1  -7  621.54   44.70
   0  -1  -7  650.33   42.70
   0  -1  -7  623.84   41.80
   0  -1   7  587.34   41.70
   0  -1   7  669.43   43.20
   0   1  -7  589.84   45.20
   0   1   7  618.84   42.20
   0   1  -7  618.74   43.90
   0   1  -7  551.14   43.10
   0   1   7  547.45   44.10
  -1  -1  -7   33.60    5.10
   1  -1   7   21.40   10.90
  -1  -1  -7   34.50   10.70
   1  -1   7   30.90    7.00
  -1  -1  -7   32.00    6.50
   1  -1   7   34.00    5.70
  -1  -1  -7   43.80   10.90
   1  -1   7   47.10    7.50
  -1   1  -7   37.80    8.90
   1   1   7   19.20   10.80
  -1   1  -7   53.89   11.30
   2  -1   7  168.68   17.00
   2  -1   7  191.68   17.00
   2  -1   7  179.98   28.90
  -2  -1  -7  151.78   14.20
   2  -1   7  153.48   16.10
  -2  -1  -7  147.39   15.50
   2  -1   7  187.98   22.80
  -2  -1  -7  149.29   22.10
   2   1   7  215.58   25.20
  -2   1  -7  205.58   17.30
  -2   1  -7  178.08   25.10
  -2   1  -7  179.98   16.60
  -2   1  -7  218.28   18.50
   2   1   7  198.98   14.50
   3  -1   7 1148.89   83.19
  -3  -1  -7 1177.48   85.69
   3  -1   7 1187.28   86.39
  -3  -1  -7 1269.87   82.99
   3  -1   7 1280.47   83.79
  -3  -1  -7 1251.77   87.09
   3  -1   7 1189.38   87.19
  -3  -1  -7 1252.27   82.49
   3   1   7 1247.38   85.99
  -3   1  -7 1285.67   84.69
  -3   1  -7 1117.19   82.99
  -3   1  -7 1191.68   85.29
  -3   1  -7 1202.88   82.89
   3   1   7 1105.19   97.29
   4  -1   7  257.27   31.30
  -4  -1  -7  252.57   26.90
   4  -1   7  274.17   28.40
   4  -1   7  310.67   23.50
  -4  -1  -7  285.97   33.80
  -4  -1  -7  311.57   22.30
  -4  -1  -7  280.17   21.20
   4   1   7  270.17   28.20
  -4   1  -7  267.87   27.50
  -4   1  -7  264.07   23.60
  -4   1  -7  253.97   25.50
   4   1   7  219.48   49.99
  -4   1  -7  261.67   22.30
  -5  -1  -7   39.80    7.50
   5  -1   7   27.40    8.10
  -5  -1  -7   54.19   11.00
   5  -1   7   49.10   14.80
  -5  -1  -7   20.90    6.30
   5  -1   7   37.20   11.60
  -5   1  -7   44.90   10.30
   5   1   7   56.89   14.10
  -5   1  -7   33.80    8.40
  -5   1  -7   72.09   13.90
  -6  -1  -7   37.70    8.80
   6  -1   7   32.80   25.50
  -6  -1  -7   21.50    7.00
   6  -1   7   32.80   10.60
  -6  -1  -7   22.30    6.50
  -6   1  -7   30.20    8.80
  -6   1  -7   22.50   12.10
  -6   1  -7   26.50   14.90
  -7  -1  -7   21.00   10.70
  -7  -1  -7   30.20    5.90
  -7  -1  -7   36.50    7.10
  -7   1  -7   37.20    7.40
  -9  -2   7   25.80    4.90
  -9  -2   7   42.00    7.70
  -9   2   7   18.90    9.00
   9   2  -7   37.90   11.20
  -8  -2   7   99.69   16.40
  -8  -2   7  106.59   11.80
  -8  -2   7  100.69   11.00
   8  -2  -7   93.59   18.40
   8  -2  -7  113.99   22.00
  -8   2   7  117.99   19.80
  -8   2   7  106.29   19.20
   8   2  -7  129.39   28.40
  -7  -2   7  572.04   52.89
  -7  -2   7  621.24   42.10
   7  -2  -7  601.64   46.90
   7  -2  -7  578.44   46.70
  -7   2   7  611.94   46.10
  -7   2   7  624.64   45.00
  -7   2   7  561.34   44.70
   6  -2  -7  583.74   44.10
   6  -2  -7  542.85   42.10
   6  -2  -7  493.35   40.40
  -6  -2   7  583.64   37.80
  -6  -2   7  564.64   42.30
  -6   2   7  484.65   39.70
  -6   2   7  494.15   41.90
  -6   2   7  507.85   43.30
   5  -2  -7  154.28   18.20
  -5  -2   7  170.68   14.20
  -5  -2   7  192.48   15.00
   5  -2  -7  172.48   25.40
   5  -2  -7  204.38   23.10
  -5  -2   7  171.48   24.90
   5  -2  -7  180.08   17.50
  -5   2   7  187.28   17.90
  -5   2   7  155.68   24.00
  -5   2   7  167.28   23.50
  -4  -2   7  189.98   14.80
  -4  -2   7  172.08   14.00
  -4  -2   7  209.98   30.40
   4  -2  -7  211.88   27.80
   4  -2  -7  163.48   17.20
   4  -2  -7  165.98   16.40
   4  -2  -7  190.88   23.60
  -4   2   7  195.48   17.50
  -4   2   7  135.09   20.50
  -3  -2   7  435.16   33.60
  -3  -2   7  437.16   32.80
   3  -2  -7  495.45   33.80
   3  -2  -7  445.86   34.60
   3  -2  -7  484.35   37.40
   3  -2  -7  493.65   42.60
  -3   2   7  454.55   41.00
  -3   2   7  500.55   34.20
  -3   2   7  508.15   43.80
   2  -2  -7  220.08   22.20
  -2  -2   7  187.58   22.10
  -2  -2   7  190.98   16.70
   2  -2  -7  187.78   15.60
  -2  -2   7  194.08   15.00
   2  -2  -7  188.28   17.20
   1  -2  -7  146.89   14.20
  -1  -2   7  129.39   17.60
   1  -2  -7  162.38   21.00
   1  -2  -7  130.59   12.10
  -1  -2   7  136.39   18.10
  -1  -2   7  114.59   13.50
   1  -2  -7  149.09   28.50
  -1  -2   7  112.59   11.60
  -1   2   7  148.59   11.50
   1   2  -7  153.98   12.50
   0  -2   7  213.18   16.80
   0  -2   7  205.08   18.30
   0  -2   7  236.48   20.40
   0  -2   7  185.48   23.30
   0  -2  -7  230.88   18.20
   1  -2   7  511.65   34.20
   1  -2   7  387.96   39.40
   1  -2   7  409.36   32.30
  -1  -2  -7  443.26   31.20
  -1  -2  -7  485.65   32.40
   1  -2   7  431.76   31.70
   1  -2   7  432.36   39.60
   1   2   7  415.46   43.50
   1   2   7  443.86   40.20
   2  -2   7 1895.61  130.89
   2  -2   7 2084.09  132.49
  -2  -2  -7 1683.63  137.09
   2  -2   7 1721.23  130.99
  -2  -2  -7 2005.40  130.89
  -2  -2  -7 2063.19  130.59
   2  -2   7 1704.03  133.59
   2   2   7 2021.00  134.69
   2   2   7 1960.90  138.49
  -2   2  -7 1906.71  131.69
  -2   2  -7 2180.78  134.19
   3  -2   7  474.05   35.80
   3  -2   7  539.25   36.80
   3  -2   7  490.05   35.70
  -3  -2  -7  513.05   35.20
  -3  -2  -7  521.25   41.50
  -3  -2  -7  492.55   34.20
   3  -2   7  412.56   40.70
  -3   2  -7  478.45   36.40
   3   2   7  409.86   41.90
  -3   2  -7  483.05   40.80
   3   2   7  468.05   50.29
  -4  -2  -7  127.19   12.60
   4  -2   7  116.59   16.30
   4  -2   7  108.19   16.70
   4  -2   7   77.59   15.40
  -4  -2  -7  109.49   11.60
  -4  -2  -7  108.09   20.40
   4   2   7  134.99   24.20
   4   2   7  107.29   23.60
  -4   2  -7   87.49   16.30
  -4   2  -7   98.99   20.40
   5  -2   7   27.30   11.00
   5  -2   7   33.10   12.30
   5  -2   7   30.80   10.10
  -5  -2  -7   34.70    7.50
  -5  -2  -7   34.80    6.90
   5   2   7   34.20   19.10
  -5   2  -7   21.30   11.10
  -5   2  -7   22.40   10.40
   6  -2   7  399.26   31.60
  -6  -2  -7  403.96   31.30
   6  -2   7  339.87   31.80
   6  -2   7  363.26   33.40
  -6  -2  -7  417.66   28.40
  -6  -2  -7  380.16   28.70
  -6   2  -7  372.06   31.80
  -6   2  -7  375.66   34.00
   6   2   7  364.36   34.10
   6   2   7  411.76   39.00
  -7  -2  -7   21.80    6.90
   7  -2   7   -2.40    7.90
  -7  -2  -7   -1.50    8.30
  -7  -2  -7   14.80    4.70
  -7   2  -7   15.70    7.30
   7   2   7   12.10    8.70
  -8  -3   7   19.60    5.10
  -8  -3   7   17.80    4.40
   8  -3  -7   24.10    8.90
   8   3  -7   21.30   13.10
  -8   3   7    8.20    7.50
   7  -3  -7  232.08   25.60
   7  -3  -7  208.58   29.90
  -7  -3   7  296.17   19.20
   7   3  -7  235.98   34.60
  -7   3   7  259.17   25.20
  -7   3   7  202.78   39.20
   6  -3  -7 1460.05   94.39
   6  -3  -7 1412.66   95.49
   6  -3  -7 1134.59   92.09
   6  -3  -7 1235.38   91.89
  -6  -3   7 1449.26   90.59
   6   3  -7 1342.27   99.79
  -6   3   7 1380.46   94.59
  -6   3   7 1210.98   93.59
  -6   3   7 1344.17   91.09
  -6   3   7 1311.77   97.69
   5  -3  -7  441.76   43.20
  -5  -3   7  526.75   38.10
   5  -3  -7  531.65   40.30
  -5  -3   7  521.95   38.30
   5  -3  -7  515.45   39.70
  -5   3   7  557.44   43.80
   5   3  -7  548.25   62.69
  -5   3   7  628.44   44.80
  -5   3   7  618.54   39.10
   4  -3  -7  769.02   54.19
   4  -3  -7  659.03   49.20
  -4  -3   7  696.03   48.20
   4  -3  -7  686.63   48.70
  -4  -3   7  750.22   47.70
  -4   3   7  645.84   53.89
  -4   3   7  618.54   52.59
  -3  -3   7  300.47   20.40
   3  -3  -7  280.27   21.20
   3  -3  -7  289.67   22.80
  -3  -3   7  255.77   21.60
   3  -3  -7  279.47   31.60
  -3   3   7  216.28   33.30
  -3   3   7  257.27   31.40
  -3   3   7  272.77   29.10
  -3   3   7  319.07   40.40
  -2  -3   7   10.10    4.00
   2  -3  -7    5.00    6.20
  -2  -3   7   -0.70    5.90
   2  -3  -7    5.80    4.50
   2  -3  -7   -0.50   15.40
  -2   3   7    1.90   12.80
  -2   3   7    0.00   18.10
  -2   3   7  -14.20   15.00
  -2   3   7   -7.50   19.20
  -2   3   7    3.00   13.50
  -1  -3   7  613.84   70.89
   1  -3  -7  583.24   41.00
   1  -3  -7  581.74   42.00
  -1  -3   7  512.95   40.90
  -1   3   7  637.04   48.90
  -1   3   7  542.15   47.40
  -1   3   7  658.83   54.69
  -1   3   7  621.14   47.70
   0  -3   7   -1.40    5.60
   0  -3  -7    0.30    3.50
   0  -3   7   -4.00    4.30
   0  -3   7  -23.80   17.20
   0  -3  -7    4.20    6.00
   0   3   7    8.90   14.70
   0   3   7   14.50   18.10
   0   3   7    6.40   16.80
   0   3   7    2.70   15.60
   1  -3   7   24.40    6.00
  -1  -3  -7   28.70    6.80
   1  -3   7   21.40    7.00
   1  -3   7   11.90   14.40
  -1  -3  -7   37.90    6.80
   1  -3   7   30.60   11.90
   1   3   7   38.00   16.00
   1   3   7   22.60   16.00
  -2  -3  -7  292.27   20.70
   2  -3   7  303.77   25.60
   2  -3   7  268.37   22.60
  -2  -3  -7  314.27   22.60
   2  -3   7  297.57   30.70
   2  -3   7  271.37   21.90
   2   3   7  212.78   33.90
   2   3   7  231.18   31.00
   2   3   7  248.48   32.50
   3  -3   7  658.63   47.10
   3  -3   7  654.93   48.90
  -3  -3  -7  666.83   46.10
   3  -3   7  711.93   51.39
  -3  -3  -7  705.43   45.70
   3  -3   7  675.93   46.70
   3   3   7  595.64   51.79
   3   3   7  620.14   53.39
  -3   3  -7  565.14   47.90
   3   3   7  649.14   56.19
   4  -3   7  224.68   23.00
   4  -3   7  169.28   19.30
   4  -3   7  161.28   20.70
  -4  -3  -7  192.88   17.60
   4  -3   7  151.18   23.60
  -4  -3  -7  189.28   15.80
   4  -3   7  206.78   24.20
   4   3   7  212.98   25.90
  -5  -3  -7  272.97   20.90
   5  -3   7  284.37   25.90
   5  -3   7  278.37   26.60
  -5  -3  -7  287.07   20.50
   5  -3   7  292.97   24.60
  -5   3  -7  230.08   37.40
   5   3   7  196.48   30.30
  -5   3  -7  191.08   30.40
   5   3   7  227.38   25.80
   6  -3   7   13.90    7.20
   6  -3   7   21.00    8.80
  -6  -3  -7   30.60    5.90
   6   3   7   27.40   10.20
   6   3   7   19.60   11.90
  -8  -4   7  118.09   10.30
   8  -4  -7   90.39   12.90
   8   4  -7  130.69   23.50
  -8   4   7  115.59   11.60
   7  -4  -7  191.88   20.20
  -7  -4   7  223.18   15.70
   7  -4  -7  150.28   27.50
   7   4  -7  242.08   32.50
  -7   4   7  178.38   19.60
   6  -4  -7  109.89   16.30
   6  -4  -7  166.48   28.40
  -6  -4   7  136.39   12.00
   6  -4  -7  137.49   20.30
  -6  -4   7  131.79   13.20
   6  -4  -7  137.89   18.30
  -6   4   7  169.98   20.00
   6   4  -7  131.19   26.70
   5  -4  -7    4.50    8.20
  -5  -4   7    6.10    4.90
  -5  -4   7    3.60    5.60
   5  -4  -7    8.90    7.70
   5  -4  -7    7.60    9.00
  -5   4   7   -7.00   12.70
  -5   4   7   14.20   11.00
  -5   4   7  -12.10   10.40
  -4  -4   7    9.30    4.80
   4  -4  -7   16.50    7.60
   4  -4  -7    3.40    6.60
   4  -4  -7    3.90   11.00
  -4  -4   7    2.00    5.80
  -4   4   7    9.50   12.90
  -4   4   7   -5.80   10.50
  -4   4   7   11.70   14.10
   3  -4  -7 1283.57   89.59
   3  -4  -7 1274.47   86.09
  -3  -4   7 1136.09   85.39
  -3  -4   7 1214.18   84.99
   3  -4  -7 1249.88   85.79
  -3   4   7 1344.27   89.79
  -3   4   7 1298.87   93.09
  -3   4   7 1233.28   89.09
  -3   4   7 1208.68   90.09
  -2  -4   7   98.89   13.90
   2  -4  -7  122.69   13.30
   2  -4  -7  116.79   14.10
  -2  -4   7   94.29   12.30
   2  -4  -7   95.59   17.80
  -2   4   7  120.19   21.10
  -2   4   7  135.39   29.40
  -2   4   7  153.68   23.00
   1  -4  -7   51.49    7.90
  -1  -4   7   60.49   11.70
   1  -4  -7   48.50    9.30
  -1  -4   7   42.20    6.80
  -1   4   7   39.30   13.90
  -1   4   7   33.30   13.50
  -1   4   7   32.20   19.00
   0  -4  -7   52.39    7.00
   0  -4   7   55.09    8.30
   0  -4   7   26.50   16.40
   0  -4  -7   44.90    8.40
   0   4   7   47.30   14.00
   0   4  -7   69.09   21.70
   0   4   7   35.70   16.00
   0   4   7   48.50   18.50
   0   4   7   43.00   14.70
  -1  -4  -7  282.57   23.30
   1  -4   7  291.27   33.10
  -1  -4  -7  289.77   21.90
   1  -4   7  256.67   22.90
   1  -4   7  271.67   23.30
   1   4   7  345.87   35.90
   1   4   7  348.07   32.90
   1   4   7  253.97   30.60
   2  -4   7  619.04   45.80
  -2  -4  -7  682.53   45.80
   2  -4   7  596.24   46.00
  -2  -4  -7  709.23   45.10
   2  -4   7  595.64   50.39
   2   4   7  721.93   55.79
   2   4   7  656.43   52.59
   2   4   7  569.84   51.79
   3  -4   7   59.59    9.80
  -3  -4  -7   97.49   13.70
   3  -4   7   83.49   17.90
   3  -4   7   55.29    9.40
   3  -4   7   58.59   12.70
  -3  -4  -7   84.49   10.10
   3   4   7   95.69   18.20
   4  -4   7   46.60   10.80
   4  -4   7   48.00   12.10
   4  -4   7   76.79   15.50
  -4  -4  -7   61.09   10.80
   4  -4   7   28.60    7.80
  -4  -4  -7   45.70    9.00
   4  -4   7   42.30   17.30
   4   4   7   32.60   13.60
   4   4   7   63.79   14.90
   5  -4   7   70.49   14.10
  -5  -4  -7   65.79   10.00
   5  -4   7   52.79   11.00
  -5  -4  -7   51.09   10.90
   5   4   7   68.39   13.80
   5   4   7   82.19   15.20
   6  -4   7   84.39   10.40
   6  -4   7   73.79    9.50
  -6  -4  -7   63.99   10.10
   6   4   7   65.99   12.10
   6   4   7   60.89   12.50
   6  -5  -7  134.29   15.40
   6  -5  -7  120.09   16.50
   6  -5  -7  115.29   12.60
   5  -5  -7  184.48   17.50
   5  -5  -7  175.18   20.80
  -5  -5   7  205.08   16.30
   5  -5  -7  157.08   16.90
  -5   5   7  195.18   20.20
  -5   5   7  153.88   20.80
   4  -5  -7   79.89   12.60
  -4  -5   7   78.09   12.70
   4  -5  -7   98.99   12.20
   4  -5  -7   74.29   14.70
  -4  -5   7   94.79   11.10
  -4   5   7   93.09   19.60
  -3  -5   7   23.00    8.30
  -3  -5   7   41.00    6.60
   3  -5  -7   38.00    8.10
   3  -5  -7   23.40   13.00
   3  -5  -7   39.50    6.50
  -3   5   7   28.30   11.20
  -3   5   7    3.50   11.70
  -3   5   7    6.10   10.30
  -2  -5   7  127.79   16.20
  -2  -5   7  138.69   14.00
   2  -5  -7  153.38   13.90
   2  -5  -7  151.38   16.00
  -2   5   7  126.59   18.40
   1  -5  -7  257.47   19.80
  -1  -5   7  241.18   20.20
  -1  -5   7  228.18   21.70
   1  -5  -7  239.88   22.10
  -1   5   7  265.37   28.10
  -1   5   7  232.18   25.70
  -1   5   7  264.77   33.60
   0  -5   7  112.89   12.90
   0  -5  -7  120.59   17.10
   0  -5   7   98.19   14.30
   0  -5  -7  119.49   12.30
   0   5   7  127.29   27.10
   0   5   7  102.79   20.40
   1  -5   7   72.69   10.80
   1  -5   7   57.59   15.40
  -1  -5  -7   75.49   10.60
  -1  -5  -7   55.19   10.60
   1   5   7   82.19   15.80
   2  -5   7   27.90    7.40
   2  -5   7   26.20   12.90
  -2  -5  -7   36.50    6.40
   2  -5   7   20.60    6.60
   2   5   7   11.30   11.70
   2   5   7    4.10   11.50
   3  -5   7  538.65   37.20
   3  -5   7  447.86   34.70
  -3  -5  -7  475.65   34.20
   3  -5   7  421.86   34.00
   3   5   7  466.65   38.30
   3   5   7  492.55   40.50
   4  -5   7  110.19   13.20
   4  -5   7  104.79   12.90
   4  -5   7  188.28   29.80
   4  -5   7  111.39   15.40
   4   5   7  135.49   19.40
   4   5   7  146.69   17.00
   4  -6  -7   55.39    9.10
   4  -6  -7   36.30    6.80
  -4   6   7   48.60   11.40
   3  -6  -7    8.20    6.30
   3  -6  -7   12.30    6.30
  -3   6   7   17.70    8.50
   2  -6  -7   12.30    6.80
   2  -6  -7   10.70    6.30
  -2  -6   7   -1.20    7.70
  -2   6   7   21.70    8.40
   1  -6  -7  124.39   15.10
  -1  -6   7  116.69   13.90
  -1  -6   7  124.39   13.90
   1  -6  -7  143.09   13.90
  -1   6   7   93.19   16.00
  -1   6   7  160.58   23.70
   0  -6   7   48.70    8.00
   0  -6  -7   50.49    8.60
   0  -6   7   48.20    9.80
   0  -6  -7   54.29   10.00
   0   6   7   63.89   13.00
   0   6   7   54.19   13.30
   1  -6   7   61.29    9.70
   1  -6   7   67.79   10.90
   1   6   7   67.99   13.10
   1   6   7   92.89   15.30
   2  -6   7  236.38   19.50
   2  -6   7  227.38   20.90
   2  -6   7  269.27   24.70
   2  -6   7  254.77   22.00
   2   6   7  296.57   25.00
   2   6   7  269.37   22.60
  -9   0   8   17.60    8.00
  -9   0   8   11.10    6.30
  -8   0   8   27.10    8.80
  -8   0   8   39.10   13.20
  -8   0   8   20.00    7.60
  -8   0   8   29.00   14.20
  -7   0   8  326.27   32.00
  -7   0   8  336.07   31.50
  -7   0   8  345.27   26.50
  -7   0   8  358.16   26.10
  -6   0   8   10.60   12.80
   6   0  -8    1.90    8.10
  -6   0   8    4.00   10.20
  -6   0   8    8.60    5.50
   6   0  -8  -17.80   18.00
  -6   0   8   16.20    9.30
   5   0  -8  218.78   35.50
  -5   0   8  292.57   28.70
  -5   0   8  233.28   23.90
   5   0  -8  240.18   21.90
  -5   0   8  221.48   19.00
  -5   0   8  249.97   18.70
  -5   0   8  223.88   24.80
  -4   0   8  625.24   51.39
   4   0  -8  667.53   56.99
   4   0  -8  724.03   49.80
  -4   0   8  677.83   49.30
  -4   0   8  724.23   47.60
  -3   0   8    2.60    3.90
   3   0  -8  -11.40   17.90
   3   0  -8   -3.40   12.60
  -3   0   8    6.90    6.00
   3   0  -8    1.60    6.40
  -3   0   8   -1.50    4.50
  -3   0   8    9.50   11.50
   3   0  -8    2.50    8.90
  -2   0   8  247.18   25.10
  -2   0   8  296.67   21.10
  -2   0   8  298.37   20.70
   2   0  -8  230.38   28.30
   2   0  -8  280.47   23.90
   2   0  -8  296.97   24.40
  -2   0   8  289.87   22.40
  -1   0   8  155.68   15.20
   1   0  -8  159.18   16.60
  -1   0   8  181.28   13.50
   1   0  -8  145.79   21.90
   1   0  -8  133.09   17.20
   1   0  -8  178.28   15.50
  -1   0   8  138.29   19.00
  -1   0   8  170.58   14.50
   0   0  -8    9.10    5.00
   0   0   8    4.50    6.30
   0   0  -8   -5.70   12.10
   0   0  -8    5.10    6.60
   0   0   8    2.30    4.90
   0   0   8   -9.90    6.70
   0   0   8   -0.50   10.00
   0   0  -8    5.20    6.50
   1   0   8 1010.80   67.39
  -1   0  -8 1060.09   67.19
  -1   0  -8  980.50   66.69
  -1   0  -8  832.22   68.39
   2   0   8  441.46   42.90
   2   0   8  444.66   37.40
  -2   0  -8  413.46   32.30
  -2   0  -8  429.56   37.10
  -2   0  -8  445.06   32.70
   2   0   8  494.75   33.30
  -2   0  -8  466.75   36.20
   3   0   8   75.59   10.70
  -3   0  -8   57.99   10.10
  -3   0  -8   61.39   12.20
   3   0   8  102.09   19.10
   3   0   8   79.79   14.10
  -3   0  -8   78.69   11.60
  -3   0  -8   49.40   11.20
   4   0   8  177.88   37.80
  -4   0  -8  216.58   18.70
  -4   0  -8  180.38   22.40
  -4   0  -8  200.18   19.60
   4   0   8  231.58   18.30
  -4   0  -8  218.58   25.40
   4   0   8  224.88   22.80
  -5   0  -8  126.49   15.50
  -5   0  -8  118.29   16.10
  -5   0  -8  110.39   17.50
   5   0   8  109.19   17.60
  -5   0  -8  154.88   26.60
  -6   0  -8  123.69   14.50
  -6   0  -8  109.29   20.40
  -6   0  -8  137.09   16.80
  -6   0  -8  105.39   19.50
  -7   0  -8   73.99   10.90
  -9  -1   8  236.78   16.80
  -9  -1   8  203.38   20.50
  -9  -1   8  204.78   17.50
   9   1  -8  211.88   24.90
  -9   1   8  186.78   17.70
  -9   1   8  179.88   19.90
   8  -1  -8  147.99   29.40
  -8  -1   8  174.78   25.50
  -8  -1   8  154.58   17.00
  -8  -1   8  137.39   13.80
  -8  -1   8  140.39   14.40
  -8   1   8  134.59   19.40
  -8   1   8  123.59   22.30
  -8   1   8  152.38   17.60
  -7  -1   8    2.90    9.50
   7  -1  -8   43.80   14.10
  -7  -1   8   28.00   14.30
   7  -1  -8   24.40   11.90
  -7  -1   8   19.00    5.60
  -7   1   8   25.90    9.10
  -7   1   8    3.80    9.50
  -7   1   8   10.50   10.00
  -7   1   8   17.10    8.60
  -6  -1   8  656.53   43.00
  -6  -1   8  611.54   48.70
  -6  -1   8  599.84   42.70
   6  -1  -8  596.94   45.70
  -6  -1   8  683.23   49.00
  -6  -1   8  578.44   45.80
   6  -1  -8  593.34   49.20
  -6   1   8  608.34   47.30
  -6   1   8  580.24   45.50
  -6   1   8  567.24   43.40
  -5  -1   8  115.49   23.60
  -5  -1   8  118.09   19.60
  -5  -1   8  119.89   12.30
   5  -1  -8  163.18   26.50
   5  -1  -8  113.79   16.20
   5  -1  -8  138.89   21.40
  -5   1   8  156.38   16.10
  -5   1   8  181.08   23.90
  -5   1   8  145.69   15.50
  -5   1   8  161.98   15.30
  -5   1   8  130.89   20.60
  -5   1   8  109.89   21.60
  -4  -1   8  128.59   17.70
  -4  -1   8  156.58   12.90
  -4  -1   8  144.29   23.50
  -4  -1   8  152.58   12.20
   4  -1  -8  143.99   16.10
   4  -1  -8  165.78   20.40
   4  -1  -8  153.78   18.00
   4  -1  -8  145.69   16.30
   4   1  -8  127.79   15.60
  -4   1   8  135.69   17.10
  -4   1   8  150.48   22.80
  -4   1   8  148.59   19.80
  -4   1   8  140.79   27.00
  -4   1   8  125.49   14.80
   3  -1  -8  137.79   17.70
   3  -1  -8  124.89   16.00
  -3  -1   8  136.79   17.30
  -3  -1   8  174.98   21.80
   3  -1  -8  165.88   25.80
   3  -1  -8  151.78   14.80
  -3  -1   8  156.18   12.50
  -3  -1   8  167.98   13.00
   3   1  -8  153.78   15.60
  -3   1   8  163.88   15.80
  -2  -1   8  269.17   19.10
  -2  -1   8  226.18   21.60
   2  -1  -8  256.77   21.30
  -2  -1   8  243.78   24.50
  -2  -1   8  253.07   19.60
   2  -1  -8  257.27   23.60
   2  -1  -8  267.77   20.40
   2   1  -8  230.88   30.00
   2   1  -8  270.87   21.60
  -2   1   8  293.77   21.10
  -1  -1   8  531.05   38.60
  -1  -1   8  470.95   40.20
   1  -1  -8  553.94   44.90
   1  -1  -8  536.55   38.10
   1  -1  -8  528.75   37.20
  -1  -1   8  512.25   37.20
   1  -1  -8  469.75   40.10
  -1  -1   8  500.65   36.70
   1   1  -8  558.24   42.70
  -1   1   8  562.54   37.70
  -1   1   8  501.75   45.60
   1   1  -8  605.14   38.70
   0  -1   8 2283.77  169.78
   0  -1   8 2523.35  167.18
   0  -1   8 2424.56  168.18
   0  -1  -8 2450.65  167.48
   0  -1  -8 2325.47  169.18
   0  -1  -8 2449.55  167.18
   0  -1   8 2494.55  167.38
   0   1  -8 2347.97  167.88
   0   1   8 2562.14  167.48
   0   1  -8 2650.53  170.98
   0   1  -8 2772.72  168.58
   1  -1   8  542.15   37.20
   1  -1   8  530.05   37.50
  -1  -1  -8  537.25   40.80
   1  -1   8  515.95   42.70
   1  -1   8  522.05   43.80
   1  -1   8  568.34   38.60
  -1  -1  -8  541.65   37.60
  -1  -1  -8  515.45   37.00
   1   1   8  561.64   37.10
  -1   1  -8  486.05   39.00
  -1   1  -8  501.15   38.90
   1   1   8  549.25   42.60
  -1   1  -8  502.35   38.80
  -1   1  -8  474.75   43.80
   2  -1   8  509.05   37.40
   2  -1   8  526.65   43.60
   2  -1   8  511.15   37.50
  -2  -1  -8  528.45   36.40
  -2  -1  -8  542.35   41.80
  -2  -1  -8  455.85   41.00
   2  -1   8  514.25   41.40
  -2  -1  -8  554.14   37.20
   2   1   8  482.25   60.19
   2   1   8  536.45   36.40
  -2   1  -8  502.45   41.60
  -2   1  -8  530.75   37.90
  -2   1  -8  427.86   39.50
   2   1   8  575.24   42.00
  -2   1  -8  516.55   37.50
  -3  -1  -8  101.59   19.30
   3  -1   8   93.19   19.80
   3  -1   8   84.39   16.50
   3  -1   8   74.39   12.70
  -3  -1  -8   74.89   11.50
  -3  -1  -8   98.69   10.80
  -3   1  -8   79.79   13.70
   3   1   8   93.29   19.90
  -3   1  -8  122.09   20.00
  -3   1  -8   73.79   10.80
  -3   1  -8   98.29   16.20
   3   1   8  121.39   26.20
  -4  -1  -8   37.90    7.40
  -4  -1  -8   35.30    6.90
   4  -1   8   41.90    9.00
   4  -1   8   37.80   12.00
   4  -1   8   60.19   15.70
  -4  -1  -8   20.80   15.00
   4   1   8   65.99   12.50
  -4   1  -8   64.59   12.80
   4   1   8   54.99   28.30
  -4   1  -8   56.69   13.90
   5  -1   8  532.45   40.90
   5  -1   8  534.15   43.60
  -5  -1  -8  566.94   39.10
  -5  -1  -8  504.15   41.10
  -5  -1  -8  513.55   39.20
   5  -1   8  580.84   39.90
  -5   1  -8  562.14   43.80
   5   1   8  585.14   43.10
  -5   1  -8  534.65   41.00
  -5   1  -8  483.35   41.20
  -6  -1  -8   15.90    8.80
   6  -1   8   20.90    9.00
  -6  -1  -8   21.90    5.80
  -6  -1  -8   26.60    7.80
  -6   1  -8   37.40   18.20
  -6   1  -8   17.00    8.10
  -7  -1  -8    4.50    5.10
  -7  -1  -8    2.70    5.70
  -7   1  -8   13.90    5.90
   7   1   8   12.30    7.90
  -9  -2   8  414.86   31.60
  -9  -2   8  421.96   30.40
   9   2  -8  407.96   34.70
  -9   2   8  480.65   31.90
  -8  -2   8  242.48   18.30
  -8  -2   8  224.78   20.90
  -8  -2   8  258.07   18.10
   8  -2  -8  246.58   24.60
   8  -2  -8  240.68   30.60
  -8   2   8  189.18   25.80
  -8   2   8  192.28   21.90
   8   2  -8  207.98   30.90
  -8   2   8  208.78   23.10
   7  -2  -8  266.97   25.30
  -7  -2   8  223.38   24.30
   7  -2  -8  184.88   24.30
  -7   2   8  172.08   22.00
  -7   2   8  213.08   21.70
  -7   2   8  196.88   22.90
  -6  -2   8  494.25   32.90
  -6  -2   8  446.36   36.80
   6  -2  -8  461.95   37.90
   6  -2  -8  489.95   39.70
   6  -2  -8  450.55   36.40
  -6   2   8  419.16   35.60
  -6   2   8  485.95   39.00
  -6   2   8  484.85   37.10
  -6   2   8  379.46   38.40
   5  -2  -8  199.68   23.20
  -5  -2   8  192.68   15.40
   5  -2  -8  197.78   19.00
   5  -2  -8  215.88   25.90
  -5  -2   8  198.18   15.60
   5  -2  -8  188.68   19.40
  -5  -2   8  185.48   24.10
  -5   2   8  166.68   24.60
  -5   2   8  185.88   19.00
  -5   2   8  159.48   24.20
   4  -2  -8   59.39   12.90
  -4  -2   8  105.39    9.10
   4  -2  -8   80.09   11.90
  -4  -2   8   88.99   10.20
  -4  -2   8  121.79   24.00
   4  -2  -8   89.19   13.30
   4  -2  -8   76.49   15.30
  -4   2   8   76.59   12.70
  -4   2   8  105.49   18.40
  -4   2   8   56.39   15.60
  -4   2   8   81.89   16.10
  -3  -2   8   76.99   17.50
   3  -2  -8   58.49   11.90
   3  -2  -8   54.99    9.20
  -3  -2   8   48.80    9.00
  -3  -2   8   59.19    7.90
   3  -2  -8   68.59   16.70
  -3   2   8   74.59   18.60
  -3   2   8   69.59   11.70
  -3   2   8   97.99   22.00
  -3   2   8   90.19   21.60
  -3   2   8   80.59   16.20
  -3   2   8   73.09   20.40
   2  -2  -8  371.16   37.60
   2  -2  -8  326.87   27.10
  -2  -2   8  338.47   26.30
   2  -2  -8  340.37   31.00
  -2  -2   8  341.37   31.70
   2  -2  -8  356.76   26.20
  -2  -2   8  348.77   25.60
  -2   2   8  387.76   35.30
  -2   2   8  378.86   26.40
  -2   2   8  351.06   32.70
  -2   2   8  418.26   42.60
  -1  -2   8  321.47   28.50
   1  -2  -8  374.46   25.50
  -1  -2   8  330.77   25.90
   1  -2  -8  363.26   33.50
   1  -2  -8  354.86   26.30
  -1  -2   8  323.07   25.10
  -1   2   8  320.07   34.80
  -1   2   8  349.87   33.70
  -1   2   8  400.06   44.10
   1   2  -8  358.56   26.20
   0  -2   8  -14.50   24.00
   0  -2   8    5.40    6.70
   0  -2   8   -1.80    4.40
   0  -2   8   -0.50    5.50
   0  -2  -8   -0.80    3.40
   0  -2  -8    7.80    5.90
   0  -2   8   13.40   16.00
   0   2   8   18.00   15.10
   0   2  -8   -1.10    6.50
   0   2   8    9.30   17.50
   0   2   8   18.00   15.60
   0   2   8   11.40   20.10
   1  -2   8  629.74   43.00
   1  -2   8  637.94   48.70
  -1  -2  -8  623.24   49.60
   1  -2   8  667.83   42.70
   1  -2   8  605.14   47.40
  -1  -2  -8  697.03   42.90
  -1   2  -8  570.04   52.89
   1   2   8  512.25   55.19
  -1   2  -8  566.34   43.60
   1   2   8  540.45   48.20
   1   2   8  512.25   53.79
   2  -2   8  535.15   36.10
   2  -2   8  420.26   39.60
   2  -2   8  410.26   34.20
   2  -2   8  429.16   39.90
  -2  -2  -8  521.65   40.10
  -2  -2  -8  485.45   34.10
  -2  -2  -8  483.95   33.20
   2  -2   8  458.15   34.00
  -2   2  -8  473.45   41.80
   2   2   8  504.35   40.40
   2   2   8  429.26   46.90
  -2   2  -8  439.76   35.50
   3  -2   8 1242.68   86.69
  -3  -2  -8 1123.99   84.89
   3  -2   8 1228.88   85.29
  -3  -2  -8 1249.28   85.19
   3  -2   8 1254.07   85.69
   3  -2   8 1230.78   88.79
   3  -2   8 1262.67   87.99
  -3  -2  -8 1094.29   87.29
  -3   2  -8 1249.77   86.49
   3   2   8 1242.88   92.69
  -3   2  -8 1338.97   88.09
   3   2   8 1380.16   88.69
   4  -2   8   50.29   12.80
  -4  -2  -8   70.89   11.60
  -4  -2  -8   73.79   12.50
   4  -2   8   89.19   12.30
   4  -2   8   68.89   13.40
  -4  -2  -8   81.69   10.80
   4   2   8  107.89   16.70
  -4   2  -8   74.49   12.40
  -4   2  -8   99.89   19.00
  -5  -2  -8   34.80    7.20
   5  -2   8   57.99   12.30
  -5  -2  -8   41.40    9.50
  -5  -2  -8   43.10    7.30
   5  -2   8   39.60   11.20
   5   2   8   18.50   16.50
  -5   2  -8   48.30   13.60
  -5   2  -8   42.30   10.10
  -6  -2  -8  171.88   14.70
  -6  -2  -8  162.68   17.30
   6  -2   8  140.19   20.20
  -6  -2  -8  161.28   16.10
   6  -2   8  175.78   16.70
   6   2   8  144.59   19.00
   6   2   8  196.88   29.40
  -6   2  -8  197.38   19.10
  -7  -2  -8   44.50    8.20
  -7  -2  -8   59.19    8.50
   7   2   8   50.29   12.10
  -7   2  -8   49.60    8.40
  -8  -3   8   -3.80    3.60
  -8  -3   8    3.40    5.10
   8  -3  -8   -0.30    7.30
   8   3  -8    0.40   12.10
   7  -3  -8  234.28   30.50
  -7  -3   8  277.67   19.30
   7  -3  -8  219.58   25.30
  -7   3   8  244.28   25.40
   7   3  -8  279.67   38.70
  -6  -3   8 1206.28   76.99
   6  -3  -8  995.70   79.09
   6  -3  -8 1074.69   81.59
  -6  -3   8 1166.88   79.79
   6  -3  -8  979.10   78.49
   6  -3  -8 1187.98   80.59
  -6   3   8 1184.28   80.39
   6   3  -8 1228.78   87.99
  -6   3   8 1031.00   77.69
  -6   3   8 1202.48   80.89
  -5  -3   8  467.85   32.30
  -5  -3   8  381.66   38.10
   5  -3  -8  413.06   34.10
  -5  -3   8  468.95   32.10
   5  -3  -8  466.25   34.20
   5  -3  -8  442.66   38.50
   5  -3  -8  394.76   40.10
  -5   3   8  474.95   38.20
   5   3  -8  569.14   63.29
  -5   3   8  475.85   37.90
   4  -3  -8   32.60   13.20
   4  -3  -8   52.29    9.00
  -4  -3   8   42.30    6.00
  -4  -3   8   35.80   17.10
  -4  -3   8   49.50    9.00
   4  -3  -8   39.20   11.80
  -4   3   8   42.60   14.40
  -4   3   8   35.70   12.00
  -3  -3   8  197.18   16.30
   3  -3  -8  180.48   17.60
  -3  -3   8  140.59   22.50
   3  -3  -8  198.68   16.00
   3  -3  -8  244.88   26.60
  -3  -3   8  195.78   14.80
   3  -3  -8  183.88   33.80
  -3   3   8  144.59   24.40
  -3   3   8  164.38   29.40
  -3   3   8  159.88   26.90
   2  -3  -8  197.08   17.90
   2  -3  -8  165.18   28.10
  -2  -3   8  173.58   14.80
  -2  -3   8  175.98   16.30
  -2  -3   8  183.68   31.20
   2  -3  -8  188.78   15.70
  -2   3   8  205.18   32.10
  -2   3   8  190.88   24.40
  -2   3   8  185.38   25.60
  -2   3   8  191.08   27.80
  -2   3   8  163.48   33.20
   1  -3  -8  212.38   17.30
  -1  -3   8  196.98   15.60
  -1  -3   8  169.38   16.50
  -1  -3   8  216.48   29.80
   1  -3  -8  194.08   32.10
   1  -3  -8  209.08   15.70
  -1   3   8  140.69   27.70
  -1   3   8  149.88   25.90
  -1   3   8  180.68   32.50
  -1   3   8  167.08   25.60
   0  -3  -8 1277.27   93.89
   0  -3   8 1290.97   93.19
   0  -3   8 1208.08   88.89
   0  -3  -8 1460.85   88.99
   0  -3   8 1146.29   89.19
   0  -3  -8 1435.56   89.39
   0   3   8 1422.26   93.49
   0   3   8 1301.07   95.49
   0   3   8 1220.48   93.59
   0   3   8 1269.97   94.09
   1  -3   8  255.97   29.70
  -1  -3  -8  285.47   20.40
   1  -3   8  245.08   21.70
  -1  -3  -8  270.07   21.70
   1  -3   8  292.37   27.20
   1  -3   8  274.47   21.30
   1   3   8  239.68   29.20
   1   3   8  244.28   30.40
   1   3   8  265.67   34.60
   2  -3   8   30.30    7.40
   2  -3   8   52.99   13.60
   2  -3   8   26.20    8.10
  -2  -3  -8   40.30    6.90
  -2  -3  -8   51.79    9.30
   2   3   8   40.90   16.00
   2   3   8   29.30   13.90
   3  -3   8  155.78   23.90
   3  -3   8  115.69   15.00
   3  -3   8  121.69   19.90
  -3  -3  -8  148.29   13.70
   3  -3   8  183.08   22.00
   3  -3   8  127.49   17.00
  -3  -3  -8  160.48   14.90
   3   3   8  127.49   29.10
   3   3   8  162.78   24.30
   3   3   8  165.48   26.30
  -3   3  -8  140.69   19.40
  -4  -3  -8   64.29   13.30
   4  -3   8  102.89   16.20
   4  -3   8  114.69   20.50
   4  -3   8   96.49   13.90
  -4  -3  -8   86.49   12.40
   4  -3   8   59.89   10.80
  -4  -3  -8  107.19   10.70
  -4   3  -8  117.59   25.70
   4   3   8   73.89   16.00
   4   3   8   76.69   18.30
   4   3   8  130.99   24.30
  -4   3  -8   78.99   20.50
  -5  -3  -8  286.57   22.20
  -5  -3  -8  270.17   21.80
  -5  -3  -8  289.57   27.50
   5  -3   8  344.27   29.70
   5  -3   8  295.77   24.90
   5  -3   8  287.67   26.60
   5   3   8  240.48   32.80
   5   3   8  241.78   26.70
   6  -3   8    7.60    7.10
  -6  -3  -8   -1.90    6.30
  -6  -3  -8    6.50    4.80
   6  -3   8    6.30    4.90
   6   3   8    3.10    8.30
   6   3   8   -4.40   10.80
  -7  -4   8   79.59    9.10
   7  -4  -8   76.19   14.40
   7   4  -8  132.79   31.80
  -7   4   8   71.49   13.70
  -6  -4   8  359.36   23.40
   6  -4  -8  293.27   29.20
   6  -4  -8  264.37   28.30
   6  -4  -8  310.77   25.60
   6  -4  -8  265.57   43.40
  -6   4   8  327.07   29.20
   5  -4  -8    1.50    7.10
   5  -4  -8    6.50    9.60
  -5  -4   8   13.40    5.20
   5  -4  -8   15.20    8.20
  -5  -4   8   11.50    5.10
  -5   4   8   -5.10    9.00
  -5   4   8    9.50    9.30
   4  -4  -8  195.48   24.90
   4  -4  -8  177.68   18.90
   4  -4  -8  190.18   18.10
  -4  -4   8  194.78   17.20
  -4  -4   8  218.48   15.90
  -4   4   8  215.38   25.30
  -4   4   8  203.68   23.90
  -4   4   8  166.68   25.80
   3  -4  -8    1.80    5.70
   3  -4  -8    6.40    6.40
   3  -4  -8   13.20   11.90
  -3  -4   8    7.60    4.60
  -3  -4   8    2.30    5.70
  -3   4   8   10.20   12.60
  -3   4   8   -7.00   12.90
  -3   4   8   -9.10   11.10
  -3   4   8  -22.70   15.40
  -2  -4   8  431.36   34.60
   2  -4  -8  469.95   35.20
  -2  -4   8  467.85   34.30
   2  -4  -8  471.75   42.20
   2  -4  -8  468.15   34.70
  -2   4   8  529.25   41.30
  -2   4   8  512.75   46.50
  -2   4   8  482.85   40.40
  -2   4   8  492.25   46.80
  -1  -4   8  106.39   12.70
  -1  -4   8   99.49   13.00
   1  -4  -8  116.49   12.60
   1  -4  -8  115.29   13.70
  -1  -4   8  151.48   29.10
  -1   4   8   84.29   21.10
  -1   4   8  142.69   22.80
  -1   4   8  105.09   19.70
  -1   4   8  147.59   24.20
   0  -4  -8  360.86   24.80
   0  -4   8  342.87   32.40
   0  -4  -8  324.47   25.40
   0  -4   8  310.27   25.40
   0  -4   8  308.57   25.00
   0   4   8  315.67   32.60
   0   4   8  367.36   38.20
   0   4   8  278.07   31.00
   0   4   8  327.57   35.20
  -1  -4  -8  772.52   51.29
   1  -4   8  682.63   51.19
  -1  -4  -8  770.62   50.59
   1  -4   8  758.42   55.79
   1  -4   8  683.43   51.19
   1   4   8  721.63   56.29
   1   4   8  646.54   55.89
   1   4   8  769.32   59.79
  -2  -4  -8   46.40    8.90
   2  -4   8   26.10    8.20
   2  -4   8   38.10    8.90
  -2  -4  -8   45.90    8.40
   2  -4   8   32.60   12.10
   2   4   8   33.00   15.20
   2   4   8   59.59   15.40
   2   4   8   67.99   16.30
  -3  -4  -8   43.20    6.40
   3  -4   8   55.39   12.00
   3  -4   8   44.10   18.60
   3  -4   8   24.00    8.70
   3  -4   8   34.50   10.80
  -3  -4  -8   45.00    7.80
   3   4   8   54.79   14.10
   3   4   8   27.70   12.40
   3   4   8   63.49   19.30
   4  -4   8    6.60    9.90
   4  -4   8   -3.00   15.00
  -4  -4  -8   14.60    5.80
   4  -4   8    2.90    8.20
  -4  -4  -8   18.80    6.20
   4  -4   8    6.40   23.70
   4  -4   8   12.50    7.20
   4   4   8   19.10   11.30
   4   4   8    9.60   12.80
  -5  -4  -8    2.30    6.00
   5  -4   8    4.90    6.20
  -5  -4  -8    0.50    5.60
   5   4   8    1.80    9.70
   5   4   8   10.20    8.10
  -6  -5   8  131.99   12.70
   6  -5  -8  100.29   13.60
   6  -5  -8  106.39   14.10
  -6   5   8  140.39   15.20
  -5  -5   8   35.00    6.50
   5  -5  -8   34.90    7.60
   5  -5  -8   11.50    8.80
  -5   5   8   28.00   10.50
  -5   5   8   24.50   10.90
  -4  -5   8   44.50    7.10
   4  -5  -8   33.40    7.30
  -4  -5   8   37.40    6.70
   4  -5  -8   27.50   12.40
   4  -5  -8   41.30    7.60
  -4   5   8   26.70   10.60
  -4   5   8   42.50   11.90
  -4   5   8   37.00   12.00
   3  -5  -8  136.09   26.20
   3  -5  -8  124.29   15.00
  -3  -5   8  142.99   14.00
   3  -5  -8  138.99   13.90
  -3  -5   8  141.79   14.20
  -3   5   8  170.98   21.30
  -3   5   8  138.89   24.70
  -3   5   8  167.88   19.80
   2  -5  -8   20.40    6.70
   2  -5  -8    9.40    5.50
  -2  -5   8   27.80    6.90
  -2  -5   8   22.00    6.20
  -2   5   8    8.50    8.60
  -2   5   8   16.30   10.70
  -2   5   8   48.70   16.00
   1  -5  -8  153.38   16.30
  -1  -5   8  141.29   15.60
  -1  -5   8  167.28   14.80
   1  -5  -8  171.48   14.70
  -1   5   8  176.68   23.20
  -1   5   8  129.79   19.80
   0  -5   8  230.68   20.10
   0  -5  -8  257.07   19.40
   0  -5   8  275.17   29.60
   0  -5   8  218.48   20.10
   0  -5  -8  252.77   21.40
   0   5   8  256.27   28.60
   0   5   8  242.78   25.70
   1  -5   8  175.48   17.00
   1  -5   8  223.38   23.80
  -1  -5  -8  201.98   16.30
   1  -5   8  196.28   17.70
  -1  -5  -8  230.48   18.80
   1  -5   8  176.98   27.10
   1   5   8  182.28   28.20
   1   5   8  148.09   23.40
   2  -5   8   76.79   11.80
  -2  -5  -8   98.79   12.30
   2  -5   8   94.99   15.90
   2  -5   8   80.49   13.10
   2  -5   8  105.79   18.20
  -2  -5  -8  105.79   14.30
   2   5   8  115.29   19.80
   3  -5   8   30.10    9.40
   3  -5   8   36.60    6.70
   3  -5   8   47.00    8.80
  -3  -5  -8   35.10    8.30
  -3  -5  -8   33.10    7.10
   3  -5   8   29.10    8.50
   3   5   8   60.39   12.80
   4  -5   8   10.20    7.10
   4  -5   8   10.90    6.30
  -4  -5  -8   12.90    9.50
   4  -5   8   15.10    6.00
   4   5   8   15.10    8.20
   4   5   8    9.30    9.50
   4  -6  -8   35.60    6.50
  -4   6   8   40.60    9.60
   3  -6  -8    4.20    6.10
   3  -6  -8   -0.90    5.50
  -3  -6   8   -7.70    7.00
  -3   6   8    9.60    7.70
  -2  -6   8   66.09   11.70
   2  -6  -8   66.99   11.10
   2  -6  -8   66.29   10.90
  -2   6   8   90.39   13.10
   1  -6  -8   31.00    7.40
  -1  -6   8   44.00    7.80
   1  -6  -8   39.00    6.70
  -1  -6   8   36.20    6.80
  -1   6   8   22.00    7.50
  -1   6   8   29.60   13.10
   0  -6  -8   41.60    8.60
   0  -6  -8   20.30    8.10
   0  -6   8   31.00    7.30
   0  -6   8   42.80    6.30
   0   6   8   38.60   12.10
   0   6   8   22.50    7.70
   1  -6   8  221.88   17.10
   1  -6   8  202.78   15.80
   1   6   8  163.88   20.50
   1   6   8  182.08   17.60
   2  -6   8   27.10   11.00
   2  -6   8   22.70    5.20
   2  -6   8   25.10    8.10
   2   6   8   35.40   10.20
   2   6   8   19.70    6.60
  -9   0   9   20.80    6.20
  -9   0   9   20.50   11.60
  -8   0   9  185.18   16.40
  -8   0   9  140.39   23.10
  -8   0   9  174.98   20.70
  -8   0   9  202.38   19.10
  -7   0   9  330.57   24.70
  -7   0   9  303.17   28.90
  -7   0   9  296.37   24.50
   6   0  -9   69.09   17.50
  -6   0   9   38.60   10.60
  -6   0   9   61.09   11.40
   6   0  -9   47.70   10.80
  -5   0   9    6.00    5.70
  -5   0   9    0.70   16.90
  -5   0   9   20.20    5.30
  -5   0   9   29.10   13.20
  -5   0   9   13.10    7.90
   5   0  -9   17.10   16.50
   5   0  -9   -0.40    7.30
  -5   0   9   13.70    9.80
   4   0  -9  115.99   16.40
  -4   0   9  154.88   13.00
  -4   0   9  176.18   24.20
  -4   0   9  135.79   17.60
  -4   0   9   96.89   20.10
   4   0  -9  152.38   20.60
  -3   0   9 1645.64  107.89
  -3   0   9 1804.52  109.69
   3   0  -9 1385.56  108.89
  -3   0   9 1559.94  110.89
  -3   0   9 1505.05  110.39
   3   0  -9 1619.64  109.89
  -3   0   9 1716.83  107.99
   3   0  -9 1502.05  112.39
   2   0  -9 2715.03  182.78
  -2   0   9 2826.82  181.98
   2   0  -9 2650.53  182.58
   2   0  -9 2708.43  183.78
  -2   0   9 2611.64  183.28
  -2   0   9 2567.24  186.18
  -2   0   9 2914.81  182.18
  -2   0   9 2628.64  185.78
  -1   0   9  453.95   31.40
   1   0  -9  417.96   33.60
  -1   0   9  442.36   31.20
  -1   0   9  472.15   32.60
   1   0  -9  417.66   32.60
   1   0  -9  408.96   32.20
   0   0   9  273.27   27.30
   0   0   9  222.58   28.80
   0   0  -9  251.27   23.10
   0   0  -9  243.98   29.00
   0   0   9  250.27   21.20
   0   0   9  261.87   20.90
   0   0   9  252.27   28.00
   0   0  -9  265.07   20.60
   0   0  -9  254.77   21.20
  -1   0  -9  109.19   16.80
   1   0   9  118.29   25.40
  -1   0  -9  109.69   12.30
   1   0   9  119.19   14.20
  -1   0  -9  131.09   21.30
   1   0   9  122.29   20.10
  -1   0  -9  130.69   14.10
   1   0   9  114.09   18.50
  -2   0  -9   35.30    7.20
   2   0   9    3.90   14.00
  -2   0  -9   19.50    5.90
   2   0   9   19.90    9.80
   2   0   9   18.90    6.00
  -2   0  -9   20.10   10.80
  -2   0  -9   24.10   11.00
   2   0   9   -1.60   18.20
  -3   0  -9   37.40   11.50
  -3   0  -9   31.80    7.10
  -3   0  -9   36.80   10.00
  -3   0  -9   21.90    6.70
   3   0   9   48.70   10.90
   3   0   9   49.80   15.70
  -4   0  -9   -3.30    8.40
   4   0   9    6.40    6.60
  -4   0  -9    4.20    6.50
  -4   0  -9    1.90   13.10
  -4   0  -9   -2.10    7.40
   4   0   9   -7.10    9.30
  -5   0  -9  255.47   23.10
  -5   0  -9  207.08   31.40
  -5   0  -9  244.18   21.00
   5   0   9  255.07   23.60
  -5   0  -9  266.87   22.80
   6   0   9  362.86   30.80
  -6   0  -9  343.07   28.30
  -6   0  -9  372.76   28.30
  -9  -1   9  517.85   35.30
  -9  -1   9  481.75   34.50
  -9   1   9  498.55   35.50
  -9   1   9  461.45   36.40
  -8  -1   9   91.29   19.40
   8  -1  -9  198.08   40.30
  -8  -1   9  113.79   11.80
  -8  -1   9  101.29   16.30
  -8  -1   9  106.99   13.60
  -8   1   9   80.09   16.50
  -8   1   9  105.99   16.90
  -8   1   9  127.29   18.50
  -7  -1   9  113.19   12.40
   7  -1  -9  115.99   24.90
   7  -1  -9  108.29   20.90
  -7  -1   9   77.89   17.60
  -7  -1   9  140.19   20.30
  -7  -1   9   83.89   17.60
  -7   1   9  138.99   17.20
  -7   1   9  116.59   20.20
  -7   1   9  108.69   18.70
  -6  -1   9   91.89   13.10
  -6  -1   9   74.39   10.60
  -6  -1   9   64.19   10.40
  -6  -1   9  118.79   21.20
   6  -1  -9   74.79   13.20
  -6   1   9   83.99   14.00
  -6   1   9   91.39   16.60
  -6   1   9   77.09   13.70
  -6   1   9   76.49   17.20
  -6   1   9  105.89   17.00
  -5  -1   9   37.10   11.10
  -5  -1   9   34.30    5.90
  -5  -1   9   20.90   10.30
   5  -1  -9   22.60    8.90
   5  -1  -9   36.10   14.30
   5  -1  -9   55.09   22.10
  -5   1   9   11.70    7.80
  -5   1   9   18.40    8.10
  -5   1   9   -3.70   13.20
  -5   1   9   38.70   13.50
  -5   1   9   20.60   11.20
   4  -1  -9   83.29   16.50
  -4  -1   9  103.69    9.70
   4  -1  -9  103.39   17.50
   4  -1  -9  113.29   16.00
  -4  -1   9  110.39   10.20
   4  -1  -9   98.59   14.80
  -4  -1   9   80.19   17.40
  -4  -1   9   69.99   16.40
  -4  -1   9  120.19   20.10
  -4   1   9  103.19   22.30
  -4   1   9   88.09   16.70
   4   1  -9   66.89   13.10
  -4   1   9   84.19   14.50
   3  -1  -9  163.28   19.40
   3  -1  -9  187.98   28.60
  -3  -1   9  186.28   25.20
  -3  -1   9  217.18   26.30
  -3  -1   9  219.08   16.40
   3  -1  -9  203.18   22.70
  -3  -1   9  212.78   16.80
  -3  -1   9  182.18   21.00
   3  -1  -9  189.38   18.60
   3   1  -9  224.38   20.00
  -3   1   9  259.67   25.10
  -3   1   9  234.48   19.70
  -3   1   9  237.68   26.10
   2  -1  -9  435.16   32.00
   2  -1  -9  420.66   34.30
  -2  -1   9  415.56   33.10
  -2  -1   9  446.36   30.50
  -2  -1   9  383.06   35.80
  -2  -1   9  385.76   39.00
   2  -1  -9  441.66   31.20
  -2  -1   9  454.15   30.10
  -2   1   9  459.45   31.80
  -2   1   9  420.96   35.70
  -2   1   9  452.15   46.20
   2   1  -9  373.76   48.20
  -2   1   9  400.76   39.80
   2   1  -9  405.36   32.10
  -1  -1   9  660.23   45.70
   1  -1  -9  670.43   51.79
  -1  -1   9  616.54   50.39
   1  -1  -9  666.83   46.70
   1  -1  -9  651.83   49.60
  -1  -1   9  676.63   47.40
  -1  -1   9  674.43   46.00
   1  -1  -9  592.84   46.00
  -1   1   9  668.53   51.29
  -1   1   9  722.23   46.80
  -1   1   9  666.43   50.19
   1   1  -9  648.04   47.50
   0  -1   9 1772.62  122.79
   0  -1   9 1659.73  125.79
   0  -1  -9 1604.14  125.69
   0  -1   9 1598.64  125.39
   0  -1  -9 1787.52  125.69
   0  -1   9 1774.92  122.99
   0  -1  -9 1948.21  123.19
   0  -1   9 1641.24  124.09
   0   1   9 2014.50  126.59
   0   1   9 1992.60  123.39
   0   1  -9 1865.61  124.59
   0   1   9 1933.71  125.89
   0   1  -9 2020.40  127.09
   1  -1   9  225.48   19.20
   1  -1   9  214.68   25.70
  -1  -1  -9  278.27   18.80
  -1  -1  -9  232.38   19.60
   1  -1   9  252.47   19.80
  -1  -1  -9  223.18   24.80
  -1  -1  -9  229.38   26.40
   1  -1   9  195.18   21.70
   1  -1   9  265.87   27.80
  -1   1  -9  236.78   22.40
   1   1   9  253.87   31.50
   1   1   9  221.08   24.70
  -1   1  -9  240.68   22.70
   1   1   9  192.28   46.10
  -1   1  -9  269.97   28.60
   2  -1   9   41.30   12.00
  -2  -1  -9   58.19   10.40
   2  -1   9   73.19   12.70
   2  -1   9   55.79    9.30
  -2  -1  -9   62.79    9.00
   2  -1   9   77.39   15.10
  -2  -1  -9   41.90   11.60
  -2   1  -9   81.99   15.20
   2   1   9   75.39   14.10
  -2   1  -9   49.60   10.10
   2   1   9   74.79    8.70
  -2   1  -9   48.20   12.80
   3  -1   9  301.97   31.10
  -3  -1  -9  333.07   25.10
  -3  -1  -9  289.47   24.30
   3  -1   9  298.57   28.90
   3  -1   9  340.77   25.70
  -3  -1  -9  315.97   28.10
  -3  -1  -9  331.77   33.80
  -3   1  -9  347.77   29.30
  -3   1  -9  309.07   27.40
  -3   1  -9  301.67   26.10
   3   1   9  294.17   70.39
   3   1   9  290.27   28.40
  -4  -1  -9  171.38   19.20
   4  -1   9  163.28   19.30
   4  -1   9  167.38   17.40
   4  -1   9  194.98   25.00
  -4  -1  -9  139.79   15.20
  -4  -1  -9  139.19   14.90
   4   1   9  133.49   19.70
  -4   1  -9  102.89   19.40
  -4   1  -9  152.18   18.80
  -5  -1  -9  139.29   16.40
  -5  -1  -9  129.59   14.50
   5  -1   9  133.59   16.40
   5  -1   9   98.49   16.50
   5  -1   9  128.89   17.00
  -5  -1  -9  126.49   13.60
   5   1   9  106.29   16.10
  -5   1  -9   96.59   16.30
  -5   1  -9   91.79   17.20
  -6  -1  -9   -0.40   10.00
  -6  -1  -9    1.30    5.60
  -6  -1  -9    1.20    6.20
   6  -1   9    7.70    7.80
  -6   1  -9    5.10    6.70
  -9  -2   9   79.29    8.50
  -9  -2   9   73.29   10.10
   9   2  -9   89.09   17.10
  -9   2   9   72.49   12.40
  -9   2   9   85.19   12.20
  -8  -2   9   60.59    8.70
  -8  -2   9   58.09   12.20
  -8  -2   9   60.29    9.30
   8  -2  -9   45.30   11.70
  -8   2   9   70.09   13.40
  -8   2   9   45.40   10.30
   8   2  -9   79.59   17.30
  -7  -2   9   27.90    5.50
  -7  -2   9   37.60   10.30
  -7  -2   9   25.70   11.60
   7  -2  -9   44.60   11.80
   7  -2  -9   29.90   13.60
  -7   2   9   15.80   22.90
  -7   2   9   28.80   10.60
  -7   2   9   15.80   10.90
   6  -2  -9   86.79   14.90
   6  -2  -9  118.59   21.20
   6  -2  -9  112.79   19.40
  -6  -2   9  124.89   11.80
  -6  -2   9  114.19   18.00
  -6   2   9  106.69   21.10
  -6   2   9  113.29   16.80
  -6   2   9  123.19   19.90
  -6   2   9  101.59   14.00
   5  -2  -9   22.50   10.30
  -5  -2   9   37.30    6.30
  -5  -2   9   14.50   10.20
  -5  -2   9   23.50    5.20
   5  -2  -9   27.60    9.30
   5  -2  -9   31.80   11.50
   5  -2  -9   26.90   12.10
  -5   2   9   20.60    8.60
  -5   2   9   43.40   14.20
  -5   2   9   11.90   13.20
   4  -2  -9   91.69   18.10
  -4  -2   9   82.79   16.30
  -4  -2   9   86.89    9.40
   4  -2  -9   63.29   13.50
  -4  -2   9  100.09   10.10
  -4  -2   9  100.19   21.20
   4  -2  -9   58.49   12.10
   4  -2  -9   82.99   13.10
  -4   2   9  101.09   21.30
  -4   2   9   86.99   17.50
  -4   2   9   66.69   12.20
  -4   2   9   70.99   15.80
   3  -2  -9 1170.78   83.49
   3  -2  -9 1245.78   84.09
  -3  -2   9 1186.18   86.79
   3  -2  -9 1220.78   87.59
  -3  -2   9 1326.87   82.99
  -3  -2   9 1246.28   83.29
   3  -2  -9 1134.19   86.99
  -3   2   9 1139.69   86.79
  -3   2   9 1170.58   89.19
  -3   2   9 1174.78   88.39
  -3   2   9 1240.68   87.59
  -3   2   9 1289.87   89.39
  -3   2   9 1278.87   83.79
  -2  -2   9  464.35   31.10
   2  -2  -9  471.05   31.90
  -2  -2   9  427.36   37.70
  -2  -2   9  446.96   36.20
  -2  -2   9  458.95   31.80
   2  -2  -9  443.06   38.00
   2  -2  -9  444.66   39.90
   2  -2  -9  446.46   32.60
  -2   2   9  368.56   37.20
  -2   2   9  426.96   39.00
  -2   2   9  448.56   32.00
  -2   2   9  364.06   43.50
  -2   2   9  424.66   44.20
  -1  -2   9    8.10   11.80
   1  -2  -9    7.80    6.30
  -1  -2   9    4.60    9.50
   1  -2  -9   -2.20   14.70
   1  -2  -9   22.30   14.30
  -1  -2   9   33.90   18.60
  -1   2   9   23.40    5.10
  -1   2   9   29.40   14.20
   1   2  -9   20.80    8.00
  -1   2   9   34.00   18.10
  -1   2   9   34.50   19.20
  -1   2   9   15.30   13.80
   0  -2  -9   53.69   18.00
   0  -2  -9   15.10   11.90
   0  -2   9   14.10   13.40
   0  -2   9   29.40    9.20
   0  -2  -9   19.50    6.10
   0  -2  -9   27.70    5.30
   0  -2   9   30.90    6.80
   0  -2   9   24.40   14.60
   0  -2   9   21.90    5.40
   0   2   9   22.90   16.60
   0   2  -9   20.50    7.50
   0   2  -9   15.30   20.80
   0   2   9   29.60   14.50
   0   2   9   -2.30   19.20
   0   2   9   18.20   13.40
  -1  -2  -9  508.45   39.10
   1  -2   9  534.85   38.90
   1  -2   9  527.35   39.30
   1  -2   9  552.04   41.50
   1  -2   9  531.45   43.40
  -1  -2  -9  509.05   44.20
   1  -2   9  504.65   43.70
  -1  -2  -9  555.44   38.60
   1   2   9  533.15   46.10
   1   2   9  536.95   48.80
   1   2   9  626.54   44.20
  -1   2  -9  585.64   40.70
   1   2   9  554.94   51.29
  -1   2  -9  601.94   48.30
  -2  -2  -9   47.10   12.50
   2  -2   9   53.69    9.00
   2  -2   9   80.89   14.20
   2  -2   9   54.89   11.10
  -2  -2  -9   69.39    9.60
   2  -2   9   66.29   14.30
  -2  -2  -9   49.00    8.10
   2  -2   9   65.69   13.80
   2   2   9   57.99   20.30
  -2   2  -9   67.39   10.60
   2   2   9   49.00   13.90
  -2   2  -9   70.89   16.00
  -3  -2  -9  560.64   45.50
   3  -2   9  584.54   44.40
   3  -2   9  606.84   47.40
  -3  -2  -9  570.14   42.30
   3  -2   9  602.84   45.80
   3  -2   9  603.54   42.80
  -3  -2  -9  595.54   42.40
   3   2   9  633.04   46.30
  -3   2  -9  574.84   46.70
  -3   2  -9  610.04   44.80
   3   2   9  587.94   54.79
  -4  -2  -9   25.80    7.20
   4  -2   9   35.80   10.60
   4  -2   9   49.70   11.80
  -4  -2  -9   18.90    8.50
   4  -2   9   26.80   10.50
  -4  -2  -9   40.90    7.60
  -4   2  -9   47.90   13.60
   4   2   9   40.20   13.00
  -4   2  -9    8.10   10.10
   4   2   9   16.50   17.00
  -5  -2  -9   26.10    9.60
   5  -2   9   43.60   10.80
   5  -2   9   38.20   11.90
  -5  -2  -9   22.60    6.60
   5  -2   9   27.80    8.80
  -5   2  -9   56.59   15.10
   5   2   9   46.20   19.10
  -5   2  -9   29.10   10.70
   5   2   9   43.80   13.90
  -6  -2  -9  144.49   13.60
   6  -2   9  175.08   15.30
  -6  -2  -9  136.89   15.70
   6  -2   9  132.09   20.60
  -6  -2  -9  143.29   15.80
   6   2   9  148.89   17.00
  -6   2  -9  143.79   16.50
   8  -3  -9  160.98   17.90
  -8  -3   9  172.68   14.00
  -8  -3   9  159.68   17.50
  -8  -3   9  194.38   14.70
   8   3  -9  196.28   25.20
  -8   3   9  184.28   17.50
  -7  -3   9  121.49   11.30
   7  -3  -9   95.99   20.50
  -7  -3   9  129.39   21.10
   7  -3  -9  142.59   28.10
   7   3  -9  118.99   21.30
  -7   3   9  111.99   19.10
  -6  -3   9  188.48   20.20
   6  -3  -9  156.38   22.40
   6  -3  -9  189.38   26.60
  -6  -3   9  196.38   15.60
   6  -3  -9  143.19   20.30
   6  -3  -9  203.98   25.30
  -6   3   9  198.78   21.80
  -6   3   9  184.68   21.80
   6   3  -9  197.98   37.80
  -5  -3   9   42.60   11.40
  -5  -3   9   58.99    8.60
   5  -3  -9   60.19   10.30
   5  -3  -9   81.69   13.90
   5  -3  -9   68.59   13.10
  -5  -3   9   65.69    9.00
   5  -3  -9   81.09   17.80
  -5   3   9   41.70   11.70
   4  -3  -9   64.69   13.60
  -4  -3   9   69.29   15.00
   4  -3  -9   72.39   20.30
  -4  -3   9   76.59    9.20
  -4  -3   9   78.69    9.40
   4  -3  -9   62.59   12.40
   4  -3  -9   68.09   12.60
  -4   3   9   85.19   19.90
  -4   3   9   80.49   16.00
   3  -3  -9   88.59   13.00
  -3  -3   9  104.29   11.00
  -3  -3   9   98.69   10.70
   3  -3  -9   85.59   12.20
  -3  -3   9   81.89   17.00
   3  -3  -9  105.59   21.80
   3  -3  -9   70.69   15.50
  -3   3   9  109.09   18.10
  -3   3   9   80.79   17.30
  -3   3   9   75.29   19.30
  -3   3   9  124.09   29.50
  -2  -3   9  356.96   27.60
   2  -3  -9  364.46   34.80
   2  -3  -9  373.96   28.80
   2  -3  -9  379.06   27.70
  -2  -3   9  381.46   27.10
  -2  -3   9  341.77   34.60
  -2   3   9  457.65   41.40
  -2   3   9  356.56   36.20
  -2   3   9  357.86   34.50
  -2   3   9  380.46   40.20
  -2   3   9  348.37   35.00
   1  -3  -9  240.48   19.70
  -1  -3   9  234.08   27.20
   1  -3  -9  228.78   18.30
  -1  -3   9  233.48   18.90
   1  -3  -9  228.58   29.30
  -1  -3   9  224.48   18.10
  -1   3   9  206.88   29.20
  -1   3   9  168.38   31.90
  -1   3   9  181.28   26.30
  -1   3   9  244.48   27.30
   0  -3  -9 1113.39   76.89
   0  -3  -9 1115.19   72.29
   0  -3   9 1070.19   75.79
   0  -3   9 1106.89   71.89
   0  -3   9 1132.79   75.29
   0  -3   9  949.31   71.89
   0  -3   9  932.31   74.99
   0   3   9 1107.79   76.19
   0   3   9 1057.29   78.89
   0   3   9  973.80   76.19
   0   3   9  913.01   76.89
   1  -3   9  250.17   26.20
  -1  -3  -9  266.17   19.70
   1  -3   9  230.28   20.10
   1  -3   9  254.37   27.10
  -1  -3  -9  237.28   18.70
   1  -3   9  202.48   25.70
  -1  -3  -9  233.88   29.00
   1  -3   9  231.18   19.70
   1   3   9  197.78   32.50
   1   3   9  197.48   27.60
   1   3   9  220.48   26.90
  -2  -3  -9   55.69   10.40
   2  -3   9   52.59   12.90
   2  -3   9   43.10    8.40
   2  -3   9   60.09   14.70
   2  -3   9   67.29   13.00
   2  -3   9   35.10    7.80
  -2  -3  -9   54.99    9.20
  -2  -3  -9   60.29   13.70
   2   3   9   54.89   15.30
   2   3   9   49.50   17.60
   3  -3   9  254.47   26.10
  -3  -3  -9  225.38   25.60
  -3  -3  -9  249.18   21.40
   3  -3   9  247.88   23.00
   3  -3   9  279.07   24.60
  -3  -3  -9  248.78   19.50
   3  -3   9  234.78   21.70
   3  -3   9  244.98   25.90
   3   3   9  223.28   26.50
   3   3   9  208.58   31.10
   3   3   9  257.67   27.10
  -4  -3  -9   11.50    5.90
   4  -3   9   14.00   13.50
   4  -3   9    9.90    8.40
  -4  -3  -9   17.10    5.80
  -4  -3  -9   27.40   12.00
   4  -3   9   28.80    9.90
   4   3   9   18.00   15.40
   4   3   9   -2.60   13.20
  -5  -3  -9  126.79   11.80
   5  -3   9  111.39   15.50
   5  -3   9  100.79   12.40
  -5  -3  -9  107.99   12.40
  -5  -3  -9  109.39   18.10
   5   3   9  126.29   16.30
   5   3   9  118.99   22.30
   6  -3   9  140.49   12.80
   6  -3   9  136.19   15.40
  -6  -3  -9  150.68   12.10
   6   3   9  125.29   14.40
   7  -4  -9   92.59   14.20
  -7  -4   9   78.69    9.90
  -7   4   9   94.29   12.30
   6  -4  -9   70.99   13.60
  -6  -4   9   64.99    8.80
   6  -4  -9   39.20   15.20
  -6   4   9   62.99   12.60
   5  -4  -9   10.10    9.60
   5  -4  -9    7.00    7.50
   5  -4  -9   23.30    8.60
  -5  -4   9   15.70    5.10
  -5   4   9    0.30    8.80
  -4  -4   9  135.49   11.60
   4  -4  -9  118.19   15.70
  -4  -4   9  138.49   12.80
   4  -4  -9  123.39   19.80
   4  -4  -9  123.49   14.10
  -4   4   9   89.29   16.90
  -4   4   9  114.89   19.60
  -4   4   9   87.69   21.70
   3  -4  -9  479.25   36.50
  -3  -4   9  497.45   36.00
   3  -4  -9  521.25   41.30
   3  -4  -9  462.35   36.80
  -3  -4   9  511.45   35.60
  -3   4   9  486.75   40.10
  -3   4   9  522.95   45.00
  -3   4   9  530.15   42.10
  -3   4   9  505.25   41.30
  -2  -4   9  351.96   33.00
  -2  -4   9  330.07   24.00
   2  -4  -9  311.77   32.30
   2  -4  -9  322.77   25.00
   2  -4  -9  306.67   24.50
  -2  -4   9  328.37   24.50
  -2   4   9  290.97   30.40
  -2   4   9  311.17   35.10
  -2   4   9  300.57   30.90
  -1  -4   9   75.59   10.40
  -1  -4   9   41.60   13.70
   1  -4  -9   73.39   12.10
   1  -4  -9   66.29   14.70
  -1  -4   9   83.69   11.40
   1  -4  -9   70.79   10.80
  -1   4   9   38.70   16.20
  -1   4   9   55.09   13.20
  -1   4   9   73.49   14.80
  -1   4   9   58.49   14.10
   0  -4  -9   59.59   11.70
   0  -4   9   69.99   10.80
   0  -4   9   73.09   11.50
   0  -4   9   72.99   14.20
   0  -4   9   97.39   17.40
   0  -4  -9   65.59   10.20
   0   4   9   61.99   14.60
   0   4   9   99.19   17.00
   0   4   9   60.09   17.00
   0   4   9   45.50   16.00
   1  -4   9  296.37   25.70
   1  -4   9  301.37   25.30
   1  -4   9  312.47   30.10
  -1  -4  -9  347.77   24.60
   1  -4   9  345.77   29.50
  -1  -4  -9  341.17   26.30
   1   4   9  296.97   30.20
   1   4   9  346.27   35.40
   1   4   9  327.07   31.70
   2  -4   9   57.09   11.30
  -2  -4  -9   43.60    7.20
   2  -4   9   42.10   11.50
  -2  -4  -9   49.20    7.90
   2  -4   9   55.39   12.00
   2   4   9   64.09   14.60
   2   4   9   66.29   15.00
   3  -4   9   89.49   18.50
   3  -4   9   54.09   11.00
   3  -4   9   52.19   11.30
  -3  -4  -9   52.19    9.30
  -3  -4  -9   42.70    7.40
   3  -4   9   53.09   18.70
   3  -4   9   40.70   10.40
   3   4   9   24.20   17.40
   3   4   9   65.49   17.30
   3   4   9   77.79   19.90
   4  -4   9   98.59   14.30
   4  -4   9  112.09   13.70
   4  -4   9  109.79   17.00
  -4  -4  -9   79.89   11.20
  -4  -4  -9   99.89   11.70
   4   4   9  102.09   16.00
   4   4   9  110.89   18.30
   5  -4   9   98.59   12.50
   5  -4   9  119.19   11.10
  -5  -4  -9  109.99   11.60
   5   4   9  128.99   17.20
   5   4   9  114.09   13.10
   6  -5  -9   12.80    7.30
  -6  -5   9   13.10    5.50
   6  -5  -9    7.90    6.40
  -6   5   9   -0.40    8.40
   5  -5  -9   15.30    8.70
   5  -5  -9    3.40    6.50
  -5  -5   9   20.00    5.40
   5  -5  -9    8.40    8.20
  -5   5   9   12.10    9.30
   4  -5  -9   71.39   11.20
   4  -5  -9   60.29   10.90
  -4  -5   9   70.79    9.60
  -4   5   9   51.99   11.50
  -4   5   9   40.20   10.50
  -4   5   9   38.20   11.50
   3  -5  -9  113.19   12.60
   3  -5  -9  106.79   13.10
  -3  -5   9  128.19   12.70
  -3  -5   9  132.19   12.50
   3  -5  -9  135.89   22.60
  -3   5   9  102.69   18.60
   2  -5  -9   79.29   11.30
  -2  -5   9  108.09   10.80
   2  -5  -9   85.69   11.70
   2  -5  -9  100.79   17.90
  -2  -5   9   86.59   11.40
  -2   5   9   63.49   16.00
  -2   5   9   68.79   14.90
  -2   5   9   93.49   18.40
   1  -5  -9  190.88   18.90
  -1  -5   9  213.18   18.20
  -1  -5   9  231.08   18.20
   1  -5  -9  215.68   18.10
  -1   5   9  223.78   27.60
  -1   5   9  226.68   28.80
  -1   5   9  224.08   23.10
   0  -5  -9  259.97   19.00
   0  -5  -9  226.58   20.40
   0  -5   9  209.28   26.90
   0  -5   9  235.68   19.90
   0  -5   9  212.58   19.40
   0   5   9  258.07   29.90
   0   5   9  273.47   26.10
  -1  -5  -9  184.38   16.60
  -1  -5  -9  211.78   17.70
   1  -5   9  169.18   17.10
   1  -5   9  192.98   20.90
   1  -5   9  209.78   23.10
   1  -5   9  179.18   16.70
   1   5   9  206.98   26.80
   1   5   9  198.48   23.40
  -2  -5  -9   14.30    6.50
  -2  -5  -9   21.70    5.90
   2  -5   9   10.50    8.50
   2  -5   9   36.90    8.90
   2  -5   9   26.00    8.10
   2  -5   9   17.60    6.20
   2   5   9   21.30   11.70
   2   5   9   17.10    9.60
  -3  -5  -9   11.50    6.60
   3  -5   9   21.00    6.00
   3  -5   9   27.30    7.00
   3   5   9   17.10    8.90
   3   5   9    2.80    8.60
   3  -6  -9  136.29   13.20
  -3  -6   9  157.58   13.70
  -2  -6   9   68.89   10.20
   2  -6  -9   75.79   10.40
   2  -6  -9   67.29   10.20
  -1  -6   9    8.60    5.20
   1  -6  -9   -3.60    6.20
  -1  -6   9   15.00    8.50
  -1   6   9    3.00   12.80
  -1   6   9    6.10    6.50
   0  -6  -9   75.69   11.60
   0  -6   9   63.79    8.60
   0   6   9   79.59   11.00
   0   6   9   63.39   12.30
   1  -6   9  210.58   16.20
   1   6   9  209.48   20.40
   1   6   9  214.98   17.60
  -9   0  10   47.60   12.00
  -9   0  10   78.39   10.10
  -8   0  10  108.09   22.30
  -8   0  10  131.29   16.70
  -8   0  10  135.69   18.30
  -8   0  10  126.79   14.10
  -7   0  10   28.60    7.00
  -7   0  10   34.30    9.00
  -7   0  10   12.30    9.80
  -7   0  10    8.50   11.80
  -6   0  10  469.65   33.70
   6   0 -10  459.15   43.50
   6   0 -10  434.46   35.70
  -6   0  10  473.05   36.70
  -6   0  10  420.96   37.70
  -6   0  10  491.35   38.20
  -5   0  10   46.60   14.90
   5   0 -10   15.00    9.00
  -5   0  10   25.60    6.10
  -5   0  10   22.80    9.80
  -5   0  10   22.50   15.00
  -5   0  10   23.00    9.40
   5   0 -10   18.90   16.00
  -4   0  10  263.57   18.70
   4   0 -10  249.68   22.00
  -4   0  10  211.68   23.50
   4   0 -10  191.48   30.30
  -4   0  10  217.98   26.00
  -4   0  10  209.08   21.80
   3   0 -10  439.86   33.60
   3   0 -10  367.96   39.10
  -3   0  10  392.86   34.80
  -3   0  10  449.26   30.30
  -3   0  10  438.36   35.70
  -3   0  10  450.25   30.60
  -3   0  10  387.16   32.90
  -2   0  10  424.96   41.00
  -2   0  10  441.06   32.90
  -2   0  10  429.06   34.80
   2   0 -10  393.16   34.10
  -2   0  10  425.46   30.50
  -2   0  10  386.86   35.60
   2   0 -10  412.06   33.40
  -2   0  10  450.15   30.50
   1   0 -10  206.38   19.80
   1   0 -10  213.88   28.50
  -1   0  10  231.98   25.40
   1   0 -10  221.68   23.30
  -1   0  10  242.68   26.50
  -1   0  10  228.58   20.70
  -1   0  10  261.67   26.20
   1   0 -10  191.58   20.00
   0   0 -10  823.72   62.39
   0   0 -10  903.71   62.59
   0   0  10  883.41   64.99
   0   0  10  849.32   65.09
   0   0  10 1003.00   66.29
   0   0  10  912.81   62.99
   0   0 -10  909.51   66.19
  -1   0 -10  148.69   15.90
   1   0  10  142.39   20.70
  -1   0 -10  170.98   15.40
   1   0  10  165.38   24.20
  -1   0 -10  123.69   19.70
   1   0  10  155.68   15.30
   1   0  10  138.99   25.10
  -1   0 -10  152.88   21.90
   2   0  10  466.85   38.60
   2   0  10  430.86   31.90
   2   0  10  425.36   39.30
   2   0  10  418.96   34.80
  -2   0 -10  391.36   36.00
  -2   0 -10  453.05   32.00
  -2   0 -10  439.66   35.70
  -2   0 -10  388.66   31.60
   3   0  10  962.30   67.99
   3   0  10  998.00   72.49
  -3   0 -10  993.30   70.39
   3   0  10  960.90   69.89
  -3   0 -10  977.00   71.89
  -3   0 -10 1003.20   68.19
  -4   0 -10  304.57   25.90
  -4   0 -10  310.07   27.00
  -4   0 -10  288.57   25.40
   4   0  10  341.57   27.10
  -4   0 -10  269.37   35.00
  -5   0 -10   -0.50    7.40
  -5   0 -10    9.40    7.50
  -5   0 -10   26.10   18.70
   5   0  10    4.40    9.50
   6   0  10  316.17   27.00
  -9  -1  10   71.69    9.40
  -9  -1  10   63.89    8.50
   9   1 -10   50.89   13.10
  -9   1  10   51.19   11.10
  -8  -1  10   21.20    7.20
  -8  -1  10   21.90    5.60
  -8  -1  10   13.10    7.70
  -8  -1  10   24.20   10.90
  -8   1  10   14.70    7.60
  -8   1  10   24.00    8.60
  -7  -1  10    5.60    8.40
  -7  -1  10   -9.50   16.90
   7  -1 -10  -11.70   13.20
   7  -1 -10   22.50   13.10
  -7  -1  10   15.10    5.50
  -7  -1  10   30.50   11.90
  -7   1  10   17.40   10.20
  -7   1  10   19.00   12.50
  -6  -1  10  184.18   20.40
   6  -1 -10  198.58   22.80
  -6  -1  10  192.08   15.90
  -6  -1  10  193.78   16.30
  -6  -1  10  130.99   26.30
  -6   1  10  162.38   21.70
  -6   1  10  189.08   22.50
  -6   1  10  174.38   26.60
  -6   1  10  168.88   22.20
  -5  -1  10  207.18   16.00
  -5  -1  10  218.58   21.90
   5  -1 -10  218.18   27.30
  -5  -1  10  152.08   23.10
   5  -1 -10  169.88   22.10
  -5  -1  10  225.38   31.90
  -5   1  10  188.58   19.80
  -5   1  10  179.58   25.50
  -5   1  10  204.78   22.60
  -5   1  10  169.88   26.60
   4  -1 -10  373.66   31.20
  -4  -1  10  420.56   32.50
   4  -1 -10  331.17   32.10
   4  -1 -10  374.66   32.60
   4  -1 -10  358.96   36.00
  -4  -1  10  428.96   28.70
  -4  -1  10  420.56   35.00
  -4  -1  10  423.66   28.60
  -4  -1  10  408.26   33.40
  -4   1  10  402.16   35.80
   4   1 -10  387.56   30.10
  -4   1  10  355.16   34.00
  -4   1  10  375.36   35.10
  -4   1  10  435.76   31.00
   3  -1 -10    1.30    7.30
   3  -1 -10    4.60   12.50
  -3  -1  10    0.00    4.20
  -3  -1  10    7.70   11.70
  -3  -1  10    5.50    9.10
   3  -1 -10    0.00    9.30
   3  -1 -10    7.00    7.80
  -3  -1  10    9.70    4.60
  -3  -1  10   11.10   10.90
  -3   1  10   11.80   12.30
   3   1 -10    4.50    6.90
  -3   1  10    3.10   16.00
  -3   1  10   -0.80   18.60
  -3   1  10    6.70   10.80
  -3   1  10   10.90    7.70
   2  -1 -10  330.97   25.10
   2  -1 -10  299.57   24.00
  -2  -1  10  330.17   28.60
  -2  -1  10  304.17   28.60
  -2  -1  10  320.17   22.80
   2  -1 -10  268.57   30.70
   2  -1 -10  306.07   29.60
  -2  -1  10  305.47   22.60
  -2  -1  10  268.97   26.20
  -2   1  10  305.57   31.40
  -2   1  10  278.07   24.30
  -2   1  10  311.07   32.10
  -2   1  10  323.07   38.50
  -2   1  10  341.47   42.40
  -2   1  10  290.17   29.10
   2   1 -10  294.07   25.00
   2   1 -10  331.07   37.60
  -1  -1  10  236.58   21.80
   1  -1 -10  191.68   25.80
  -1  -1  10  235.88   17.60
   1  -1 -10  220.88   24.60
  -1  -1  10  217.18   27.00
  -1  -1  10  235.78   24.50
   1  -1 -10  235.78   19.20
  -1  -1  10  246.88   17.90
   1  -1 -10  214.38   18.40
   1   1 -10  167.98   29.90
  -1   1  10  185.18   41.10
  -1   1  10  178.98   29.70
  -1   1  10  181.18   25.50
  -1   1  10  186.98   24.30
   0  -1  10  116.09   11.80
   0  -1 -10  104.59   12.80
   0  -1 -10  113.79   12.10
   0  -1  10  111.29   11.70
   0  -1 -10  100.39   15.50
   0  -1  10   97.09   19.10
   0  -1  10  110.09   15.50
   0  -1 -10   98.29   21.50
   0  -1  10  100.89   15.20
   0   1 -10   89.09   17.60
   0   1 -10  103.39   15.10
   0   1  10   77.29   11.60
   0   1  10  112.89   16.00
   0   1  10   72.59   24.70
   0   1  10   91.09   19.90
   0   1  10  100.29   20.70
  -1  -1 -10  110.19   20.90
   1  -1  10  138.89   22.00
  -1  -1 -10  145.99   14.60
   1  -1  10  164.68   20.60
  -1  -1 -10  126.99   12.90
   1  -1  10  132.09   16.00
  -1  -1 -10  141.99   21.10
   1  -1  10  133.49   14.90
   1  -1  10  101.39   16.00
  -1   1 -10  125.59   17.10
   1   1  10  189.18   26.00
   1   1  10  169.58   20.80
   1   1  10  135.19   28.40
  -1   1 -10  176.48   23.20
   1   1  10  143.39   13.00
  -2  -1 -10  145.19   20.10
   2  -1  10  125.69   22.90
  -2  -1 -10  142.99   24.20
  -2  -1 -10  119.69   14.00
   2  -1  10  127.59   15.30
   2  -1  10  126.39   18.90
  -2  -1 -10  117.99   14.00
  -2   1 -10  145.59   19.00
  -2   1 -10  121.19   18.60
   2   1  10  104.19   32.50
   2   1  10  110.79   18.40
  -2   1 -10  128.49   21.80
  -3  -1 -10  423.66   33.20
   3  -1  10  433.56   31.30
  -3  -1 -10  364.76   29.50
   3  -1  10  439.96   33.20
  -3  -1 -10  400.96   29.80
  -3  -1 -10  410.46   42.00
   3  -1  10  416.66   35.60
   3  -1  10  411.96   37.00
  -3   1 -10  378.96   33.50
  -3   1 -10  371.96   38.00
  -3   1 -10  346.77   34.00
   3   1  10  354.56   32.70
   4  -1  10  573.44   41.30
  -4  -1 -10  544.25   39.80
  -4  -1 -10  530.35   39.90
   4  -1  10  548.75   40.60
   4  -1  10  561.74   43.30
  -4  -1 -10  497.35   51.89
  -4  -1 -10  535.15   41.60
  -4   1 -10  531.45   41.80
  -4   1 -10  553.14   43.80
   4   1  10  618.84   42.40
  -5  -1 -10  132.29   14.80
   5  -1  10  169.98   17.70
  -5  -1 -10  123.49   16.60
  -5  -1 -10  159.78   18.00
  -5   1 -10  154.88   25.70
   6  -1  10   65.79   12.80
  -6  -1 -10   62.79   10.00
  -6  -1 -10   69.69   10.90
  -6   1 -10   76.39   10.90
   6   1  10   59.39   11.80
  -8  -2  10   35.70    7.30
  -8  -2  10   27.30    6.80
  -8  -2  10   53.49   12.30
  -8  -2  10   47.60    6.70
  -8   2  10   28.70    8.40
   8   2 -10   37.60   14.60
   7  -2 -10  103.19   20.70
  -7  -2  10  112.29   18.10
   7  -2 -10   88.59   17.40
  -7  -2  10   81.89   18.40
  -7   2  10  114.89   19.10
  -7   2  10  146.39   22.60
  -7   2  10   86.59   16.70
  -7   2  10   97.99   18.60
  -6  -2  10  196.48   20.60
   6  -2 -10  165.18   23.60
  -6  -2  10  203.88   16.70
   6  -2 -10  168.08   24.20
  -6   2  10  215.58   20.80
  -6   2  10  200.38   22.10
  -6   2  10  190.88   21.60
  -6   2  10  180.58   23.50
  -5  -2  10  429.26   29.00
  -5  -2  10  373.16   33.20
   5  -2 -10  420.46   35.60
   5  -2 -10  405.06   36.00
   5  -2 -10  402.76   31.70
  -5  -2  10  415.76   28.90
   5  -2 -10  345.57   33.20
  -5   2  10  376.06   31.40
  -5   2  10  406.66   35.50
  -4  -2  10   32.10   13.20
   4  -2 -10   33.60    8.60
   4  -2 -10   28.80   12.70
   4  -2 -10   20.20   11.80
  -4  -2  10   50.99    8.60
   4  -2 -10   28.50    7.90
  -4   2  10   35.50   15.80
  -4   2  10    9.70   11.90
  -4   2  10   15.50   11.30
  -4   2  10   25.90    8.10
  -3  -2  10  501.15   32.50
  -3  -2  10  446.76   37.50
   3  -2 -10  478.05   39.00
  -3  -2  10  465.25   39.60
   3  -2 -10  491.05   34.00
   3  -2 -10  500.45   33.30
   3  -2 -10  458.35   38.50
  -3  -2  10  492.75   32.10
  -3   2  10  412.16   40.30
  -3   2  10  382.46   38.40
  -3   2  10  392.26   37.80
  -3   2  10  412.46   33.00
  -3   2  10  397.86   43.50
  -3   2  10  418.16   42.50
  -2  -2  10 1527.35  107.09
  -2  -2  10 1526.85  103.89
   2  -2 -10 1489.65  104.59
  -2  -2  10 1515.85  106.39
   2  -2 -10 1520.35  107.49
   2  -2 -10 1577.44  104.29
   2  -2 -10 1445.96  107.99
  -2  -2  10 1555.94  103.69
  -2   2  10 1403.66  106.99
  -2   2  10 1568.74  107.59
  -2   2  10 1556.94  110.09
  -2   2  10 1599.04  109.29
  -2   2  10 1573.14  103.79
   1  -2 -10  364.26   28.50
   1  -2 -10  372.06   27.80
  -1  -2  10  381.16   27.30
   1  -2 -10  425.56   35.30
  -1  -2  10  346.27   32.70
  -1  -2  10  405.86   32.10
  -1  -2  10  412.06   28.00
   1  -2 -10  306.57   40.40
  -1  -2  10  383.46   34.60
   1   2 -10  356.36   28.60
  -1   2  10  390.16   41.10
  -1   2  10  355.26   37.90
  -1   2  10  373.36   33.00
  -1   2  10  353.96   34.20
   0  -2  10  270.87   24.10
   0  -2 -10  291.67   28.30
   0  -2  10  248.38   27.00
   0  -2 -10  216.18   35.00
   0  -2 -10  281.07   21.50
   0  -2 -10  243.78   20.60
   0  -2  10  259.67   27.60
   0  -2  10  272.57   20.90
   0  -2  10  264.27   20.70
   0   2 -10  239.98   22.30
   0   2  10  280.97   29.50
   0   2  10  237.88   29.80
   0   2 -10  199.28   34.90
   0   2  10  284.87   36.30
   0   2  10  276.67   28.00
   1  -2  10  462.55   33.10
   1  -2  10  443.56   36.90
   1  -2  10  459.25   32.80
  -1  -2 -10  437.86   32.90
   1  -2  10  470.15   35.50
   1  -2  10  444.56   37.30
  -1  -2 -10  470.85   37.60
   1   2  10  387.96   38.80
   1   2  10  465.95   37.50
  -1   2 -10  421.46   40.10
  -1   2 -10  464.05   35.10
   1   2  10  399.26   44.10
   1   2  10  455.05   41.80
   2  -2  10    6.00    8.00
   2  -2  10    9.60   11.10
  -2  -2 -10    8.20    6.30
  -2  -2 -10    0.80    4.80
  -2  -2 -10    7.40    9.20
   2  -2  10   14.60    6.90
   2  -2  10    9.80   10.90
   2  -2  10   -1.70    9.80
   2   2  10    7.30   10.90
   2   2  10   11.70   14.00
   2   2  10   -0.40   17.80
  -2   2 -10    8.60   12.90
  -2   2 -10   -0.20    9.10
   3  -2  10 1167.28   82.49
  -3  -2 -10 1100.29   82.39
  -3  -2 -10 1131.09   80.59
  -3  -2 -10 1133.99   80.79
   3  -2  10 1115.19   83.09
   3  -2  10 1114.29   82.09
   3   2  10 1145.99   84.49
   3   2  10 1292.97   83.39
  -3   2 -10 1192.38   82.49
  -3   2 -10 1340.87   83.19
   3   2  10 1172.68   88.29
  -4  -2 -10   10.50    8.00
   4  -2  10   34.60    9.30
  -4  -2 -10   26.50    7.00
   4  -2  10   27.80    9.40
   4  -2  10   44.10   11.40
  -4  -2 -10   16.70    6.60
   4   2  10   32.40   18.90
  -4   2 -10    2.50   11.80
   4   2  10   23.50   10.90
  -4   2 -10   42.30   10.20
   4   2  10   23.50   11.50
  -5  -2 -10   99.79   13.20
  -5  -2 -10   86.19   11.20
  -5  -2 -10  116.99   14.10
   5  -2  10   84.69   12.90
   5  -2  10   90.19   15.70
  -5   2 -10  121.19   15.90
   5   2  10  103.69   15.70
   6  -2  10  162.78   15.20
  -6  -2 -10  174.68   14.90
  -6  -2 -10  191.38   16.60
  -6   2 -10  188.78   18.30
  -8  -3  10  156.68   12.00
   8  -3 -10  143.59   16.50
  -8  -3  10  112.89   14.90
   8   3 -10  179.08   24.90
  -8   3  10  152.68   15.10
  -7  -3  10  110.09   16.30
   7  -3 -10   77.29   17.10
  -7  -3  10  110.39   10.50
   7   3 -10   95.79   19.70
  -7   3  10   79.09   15.50
   6  -3 -10   78.19   13.40
   6  -3 -10   65.19   12.00
   6  -3 -10  103.69   21.00
  -6  -3  10   79.09    9.50
   6   3 -10   30.70   24.60
  -6   3  10   73.99   13.30
  -6   3  10   89.19   17.60
  -5  -3  10  108.79   10.90
   5  -3 -10   95.29   12.90
   5  -3 -10   88.19   20.50
  -5  -3  10   99.79   11.60
   5  -3 -10  108.69   18.70
   5  -3 -10   81.79   16.90
  -5  -3  10   91.39   17.70
  -5   3  10  125.19   18.90
  -4  -3  10  950.30   60.59
  -4  -3  10  866.61   63.89
   4  -3 -10  908.51   61.69
   4  -3 -10  856.91   64.59
   4  -3 -10  764.52   61.39
  -4  -3  10  935.41   60.39
   4  -3 -10  783.02   67.99
  -4  -3  10  912.31   64.69
  -4   3  10  813.02   64.19
  -4   3  10  957.00   65.19
  -3  -3  10   64.99   13.60
   3  -3 -10   56.19    8.70
   3  -3 -10   58.99   12.60
  -3  -3  10   47.40    9.10
   3  -3 -10   24.50   17.90
  -3  -3  10   47.10    8.60
  -3   3  10   45.90   14.40
  -3   3  10   61.59   14.70
  -3   3  10   65.59   14.00
  -3   3  10   79.39   17.70
  -2  -3  10   64.69    9.80
  -2  -3  10   51.59    9.20
  -2  -3  10   20.00   12.20
   2  -3 -10   63.89   13.00
   2  -3 -10   55.19    8.00
   2  -3 -10   41.40    8.00
  -2   3  10   40.80   15.70
  -2   3  10   38.60   15.90
  -2   3  10   51.49   14.90
  -2   3  10   38.50   13.50
  -1  -3  10  204.78   17.20
  -1  -3  10  197.18   24.20
   1  -3 -10  195.88   17.40
   1  -3 -10  228.38   18.20
   1  -3 -10  204.98   26.60
  -1  -3  10  223.28   17.30
  -1   3  10  177.58   26.80
  -1   3  10  150.88   23.90
  -1   3  10  164.08   24.80
   0  -3 -10  235.88   27.80
   0  -3  10  244.68   27.40
   0  -3  10  237.28   26.10
   0  -3  10  242.78   19.30
   0  -3  10  246.58   25.80
   0  -3 -10  210.18   19.20
   0  -3  10  236.88   19.60
   0  -3 -10  241.28   19.60
   0   3  10  249.48   26.90
   0   3  10  205.88   26.90
   0   3  10  218.68   31.90
   0   3  10  189.88   27.80
   1  -3  10  166.18   21.70
   1  -3  10  178.18   23.70
  -1  -3 -10  148.09   15.40
  -1  -3 -10  145.39   15.00
   1  -3  10  148.29   15.10
   1  -3  10  168.88   22.60
   1  -3  10  157.28   15.90
  -1  -3 -10  142.39   22.40
   1   3  10  144.99   23.20
   1   3  10  158.78   22.60
   1   3  10  184.88   29.50
   2  -3  10  112.99   17.50
   2  -3  10   93.19   14.30
  -2  -3 -10   93.89   13.40
   2  -3  10  110.89   19.90
   2  -3  10  104.89   14.20
  -2  -3 -10  115.39   20.40
   2  -3  10   89.39   14.90
   2   3  10   85.09   18.70
   2   3  10  108.29   16.30
   2   3  10   87.89   17.80
   3  -3  10   14.70   13.20
  -3  -3 -10   -2.60    5.60
   3  -3  10   -0.80    8.40
  -3  -3 -10   -0.60    9.10
   3  -3  10    2.40    7.60
   3  -3  10   -0.90    7.70
  -3  -3 -10   -3.20    5.00
   3   3  10   10.60   12.50
   3   3  10    9.20   13.00
   3   3  10    2.10   10.00
   4  -3  10  407.06   32.20
  -4  -3 -10  408.46   29.90
   4  -3  10  426.06   35.30
   4  -3  10  420.56   31.00
  -4  -3 -10  393.46   29.60
  -4  -3 -10  406.26   32.30
   4   3  10  404.16   36.10
   4   3  10  385.96   35.20
   4   3  10  385.06   33.70
  -5  -3 -10  291.07   19.30
   5  -3  10  224.18   19.30
  -5  -3 -10  232.48   20.10
  -5  -3 -10  226.68   24.00
   5  -3  10  278.47   20.70
   5   3  10  240.68   21.20
   5   3  10  239.28   26.00
   7  -4 -10  136.69   14.70
  -7   4  10  150.48   14.90
   6  -4 -10   32.90    9.10
  -6  -4  10   39.80    7.10
  -6  -4  10   32.90    5.50
  -6   4  10   19.30    8.90
   5  -4 -10    3.80    6.90
   5  -4 -10    3.00   10.90
  -5  -4  10    3.00    4.40
   5  -4 -10    0.20    9.00
  -5   4  10    8.70    9.40
   4  -4 -10   66.89   12.20
   4  -4 -10   93.19   17.80
  -4  -4  10   65.39    9.60
   4  -4 -10   58.39    9.60
  -4  -4  10   76.39    9.30
  -4   4  10   71.39   16.30
  -4   4  10   39.90   12.80
   3  -4 -10   49.70    8.50
  -3  -4  10   32.70   12.00
  -3  -4  10   63.69    9.50
   3  -4 -10   48.10    8.20
  -3  -4  10   58.29    9.20
   3  -4 -10   66.19   12.40
  -3   4  10   54.89   17.00
  -2  -4  10  233.48   27.70
  -2  -4  10  290.47   21.90
  -2  -4  10  308.47   20.70
   2  -4 -10  242.38   27.90
   2  -4 -10  271.77   22.80
   2  -4 -10  271.77   21.20
  -2   4  10  248.48   26.90
  -2   4  10  207.38   27.50
  -2   4  10  268.87   30.70
   1  -4 -10  175.08   16.80
   1  -4 -10  143.89   14.30
  -1  -4  10  144.09   22.30
  -1  -4  10  153.48   14.50
   1  -4 -10  122.59   23.90
  -1  -4  10  145.09   15.40
  -1   4  10  176.58   20.10
  -1   4  10  144.09   23.40
  -1   4  10  111.89   21.20
  -1   4  10  168.68   26.70
   0  -4 -10  335.37   32.70
   0  -4  10  317.97   25.90
   0  -4  10  350.36   25.60
   0  -4 -10  346.47   25.10
   0  -4 -10  342.57   26.50
   0  -4  10  357.36   30.30
   0  -4  10  354.26   30.20
   0   4  10  344.47   30.70
   0   4  10  292.87   33.10
   0   4  10  307.47   30.60
   0   4  10  298.17   32.60
   1  -4  10  156.18   19.70
  -1  -4 -10  161.98   14.60
   1  -4  10  161.68   15.60
   1  -4  10  161.58   16.20
  -1  -4 -10  167.78   15.80
   1  -4  10  173.18   20.70
   1   4  10  189.48   26.40
   1   4  10  128.09   20.30
   1   4  10  153.08   21.60
   2  -4  10  169.68   15.50
  -2  -4 -10  155.38   15.80
   2  -4  10  173.78   17.30
  -2  -4 -10  177.48   15.60
   2  -4  10  166.08   19.50
   2  -4  10  193.88   22.00
   2   4  10  175.98   22.20
  -3  -4 -10  338.17   25.30
   3  -4  10  343.67   26.40
  -3  -4 -10  320.97   25.10
   3  -4  10  328.37   25.40
   3  -4  10  350.26   27.80
   3   4  10  326.07   31.50
   3   4  10  344.57   29.40
  -4  -4 -10   23.30    7.20
   4  -4  10   21.10    6.80
   4  -4  10   13.10    5.10
   4   4  10   25.20    9.40
   4   4  10   18.40    7.40
  -5  -5  10  136.09   10.70
   5  -5 -10  104.89   14.60
   5  -5 -10  108.89   12.80
  -5   5  10   84.19   15.20
  -4  -5  10  286.57   20.60
   4  -5 -10  247.38   21.10
   4  -5 -10  258.07   25.00
  -4  -5  10  282.17   20.50
   4  -5 -10  237.68   21.90
  -4   5  10  272.97   25.30
  -4   5  10  293.17   28.00
  -4   5  10  271.47   23.70
   3  -5 -10  117.99   12.70
  -3  -5  10  127.59   11.60
  -3  -5  10  121.79   11.00
   3  -5 -10  144.29   19.20
   3  -5 -10   97.69   12.40
  -3   5  10   90.29   17.00
  -2  -5  10    6.30    4.60
   2  -5 -10   -5.10    5.00
   2  -5 -10   -4.10    5.60
   2  -5 -10  -16.10   12.40
  -2  -5  10   11.40    5.90
  -2   5  10   -5.80   10.30
  -2   5  10   10.80    8.20
  -2   5  10    7.80   11.50
  -1  -5  10   80.89   10.80
  -1  -5  10   75.79   10.10
   1  -5 -10   82.59   10.90
   1  -5 -10   70.09   10.50
  -1   5  10   69.89   13.50
  -1   5  10   57.89   14.80
  -1   5  10   85.79   15.50
   0  -5  10   84.89    9.70
   0  -5 -10   62.79   11.30
   0  -5  10   68.89   12.00
   0  -5 -10   64.39   10.30
   0  -5  10   74.99   11.50
   0   5  10   62.39   15.30
   0   5  10   78.39   15.40
   1  -5  10   74.79   14.60
   1  -5  10   79.99   10.20
  -1  -5 -10   86.49   11.70
   1  -5  10   79.69   12.30
  -1  -5 -10   77.19   10.00
   1  -5  10   88.49   16.30
   1   5  10   61.99   15.30
   1   5  10   98.99   19.30
  -2  -5 -10   32.30    7.10
   2  -5  10   47.60   10.30
   2  -5  10   45.80    8.20
   2   5  10   27.20    8.90
   2   5  10   37.60    9.30
   3  -5  10   28.00    6.30
   3  -5  10   17.30    5.90
   3   5  10   26.00    6.80
   3   5  10   38.60    8.90
   2  -6 -10   69.49   10.60
  -2  -6  10   89.19   10.50
  -2   6  10  103.79   11.30
  -1  -6  10  267.67   18.50
   1  -6 -10  218.38   19.10
  -1   6  10  246.68   19.60
  -9   0  11   10.80    8.50
  -9   0  11    1.70    4.80
  -8   0  11  276.27   22.70
  -8   0  11  262.87   23.30
  -7   0  11   70.19   13.80
  -7   0  11   76.89   10.90
  -6   0  11  153.08   21.20
  -6   0  11  183.88   16.60
  -6   0  11  125.89   27.00
  -6   0  11  160.88   19.80
   6   0 -11  149.88   30.80
   6   0 -11  164.98   20.60
  -6   0  11  157.48   15.80
  -5   0  11    3.20    9.40
  -5   0  11    8.30   12.00
   5   0 -11   -9.00   14.50
  -5   0  11   -9.60    7.30
  -5   0  11    2.40    9.40
  -5   0  11    6.80   12.60
   5   0 -11   -2.00    9.20
  -4   0  11    6.60    9.30
   4   0 -11   23.20    9.40
  -4   0  11    4.50    6.00
  -4   0  11   15.40    6.20
   4   0 -11    6.20   12.50
  -4   0  11   10.30    8.00
  -4   0  11   15.50   10.90
  -3   0  11  570.54   43.50
  -3   0  11  514.65   41.80
  -3   0  11  555.34   43.50
  -3   0  11  570.24   39.90
   3   0 -11  609.04   46.30
   3   0 -11  577.44   42.70
  -2   0  11  227.18   18.10
   2   0 -11  212.28   23.20
  -2   0  11  225.28   24.80
  -2   0  11  196.08   27.80
  -2   0  11  215.78   22.00
   2   0 -11  218.08   21.90
   2   0 -11  190.28   27.70
  -2   0  11  199.28   19.60
   1   0 -11  -10.50   10.70
   1   0 -11    4.90    8.40
   1   0 -11    8.80   10.10
  -1   0  11    8.20    7.10
  -1   0  11    9.40    9.40
   1   0 -11    2.30    8.80
  -1   0  11   -7.90   12.70
  -1   0  11    6.00   11.60
  -1   0  11    6.90   11.70
   0   0  11   25.00   11.20
   0   0  11   32.40   12.00
   0   0 -11   15.30    8.70
   0   0 -11   26.60    8.30
   0   0  11   37.50    7.60
   0   0 -11   34.60   11.50
   0   0 -11   24.50   11.70
   1   0  11  260.97   26.20
  -1   0 -11  218.58   24.40
   1   0  11  242.78   24.20
   1   0  11  219.48   20.00
  -1   0 -11  244.48   20.90
  -1   0 -11  203.28   25.10
  -1   0 -11  235.08   20.60
   1   0  11  206.98   26.10
   2   0  11  102.89   17.70
  -2   0 -11  104.49   13.80
   2   0  11   97.79   13.60
  -2   0 -11   94.69   17.90
   2   0  11  119.29   23.30
   2   0  11   74.59   15.50
  -2   0 -11  106.09   16.60
  -3   0 -11  256.47   23.50
   3   0  11  203.48   31.40
  -3   0 -11  235.08   29.00
   3   0  11  249.88   20.80
   3   0  11  275.67   23.90
  -3   0 -11  201.98   22.30
  -4   0 -11   -2.90    6.90
  -4   0 -11    4.90    8.60
  -4   0 -11   -6.50   17.80
  -5   0 -11    3.70    6.50
   5   0  11    0.00    8.60
  -6   0 -11   12.80    4.60
  -9  -1  11   18.20    4.40
  -9   1  11   28.80    8.10
   9   1 -11   11.60   10.10
  -9   1  11   23.40    5.80
  -8  -1  11   87.79   10.80
  -8  -1  11   79.99   15.40
  -8  -1  11   86.09   15.40
  -8   1  11  115.69   14.20
  -8   1  11   94.49   13.20
  -7  -1  11   65.09   10.80
  -7  -1  11   57.19    9.20
  -7  -1  11   54.79   12.00
  -7  -1  11   59.29   10.30
   7  -1 -11   29.20   16.10
   7  -1 -11   57.89   15.00
  -7   1  11   60.89   13.10
  -7   1  11   58.49   11.80
  -6  -1  11   -4.60   12.90
  -6  -1  11   31.30   12.20
  -6  -1  11   22.70    8.30
   6  -1 -11   21.00   12.40
  -6  -1  11   33.90    6.90
  -6   1  11   45.80   12.50
  -6   1  11   17.60   11.60
  -6   1  11   19.80    9.80
  -6   1  11   32.20   11.70
  -5  -1  11  953.30   76.69
  -5  -1  11 1176.78   73.39
  -5  -1  11 1025.40   77.39
   5  -1 -11 1015.40   76.29
   5  -1 -11 1076.39   77.59
  -5  -1  11 1120.29   75.89
  -5   1  11 1159.18   77.59
  -5   1  11 1079.19   75.79
  -5   1  11 1021.90   77.19
  -5   1  11 1065.59   75.59
   4  -1 -11  589.74   50.69
  -4  -1  11  714.83   45.70
   4  -1 -11  558.04   48.90
  -4  -1  11  647.44   48.80
  -4  -1  11  667.43   49.70
   4  -1 -11  650.73   48.20
  -4  -1  11  641.34   45.90
  -4   1  11  661.43   49.70
   4   1 -11  643.34   46.90
  -4   1  11  723.73   50.89
  -4   1  11  702.73   48.20
  -4   1  11  628.94   50.09
  -3  -1  11  224.28   17.80
   3  -1 -11  195.68   20.60
  -3  -1  11  220.48   24.40
  -3  -1  11  235.18   17.70
   3  -1 -11  191.98   24.10
   3  -1 -11  190.68   20.80
   3  -1 -11  223.68   27.20
  -3  -1  11  210.48   23.80
   3   1 -11  227.38   20.60
  -3   1  11  204.38   24.10
  -3   1  11  253.77   27.10
   3   1 -11  223.58   32.70
  -3   1  11  220.98   25.50
  -3   1  11  194.38   28.70
  -3   1  11  242.78   20.80
   2  -1 -11  214.78   23.90
  -2  -1  11  257.97   18.60
  -2  -1  11  219.78   24.40
   2  -1 -11  214.08   27.20
   2  -1 -11  205.38   19.80
  -2  -1  11  180.38   21.10
   2  -1 -11  224.08   20.70
  -2  -1  11  265.67   18.50
  -2  -1  11  270.17   24.80
  -2   1  11  214.78   24.20
  -2   1  11  206.88   37.00
   2   1 -11  260.07   31.60
  -2   1  11  222.18   20.20
   2   1 -11  222.78   21.00
  -2   1  11  203.18   32.10
  -2   1  11  258.47   28.10
  -2   1  11  262.67   27.00
   1  -1 -11  109.19   13.80
  -1  -1  11  134.79   12.40
   1  -1 -11  124.99   14.90
  -1  -1  11  108.89   21.70
  -1  -1  11  140.69   16.50
  -1  -1  11  127.79   13.00
   1  -1 -11  108.59   18.70
   1  -1 -11  144.79   21.70
  -1  -1  11   81.29   18.40
  -1   1  11  101.49   17.80
  -1   1  11  150.48   20.00
  -1   1  11  141.19   14.20
   1   1 -11  183.48   26.50
   1   1 -11  118.09   16.40
  -1   1  11  123.89   22.70
  -1   1  11   93.79   20.80
   0  -1  11  232.08   23.90
   0  -1 -11  241.18   19.50
   0  -1  11  209.68   18.90
   0  -1 -11  231.28   24.40
   0  -1  11  203.88   20.10
   0  -1 -11  192.68   18.70
   0  -1 -11  236.78   24.40
   0  -1  11  260.87   24.40
   0  -1  11  237.18   18.20
   0   1  11  190.08   18.10
   0   1  11  201.78   43.20
   0   1 -11  167.98   21.20
   0   1  11  201.98   24.80
   0   1 -11  231.58   27.40
   0   1  11  209.98   25.00
   0   1  11  190.88   32.80
   1  -1  11  807.12   55.69
  -1  -1 -11  764.22   57.99
   1  -1  11  793.42   57.79
   1  -1  11  773.32   56.89
   1  -1  11  788.92   58.89
  -1  -1 -11  728.63   55.99
  -1  -1 -11  764.92   55.79
  -1  -1 -11  757.12   59.89
   1   1  11  816.92   54.79
   1   1  11  843.32   58.49
  -1   1 -11  852.31   59.09
  -1   1 -11  801.02   57.99
   1   1  11  793.72   68.89
   1   1  11  825.22   59.19
   2  -1  11  151.08   18.40
  -2  -1 -11  144.19   19.70
  -2  -1 -11  147.19   15.10
   2  -1  11  177.88   22.50
  -2  -1 -11  194.78   29.40
   2  -1  11  159.78   17.40
  -2  -1 -11  150.58   15.10
   2  -1  11  163.18   23.00
  -2   1 -11  143.49   20.30
   2   1  11  141.49   19.90
  -2   1 -11  126.29   20.70
  -3  -1 -11  209.18   36.40
   3  -1  11  154.68   23.30
   3  -1  11  166.68   18.30
   3  -1  11  165.48   22.00
   3  -1  11  128.69   17.70
  -3  -1 -11  136.79   18.60
  -3  -1 -11  182.78   16.10
  -3  -1 -11  151.48   16.50
  -3   1 -11  163.98   23.10
   3   1  11  160.18   19.70
  -3   1 -11  148.89   19.30
   4  -1  11  462.75   36.40
  -4  -1 -11  449.26   36.10
   4  -1  11  524.95   40.00
  -4  -1 -11  476.95   35.30
  -4  -1 -11  533.85   51.99
   4  -1  11  504.15   36.30
  -4   1 -11  459.95   36.10
  -4   1 -11  446.46   40.00
   4   1  11  454.65   37.70
  -5  -1 -11  131.09   13.50
  -5  -1 -11  121.59   13.70
  -5  -1 -11   96.79   16.20
   5  -1  11  141.09   14.60
  -5   1 -11  137.19   14.60
   5   1  11  110.19   17.40
   8  -2 -11   64.49   11.80
  -8  -2  11   83.59   10.80
  -8  -2  11   63.89   11.40
  -8  -2  11   68.49    8.40
  -8  -2  11   71.39   14.00
  -8   2  11   69.09   12.00
   8   2 -11  102.99   22.40
  -8   2  11   73.89   13.20
   7  -2 -11    2.50   10.50
  -7  -2  11   10.80   10.30
  -7  -2  11    6.90    9.00
  -7  -2  11   15.60    5.60
  -7   2  11    5.30    8.50
  -7   2  11   -9.90   12.10
  -7   2  11   10.70   10.30
  -6  -2  11  120.89   17.20
   6  -2 -11  102.89   23.80
  -6  -2  11  150.98   13.50
   6  -2 -11  117.49   20.60
  -6  -2  11  141.19   13.10
  -6   2  11  116.79   20.10
  -6   2  11  169.28   19.40
  -6   2  11  160.08   18.80
  -6   2  11  156.58   19.00
   5  -2 -11   25.80   13.70
   5  -2 -11   30.60   11.50
   5  -2 -11   42.10   10.90
  -5  -2  11   21.80    8.40
  -5   2  11   18.30   11.10
  -5   2  11   22.40   10.60
  -4  -2  11  155.68   14.00
  -4  -2  11  159.38   21.60
   4  -2 -11  148.09   16.40
   4  -2 -11  129.89   22.70
  -4  -2  11  155.08   13.50
   4  -2 -11  159.68   18.80
   4  -2 -11  186.88   23.80
  -4  -2  11  169.28   20.20
  -4   2  11  143.19   22.00
  -4   2  11  177.98   27.10
  -4   2  11  136.49   16.60
  -4   2  11  120.29   21.20
   3  -2 -11   44.10    9.70
  -3  -2  11   39.10   11.60
  -3  -2  11   34.10   10.60
   3  -2 -11   35.90   11.70
  -3  -2  11   33.40   12.60
  -3  -2  11   22.80    5.50
   3  -2 -11   33.20   13.90
  -3  -2  11   45.80    7.20
   3  -2 -11   33.60    7.90
  -3   2  11   37.80    8.10
  -3   2  11   33.80   13.70
  -3   2  11   40.20   11.80
  -3   2  11   40.10   14.70
  -3   2  11   24.70   19.20
   2  -2 -11  125.09   23.40
   2  -2 -11  134.89   15.00
   2  -2 -11  109.89   15.00
  -2  -2  11  151.48   13.70
  -2  -2  11  148.99   13.30
  -2  -2  11  122.49   20.20
  -2  -2  11  135.89   20.00
   2  -2 -11  133.39   23.70
  -2   2  11  138.09   28.60
  -2   2  11  114.69   20.80
  -2   2  11  123.59   21.30
  -2   2  11  138.19   13.50
  -2   2  11  163.88   29.30
   1  -2 -11   35.10   11.90
  -1  -2  11   21.20    5.90
  -1  -2  11   -4.30   13.20
  -1  -2  11   32.80    7.10
  -1  -2  11   23.70   10.90
   1  -2 -11   28.60    7.50
   1  -2 -11   38.60   14.30
   1  -2 -11   12.80    6.60
  -1  -2  11   23.20    9.20
  -1   2  11   21.00   16.60
  -1   2  11   24.90   18.40
  -1   2  11   28.40   12.00
   1   2 -11   18.50    7.70
  -1   2  11    9.70   12.40
   0  -2  11   66.29   13.20
   0  -2 -11   69.49   11.50
   0  -2  11   85.09   13.30
   0  -2  11   74.49   12.60
   0  -2  11   66.39   10.00
   0  -2  11   58.19   12.70
   0   2 -11   49.90   11.10
   0   2  11   55.09   14.40
   0   2  11   29.80   17.80
   0   2  11   71.39   14.60
   0   2 -11   55.39   17.80
   0   2  11   46.20   15.30
   1  -2  11   -1.30    9.00
   1  -2  11   -2.50   10.50
  -1  -2 -11    4.40    6.00
   1  -2  11   -0.20    8.60
   1  -2  11   13.50    9.70
  -1  -2 -11    2.70    6.40
   1   2  11   19.00   13.10
  -1   2 -11   26.80   14.10
  -1   2 -11   29.70   10.50
   1   2  11   29.00   15.10
   1   2  11    7.60   17.40
   1   2  11   19.70   12.20
  -2  -2 -11   69.99   11.90
  -2  -2 -11   68.09   10.50
  -2  -2 -11   91.59   16.70
   2  -2  11   65.69   14.80
   2  -2  11   62.59   12.90
   2  -2  11   68.89   11.00
   2  -2  11   66.39   14.70
  -2   2 -11   95.09   14.50
  -2   2 -11   80.49   17.30
   2   2  11   90.39   18.00
   2   2  11   84.79   19.60
   2   2  11   84.49   19.90
  -3  -2 -11   81.49   11.60
  -3  -2 -11   98.79   12.10
  -3  -2 -11   89.29   15.00
   3  -2  11   88.79   13.80
   3  -2  11   88.89   17.00
   3  -2  11   97.69   17.00
   3   2  11   78.49   19.40
   3   2  11   83.19   15.80
  -3   2 -11   63.29   12.30
   4  -2  11   16.70    9.20
  -4  -2 -11   11.60    6.70
   4  -2  11    7.80   13.00
   4  -2  11   28.60    8.70
  -4  -2 -11    9.10    5.30
  -4  -2 -11   13.10    7.90
  -4   2 -11   21.00    9.50
   4   2  11   12.60   10.20
   4   2  11   -0.60    9.30
  -4   2 -11    7.70   15.50
  -5  -2 -11   17.40    5.70
  -5  -2 -11    9.70    6.10
  -5  -2 -11   37.70   13.10
   5  -2  11   10.90    5.90
   5   2  11   22.30    8.80
  -8  -3  11  126.59    9.80
  -8  -3  11  115.49   13.30
  -8   3  11   93.29   12.80
  -7  -3  11    9.80    8.60
  -7  -3  11   -0.10    4.60
   7  -3 -11    0.10    7.90
  -7   3  11   -2.40    7.90
  -7   3  11    0.70    9.00
   6  -3 -11  214.18   33.80
  -6  -3  11  209.18   20.30
   6  -3 -11  203.98   23.80
   6  -3 -11  185.08   22.60
  -6  -3  11  222.28   16.20
  -6   3  11  169.08   22.90
  -6   3  11  196.78   22.80
   5  -3 -11  475.95   46.00
  -5  -3  11  528.65   35.50
   5  -3 -11  494.05   38.50
   5  -3 -11  439.56   37.40
   5  -3 -11  497.45   39.40
  -5  -3  11  505.45   38.20
  -5  -3  11  537.25   35.30
  -5   3  11  495.85   39.40
   4  -3 -11  468.05   48.10
   4  -3 -11  519.35   39.20
   4  -3 -11  537.15   39.10
  -4  -3  11  525.85   41.10
   4  -3 -11  496.45   41.90
  -4  -3  11  566.04   37.50
  -4  -3  11  575.74   37.20
  -4  -3  11  569.74   41.30
  -4   3  11  524.25   42.00
  -4   3  11  439.26   41.20
   3  -3 -11   69.19   22.20
  -3  -3  11   97.59   10.90
  -3  -3  11   99.19   20.00
   3  -3 -11   93.49   12.50
  -3  -3  11  100.19   10.90
   3  -3 -11   89.49   12.40
   3  -3 -11  109.49   19.30
  -3   3  11  104.69   20.00
   2  -3 -11  292.17   22.70
  -2  -3  11  295.17   21.70
   2  -3 -11  298.37   23.30
  -2  -3  11  263.97   27.30
  -2  -3  11  298.37   22.10
   2  -3 -11  254.57   27.70
  -2   3  11  240.78   30.30
  -2   3  11  298.87   32.80
  -2   3  11  257.07   28.60
  -2   3  11  304.97   28.40
   1  -3 -11  100.69   13.30
  -1  -3  11  129.99   12.90
  -1  -3  11  157.48   20.40
   1  -3 -11  114.49   21.50
   1  -3 -11  121.59   13.00
  -1   3  11  131.79   27.80
  -1   3  11   80.09   20.30
  -1   3  11  112.39   19.60
   0  -3  11  186.08   21.70
   0  -3 -11  168.88   16.30
   0  -3  11  179.78   15.60
   0  -3  11  181.98   16.20
   0  -3  11  215.48   26.40
   0  -3 -11  173.98   16.00
   0  -3 -11  164.38   22.40
   0  -3  11  173.98   20.90
   0   3  11  149.79   21.30
   0   3  11  146.49   23.80
   0   3  11  120.99   27.70
   1  -3  11  489.95   37.30
  -1  -3 -11  457.55   33.60
   1  -3  11  504.65   39.90
   1  -3  11  470.35   34.10
  -1  -3 -11  469.15   34.00
   1  -3  11  459.45   36.30
   1  -3  11  479.35   33.90
  -1  -3 -11  471.65   37.60
   1   3  11  406.76   41.00
   1   3  11  413.76   37.10
   1   3  11  394.36   37.70
  -2  -3 -11   89.69   11.90
   2  -3  11  124.29   17.00
   2  -3  11   75.89   14.80
   2  -3  11   93.69   12.60
  -2  -3 -11   66.89   12.10
   2  -3  11   81.39   16.90
   2  -3  11  114.69   19.30
   2   3  11  101.89   17.40
   2   3  11   86.59   17.40
   3  -3  11  109.39   14.60
  -3  -3 -11   97.69   12.00
   3  -3  11  125.59   21.30
  -3  -3 -11  110.69   17.90
   3  -3  11   89.69   17.80
  -3  -3 -11   94.19   13.10
   3   3  11  106.09   24.50
   3   3  11  103.39   18.10
   3   3  11  114.89   19.30
   4  -3  11   90.69   13.00
   4  -3  11   74.29   13.30
  -4  -3 -11   89.29   15.30
   4  -3  11   97.69   11.30
  -4  -3 -11   80.39   10.70
  -4  -3 -11   89.49   12.60
   4   3  11   76.79   14.80
   4   3  11  111.69   19.40
   4   3  11   89.49   13.40
   7  -4 -11  127.99   14.30
  -7   4  11  170.08   15.40
  -6  -4  11  105.79   10.70
  -6  -4  11  135.29   10.80
   6  -4 -11  114.39   15.20
   6  -4 -11  136.39   17.50
  -6   4  11  116.09   16.10
  -5  -4  11  190.28   15.20
   5  -4 -11  170.48   17.30
   5  -4 -11  163.78   19.70
  -5  -4  11  183.88   14.70
   5  -4 -11  176.68   20.50
  -5   4  11  196.38   20.00
   4  -4 -11   47.10    8.40
  -4  -4  11   48.10    8.30
   4  -4 -11   57.69    9.30
   4  -4 -11   28.80   11.20
  -4  -4  11   44.20   11.80
  -4  -4  11   40.40    8.10
  -4   4  11   57.69   13.40
  -4   4  11   52.99   11.30
   3  -4 -11   54.29   11.60
   3  -4 -11   49.70    8.60
  -3  -4  11   53.49    8.80
  -3  -4  11   50.79    8.70
  -3  -4  11   53.89   12.60
  -3   4  11   50.39   11.80
  -3   4  11   21.80   15.50
  -3   4  11   51.69   14.30
  -2  -4  11  146.39   12.90
   2  -4 -11  111.79   13.40
  -2  -4  11  129.19   12.20
   2  -4 -11  113.59   13.70
   2  -4 -11  120.09   19.70
  -2  -4  11  113.89   19.70
  -2   4  11  100.49   19.70
  -2   4  11  110.69   20.10
  -2   4  11  154.28   23.70
   1  -4 -11  126.29   21.00
   1  -4 -11  130.49   14.50
  -1  -4  11  136.39   13.90
  -1  -4  11  138.19   19.50
   1  -4 -11  140.59   13.70
  -1  -4  11  153.58   13.90
  -1   4  11  145.69   24.40
  -1   4  11  159.08   19.00
  -1   4  11  127.69   21.00
  -1   4  11  146.29   21.60
   0  -4 -11  -16.90   11.70
   0  -4 -11    7.10    5.50
   0  -4  11    3.90    5.60
   0  -4  11   -1.40    6.60
   0  -4  11   -1.30   14.40
   0  -4 -11    4.70    5.10
   0  -4  11    8.80   10.40
   0   4  11    2.90   11.50
   0   4  11  -10.50   15.70
   0   4  11    8.10   11.20
   0   4  11    3.00    9.30
   1  -4  11  205.38   16.20
  -1  -4 -11  179.88   26.00
   1  -4  11  182.18   21.70
   1  -4  11  191.88   20.30
   1  -4  11  184.88   17.40
  -1  -4 -11  171.48   16.20
  -1  -4 -11  188.28   16.70
   1   4  11  133.59   26.20
   1   4  11  208.98   23.60
   2  -4  11  131.39   15.50
   2  -4  11  128.19   16.80
  -2  -4 -11  115.69   12.60
  -2  -4 -11  134.79   12.60
   2  -4  11  122.19   14.50
   2  -4  11  137.59   12.50
   2   4  11  106.59   21.80
   2   4  11   96.89   16.20
   2   4  11  106.79   18.70
  -3  -4 -11  149.49   14.20
  -3  -4 -11  126.49   13.70
   3  -4  11  172.18   15.00
   3  -4  11  137.99   13.90
   3   4  11  158.28   16.30
   5  -5 -11  106.19   14.20
  -5  -5  11  145.59   11.20
   5  -5 -11  133.39   14.60
   4  -5 -11   49.90   10.10
  -4  -5  11   74.69    9.40
   4  -5 -11   56.99    8.10
  -4  -5  11   73.79    8.20
   4  -5 -11   62.79   10.60
   3  -5 -11    7.40    5.80
  -3  -5  11   14.20    6.00
  -3  -5  11    2.70    4.70
   3  -5 -11   10.70    6.20
   3  -5 -11   18.50    9.20
  -3   5  11    2.40    9.70
  -3   5  11    0.90    8.30
   2  -5 -11   67.79   10.00
  -2  -5  11   70.09   10.20
  -2  -5  11   38.90   12.80
  -2  -5  11   76.69    8.90
   2  -5 -11   35.30   13.00
   2  -5 -11   61.09    9.40
  -2   5  11   56.19   13.80
  -2   5  11   57.19   11.80
  -1  -5  11  183.78   14.60
  -1  -5  11  165.78   13.20
   1  -5 -11  149.69   13.80
   1  -5 -11  155.68   13.80
  -1  -5  11  126.69   18.90
  -1   5  11  129.19   16.90
  -1   5  11  143.09   21.30
  -1   5  11  152.78   19.50
   0  -5 -11  191.18   16.30
   0  -5  11  223.68   18.60
   0  -5  11  195.78   16.60
   0  -5  11  185.48   15.60
   0  -5 -11  163.08   15.60
   0   5  11  180.48   18.80
   0   5  11  211.98   22.00
  -1  -5 -11    4.60    5.30
   1  -5  11    0.00   16.70
   1  -5  11    3.50    8.90
  -1  -5 -11    0.90    5.50
   1  -5  11    5.60    5.60
   1  -5  11    0.00    7.60
   1   5  11   22.70    9.80
   1   5  11    9.90    6.90
   2  -5  11   29.60    6.70
  -2  -5 -11   27.60    6.00
   2  -5  11   32.20    6.20
   2  -5  11   16.80    6.80
   2   5  11   25.00    6.70
   2   5  11   21.70    8.10
  -8   0  12   39.60    8.80
  -8   0  12   30.20    6.50
  -7   0  12  129.49   16.80
  -7   0  12  100.69   17.50
  -6   0  12   91.79   16.80
  -6   0  12   72.99   14.40
  -6   0  12   68.29   14.00
  -6   0  12   75.39   11.30
  -6   0  12  100.19   13.60
   6   0 -12   97.59   17.90
   6   0 -12   52.29   13.40
  -5   0  12  121.79   17.00
   5   0 -12   59.39   16.40
  -5   0  12  100.79   16.20
  -5   0  12   85.29   17.40
   5   0 -12   87.59   17.20
  -5   0  12   88.59   20.50
  -5   0  12  108.29   18.40
   4   0 -12   -7.50   12.70
   4   0 -12   21.60   10.20
  -4   0  12   17.40    9.40
  -4   0  12   14.40    9.20
  -4   0  12   14.70    9.30
  -4   0  12   17.40   11.10
  -4   0  12   19.80    7.50
  -3   0  12   28.60   10.20
  -3   0  12   39.30   10.40
  -3   0  12   44.70    7.90
   3   0 -12   40.00   13.10
  -3   0  12   36.50    9.10
   3   0 -12   34.90   10.40
  -2   0  12   44.70   15.50
   2   0 -12   75.49   15.50
  -2   0  12   60.09   12.50
  -2   0  12   61.89   10.10
  -2   0  12   41.60   12.80
  -2   0  12   64.89   12.90
  -1   0  12  446.06   36.50
   1   0 -12  506.85   38.10
  -1   0  12  422.06   36.90
   1   0 -12  442.66   34.70
  -1   0  12  455.35   35.30
  -1   0  12  395.36   33.70
   1   0 -12  386.26   35.40
   0   0  12   88.09   17.60
   0   0  12   82.19   13.90
   0   0 -12   88.69   13.50
   0   0 -12   82.89   11.30
   0   0  12   79.69   18.10
   0   0 -12   65.29   11.90
   0   0 -12  106.69   20.10
   0   0  12  119.99   20.50
   1   0  12  418.76   35.20
   1   0  12  459.25   37.40
  -1   0 -12  463.45   35.90
  -1   0 -12  362.46   35.70
  -1   0 -12  408.76   37.40
   1   0  12  438.06   32.90
  -1   0 -12  435.16   33.20
   1   0  12  470.65   36.10
   2   0  12  424.36   33.80
  -2   0 -12  394.66   34.30
  -2   0 -12  453.95   38.40
   2   0  12  484.65   37.10
   2   0  12  436.66   35.70
   2   0  12  379.46   31.30
  -2   0 -12  382.56   33.40
  -2   0 -12  366.46   32.90
  -3   0 -12   15.70    8.00
  -3   0 -12   32.70   16.10
  -3   0 -12    7.40    9.00
   4   0  12   88.99   15.40
  -4   0 -12  141.99   25.70
  -4   0 -12  100.59   14.50
  -5   0 -12   31.30    6.60
   5   0  12   32.40    7.90
  -8  -1  12  381.46   28.80
  -8  -1  12  385.16   26.90
  -8  -1  12  372.76   27.60
  -8   1  12  362.46   28.10
  -8   1  12  353.46   28.20
  -7  -1  12   76.69   16.20
  -7  -1  12   80.59   14.30
   7  -1 -12  101.99   16.00
  -7  -1  12   58.19   22.50
  -7  -1  12   90.29   16.50
   7  -1 -12  124.79   21.70
  -7  -1  12  110.09   11.10
  -7   1  12  105.09   16.60
  -7   1  12   85.39   16.20
   6  -1 -12   75.89   15.40
  -6  -1  12   95.59   18.20
  -6  -1  12  141.99   17.50
  -6  -1  12  124.59   13.80
  -6  -1  12  122.39   15.30
  -6   1  12  119.79   19.70
  -6   1  12  106.79   16.90
  -6   1  12   96.19   18.90
  -6   1  12  103.09   16.40
  -5  -1  12   49.60    9.60
  -5  -1  12   49.30   13.70
  -5  -1  12   54.59   12.30
   5  -1 -12   63.89   13.30
  -5  -1  12   79.09   15.30
  -5   1  12   60.19   13.30
  -5   1  12   33.90   10.90
  -5   1  12   54.99   11.30
  -5   1  12   43.00   12.60
  -4  -1  12  125.49   18.80
   4  -1 -12  115.69   17.00
  -4  -1  12   92.89   11.00
  -4  -1  12  100.29   17.70
  -4  -1  12   81.19   14.20
   4  -1 -12   82.19   18.40
  -4   1  12  141.79   20.30
  -4   1  12  142.79   21.60
  -4   1  12  124.39   19.80
  -4   1  12  120.59   16.60
   4   1 -12  129.29   15.20
  -3  -1  12   40.70   11.20
   3  -1 -12   50.99    9.90
  -3  -1  12   29.20   10.40
  -3  -1  12   23.80   10.30
   3  -1 -12   24.80   13.30
  -3  -1  12   34.70    6.00
   3  -1 -12   28.60   11.80
   3  -1 -12   28.50   11.50
  -3  -1  12   34.20    8.40
  -3   1  12   25.90   11.20
  -3   1  12   36.60   11.40
  -3   1  12   26.60   13.60
  -3   1  12   40.60    9.50
   3   1 -12   17.20    8.10
   3   1 -12   21.90   15.50
  -3   1  12   44.10   16.00
   2  -1 -12   98.79   16.90
  -2  -1  12  102.79   14.10
  -2  -1  12  106.79   11.50
  -2  -1  12   91.59   18.30
  -2  -1  12   91.49   18.80
   2  -1 -12  101.59   14.60
   2  -1 -12  100.59   16.10
   2  -1 -12  103.49   20.20
  -2  -1  12   80.09   16.50
  -2  -1  12   95.29   18.20
  -2   1  12  121.29   17.00
  -2   1  12   94.79   14.60
  -2   1  12   98.09   18.30
   2   1 -12  102.19   15.40
   2   1 -12  121.79   26.30
  -2   1  12   78.59   14.70
  -2   1  12  121.39   23.60
  -2   1  12  108.19   19.20
   1  -1 -12  125.09   21.70
  -1  -1  12  137.89   20.40
   1  -1 -12  118.39   15.00
  -1  -1  12  145.39   21.00
   1  -1 -12  153.58   21.60
  -1  -1  12  139.19   16.30
  -1  -1  12  119.69   13.50
  -1  -1  12  152.18   20.60
  -1  -1  12  126.09   17.90
  -1   1  12  170.78   36.50
   1   1 -12  110.09   23.80
  -1   1  12  117.29   25.40
   1   1 -12  125.29   17.40
  -1   1  12  118.89   20.40
  -1   1  12  120.09   14.60
  -1   1  12  143.19   19.40
   0  -1 -12  136.39   23.50
   0  -1 -12  140.89   18.00
   0  -1 -12  142.69   16.10
   0  -1  12  131.99   16.30
   0  -1  12  133.99   20.40
   0  -1  12  180.28   22.00
   0  -1  12  115.99   21.10
   0  -1  12  139.39   18.10
   0  -1 -12  140.29   21.10
   0   1  12  186.98   15.60
   0   1  12  166.68   27.60
   0   1  12  193.38   32.50
   0   1 -12  163.08   23.60
   0   1  12  217.88   39.30
   0   1  12  188.98   21.50
   0   1 -12  152.98   19.30
   0   1  12  194.08   21.50
   1  -1  12 1828.42  120.59
  -1  -1 -12 1682.33  122.49
  -1  -1 -12 1752.22  118.59
   1  -1  12 1559.94  119.39
  -1  -1 -12 1880.91  120.49
  -1  -1 -12 1875.91  118.89
   1  -1  12 1812.52  120.29
  -1   1 -12 1535.05  120.09
   1   1  12 1810.72  120.69
   1   1  12 1668.33  120.09
  -1   1 -12 1728.83  120.49
   2  -1  12  249.97   24.10
   2  -1  12  222.18   21.60
  -2  -1 -12  281.57   34.20
   2  -1  12  227.38   24.60
  -2  -1 -12  218.78   20.20
   2  -1  12  196.68   21.10
  -2  -1 -12  209.68   21.90
  -2  -1 -12  216.68   20.00
  -2   1 -12  184.38   23.80
  -2   1 -12  238.08   23.20
   2   1  12  225.88   22.80
  -3  -1 -12    7.70    6.90
  -3  -1 -12   -2.60   21.50
   3  -1  12   -1.10    6.90
  -3  -1 -12   20.00    8.10
  -3  -1 -12    5.40    8.20
   3  -1  12    1.00   10.00
   3  -1  12    9.10   15.10
   3  -1  12   17.30   10.20
   3   1  12    3.70    8.20
  -3   1 -12    1.80    7.30
  -3   1 -12    3.60   11.50
   4  -1  12   12.30    7.00
   4  -1  12  -12.00   15.00
  -4  -1 -12   20.70    6.70
  -4  -1 -12   36.10   11.20
  -4  -1 -12   25.40    6.60
  -4   1 -12   16.60    7.30
   4   1  12   12.60    9.10
  -4   1 -12    3.00   27.50
  -5  -1 -12   35.90    6.20
  -5  -1 -12   32.50   10.90
  -5   1 -12   51.19    9.60
   5   1  12   45.80   10.20
   5   1  12   40.00    8.40
  -8  -2  12  123.19   11.80
  -8  -2  12  128.59   10.70
   8  -2 -12  154.48   19.00
  -8  -2  12   90.99   14.20
  -8   2  12  109.79   13.40
   8   2 -12  105.99   22.90
   7  -2 -12  163.98   21.60
  -7  -2  12  149.99   17.80
  -7  -2  12  150.88   17.60
  -7  -2  12  176.38   15.90
  -7   2  12  207.78   18.80
  -7   2  12  159.78   19.80
  -7   2  12  186.48   18.10
  -6  -2  12  556.74   36.40
  -6  -2  12  486.95   35.90
  -6  -2  12  545.45   38.50
   6  -2 -12  448.86   39.90
  -6   2  12  532.45   40.60
  -6   2  12  491.85   39.10
  -6   2  12  489.05   39.60
  -5  -2  12   46.90   10.90
   5  -2 -12   15.80   13.50
  -5  -2  12   30.50    8.60
  -5  -2  12   24.00    5.40
   5  -2 -12   45.10   12.40
   5  -2 -12   32.90   11.20
  -5   2  12    4.30    9.70
  -5   2  12    8.90    9.90
  -5   2  12   15.80    9.70
  -4  -2  12   37.50   16.00
  -4  -2  12   16.50    4.80
   4  -2 -12   16.60   10.10
  -4  -2  12   22.70   10.60
  -4  -2  12   20.80    8.70
   4  -2 -12   14.80    8.40
   4  -2 -12   18.40   11.90
  -4  -2  12   26.70    6.40
  -4   2  12   45.90   13.20
  -4   2  12    5.50   10.30
  -4   2  12   25.80    9.40
  -4   2  12   27.70   14.80
   3  -2 -12    5.90    7.10
   3  -2 -12   21.10   11.80
  -3  -2  12   20.90   10.30
  -3  -2  12    8.30    5.20
  -3  -2  12   10.80    5.80
  -3  -2  12   19.90   10.50
   3  -2 -12   11.70    8.40
   3  -2 -12   13.00   15.40
  -3  -2  12    9.70   10.90
  -3   2  12   16.20    7.60
  -3   2  12    0.10   12.30
  -3   2  12   22.90   13.00
  -2  -2  12 1130.49   73.19
  -2  -2  12 1055.09   75.89
   2  -2 -12 1021.20   73.69
  -2  -2  12 1135.09   75.99
  -2  -2  12 1042.20   76.79
  -2  -2  12 1155.58   73.39
   2  -2 -12 1114.29   77.19
   2  -2 -12  967.20   78.29
   2  -2 -12 1032.30   73.89
  -2   2  12 1068.49   80.19
  -2   2  12 1007.50   76.19
  -2   2  12 1045.60   76.79
  -1  -2  12  295.87   28.80
   1  -2 -12  268.37   23.30
   1  -2 -12  292.97   23.50
   1  -2 -12  332.07   33.50
  -1  -2  12  321.77   23.40
   1  -2 -12  252.87   28.00
  -1  -2  12  325.87   27.80
  -1  -2  12  283.97   27.30
   1   2 -12  306.17   27.30
  -1   2  12  263.27   28.00
  -1   2  12  272.67   33.00
  -1   2  12  301.67   28.40
  -1   2  12  249.97   34.10
   0  -2  12  129.69   12.60
   0  -2  12  134.89   18.20
   0  -2 -12  101.99   13.70
   0  -2 -12   83.39   13.20
   0  -2  12  146.29   19.50
   0  -2  12  111.89   18.40
   0  -2 -12   85.29   19.00
   0  -2  12  104.99   15.40
   0   2 -12  113.39   19.30
   0   2  12   90.99   20.50
   0   2  12   95.09   20.20
   0   2  12   98.59   16.00
   0   2  12   98.39   21.50
   1  -2  12  270.17   24.40
  -1  -2 -12  227.98   19.90
   1  -2  12  227.38   21.40
   1  -2  12  244.28   22.30
  -1  -2 -12  228.78   19.60
  -1  -2 -12  242.68   23.10
  -1   2 -12  193.28   23.30
  -1   2 -12  179.98   27.40
   1   2  12  239.28   33.90
   1   2  12  177.48   22.70
   1   2  12  170.38   27.50
  -2  -2 -12  580.04   40.10
  -2  -2 -12  519.65   41.70
  -2  -2 -12  565.64   39.90
   2  -2  12  578.44   42.50
   2  -2  12  541.95   41.90
   2  -2  12  565.04   41.20
  -2   2 -12  585.24   43.80
   2   2  12  494.65   42.90
   2   2  12  523.35   47.60
   2   2  12  582.14   42.40
  -2   2 -12  545.55   42.70
   3  -2  12  203.48   22.10
   3  -2  12  207.98   23.70
  -3  -2 -12  209.18   20.30
   3  -2  12  246.48   21.20
  -3  -2 -12  234.58   22.10
  -3  -2 -12  258.27   19.30
   3   2  12  219.88   23.80
   3   2  12  266.67   37.90
   3   2  12  210.18   23.60
  -3   2 -12  242.68   27.30
  -3   2 -12  240.78   24.90
   4  -2  12   79.59   11.20
  -4  -2 -12   75.19   12.30
  -4  -2 -12   88.59   10.70
   4   2  12   78.89   13.50
  -4   2 -12   69.39   11.50
   4   2  12   60.59   11.50
  -7  -3  12   10.90    6.50
  -7  -3  12    5.80    6.50
   7  -3 -12   14.60    7.80
  -7   3  12    4.80    8.20
  -7   3  12    9.80    8.30
  -6  -3  12   32.30    8.30
  -6  -3  12   57.09    9.10
   6  -3 -12   63.79   11.00
  -6  -3  12   51.19    7.50
  -6   3  12   52.49   10.00
  -6   3  12   43.20   10.40
   5  -3 -12   12.60    8.60
  -5  -3  12   20.00    6.00
   5  -3 -12    6.50    8.60
  -5  -3  12   10.10    4.50
  -5  -3  12   10.30    9.40
   5  -3 -12   27.70   15.00
   5  -3 -12   11.80   19.90
  -5   3  12   -8.40   11.00
  -5   3  12    3.50    9.20
  -4  -3  12   40.90    8.50
   4  -3 -12   50.59    9.00
   4  -3 -12   47.60   11.00
   4  -3 -12   32.10   21.00
  -4  -3  12   53.19   10.60
  -4  -3  12   58.89    9.30
  -4  -3  12   39.40   10.10
  -4   3  12   46.40   12.40
   3  -3 -12   34.80   10.30
  -3  -3  12   31.50    6.40
   3  -3 -12   21.40    7.90
   3  -3 -12   20.50    7.70
  -3  -3  12   35.20   10.40
  -3  -3  12   33.50   10.20
   3  -3 -12   53.39   24.90
  -3  -3  12   38.50    7.20
  -3   3  12   60.49   13.50
  -3   3  12   41.30   15.00
  -3   3  12   19.50    9.30
  -2  -3  12  330.27   27.70
  -2  -3  12  304.07   23.10
   2  -3 -12  313.17   23.90
   2  -3 -12  287.47   28.30
  -2  -3  12  312.87   22.90
  -2   3  12  242.18   26.40
  -2   3  12  241.98   30.80
  -2   3  12  321.87   33.30
   1  -3 -12  393.96   32.30
   1  -3 -12  410.16   31.50
  -1  -3  12  447.06   31.00
  -1  -3  12  449.56   31.30
   1  -3 -12  414.86   35.30
  -1  -3  12  422.96   34.20
  -1  -3  12  395.46   39.50
  -1   3  12  414.76   38.40
  -1   3  12  399.76   36.50
  -1   3  12  458.65   35.10
  -1   3  12  413.36   35.30
   0  -3 -12  215.68   20.10
   0  -3 -12  237.38   21.00
   0  -3  12  262.17   19.80
   0  -3  12  239.28   24.20
   0  -3  12  206.88   22.80
   0  -3 -12  200.38   24.20
   0  -3  12  263.67   21.10
   0  -3  12  243.28   29.70
   0   3  12  247.88   26.50
   0   3  12  254.07   25.10
   0   3  12  270.27   24.40
   0   3  12  303.87   30.40
   1  -3  12  850.91   60.49
  -1  -3 -12  826.82   55.59
  -1  -3 -12  786.32   55.49
   1  -3  12  788.72   56.79
   1  -3  12  774.62   57.29
   1  -3  12  782.92   56.19
  -1  -3 -12  787.72   57.69
   1  -3  12  859.21   55.19
   1   3  12  724.83   57.59
   1   3  12  849.52   60.69
   1   3  12  694.83   58.39
   2  -3  12   64.69   14.10
   2  -3  12   93.79   13.90
   2  -3  12   84.09   18.10
  -2  -3 -12   76.49   12.50
   2  -3  12  104.99   14.10
  -2  -3 -12   89.19   12.00
  -2  -3 -12  101.19   11.90
   2   3  12  108.39   22.80
   2   3  12  107.09   18.00
   2   3  12   77.19   17.80
   3  -3  12    6.80    7.70
  -3  -3 -12   20.10    5.90
   3  -3  12   18.60    6.90
  -3  -3 -12    7.90    6.80
  -3  -3 -12   19.80    9.40
   3   3  12    8.20    9.40
   3   3  12   16.30   12.00
   3   3  12   13.10    8.00
  -4  -3 -12   43.40    8.60
  -4  -3 -12   40.00    8.20
   4  -3  12   35.60    7.00
  -6  -4  12  123.69    9.90
  -6  -4  12  117.69   13.90
   6  -4 -12   87.69   12.90
  -6   4  12  110.19   13.20
  -6   4  12   96.09   12.80
   5  -4 -12   25.30    8.00
   5  -4 -12   41.30    8.30
  -5  -4  12   18.10    9.50
   5  -4 -12   -6.20   15.50
  -5   4  12   25.10    7.50
  -5   4  12    8.20    9.40
   4  -4 -12  106.29   16.20
   4  -4 -12  108.29   12.50
   4  -4 -12   92.29   15.80
  -4  -4  12  114.89   11.30
  -4  -4  12  101.59   10.30
  -4   4  12   90.99   15.60
  -4   4  12  115.79   19.10
  -3  -4  12   31.70    9.90
   3  -4 -12   34.20    7.10
  -3  -4  12   29.60    9.70
  -3  -4  12   44.70    7.20
   3  -4 -12   22.60    7.30
  -3  -4  12   41.70    7.60
  -3   4  12   15.50    9.90
   2  -4 -12  134.79   21.20
  -2  -4  12  139.29   20.40
   2  -4 -12  113.49   13.70
  -2  -4  12  157.78   13.40
  -2  -4  12  146.39   12.70
   2  -4 -12  141.29   13.60
  -2   4  12   99.79   20.90
  -2   4  12  134.49   21.70
  -1  -4  12   76.29    9.00
   1  -4 -12   32.80   10.10
   1  -4 -12   57.29   10.90
  -1  -4  12   68.89   10.60
   1  -4 -12   58.29   10.20
  -1  -4  12   43.40   10.50
  -1   4  12   53.89   13.30
  -1   4  12   37.80   14.40
  -1   4  12   56.39   12.90
   0  -4  12   47.90    8.00
   0  -4 -12   21.90   10.50
   0  -4  12   38.50    8.30
   0  -4  12    6.90   13.70
   0  -4 -12   37.30    7.10
   0  -4 -12   19.50    6.60
   0  -4  12   36.70   10.20
   0   4  12   22.50    9.90
   0   4  12   32.40   10.30
   0   4  12   35.80   12.90
   0   4  12   29.70   13.40
  -1  -4 -12   48.10   10.80
   1  -4  12   54.89   10.30
  -1  -4 -12   52.99    9.20
  -1  -4 -12   49.20    9.20
   1   4  12   63.89   11.20
   1   4  12   50.39   11.70
   1   4  12   33.40   12.30
   2  -4  12  328.97   25.20
   2  -4  12  326.27   24.30
   2  -4  12  315.57   23.90
  -2  -4 -12  327.87   23.40
   2   4  12  285.07   25.90
   2   4  12  293.57   27.90
   3  -4  12   25.60    6.20
   3  -4  12   34.30    6.20
   3   4  12   31.70    9.10
   3   4  12   49.00   10.20
   4  -5 -12   38.10    8.90
   4  -5 -12   30.30    6.70
  -4   5  12   26.60    6.40
   3  -5 -12   25.30   11.30
  -3  -5  12   64.69    7.50
   3  -5 -12   46.70   10.30
  -3  -5  12   65.99   10.60
   3  -5 -12   51.99    8.60
  -3   5  12   47.60   11.40
   2  -5 -12   33.70   11.30
  -2  -5  12   37.50    7.00
   2  -5 -12   12.50    5.50
  -2  -5  12   28.00    8.30
  -2  -5  12   28.50    6.40
   2  -5 -12   20.60    7.50
  -2  -5  12   22.70   10.50
  -2   5  12   19.80    8.60
  -2   5  12   12.70    8.50
  -1  -5  12  153.08   14.10
   1  -5 -12  135.99   13.70
   1  -5 -12  150.98   14.90
  -1  -5  12  175.88   13.10
  -1  -5  12  168.88   17.20
  -1   5  12  140.19   19.70
  -1   5  12  150.58   15.30
   0  -5  12   98.89   14.40
   0  -5 -12   96.19   10.60
   0  -5  12  110.79   10.50
   0   5  12  125.69   16.10
   0   5  12  101.79   13.00
   1  -5  12  155.88   14.20
   1  -5  12  177.08   15.50
   1   5  12  182.58   15.20
  -8   0  13    2.10    5.20
  -8   0  13   -1.00    6.60
   6   0 -13   59.39   28.20
  -6   0  13   29.40   14.80
  -6   0  13   39.40    9.40
  -6   0  13   51.19   12.60
   5   0 -13   30.80   12.20
   5   0 -13   35.50   14.20
  -5   0  13   36.90   11.00
  -5   0  13   30.40   10.30
   4   0 -13   22.60   10.50
  -4   0  13    8.40    9.30
  -4   0  13   13.40   10.40
  -4   0  13   21.90   10.40
   4   0 -13  -15.20   11.40
  -4   0  13   33.10   13.40
   3   0 -13  135.79   20.40
  -3   0  13  163.28   20.30
   3   0 -13  162.08   24.20
  -3   0  13  163.48   20.10
  -3   0  13  142.79   31.20
  -3   0  13  166.18   20.40
   2   0 -13  471.65   39.50
   2   0 -13  523.75   41.90
  -2   0  13  546.45   39.20
  -2   0  13  471.75   39.20
  -2   0  13  487.65   41.00
  -2   0  13  480.65   38.40
   1   0 -13 1994.20  137.09
   1   0 -13 1896.41  136.99
  -1   0  13 1941.01  136.69
  -1   0  13 2046.40  136.49
  -1   0  13 2076.19  136.59
  -1   0  13 1943.31  135.69
   0   0  13    6.30   10.10
   0   0 -13    4.00   11.40
   0   0  13    0.20   10.90
   0   0 -13   -8.00    8.30
   0   0 -13   18.30   10.50
   0   0  13    9.60   10.10
   0   0  13   11.00    8.30
  -1   0 -13   85.29   17.00
   1   0  13   67.09   13.20
  -1   0 -13  110.09   19.70
  -1   0 -13   68.89   15.00
   1   0  13   80.89   17.80
   1   0  13   72.39   14.30
   1   0  13   83.29   15.80
   2   0  13  162.48   35.20
  -2   0 -13  257.27   23.40
   2   0  13  274.97   30.80
   2   0  13  246.28   26.40
  -2   0 -13  203.08   29.10
   2   0  13  225.38   21.50
  -2   0 -13  189.88   21.00
  -3   0 -13   16.10   17.70
  -3   0 -13   11.40    7.00
   3   0  13   24.00   10.10
   4   0  13   -4.40    6.50
  -4   0 -13   10.00    5.70
  -8  -1  13   79.39   10.50
  -8   1  13  111.49   10.90
  -8   1  13   98.99   11.50
  -7  -1  13   97.19   13.20
   7  -1 -13   89.99   15.70
  -7  -1  13  102.69   11.60
  -7  -1  13   86.89   13.70
  -7   1  13   83.29   14.60
  -7   1  13   72.09   13.50
  -6  -1  13   19.30    7.70
  -6  -1  13  -11.70    9.60
  -6  -1  13   -4.30   15.40
   6  -1 -13    3.90   12.80
   6  -1 -13   34.40   14.10
  -6   1  13    4.40    8.00
  -6   1  13   10.50   12.40
  -6   1  13   -1.20   11.90
  -5  -1  13    4.10   11.70
  -5  -1  13    4.00    7.90
  -5  -1  13    6.80    6.40
  -5  -1  13   -0.20    8.70
   5  -1 -13   29.60   13.20
   5  -1 -13   14.10   10.00
  -5   1  13   -0.10    9.00
  -5   1  13    1.60   10.80
  -5   1  13   20.70   11.30
  -4  -1  13  117.69   18.50
  -4  -1  13  157.58   22.70
  -4  -1  13  130.49   14.30
   4  -1 -13   92.49   21.10
  -4  -1  13  105.59   17.60
   4  -1 -13  131.19   22.60
  -4   1  13  168.48   21.30
  -4   1  13  146.49   19.70
  -4   1  13  141.39   18.70
  -4   1  13  169.78   19.70
   4   1 -13  140.09   18.80
   3  -1 -13  288.57   28.70
  -3  -1  13  282.27   25.60
  -3  -1  13  261.17   25.40
  -3  -1  13  271.97   21.00
  -3  -1  13  218.78   26.20
   3  -1 -13  259.37   28.10
   3  -1 -13  236.08   25.50
  -3  -1  13  308.87   22.90
  -3   1  13  263.87   28.00
  -3   1  13  277.27   26.10
  -3   1  13  320.27   24.90
  -3   1  13  272.17   28.40
   3   1 -13  258.97   24.10
  -3   1  13  252.97   25.70
   3   1 -13  261.67   33.10
  -2  -1  13  252.17   29.60
   2  -1 -13  259.47   24.20
  -2  -1  13  306.27   25.90
   2  -1 -13  239.88   26.30
  -2  -1  13  294.37   21.50
  -2  -1  13  272.67   26.70
  -2  -1  13  305.37   24.20
  -2  -1  13  259.47   26.30
   2  -1 -13  220.58   28.90
   2  -1 -13  264.57   28.20
  -2   1  13  290.17   23.90
  -2   1  13  254.57   25.90
  -2   1  13  262.27   32.90
  -2   1  13  268.57   27.40
   2   1 -13  263.37   24.70
   2   1 -13  312.67   30.50
  -2   1  13  270.27   28.00
  -1  -1  13   83.79   17.10
  -1  -1  13   98.59   17.90
   1  -1 -13   66.89   14.90
  -1  -1  13  105.79   13.20
   1  -1 -13  107.59   15.90
   1  -1 -13   64.89   12.50
   1  -1 -13   83.69   14.30
  -1  -1  13  100.19   19.00
  -1  -1  13   95.19   18.60
  -1   1  13   85.39   14.70
  -1   1  13   71.89   13.70
   1   1 -13   89.79   12.80
  -1   1  13   87.09   17.20
   1   1 -13   98.29   15.70
  -1   1  13   91.59   24.20
   0  -1 -13  122.49   25.40
   0  -1  13  117.59   19.50
   0  -1 -13   77.19   16.90
   0  -1  13   86.69   16.70
   0  -1  13   65.39   14.40
   0  -1  13  107.69   17.80
   0  -1 -13   73.49   10.70
   0   1  13   98.49   23.30
   0   1  13   98.69   23.10
   1  -1  13   55.59   11.30
  -1  -1 -13   77.79   18.00
   1  -1  13   84.19   15.60
   1  -1  13   67.49   11.20
  -1  -1 -13   55.19   10.70
  -1  -1 -13   55.59   10.20
   1  -1  13   55.69   12.20
  -1  -1 -13   88.19   16.20
  -1   1 -13   51.39   12.00
   1   1  13   61.49   12.10
  -1   1 -13   48.30   11.60
   1   1  13   40.40   13.10
   1   1  13   69.29   12.50
  -2  -1 -13   10.30    7.80
  -2  -1 -13   41.10   20.50
   2  -1  13    5.20    9.00
   2  -1  13    0.80    8.10
   2  -1  13   -3.50   10.00
  -2  -1 -13    4.40    7.10
   2  -1  13    4.90   12.10
  -2  -1 -13   16.80    9.30
  -2   1 -13    3.60    8.40
   2   1  13    0.70    8.50
  -2   1 -13   -2.20   10.20
   2   1  13   -0.20   10.40
  -3  -1 -13   45.00    8.00
  -3  -1 -13   18.70   12.30
   3  -1  13   29.40    8.20
  -3  -1 -13   34.70    7.90
   3  -1  13   25.40   10.90
   3   1  13   26.10    8.90
   4  -1  13   17.00    6.80
  -4  -1 -13   18.80    6.20
  -4  -1 -13    4.80    9.10
   4   1  13    1.30    6.60
  -4   1 -13    6.20    7.30
   4   1  13   10.40    7.20
  -7  -2  13  219.18   15.80
   7  -2 -13  205.68   20.90
  -7  -2  13  212.98   18.00
  -7  -2  13  176.38   17.50
  -7  -2  13  184.08   18.70
   7   2 -13  196.88   44.70
  -7   2  13  220.78   19.80
  -7   2  13  199.88   18.50
   6  -2 -13  239.08   23.20
  -6  -2  13  184.38   16.20
  -6  -2  13  217.68   18.40
  -6  -2  13  240.48   21.30
   6  -2 -13  179.38   28.10
  -6  -2  13  188.98   19.60
  -6   2  13  214.78   21.80
  -6   2  13  188.28   21.40
  -6   2  13  179.88   20.40
   5  -2 -13    8.80   14.30
  -5  -2  13   34.10    8.30
  -5  -2  13   27.20    5.60
   5  -2 -13   32.60   10.10
  -5  -2  13   14.00   12.70
  -5   2  13   16.10    9.40
  -5   2  13   26.50   11.10
   4  -2 -13  202.28   29.30
  -4  -2  13  261.77   29.60
  -4  -2  13  229.78   22.30
   4  -2 -13  194.98   22.90
  -4  -2  13  237.08   22.20
  -4  -2  13  241.98   18.50
   4  -2 -13  227.18   24.50
  -4  -2  13  252.97   19.20
  -4   2  13  204.28   21.60
  -4   2  13  213.68   23.80
  -4   2  13  270.37   24.20
   3  -2 -13   35.60   11.10
   3  -2 -13   17.80    9.10
   3  -2 -13   25.70   16.10
  -3  -2  13   25.30    9.10
  -3  -2  13   53.99   15.20
  -3  -2  13   23.30    6.70
  -3  -2  13   42.20   10.60
   3  -2 -13   13.60   11.00
  -3  -2  13   35.40    7.70
  -3   2  13   40.50   11.20
  -3   2  13   11.20   12.50
  -3   2  13   41.20   13.00
  -2  -2  13  346.17   24.10
   2  -2 -13  331.47   28.60
  -2  -2  13  294.57   23.20
   2  -2 -13  256.77   25.10
   2  -2 -13  253.37   34.30
  -2  -2  13  310.37   26.70
   2  -2 -13  270.77   25.20
  -2  -2  13  337.37   30.10
  -2   2  13  303.87   35.10
  -2   2  13  245.28   27.30
  -1  -2  13  237.68   24.50
  -1  -2  13  274.97   21.00
   1  -2 -13  188.38   34.90
  -1  -2  13  217.18   24.90
  -1  -2  13  295.17   24.20
   1  -2 -13  270.97   22.70
   1  -2 -13  205.58   21.70
  -1  -2  13  227.78   22.20
  -1  -2  13  203.88   26.10
   1  -2 -13  232.98   26.00
  -1   2  13  262.07   33.00
  -1   2  13  268.87   25.30
  -1   2  13  301.87   25.40
  -1   2  13  246.88   33.70
   0  -2 -13   15.50    7.20
   0  -2  13   31.70   10.10
   0  -2  13   36.00    7.90
   0  -2  13   39.80   10.40
   0  -2  13   31.40   15.80
   0  -2 -13   44.10    8.30
   0  -2  13   24.70   10.50
   0  -2 -13   25.60   21.50
   0  -2 -13   25.70    9.20
   0   2  13   39.00   12.10
   0   2 -13   24.30   19.90
   0   2  13   31.20   15.30
   0   2  13   27.30   13.00
   0   2  13   10.90    9.40
   0   2 -13   23.50   12.40
  -1  -2 -13  208.28   19.50
   1  -2  13  194.98   21.70
  -1  -2 -13  206.38   19.00
   1  -2  13  210.98   20.00
   1  -2  13  232.18   23.60
  -1  -2 -13  193.38   21.00
   1  -2  13  253.17   21.60
  -1   2 -13  237.18   29.30
   1   2  13  202.18   30.20
   1   2  13  176.08   20.40
  -1   2 -13  226.68   25.10
   1   2  13  202.08   22.90
   2  -2  13  135.79   19.80
  -2  -2 -13  124.29   16.90
   2  -2  13  128.79   16.10
  -2  -2 -13  102.59   13.00
   2  -2  13  131.59   16.10
  -2  -2 -13  115.39   15.10
   2   2  13  185.08   30.30
   2   2  13  122.79   17.40
  -2   2 -13  107.69   16.90
   2   2  13  118.29   18.90
  -2   2 -13  140.79   30.40
  -3  -2 -13   17.40    8.50
   3  -2  13   26.10    8.10
  -3  -2 -13   15.40    6.00
   3  -2  13   36.50   10.30
  -3  -2 -13   17.80    6.80
   3  -2  13   22.90    7.50
  -3   2 -13    0.90   11.90
   3   2  13   17.30    8.60
   3   2  13   25.40    9.10
  -4  -2 -13   42.30    7.60
   4  -2  13   72.49   13.60
   4  -2  13   41.00    7.10
   4   2  13   39.90    8.20
   4   2  13   66.89   12.00
  -7  -3  13   55.89    9.00
  -7  -3  13   42.00    6.30
   7  -3 -13   40.10    8.10
  -7   3  13   46.50    9.90
  -6  -3  13   12.50    6.60
  -6  -3  13    5.10    7.60
  -6  -3  13   -1.80    5.80
  -6  -3  13    6.70    4.50
   6  -3 -13    2.80    7.30
  -6   3  13    4.50    7.90
  -6   3  13   11.60    6.70
   5  -3 -13   51.99   11.00
  -5  -3  13   58.79   12.40
   5  -3 -13   57.69   10.90
  -5  -3  13   56.59    8.20
  -5   3  13   57.39   10.30
  -5   3  13   63.19   11.90
  -4  -3  13  178.58   15.30
  -4  -3  13  184.08   14.20
   4  -3 -13  227.28   39.40
   4  -3 -13  169.68   21.70
   4  -3 -13  215.78   20.40
   4  -3 -13  168.18   17.90
  -4  -3  13  147.19   20.80
  -4  -3  13  157.68   19.60
  -4   3  13  133.39   22.40
  -4   3  13  151.88   19.70
   3  -3 -13   61.29   25.90
  -3  -3  13   58.49   13.70
  -3  -3  13   68.79   10.50
  -3  -3  13   37.10    9.20
   3  -3 -13   41.60    8.40
  -3  -3  13   65.19    8.70
  -3   3  13   55.29   10.90
   2  -3 -13  109.99   14.00
  -2  -3  13  100.19   17.10
   2  -3 -13  118.09   14.50
  -2  -3  13  138.49   13.30
   2  -3 -13  118.89   17.80
  -2  -3  13  127.89   12.10
  -2   3  13   95.59   15.80
  -2   3  13  119.59   23.70
  -1  -3  13   43.10   18.40
  -1  -3  13   55.99    9.00
   1  -3 -13   49.50   11.30
   1  -3 -13   32.40    7.40
   1  -3 -13   53.59    8.70
  -1  -3  13   47.60   10.10
  -1  -3  13   73.79   10.80
  -1   3  13   77.09   15.60
  -1   3  13   76.09   15.60
  -1   3  13   28.80   11.00
   0  -3 -13  166.68   16.00
   0  -3  13  182.88   14.80
   0  -3 -13  154.98   15.80
   0  -3  13  174.28   26.50
   0  -3  13  191.68   17.20
   0  -3  13  163.78   20.10
   0  -3  13  142.09   18.60
   0  -3 -13  158.68   21.60
   0   3  13  122.29   22.00
   0   3  13  140.39   25.40
   0   3  13  129.89   23.40
   1  -3  13   13.00    7.90
  -1  -3 -13   16.90    9.00
   1  -3  13    6.30   16.90
  -1  -3 -13    6.60    6.80
  -1  -3 -13   13.30    5.80
   1  -3  13   14.20    7.30
   1  -3  13   28.50    9.90
   1   3  13    5.10    9.40
   1   3  13    4.00   12.80
   1   3  13    1.30    9.50
   2  -3  13   54.89    9.50
  -2  -3 -13   33.80    6.80
  -2  -3 -13   64.59   12.90
  -2  -3 -13   37.40    8.20
   2  -3  13   44.50    8.80
   2  -3  13   52.19   10.00
   2   3  13   39.20    9.80
   2   3  13   28.50   10.00
   2   3  13   40.20   12.20
  -3  -3 -13   26.30    5.90
   3  -3  13   34.00    8.50
   3   3  13   29.50    7.60
   3   3  13    6.20   14.20
   3   3  13   17.00    8.50
  -5  -4  13   86.59   13.80
  -5  -4  13  109.69    9.10
   5  -4 -13   90.59   12.60
   5  -4 -13   83.19   14.90
  -5   4  13   75.29   12.80
   4  -4 -13   26.70    7.70
   4  -4 -13   35.70   11.50
  -4  -4  13   19.10    4.40
   4  -4 -13   14.50    6.80
  -4  -4  13   27.10    8.00
  -4  -4  13   35.80    6.30
  -4   4  13   26.40    8.30
  -3  -4  13  109.89   11.20
   3  -4 -13   88.99   11.30
  -3  -4  13  106.79   15.20
   3  -4 -13   82.09   14.40
  -3  -4  13  105.79    9.70
  -3  -4  13   81.49   14.00
   3  -4 -13   76.89   15.30
  -2  -4  13  337.27   23.10
   2  -4 -13  275.07   26.90
   2  -4 -13  311.57   23.90
  -2  -4  13  319.37   23.80
  -2  -4  13  296.97   26.10
   2  -4 -13  298.17   24.70
  -2  -4  13  349.17   25.70
  -2   4  13  309.77   29.60
  -2   4  13  284.57   27.00
  -2   4  13  330.37   31.40
  -1  -4  13  521.35   33.80
  -1  -4  13  502.15   35.60
   1  -4 -13  457.95   36.40
  -1  -4  13  505.15   34.30
  -1  -4  13  499.35   36.30
   1  -4 -13  483.25   34.40
  -1   4  13  471.05   38.10
  -1   4  13  452.95   37.30
  -1   4  13  404.46   36.90
   0  -4  13  155.18   15.70
   0  -4  13  134.59   15.40
   0  -4  13  144.79   12.30
   0  -4 -13  126.79   13.40
   0  -4 -13  146.29   17.30
   0  -4 -13  144.69   13.40
   0   4  13  113.79   17.20
   0   4  13  138.59   20.40
   1  -4  13   -0.70    8.20
   1  -4  13   11.40    5.90
   1  -4  13   17.60    6.10
  -1  -4 -13   22.00    8.60
   1  -4  13   -2.00    6.60
  -1  -4 -13    7.60    5.30
   1   4  13   16.00    6.90
   1   4  13   25.90    8.60
   2  -4  13   12.30    5.40
   2  -4  13   -1.30    7.50
   2  -4  13    9.30    5.70
  -2  -4 -13    1.80    4.60
   2   4  13   -7.30    8.60
   2  -5 -13   66.69   12.00
   2  -5 -13   45.60    7.40
  -2  -5  13   67.39   14.40
  -2  -5  13   63.69    7.30
  -2  -5  13   49.50    8.70
  -8   0  14   19.00    4.80
  -8   0  14    9.00    6.40
  -7   0  14   95.29   13.10
  -6   0  14   77.59   11.40
  -6   0  14   75.89   12.90
  -5   0  14    3.50   11.60
  -5   0  14    6.10    9.10
  -5   0  14   10.20   10.90
   5   0 -14    0.20   16.50
  -5   0  14    5.50    7.40
   5   0 -14    6.10   12.20
  -4   0  14   -5.70    7.30
   4   0 -14   18.60   11.80
  -4   0  14   20.20   12.00
   4   0 -14  -14.70   12.40
  -4   0  14   -9.00   10.00
   3   0 -14   19.30   11.60
  -3   0  14   18.60   10.70
  -3   0  14   16.40   19.50
  -3   0  14   -1.10   10.90
  -3   0  14   -2.10    8.60
   3   0 -14   -2.70   10.30
  -3   0  14    4.40    8.10
  -2   0  14   14.00    9.80
  -2   0  14   -0.60    8.40
   2   0 -14   -8.10    9.90
   2   0 -14   -4.80   10.90
  -2   0  14    0.30   13.70
  -2   0  14   -6.20   12.00
  -2   0  14   12.20    9.50
  -1   0  14 1360.66   90.59
   1   0 -14 1371.36   91.19
  -1   0  14 1366.56   90.39
  -1   0  14 1300.47   89.99
  -1   0  14 1190.88   89.49
   1   0 -14 1148.29   90.79
   0   0 -14    7.00   11.80
   0   0  14    6.10    9.70
   0   0  14   19.80    9.30
   0   0  14    8.10   10.60
   0   0  14    4.50    9.00
   0   0 -14   18.80    9.70
  -1   0 -14   -7.90    6.50
   1   0  14    5.40   10.00
   1   0  14    1.50   16.10
   1   0  14    4.00   10.40
   1   0  14    5.30    9.60
  -1   0 -14   18.00   14.90
   1   0  14    0.60   13.50
   2   0  14  201.68   21.50
  -2   0 -14  189.28   20.90
   2   0  14  255.37   24.20
  -2   0 -14  212.68   27.70
   3   0  14  142.99   15.20
  -3   0 -14  164.08   15.80
   3   0  14  151.28   18.40
  -4   0 -14   90.49   10.00
   4   0  14   78.99   11.30
  -7  -1  14    4.90    5.80
  -7  -1  14   14.90    7.60
  -7   1  14   -2.30    7.40
  -7   1  14   -4.80    6.10
  -6  -1  14   25.50    7.60
  -6  -1  14   34.90   10.30
  -6  -1  14   27.40    6.50
   6  -1 -14   18.50   11.60
  -6   1  14   43.20   11.10
  -6   1  14   26.40   14.50
  -5  -1  14   34.90   11.70
   5  -1 -14   60.39   12.60
   5  -1 -14   43.80   14.10
  -5  -1  14   53.49   16.20
  -5  -1  14   61.49   12.50
  -5   1  14   35.70   10.10
  -5   1  14   52.49   11.70
  -5   1  14   40.30   10.20
  -5   1  14   67.89   12.80
  -4  -1  14  809.02   56.19
  -4  -1  14  645.64   59.79
  -4  -1  14  850.81   55.99
  -4  -1  14  702.13   58.29
   4  -1 -14  725.33   58.49
  -4  -1  14  893.01   54.29
   4  -1 -14  784.02   57.09
  -4   1  14  744.93   56.69
  -4   1  14  802.52   56.19
  -4   1  14  816.12   56.79
  -4   1  14  761.32   56.59
   3  -1 -14  534.25   41.80
  -3  -1  14  547.85   38.20
  -3  -1  14  562.44   35.90
  -3  -1  14  515.95   40.60
   3  -1 -14  489.15   39.30
  -3  -1  14  543.95   38.20
  -3   1  14  475.15   38.40
  -3   1  14  457.45   37.80
   3   1 -14  454.95   43.90
  -3   1  14  475.05   38.80
  -3   1  14  407.56   39.20
   3   1 -14  442.76   37.40
  -3   1  14  485.55   40.00
   2  -1 -14   99.09   18.60
  -2  -1  14  107.29   16.50
   2  -1 -14   97.79   19.00
  -2  -1  14   90.09   18.90
   2  -1 -14   61.19   15.60
  -2  -1  14  101.89   15.20
  -2  -1  14   84.39   15.80
  -2  -1  14  105.09   20.40
  -2   1  14   75.59   12.40
  -2   1  14   60.29   13.00
  -2   1  14   81.79   15.50
  -2   1  14   94.39   18.20
   2   1 -14   86.49   16.80
   2   1 -14   98.39   15.90
   1  -1 -14   67.49   11.10
  -1  -1  14   67.69   14.50
   1  -1 -14   44.30   11.30
  -1  -1  14   47.50   10.00
   1  -1 -14   33.20   15.60
  -1  -1  14   76.29   13.40
  -1   1  14   66.79   20.10
   1   1 -14   64.09   13.20
   1   1 -14   70.29   12.30
  -1   1  14   71.69   13.10
  -1   1  14   49.00   10.50
  -1   1  14   87.89   14.90
   0  -1  14  212.18   20.40
   0  -1  14  233.08   20.90
   0  -1 -14  205.78   20.30
   0  -1 -14  183.38   30.50
   0  -1  14  200.58   20.70
   0  -1 -14  243.18   21.40
   0  -1  14  195.18   19.60
   0  -1 -14  172.88   23.20
   0   1 -14  161.18   22.10
   0   1 -14  155.48   21.90
   0   1  14  216.18   21.10
   0   1  14  174.68   21.10
   1  -1  14   18.90    8.70
   1  -1  14   15.90    9.80
  -1  -1 -14   10.20    7.70
   1  -1  14   13.40   10.50
  -1  -1 -14   19.40    8.50
  -1  -1 -14   33.70   17.70
   1  -1  14    2.50    9.10
  -1  -1 -14   42.30   15.20
  -1   1 -14   34.40   10.90
   1   1  14    2.70    8.50
   1   1  14    4.70   13.20
  -1   1 -14    1.10   11.50
   1   1  14   15.80   13.00
   2  -1  14   75.39   16.00
   2  -1  14   62.79   12.80
  -2  -1 -14   71.99   13.20
  -2  -1 -14   49.70    9.40
   2  -1  14   50.69   11.30
   2   1  14   48.00   10.10
   2   1  14   47.60   11.50
  -2   1 -14   68.59   10.40
  -2   1 -14   46.80   16.10
  -3  -1 -14   -7.00   15.20
  -3  -1 -14   12.90    5.60
   3  -1  14    6.20    6.20
   3   1  14   27.00    8.40
   3   1  14    7.90    6.80
  -3   1 -14   14.10    7.10
  -7  -2  14   17.40    5.90
  -7  -2  14   15.60    5.40
   7  -2 -14   25.00    9.10
  -7   2  14   17.00    8.20
  -7   2  14   19.80    8.70
  -6  -2  14  216.68   19.40
   6  -2 -14  250.27   22.30
  -6  -2  14  221.58   20.10
  -6  -2  14  221.68   18.80
  -6   2  14  209.88   20.10
  -5  -2  14  138.89   17.80
   5  -2 -14  124.59   19.30
  -5  -2  14  121.59   11.80
  -5  -2  14  104.99   15.10
  -5  -2  14  132.59   14.80
   5  -2 -14   94.79   20.20
  -5   2  14  117.99   17.50
  -5   2  14  114.69   17.40
  -4  -2  14  537.15   49.70
   4  -2 -14  610.24   48.70
  -4  -2  14  517.45   42.40
   4  -2 -14  492.05   46.30
  -4  -2  14  612.94   39.80
   4  -2 -14  655.93   44.30
  -4   2  14  503.15   44.40
  -4   2  14  583.14   43.40
   3  -2 -14   82.29   16.80
  -3  -2  14  109.99   15.60
  -3  -2  14  145.09   14.60
   3  -2 -14   95.09   20.50
  -3  -2  14  104.99   12.00
   3  -2 -14  118.09   16.30
  -3  -2  14  146.39   26.40
   3  -2 -14  113.99   19.40
  -3  -2  14  105.29   15.60
  -3   2  14  129.39   22.80
  -3   2  14  115.39   18.00
  -3   2  14   75.79   15.90
  -2  -2  14  232.88   20.00
   2  -2 -14  163.68   20.60
   2  -2 -14  180.38   21.40
   2  -2 -14  157.18   33.40
   2  -2 -14  181.78   18.70
  -2  -2  14  199.68   16.80
  -2  -2  14  197.38   24.60
  -2  -2  14  204.68   20.20
  -2   2  14  170.98   20.60
  -2   2  14  218.88   21.00
   1  -2 -14  398.76   32.50
   1  -2 -14  360.46   30.60
   1  -2 -14  440.16   43.70
  -1  -2  14  397.06   31.50
  -1  -2  14  379.36   33.70
   1  -2 -14  383.36   30.20
  -1  -2  14  430.36   29.10
  -1  -2  14  425.96   31.30
  -1  -2  14  348.57   34.10
  -1   2  14  322.27   31.60
  -1   2  14  364.56   32.10
  -1   2  14  455.05   38.90
   0  -2  14  378.16   28.60
   0  -2 -14  324.07   28.80
   0  -2  14  280.57   28.90
   0  -2 -14  296.67   26.00
   0  -2 -14  306.07   43.20
   0  -2 -14  327.07   27.10
   0  -2  14  358.26   27.70
   0  -2  14  314.27   28.30
   0   2  14  372.66   30.80
   0   2  14  355.86   28.50
   0   2  14  297.17   33.10
   0   2  14  371.86   37.30
  -1  -2 -14   32.30    8.90
  -1  -2 -14   24.60    6.90
   1  -2  14   45.50   10.50
  -1  -2 -14   24.70    9.10
   1  -2  14   37.00   10.40
   1  -2  14   38.90   11.90
   1  -2  14   27.80    9.10
   1   2  14   14.40    8.70
   1   2  14   55.69   16.40
   1   2  14   19.80   10.70
  -2  -2 -14   46.40    8.40
   2  -2  14   54.39   10.30
  -2  -2 -14   64.19   10.80
   2  -2  14   47.60    9.30
   2  -2  14   67.49   12.60
   2   2  14   38.10    9.70
   3  -2  14   51.39    8.70
  -3  -2 -14   48.40    7.70
   3  -2  14   58.49   12.80
  -3  -2 -14   52.09   10.00
  -6  -3  14   70.29    8.50
  -6  -3  14   47.00    9.10
   6  -3 -14   54.49   11.10
  -6  -3  14   70.69   10.70
  -6   3  14   58.99   12.00
  -6   3  14   50.19    9.00
  -5  -3  14   30.30    6.90
  -5  -3  14   21.70    5.50
   5  -3 -14   25.00    8.20
  -5   3  14   28.00    9.80
  -5   3  14   33.40    7.80
  -4  -3  14  356.96   24.80
   4  -3 -14  334.97   27.60
  -4  -3  14  325.77   26.80
  -4  -3  14  336.37   23.80
   4  -3 -14  290.57   26.20
  -4  -3  14  322.37   26.20
  -4   3  14  321.57   27.10
  -3  -3  14  482.55   37.40
  -3  -3  14  529.35   36.20
  -3  -3  14  516.95   35.30
   3  -3 -14  538.95   38.20
   3  -3 -14  505.55   38.60
   3  -3 -14  473.35   36.70
  -3  -3  14  540.05   37.60
  -3   3  14  429.66   38.10
   2  -3 -14    4.20    5.80
   2  -3 -14    5.60    8.60
   2  -3 -14   14.40    7.70
  -2  -3  14    4.90    5.20
  -2  -3  14   -3.90    8.10
  -2  -3  14    2.90    7.60
  -2  -3  14    2.60    9.10
  -2   3  14    7.30    9.50
  -2   3  14   -2.10    8.30
  -1  -3  14   61.79   11.00
   1  -3 -14   69.89   11.50
   1  -3 -14   67.69   11.10
  -1  -3  14   70.69   14.70
  -1  -3  14   76.09   10.20
  -1  -3  14   91.89   13.70
   1  -3 -14   71.59   12.80
  -1   3  14   60.99   21.40
  -1   3  14   60.59   15.50
  -1   3  14   77.39   16.40
   0  -3  14  159.78   15.50
   0  -3 -14  147.59   13.60
   0  -3 -14  122.79   17.30
   0  -3  14  116.69   16.40
   0  -3  14  139.49   16.60
   0  -3 -14  132.79   14.40
   0  -3  14  153.48   13.70
   0   3  14  134.09   20.00
   0   3  14  125.39   18.30
   0   3  14  100.89   18.90
   0   3  14  111.39   16.00
  -1  -3 -14    1.30    6.80
   1  -3  14   14.60    7.40
  -1  -3 -14   -4.50    5.80
   1  -3  14    3.00    6.70
  -1  -3 -14    8.70    8.00
   1  -3  14   10.50    6.40
   1   3  14   -0.10   10.50
   1   3  14   -0.70    8.30
   1   3  14    4.70    7.80
  -2  -3 -14  123.39   12.90
   2  -3  14  106.59   13.00
   2  -3  14  110.59   11.90
   2  -3  14  140.59   13.90
  -2  -3 -14  134.39   13.90
   2   3  14  149.19   14.30
   2   3  14  111.19   13.80
   2   3  14  112.99   20.60
  -4  -4  14   12.20    3.90
   4  -4 -14    6.30    5.80
  -4  -4  14    4.10    6.90
   4  -4 -14   -3.00    7.40
  -4   4  14    3.30    4.90
  -3  -4  14  137.79   15.50
  -3  -4  14  105.39   13.40
   3  -4 -14   88.89   14.10
   3  -4 -14   97.69   12.60
  -3  -4  14  109.79   14.60
  -3  -4  14  121.19   10.10
  -3   4  14   95.19   12.90
  -2  -4  14   29.70   10.10
   2  -4 -14   25.90    6.20
  -2  -4  14   46.90   10.10
  -2  -4  14   38.90    7.60
   2  -4 -14   22.10    7.20
  -2   4  14   33.40    8.00
  -1  -4  14  319.67   22.20
   1  -4 -14  302.77   25.30
  -1  -4  14  293.47   21.00
   1  -4 -14  257.57   21.60
  -1  -4  14  265.67   22.40
   1  -4 -14  252.57   22.10
  -1   4  14  300.67   23.90
   0  -4  14   -0.10    6.70
   0  -4  14   11.10    5.30
   0  -4 -14    3.20    5.60
   0  -4 -14    2.00    6.20
   0  -4  14    8.40    5.70
   0   4  14    6.50    7.80
   0   4  14   -0.30    8.40
  -7   0  15   52.79    8.80
  -6   0  15   88.19   14.70
  -6   0  15  110.19   13.20
  -6   0  15   90.59   13.40
  -5   0  15  381.66   31.00
   5   0 -15  450.65   35.00
  -5   0  15  396.66   29.40
  -5   0  15  355.76   30.30
  -5   0  15  299.87   33.00
  -4   0  15  321.87   27.50
  -4   0  15  296.47   28.50
  -4   0  15  319.77   29.20
   4   0 -15  303.27   28.80
  -4   0  15  301.87   26.80
   4   0 -15  330.57   32.70
   3   0 -15   12.10   11.50
  -3   0  15    4.40    7.40
   3   0 -15    1.70   10.80
  -3   0  15   -2.60   12.50
  -3   0  15   12.50    9.40
  -3   0  15    2.90    8.10
  -2   0  15   31.10   11.30
  -2   0  15   34.20    9.20
  -2   0  15   18.80    8.40
  -2   0  15   21.20   12.50
   2   0 -15   24.40   11.50
  -2   0  15   17.90   17.00
   2   0 -15   30.90   10.30
  -1   0  15  168.18   18.70
  -1   0  15  159.18   19.40
   1   0 -15  165.98   20.80
  -1   0  15  155.38   20.70
   1   0 -15  177.48   24.20
  -1   0  15  186.88   22.20
   0   0  15  108.59   18.30
   0   0 -15   88.89   18.60
   0   0  15  130.39   18.50
   0   0  15   83.39   17.00
   0   0  15   94.69   20.10
   0   0 -15  112.99   21.30
   1   0  15   27.90    9.70
  -1   0 -15    3.20   14.40
  -1   0 -15    2.20    7.90
   1   0  15   12.70    8.00
  -2   0 -15   37.00    7.90
   2   0  15   51.09   11.10
   2   0  15   30.30    7.80
   3   0  15   84.29   13.70
   3   0  15   90.99   10.70
  -3   0 -15   97.09   11.70
  -7  -1  15   15.30    5.20
  -7   1  15    5.40    5.30
  -7   1  15   -8.30    6.60
  -6  -1  15   20.50    6.70
  -6  -1  15   14.30    7.40
   6  -1 -15   39.30   10.50
  -6   1  15   20.30    7.90
  -6   1  15   33.90    8.20
  -5  -1  15   49.99    8.90
   5  -1 -15   62.09   20.50
  -5  -1  15   46.20   10.20
  -5  -1  15   39.10    9.30
  -5   1  15   35.70    9.70
  -5   1  15   70.79   15.10
  -5   1  15   44.30    9.70
  -4  -1  15  205.08   21.00
   4  -1 -15  120.29   22.50
   4  -1 -15  193.08   23.30
  -4  -1  15  207.78   26.70
  -4  -1  15  177.48   18.50
  -4  -1  15  183.28   19.30
  -4   1  15  136.09   19.10
  -4   1  15  173.58   21.70
  -4   1  15  126.19   19.90
   3  -1 -15  297.97   28.10
  -3  -1  15  326.97   26.00
   3  -1 -15  288.27   31.70
  -3  -1  15  335.27   26.50
  -3   1  15  336.27   28.50
  -3   1  15  303.97   26.50
  -3   1  15  282.77   27.00
  -3   1  15  333.17   29.50
  -3   1  15  277.67   29.90
   2  -1 -15   34.40   10.10
  -2  -1  15   39.70    9.60
  -2  -1  15   43.30   14.00
   2  -1 -15   64.89   17.20
  -2   1  15   52.09   13.40
   2   1 -15   54.39   16.30
   2   1 -15   55.49   13.20
  -2   1  15   68.79   19.50
  -2   1  15   44.20   16.00
  -2   1  15   24.20    8.90
   1  -1 -15  133.99   18.40
   1  -1 -15   88.49   17.40
  -1  -1  15  127.09   16.80
  -1  -1  15  113.69   17.20
  -1  -1  15  121.79   18.40
   1  -1 -15  113.19   18.70
  -1  -1  15   95.39   15.70
   1   1 -15  113.99   24.40
   1   1 -15   94.59   19.80
  -1   1  15  123.19   18.10
  -1   1  15  108.59   17.50
   0  -1  15   36.90    9.90
   0  -1 -15   56.09   11.50
   0  -1  15   36.50   10.20
   0  -1 -15   32.20   12.90
   0  -1 -15   61.09   18.80
   0  -1  15   20.50   10.40
   0   1 -15   35.80   13.00
   0   1  15   23.10    9.40
   0   1 -15   38.80   11.70
   0   1  15   30.30   11.10
   1  -1  15   67.49   12.50
  -1  -1 -15   76.79   13.50
   1  -1  15   71.09   15.30
   1  -1  15   67.59   13.90
  -1  -1 -15   59.69   14.80
   1   1  15   77.19   19.00
   1   1  15   66.49   13.10
   1   1  15   89.39   12.40
   2  -1  15  227.68   19.70
   2  -1  15  171.68   16.60
   2   1  15  173.38   19.70
   3   1  15  161.18   16.60
   6  -2 -15  113.49   13.90
  -6  -2  15  130.49   13.20
  -6  -2  15  151.08   13.40
  -6  -2  15  137.79   12.70
  -6   2  15  122.59   14.60
  -6   2  15  136.09   14.90
   5  -2 -15   83.59   14.70
  -5  -2  15  115.49   14.10
  -5  -2  15  104.09   11.80
  -5  -2  15  108.89   11.00
  -5  -2  15   72.09   16.60
  -5   2  15  119.29   15.30
  -5   2  15   74.19   12.70
   4  -2 -15   25.80    8.30
  -4  -2  15   26.10    6.70
  -4   2  15   49.40   12.40
  -4   2  15   16.90    7.20
  -3  -2  15   19.50    6.40
   3  -2 -15   20.20    9.80
  -3  -2  15   24.30   18.00
  -3  -2  15   15.30    7.40
  -3  -2  15    6.30    7.00
   3  -2 -15   16.60   19.30
   3  -2 -15    9.70   13.40
  -3   2  15   12.90    9.40
  -3   2  15   -1.80    8.70
  -2  -2  15   16.10    8.00
  -2  -2  15   39.00    7.70
   2  -2 -15   36.00   19.90
  -2  -2  15   44.70   15.40
   2  -2 -15   21.30    8.60
   2  -2 -15   33.80   10.50
  -2  -2  15   25.60    8.60
  -2   2  15   19.10   10.30
  -2   2  15   21.00    8.90
  -1  -2  15    6.30    8.70
   1  -2 -15    4.80    9.00
   1  -2 -15    7.10   13.00
  -1  -2  15   23.40   12.20
  -1  -2  15   12.40   10.90
   1  -2 -15   14.20    7.60
  -1  -2  15   15.00    7.90
  -1   2  15   13.10    8.20
  -1   2  15    5.20   10.10
   0  -2 -15  100.69   15.40
   0  -2  15   84.29   15.30
   0  -2 -15   84.49   14.80
   0  -2 -15  113.89   13.70
   0  -2  15   99.49   13.90
   0  -2  15  104.29   13.70
   0   2  15   86.49   16.60
   1  -2  15   11.80    6.60
  -1  -2 -15    4.80    7.60
  -1  -2 -15   10.80    7.20
   1  -2  15   10.80    7.60
   1   2  15   27.50    9.00
   1   2  15    8.60    7.50
   2  -2  15  112.99   14.50
  -2  -2 -15  125.69   15.50
   2  -2  15  112.99   12.40
  -2  -2 -15  127.19   13.30
   2   2  15  131.99   13.00
   2   2  15  110.59   14.70
  -5  -3  15   24.90    7.90
   5  -3 -15   16.60    5.70
  -5  -3  15   29.00    5.60
  -5  -3  15   24.00    5.90
  -4  -3  15   94.69   10.30
   4  -3 -15   90.59   13.90
  -4  -3  15  107.69   14.10
  -4  -3  15  112.89   12.30
   3  -3 -15   72.39   12.70
   3  -3 -15   47.00    9.60
  -3  -3  15   74.29   11.90
  -3  -3  15   55.19   10.90
  -3   3  15   52.39   11.20
  -2  -3  15  148.29   14.30
   2  -3 -15  145.39   15.20
  -2  -3  15  159.58   13.80
   2  -3 -15  125.29   13.50
  -2  -3  15  119.39   12.60
   2  -3 -15  116.09   16.50
  -2   3  15  104.79   14.80
  -1  -3  15  104.79   14.20
   1  -3 -15  106.49   12.00
   1  -3 -15  106.69   13.70
   1  -3 -15  102.39   19.50
  -1  -3  15  101.29   12.30
  -1  -3  15   96.29   13.60
   0  -3 -15   69.99   10.90
   0  -3 -15   73.39   12.40
   0  -3  15   53.89   10.00
   0   3  15   52.69   10.30
   1  -3  15  159.48   13.70
   1  -3  15  165.18   14.20
  -1  -3 -15  163.88   15.10
   1  -3  15  143.09   15.60
  -1  -3 -15  150.18   14.60
   1   3  15  136.59   16.90
  -6   0  16  471.55   35.70
  -6   0  16  514.65   38.20
  -5   0  16   95.49   13.10
  -5   0  16   67.89   11.90
  -5   0  16   96.69   12.40
   4   0 -16   36.10   12.50
  -4   0  16   26.10    8.00
  -4   0  16   45.30    9.10
  -4   0  16   57.19   11.00
  -3   0  16  152.58   19.50
   3   0 -16  171.18   21.70
  -3   0  16  159.28   17.60
  -3   0  16  138.39   16.60
  -3   0  16  107.99   18.60
  -2   0  16  139.89   16.90
  -2   0  16  127.69   21.40
   2   0 -16  135.89   24.10
  -2   0  16  170.88   18.00
   2   0 -16  175.38   20.50
  -1   0  16   88.19   13.80
  -1   0  16  120.49   16.80
   1   0 -16   79.59   13.10
  -1   0  16   90.09   14.50
   0   0  16  152.88   17.10
   0   0 -16  156.48   17.90
  -1   0 -16   -6.40    6.90
   1   0  16   19.70    9.70
   1   0  16    6.90    6.20
  -2   0 -16  187.18   17.50
   2   0  16  211.48   16.30
  -6  -1  16  227.78   17.30
  -6  -1  16  201.58   17.40
  -6   1  16  205.18   18.30
  -5  -1  16    7.40    8.30
  -5  -1  16   17.00    9.50
   5  -1 -16   24.10    9.50
  -5  -1  16   11.90    6.20
  -5   1  16   12.30    6.10
  -5   1  16   14.40    8.80
  -4  -1  16   26.40    8.90
  -4   1  16   40.10   10.90
  -4   1  16   33.30   10.40
  -4   1  16   31.10    7.80
  -3  -1  16  212.08   20.20
  -3  -1  16  213.48   18.50
   3  -1 -16  190.88   20.20
  -3  -1  16  201.98   19.10
  -3   1  16  189.18   19.10
   2  -1 -16   23.20   20.80
  -2  -1  16   -1.20    6.30
  -2  -1  16    2.00    9.90
  -2  -1  16   15.40   10.90
   2  -1 -16    3.90    7.50
  -2  -1  16    4.20    6.40
  -2   1  16   -9.50    7.30
   1  -1 -16   45.10    9.20
  -1  -1  16   57.39   10.50
  -1  -1  16   38.00    8.50
  -1  -1  16   64.59   11.80
  -1   1  16   49.80    9.80
   0  -1  16  153.88   16.40
   0  -1  16  155.48   17.20
   0  -1 -16  179.68   17.40
   0  -1  16  152.48   15.60
   0   1  16  157.28   15.50
   0   1 -16  152.18   20.50
   0   1  16  145.69   17.60
  -1  -1 -16  133.69   12.90
   1  -1  16  117.39   19.10
   1  -1  16   96.49   12.00
  -1   1 -16  111.09   14.20
   1   1  16  110.69   12.20
  -5  -2  16  196.08   17.90
  -5  -2  16  219.18   21.90
   5  -2 -16  257.07   19.40
  -5   2  16  202.28   18.10
  -5   2  16  225.88   21.10
  -4  -2  16   63.59   10.90
  -4  -2  16   72.19   12.20
  -4  -2  16   65.69   10.10
  -4   2  16   59.69    9.50
   3  -2 -16   69.19   12.80
  -3  -2  16   62.39   10.40
  -3  -2  16   57.89   10.70
  -3   2  16   52.09   10.60
  -2  -2  16   19.80    5.90
  -2  -2  16   22.80    7.20
   2  -2 -16   18.50    6.60
  -2   2  16    8.40    7.20
  -2   2  16   29.70    7.40
  -1  -2  16  132.89   13.90
  -1  -2  16  136.59   14.00
   1  -2 -16  113.49   15.20
  -1   2  16  149.79   15.50
  -1   2  16  145.09   14.50
   0  -2 -16  132.99   14.60
   0  -2  16  166.98   14.80
   0  -2  16  120.89   15.70
   0  -2  16  152.48   14.40
   0   2  16  128.89   18.00
   0   2  16  157.88   13.90
   1  -2  16   28.30    6.80
   1  -2  16   39.70    6.90
   1  -2  16   27.70    6.40
   1   2  16   32.60    6.40
   4  -3 -16   -4.90    5.20
  -4  -3  16   15.50    8.50
  -4  -3  16    3.00    4.70
  -4   3  16    0.80    4.70
  -3  -3  16   14.20    5.60
  -3  -3  16   21.00    5.10
   3  -3 -16   17.80    5.90
  -3   3  16   12.30    7.00
  -2  -3  16   13.50    5.30
  -2  -3  16   12.50    6.10
   2  -3 -16   10.60    5.90
  -2   3  16   23.30    7.10
   1  -3 -16   10.80    5.40
  -1  -3  16   15.10    4.90
  -1  -3  16   12.20    5.10
   1  -3 -16   22.60   13.40
  -1   3  16    6.50    5.20
  -1   3  16    3.70    8.60
  -5   0  17    9.10    5.90
  -5   0  17   19.60    6.60
  -5   0  17   14.70    8.40
  -4   0  17   72.69   13.40
  -4   0  17   62.29   12.50
   3   0 -17   -1.80    9.90
  -3   0  17   15.20    7.30
  -3   0  17   -3.80    6.40
   2   0 -17    5.90    8.50
  -2   0  17   -2.30    8.80
  -2   0  17   16.60   10.80
  -2   0  17    5.40    6.60
   1   0 -17  238.18   20.10
  -1   0  17  197.18   19.40
  -1   0  17  201.48   18.10
   0   0  17  349.17   27.10
   0   0 -17  393.66   28.30
   0   0  17  343.27   27.50
   5  -1 -17   13.10   15.90
  -5  -1  17   12.90    5.90
  -5  -1  17   21.50    8.60
  -5  -1  17   10.50    7.40
  -5   1  17   10.50    7.60
  -5   1  17   32.70   10.10
  -4  -1  17   34.70    8.90
  -4  -1  17   38.40    8.80
   4  -1 -17   30.00    8.40
  -4  -1  17   43.20    6.60
  -4   1  17   25.90    6.50
   3  -1 -17  358.16   29.20
  -3  -1  17  400.46   28.30
  -3  -1  17  386.56   27.70
  -3   1  17  349.07   28.10
  -2  -1  17  238.18   20.20
  -2  -1  17  264.77   20.30
   2  -1 -17  240.38   21.20
  -2   1  17  263.27   20.50
  -1  -1  17   28.10    6.60
   1  -1 -17   35.80    7.10
  -1  -1  17   43.20    9.70
  -1   1  17   48.00    9.00
   0  -1 -17   34.60    6.90
   0  -1  17   49.50   12.50
   0  -1  17   17.00    7.00
   0  -1  17   22.20    6.80
   0   1  17   37.40    8.20
  -3  -2  17   48.20    8.60
   3  -2 -17   37.40    6.90
  -3  -2  17   54.39   10.70
  -3   2  17   34.20    6.90
  -2  -2  17   43.20    8.50
   2  -2 -17   19.50    5.60
  -2  -2  17   27.30    6.40
  -2   2  17   10.20    6.40
   1  -2 -17   98.89   12.50
  -1  -2  17   86.49   10.60
_computing_structure_solution     'SHELXT 2014/4 (Sheldrick, 2014)'
;
_shelx_hkl_checksum              39040
_shelx_res_file
;
TITL cu_UMD630_0m_a.res in P2(1)
CELL 1.54178 8.2745 6.0367 14.8609 90 104.746 90
ZERR 4 0.0008 0.0006 0.0014 0 0.005 0
LATT -1
SYMM -X,0.5+Y,-Z
SFAC C H Cl N O
UNIT 32 16 4 4 8
EQIV $1 -1+X,+Y,+Z
EQIV $2 1-X,0.5+Y,-Z
EQIV $3 2-X,0.5+Y,-Z
EQIV $4 2-X,-1.5+Y,1-Z
EQIV $5 +X,2+Y,+Z
DFIX 0.87 0.005 N1 H1 N2 H2
L.S. 10
PLAN  20
TEMP -153.09
HTAB C13 O2_$5
HTAB C5 Cl2_$4
HTAB N2 O3_$3
HTAB N2 O1_$2
HTAB N1 O3_$1
BOND $H
CONF
HTAB 2
MORE -1
fmap 2
acta 136
TWIN -1 0 0 0 -1 0 0 0 -1 2
REM <olex2.extras>
REM <HklSrc "%.\\cu_UMD630_0m_a.hkl">
REM </olex2.extras>
WGHT    0.053100    0.171000
BASF   0.11020
FVAR       1.14397
CL1   3    0.826712   -0.280311    0.404904    11.00000    0.02604    0.03312 =
         0.03616    0.00813    0.00144    0.00570
CL2   3    1.050215    1.193332    0.353681    11.00000    0.03171    0.03468 =
         0.02869   -0.00714    0.00757   -0.00346
O1    5    0.297478   -0.010561    0.090370    11.00000    0.03197    0.02881 =
         0.02373   -0.00164    0.00099    0.00412
O2    5    0.563797   -0.292648    0.198837    11.00000    0.03702    0.02846 =
         0.03283   -0.00206    0.00636    0.01111
O3    5    1.115391    0.462625    0.116894    11.00000    0.02805    0.02590 =
         0.02900    0.00069    0.00613    0.00507
O4    5    1.190072    0.734114    0.284544    11.00000    0.02595    0.03471 =
         0.02306    0.00192    0.00058    0.00099
N1    4    0.365195    0.200170    0.224566    11.00000    0.02300    0.02502 =
         0.02526    0.00303    0.00539    0.00651
H1    2    0.295289    0.309128    0.207894    11.00000   -1.20000
N2    4    0.912421    0.729086    0.065699    11.00000    0.02384    0.02609 =
         0.02275   -0.00157    0.00259    0.00227
H2    2    0.867749    0.687644    0.008833    11.00000   -1.20000
C1    1    0.378492    0.027341    0.169406    11.00000    0.02282    0.02313 =
         0.02700    0.00286    0.00824    0.00235
C2    1    0.520357   -0.123557    0.228087    11.00000    0.02230    0.02515 =
         0.02932    0.00527    0.00953    0.00266
C3    1    0.575004   -0.008867    0.317718    11.00000    0.02120    0.02407 =
         0.02643    0.00497    0.00812   -0.00236
C4    1    0.699388   -0.049928    0.398744    11.00000    0.01909    0.03138 =
         0.02991    0.00815    0.00675   -0.00199
C5    1    0.720930    0.093906    0.473447    11.00000    0.02072    0.03910 =
         0.02437    0.00538    0.00337   -0.00233
AFIX  43
H5    2    0.804997    0.065968    0.529050    11.00000   -1.20000
AFIX   0
C6    1    0.619456    0.278480    0.466727    11.00000    0.02972    0.03510 =
         0.02018   -0.00274    0.00561   -0.00775
AFIX  43
H6    2    0.634030    0.374141    0.518942    11.00000   -1.20000
AFIX   0
C7    1    0.496271    0.329254    0.385873    11.00000    0.02531    0.02764 =
         0.03277    0.00068    0.00994   -0.00015
AFIX  43
H7    2    0.428878    0.458178    0.381519    11.00000   -1.20000
AFIX   0
C8    1    0.477488    0.182770    0.312739    11.00000    0.01792    0.02812 =
         0.02189    0.00315    0.00511   -0.00052
C9    1    1.041197    0.631003    0.126589    11.00000    0.02071    0.02542 =
         0.02368    0.00354    0.00781   -0.00124
C10   1    1.079911    0.776908    0.215887    11.00000    0.01993    0.02465 =
         0.02261    0.00371    0.00686   -0.00021
C11   1    0.958645    0.958265    0.194053    11.00000    0.02139    0.02483 =
         0.02452    0.00427    0.00977   -0.00046
C12   1    0.928518    1.143101    0.242379    11.00000    0.02141    0.02795 =
         0.02829    0.00247    0.00994   -0.00198
C13   1    0.800845    1.289292    0.201813    11.00000    0.02858    0.02368 =
         0.03890    0.00062    0.01647    0.00223
AFIX  43
H13   2    0.776636    1.412990    0.235689    11.00000   -1.20000
AFIX   0
C14   1    0.708913    1.251214    0.110522    11.00000    0.02451    0.02793 =
         0.03905    0.00825    0.01258    0.00699
AFIX  43
H14   2    0.623193    1.352675    0.082328    11.00000   -1.20000
AFIX   0
C15   1    0.738703    1.069396    0.059406    11.00000    0.02059    0.03182 =
         0.02880    0.00568    0.00518    0.00305
AFIX  43
H15   2    0.675804    1.046733   -0.002938    11.00000   -1.20000
AFIX   0
C16   1    0.862310    0.923547    0.102187    11.00000    0.02133    0.02672 =
         0.02412    0.00375    0.00755   -0.00031
HKLF 4
REM  cu_UMD630_0m_a.res in P2(1)
REM R1 =  0.0379 for    2388 Fo > 4sig(Fo)  and  0.0423 for all    2579 data
REM    224 parameters refined using      3 restraints
END
WGHT      0.0531      0.1710
REM Instructions for potential hydrogen bonds
HTAB N1 O3_$1
HTAB N2 O1_$2
HTAB N2 O3_$3
HTAB C5 Cl2_$4
HTAB C13 O2_$5
REM Highest difference peak  0.579,  deepest hole -0.269,  1-sigma level  0.057
Q1    1   0.8237 -0.2706  0.3341  11.00000  0.05    0.58
Q2    1   1.0377  1.1988  0.2837  11.00000  0.05    0.48
Q3    1   0.8398 -0.2776  0.4756  11.00000  0.05    0.46
Q4    1   1.0585  1.1841  0.4246  11.00000  0.05    0.45
Q5    1   0.5842 -0.2983  0.2711  11.00000  0.05    0.23
Q6    1   0.6572 -0.0050  0.3468  11.00000  0.05    0.21
Q7    1   1.0719  0.7482  0.1550  11.00000  0.05    0.21
Q8    1   1.1191  0.4499  0.1893  11.00000  0.05    0.20
Q9    1   0.4727  0.1882  0.3723  11.00000  0.05    0.20
Q10   1   0.5800 -0.2729  0.1342  11.00000  0.05    0.19
Q11   1   0.5304 -0.1268  0.2964  11.00000  0.05    0.19
Q12   1   0.5629 -0.0057  0.2598  11.00000  0.05    0.19
Q13   1   1.1146  0.4709  0.0480  11.00000  0.05    0.18
Q14   1   0.2819 -0.0208  0.1595  11.00000  0.05    0.18
Q15   1   0.7122  1.2447  0.1749  11.00000  0.05    0.18
Q16   1   0.5148  0.3093  0.3264  11.00000  0.05    0.18
Q17   1   0.7596  1.2555  0.1534  11.00000  0.05    0.18
Q18   1   0.2907 -0.0277  0.0199  11.00000  0.05    0.17
Q19   1   0.3746  0.1580  0.1817  11.00000  0.05    0.17
Q20   1   0.4151  0.1901  0.2985  11.00000  0.05    0.17
;
_shelx_res_checksum              73223
_shelxl_version_number           2014/6
loop_
_space_group_symop_operation_xyz
'x, y, z'
'-x, y+1/2, -z'
loop_
_atom_site_type_symbol
_atom_site_label
_atom_site_fract_x
_atom_site_fract_y
_atom_site_fract_z
_atom_site_U_iso_or_equiv
_atom_site_adp_type
_atom_site_calc_flag
_atom_site_occupancy
Cl Cl1 0.82671(11) -0.28031(19) 0.40490(7) 0.0329(3) Uani d 1
Cl Cl2 1.05021(12) 1.19333(19) 0.35368(6) 0.0317(3) Uani d 1
O O1 0.2975(4) -0.0106(5) 0.09037(18) 0.0293(7) Uani d 1
O O2 0.5638(3) -0.2926(6) 0.19884(19) 0.0332(7) Uani d 1
O O3 1.1154(3) 0.4626(5) 0.11689(18) 0.0279(7) Uani d 1
O O4 1.1901(3) 0.7341(6) 0.28454(17) 0.0289(7) Uani d 1
N N1 0.3652(4) 0.2002(7) 0.2246(2) 0.0246(7) Uani d 1
H H1 0.295(5) 0.309(6) 0.208(3) 0.029 Uiso d 1
N N2 0.9124(4) 0.7291(7) 0.0657(2) 0.0248(8) Uani d 1
H H2 0.868(5) 0.688(9) 0.0088(14) 0.030 Uiso d 1
C C1 0.3785(5) 0.0273(7) 0.1694(3) 0.0240(9) Uani d 1
C C2 0.5204(5) -0.1236(7) 0.2281(3) 0.0251(9) Uani d 1
C C3 0.5750(5) -0.0089(7) 0.3177(3) 0.0235(9) Uani d 1
C C4 0.6994(5) -0.0499(8) 0.3987(3) 0.0267(9) Uani d 1
C C5 0.7209(5) 0.0939(8) 0.4734(3) 0.0285(10) Uani d 1
H H5 0.8050 0.0660 0.5290 0.034 Uiso calc 1
C C6 0.6195(5) 0.2785(8) 0.4667(3) 0.0285(10) Uani d 1
H H6 0.6340 0.3741 0.5189 0.034 Uiso calc 1
C C7 0.4963(5) 0.3293(8) 0.3859(3) 0.0281(9) Uani d 1
H H7 0.4289 0.4582 0.3815 0.034 Uiso calc 1
C C8 0.4775(4) 0.1828(8) 0.3127(2) 0.0226(8) Uani d 1
C C9 1.0412(5) 0.6310(7) 0.1266(3) 0.0229(9) Uani d 1
C C10 1.0799(5) 0.7769(7) 0.2159(3) 0.0221(9) Uani d 1
C C11 0.9586(5) 0.9583(7) 0.1941(3) 0.0229(9) Uani d 1
C C12 0.9285(5) 1.1431(7) 0.2424(3) 0.0252(9) Uani d 1
C C13 0.8008(5) 1.2893(8) 0.2018(3) 0.0290(10) Uani d 1
H H13 0.7766 1.4130 0.2357 0.035 Uiso calc 1
C C14 0.7089(5) 1.2512(8) 0.1105(3) 0.0297(10) Uani d 1
H H14 0.6232 1.3527 0.0823 0.036 Uiso calc 1
C C15 0.7387(5) 1.0694(8) 0.0594(3) 0.0273(10) Uani d 1
H H15 0.6758 1.0467 -0.0029 0.033 Uiso calc 1
C C16 0.8623(5) 0.9235(7) 0.1022(3) 0.0237(9) Uani d 1
loop_
_atom_site_aniso_label
_atom_site_aniso_U_11
_atom_site_aniso_U_22
_atom_site_aniso_U_33
_atom_site_aniso_U_12
_atom_site_aniso_U_13
_atom_site_aniso_U_23
Cl1 0.0260(5) 0.0331(6) 0.0362(5) 0.0057(5) 0.0014(4) 0.0081(5)
Cl2 0.0317(5) 0.0347(6) 0.0287(5) -0.0035(5) 0.0076(4) -0.0071(5)
O1 0.0320(15) 0.0288(18) 0.0237(14) 0.0041(13) 0.0010(12) -0.0016(12)
O2 0.0370(15) 0.0285(18) 0.0328(14) 0.0111(17) 0.0064(12) -0.0021(16)
O3 0.0281(14) 0.0259(17) 0.0290(14) 0.0051(14) 0.0061(12) 0.0007(13)
O4 0.0260(13) 0.035(2) 0.0231(13) 0.0010(15) 0.0006(11) 0.0019(14)
N1 0.0230(16) 0.0250(19) 0.0253(15) 0.0065(17) 0.0054(12) 0.0030(17)
N2 0.0238(16) 0.026(2) 0.0228(15) 0.0023(16) 0.0026(12) -0.0016(15)
C1 0.023(2) 0.023(2) 0.027(2) 0.0023(17) 0.0082(17) 0.0029(17)
C2 0.022(2) 0.025(2) 0.029(2) 0.0027(17) 0.0095(17) 0.0053(18)
C3 0.0212(19) 0.024(2) 0.0264(19) -0.0024(17) 0.0081(15) 0.0050(17)
C4 0.0191(19) 0.031(3) 0.030(2) -0.0020(18) 0.0067(16) 0.0081(18)
C5 0.021(2) 0.039(3) 0.024(2) -0.0023(19) 0.0034(16) 0.0054(18)
C6 0.030(2) 0.035(3) 0.0202(19) -0.0077(19) 0.0056(17) -0.0027(17)
C7 0.025(2) 0.028(3) 0.033(2) -0.0001(18) 0.0099(18) 0.0007(18)
C8 0.0179(17) 0.028(2) 0.0219(17) -0.0005(18) 0.0051(14) 0.0031(17)
C9 0.0207(19) 0.025(2) 0.0237(19) -0.0012(17) 0.0078(15) 0.0035(16)
C10 0.0199(19) 0.025(2) 0.0226(19) -0.0002(16) 0.0069(16) 0.0037(15)
C11 0.0214(19) 0.025(2) 0.0245(18) -0.0005(17) 0.0098(15) 0.0043(17)
C12 0.0214(19) 0.028(3) 0.028(2) -0.0020(17) 0.0099(16) 0.0025(17)
C13 0.029(2) 0.024(2) 0.039(2) 0.0022(17) 0.0165(19) 0.0006(18)
C14 0.0245(19) 0.028(3) 0.039(2) 0.0070(18) 0.0126(17) 0.0083(19)
C15 0.021(2) 0.032(3) 0.029(2) 0.0031(17) 0.0052(17) 0.0057(18)
C16 0.0213(19) 0.027(2) 0.0241(19) -0.0003(17) 0.0076(15) 0.0037(17)
loop_
_atom_type_symbol
_atom_type_description
_atom_type_scat_dispersion_real
_atom_type_scat_dispersion_imag
_atom_type_scat_source
C C 0.0181 0.0091 'International Tables Vol C Tables 4.2.6.8 and 6.1.1.4'
H H 0.0000 0.0000 'International Tables Vol C Tables 4.2.6.8 and 6.1.1.4'
Cl Cl 0.3639 0.7018 'International Tables Vol C Tables 4.2.6.8 and 6.1.1.4'
N N 0.0311 0.0180 'International Tables Vol C Tables 4.2.6.8 and 6.1.1.4'
O O 0.0492 0.0322 'International Tables Vol C Tables 4.2.6.8 and 6.1.1.4'
loop_
_geom_angle_atom_site_label_1
_geom_angle_atom_site_label_2
_geom_angle_atom_site_label_3
_geom_angle
C1 N1 H1 124(3)
C1 N1 C8 111.9(4)
C8 N1 H1 124(3)
C9 N2 H2 127(4)
C9 N2 C16 111.7(3)
C16 N2 H2 122(4)
O1 C1 N1 128.5(4)
O1 C1 C2 125.4(4)
N1 C1 C2 106.1(3)
O2 C2 C1 123.0(4)
O2 C2 C3 132.8(4)
C3 C2 C1 104.2(3)
C4 C3 C2 133.7(4)
C4 C3 C8 118.8(4)
C8 C3 C2 107.5(3)
C3 C4 Cl1 119.6(3)
C5 C4 Cl1 120.6(3)
C5 C4 C3 119.8(4)
C4 C5 H5 120.2
C6 C5 C4 119.7(4)
C6 C5 H5 120.2
C5 C6 H6 118.8
C5 C6 C7 122.4(4)
C7 C6 H6 118.8
C6 C7 H7 121.7
C8 C7 C6 116.6(4)
C8 C7 H7 121.7
C3 C8 N1 110.3(4)
C7 C8 N1 127.1(4)
C7 C8 C3 122.7(4)
O3 C9 N2 128.7(4)
O3 C9 C10 125.0(4)
N2 C9 C10 106.3(3)
O4 C10 C9 123.0(4)
O4 C10 C11 132.3(4)
C11 C10 C9 104.7(3)
C12 C11 C10 133.8(4)
C12 C11 C16 119.4(4)
C16 C11 C10 106.9(3)
C11 C12 Cl2 120.0(3)
C11 C12 C13 120.3(4)
C13 C12 Cl2 119.7(3)
C12 C13 H13 120.6
C12 C13 C14 118.9(4)
C14 C13 H13 120.6
C13 C14 H14 118.9
C15 C14 C13 122.1(4)
C15 C14 H14 118.9
C14 C15 H15 121.1
C16 C15 C14 117.8(4)
C16 C15 H15 121.1
N2 C16 C11 110.5(3)
C15 C16 N2 128.0(4)
C15 C16 C11 121.5(4)
loop_
_geom_bond_atom_site_label_1
_geom_bond_atom_site_label_2
_geom_bond_distance
Cl1 C4 1.733(5)
Cl2 C12 1.730(4)
O1 C1 1.217(5)
O2 C2 1.200(6)
O3 C9 1.215(5)
O4 C10 1.210(5)
N1 H1 0.869(7)
N1 C1 1.349(6)
N1 C8 1.404(4)
N2 H2 0.869(7)
N2 C9 1.347(5)
N2 C16 1.399(6)
C1 C2 1.564(6)
C2 C3 1.467(6)
C3 C4 1.393(6)
C3 C8 1.402(6)
C4 C5 1.385(6)
C5 H5 0.9500
C5 C6 1.383(7)
C6 H6 0.9500
C6 C7 1.398(6)
C7 H7 0.9500
C7 C8 1.379(6)
C9 C10 1.557(6)
C10 C11 1.465(6)
C11 C12 1.383(6)
C11 C16 1.410(6)
C12 C13 1.391(6)
C13 H13 0.9500
C13 C14 1.395(6)
C14 H14 0.9500
C14 C15 1.392(6)
C15 H15 0.9500
C15 C16 1.376(6)
loop_
_geom_hbond_atom_site_label_D
_geom_hbond_atom_site_label_H
_geom_hbond_atom_site_label_A
_geom_hbond_site_symmetry_A
_geom_hbond_distance_DH
_geom_hbond_distance_HA
_geom_hbond_distance_DA
_geom_hbond_angle_DHA
N1 H1 O3 1_455 0.869(7) 1.97(2) 2.768(5) 152(4)
N2 H2 O1 2_655 0.869(7) 2.11(2) 2.905(4) 152(5)
C5 H5 Cl2 2_736 0.95 2.91 3.682(5) 139.2
loop_
_geom_torsion_atom_site_label_1
_geom_torsion_atom_site_label_2
_geom_torsion_atom_site_label_3
_geom_torsion_atom_site_label_4
_geom_torsion
Cl1 C4 C5 C6 179.2(3)
Cl2 C12 C13 C14 177.2(3)
O1 C1 C2 O2 1.0(7)
O1 C1 C2 C3 -178.8(4)
O2 C2 C3 C4 2.8(8)
O2 C2 C3 C8 -179.3(4)
O3 C9 C10 O4 0.3(6)
O3 C9 C10 C11 -179.9(4)
O4 C10 C11 C12 1.0(8)
O4 C10 C11 C16 179.0(4)
N1 C1 C2 O2 -179.9(4)
N1 C1 C2 C3 0.3(4)
N2 C9 C10 O4 -180.0(4)
N2 C9 C10 C11 -0.2(4)
C1 N1 C8 C3 1.3(5)
C1 N1 C8 C7 -179.6(4)
C1 C2 C3 C4 -177.4(4)
C1 C2 C3 C8 0.4(4)
C2 C3 C4 Cl1 0.0(6)
C2 C3 C4 C5 179.7(4)
C2 C3 C8 N1 -1.0(4)
C2 C3 C8 C7 179.8(4)
C3 C4 C5 C6 -0.5(6)
C4 C3 C8 N1 177.2(3)
C4 C3 C8 C7 -2.0(6)
C4 C5 C6 C7 -1.3(6)
C5 C6 C7 C8 1.4(6)
C6 C7 C8 N1 -178.8(4)
C6 C7 C8 C3 0.3(6)
C8 N1 C1 O1 178.1(4)
C8 N1 C1 C2 -1.0(4)
C8 C3 C4 Cl1 -177.6(3)
C8 C3 C4 C5 2.1(6)
C9 N2 C16 C11 -1.7(4)
C9 N2 C16 C15 178.1(4)
C9 C10 C11 C12 -178.7(4)
C9 C10 C11 C16 -0.8(4)
C10 C11 C12 Cl2 0.0(6)
C10 C11 C12 C13 179.9(4)
C10 C11 C16 N2 1.5(4)
C10 C11 C16 C15 -178.4(4)
C11 C12 C13 C14 -2.7(6)
C12 C11 C16 N2 179.8(3)
C12 C11 C16 C15 0.0(6)
C12 C13 C14 C15 1.3(6)
C13 C14 C15 C16 0.7(6)
C14 C15 C16 N2 178.9(4)
C14 C15 C16 C11 -1.3(6)
C16 N2 C9 O3 -179.2(4)
C16 N2 C9 C10 1.1(4)
C16 C11 C12 Cl2 -177.8(3)
C16 C11 C12 C13 2.1(6)

_cod_database_fobs_code 1543224
