#------------------------------------------------------------------------------
#$Date: 2016-12-10 04:31:49 +0200 (Sat, 10 Dec 2016) $
#$Revision: 189042 $
#$URL: file:///home/coder/svn-repositories/cod/cif/1/54/47/1544771.cif $
#------------------------------------------------------------------------------
#
# This file is available in the Crystallography Open Database (COD),
# http://www.crystallography.net/. The original data for this entry
# were provided by IUCr Journals, http://journals.iucr.org/.
#
# The file may be used within the scientific community so long as
# proper attribution is given to the journal article from which the
# data were obtained.
#
data_1544771
loop_
_publ_author_name
'El Bakri, Youness'
'Harmaoui, Abdallah'
'Essassi, El Mokhtar'
'Saadi, Mohamed'
'El Ammari, Lahcen'
_publ_section_title
;
 9-Ethyl-6-methyl-7<i>H</i>-1,2,4-triazolo[4,3-<i>b</i>][1,2,4]triazepin-8(9<i>H</i>)-one
;
_journal_issue                   12
_journal_name_full               IUCrData
_journal_page_first              x161897
_journal_paper_doi               10.1107/S2414314616018976
_journal_volume                  1
_journal_year                    2016
_chemical_formula_iupac          'C8 H11 N5 O'
_chemical_formula_moiety         'C8 H11 N5 O'
_chemical_formula_sum            'C8 H11 N5 O'
_chemical_formula_weight         193.22
_chemical_name_systematic
9-Ethyl-6-methyl-7<i>H</i>-1,2,4-triazolo[4,3-<i>b</i>][1,2,4]triazepin-8(9<i>H</i>)-one
_space_group_crystal_system      triclinic
_space_group_IT_number           2
_space_group_name_Hall           '-P 1'
_space_group_name_H-M_alt        'P -1'
_symmetry_space_group_name_Hall  '-P 1'
_symmetry_space_group_name_H-M   'P -1'
_atom_sites_solution_hydrogens   mixed
_atom_sites_solution_primary     direct
_atom_sites_solution_secondary   difmap
_audit_creation_method           SHELXL-2014/7
_cell_angle_alpha                90.297(2)
_cell_angle_beta                 113.319(2)
_cell_angle_gamma                98.488(2)
_cell_formula_units_Z            2
_cell_length_a                   7.8989(3)
_cell_length_b                   8.0880(3)
_cell_length_c                   8.2052(3)
_cell_measurement_reflns_used    2105
_cell_measurement_temperature    296(2)
_cell_measurement_theta_max      27.091
_cell_measurement_theta_min      2.552
_cell_volume                     474.94(3)
_computing_cell_refinement
;
SAINT (Bruker, 2009)
;
_computing_data_collection
;
APEX2 (Bruker, 2009)
;
_computing_data_reduction
;
SAINT (Bruker, 2009)
;
_computing_molecular_graphics
;
ORTEP-3 for Windows (Farrugia, 2012) and Mercury (Macrae <i>et al.</i>,
2008)
;
_computing_publication_material
;
SHELXL2014 (Sheldrick, 2015b) and publCIF (Westrip, 2010)
;
_computing_structure_refinement
;
SHELXL2014 (Sheldrick, 2015b)
;
_computing_structure_solution
;
SHELXT2014 (Sheldrick, 2015a)
;
_diffrn_ambient_temperature      296(2)
_diffrn_measured_fraction_theta_full 1.000
_diffrn_measured_fraction_theta_max 1.000
_diffrn_measurement_device_type  'Bruker X8 APEX'
_diffrn_measurement_method       '\f and \w scans'
_diffrn_radiation_monochromator  graphite
_diffrn_radiation_source         'fine-focus sealed tube'
_diffrn_radiation_type           MoK\a
_diffrn_radiation_wavelength     0.71073
_diffrn_reflns_av_R_equivalents  0.0271
_diffrn_reflns_limit_h_max       10
_diffrn_reflns_limit_h_min       -10
_diffrn_reflns_limit_k_max       10
_diffrn_reflns_limit_k_min       -10
_diffrn_reflns_limit_l_max       10
_diffrn_reflns_limit_l_min       -10
_diffrn_reflns_number            14339
_diffrn_reflns_theta_full        25.242
_diffrn_reflns_theta_max         27.091
_diffrn_reflns_theta_min         2.552
_exptl_absorpt_coefficient_mu    0.097
_exptl_absorpt_correction_T_max  0.7474
_exptl_absorpt_correction_T_min  0.5952
_exptl_absorpt_correction_type   multi-scan
_exptl_absorpt_process_details
;
(SADABS; Krause <i>et al.</i>, 2015)
;
_exptl_crystal_colour            colourless
_exptl_crystal_density_diffrn    1.351
_exptl_crystal_description       block
_exptl_crystal_F_000             204
_exptl_crystal_size_max          0.37
_exptl_crystal_size_mid          0.32
_exptl_crystal_size_min          0.27
_refine_diff_density_max         0.315
_refine_diff_density_min         -0.165
_refine_ls_extinction_method     none
_refine_ls_goodness_of_fit_ref   1.036
_refine_ls_hydrogen_treatment    constr
_refine_ls_matrix_type           full
_refine_ls_number_parameters     137
_refine_ls_number_reflns         2105
_refine_ls_number_restraints     0
_refine_ls_restrained_S_all      1.036
_refine_ls_R_factor_all          0.0537
_refine_ls_R_factor_gt           0.0450
_refine_ls_shift/su_max          0.000
_refine_ls_shift/su_mean         0.000
_refine_ls_structure_factor_coef Fsqd
_refine_ls_weighting_details
'w=1/[\s^2^(Fo^2^)+(0.0656P)^2^+0.1549P] where P=(Fo^2^+2Fc^2^)/3'
_refine_ls_weighting_scheme      calc
_refine_ls_wR_factor_gt          0.1238
_refine_ls_wR_factor_ref         0.1325
_reflns_number_gt                1746
_reflns_number_total             2105
_reflns_threshold_expression     'I > 2\s(I)'
_cod_data_source_file            su4101sup1.cif
_cod_data_source_block           I
_cod_database_code               1544771
_shelx_space_group_comment
;
The symmetry employed for this shelxl refinement is uniquely defined
by the following loop, which should always be used as a source of
symmetry information in preference to the above space-group names.
They are only intended as comments.
;
_shelx_hkl_file
;
  -1   0   0 4088.29  104.99
  -1   0   0 3963.10  105.09
  -1   0   0 4295.77  105.29
  -1   0   0 4147.39  104.99
  -1   0   0 4213.58  105.39
  -1   0   0 3979.00  105.39
  -1   0   0 4093.69  105.19
   1   0   0 3989.90  105.09
   1   0   0 4125.89  105.49
   1   0   0 4031.00  105.09
   1   0   0 3930.31  104.99
   1   0   0 4211.28  105.39
   1   0   0 4213.08  104.69
   1   0   0 4320.57  105.59
   1   0   0 4031.70  105.19
  -2   0   0  249.38    6.30
  -2   0   0  237.08    6.60
  -2   0   0  231.18    6.50
  -2   0   0  244.98    6.50
  -2   0   0  237.28    6.40
  -2   0   0  235.28    6.50
   2   0   0  246.78    6.30
   2   0   0  223.08    6.40
   2   0   0  235.18    6.40
   2   0   0  242.28    6.40
   2   0   0  233.48    6.50
  -3   0   0  152.98    4.40
  -3   0   0  155.48    4.50
  -3   0   0  143.39    4.70
  -3   0   0  154.28    4.60
  -3   0   0  155.98    4.20
  -3   0   0  157.08    4.50
   3   0   0  147.29    4.50
   3   0   0  143.69    4.40
   3   0   0  150.28    4.40
   3   0   0  156.48    4.60
  -4   0   0  123.49    4.30
  -4   0   0  126.39    3.60
  -4   0   0  119.19    4.00
  -4   0   0  127.09    3.90
  -4   0   0  126.19    4.00
   4   0   0  128.89    4.10
   4   0   0  123.99    3.90
   4   0   0  122.09    4.00
   4   0   0  121.99    4.10
   4   0   0  121.09    3.90
  -5   0   0  273.47    7.30
  -5   0   0  262.47    7.70
  -5   0   0  270.07    7.90
   5   0   0  255.77    7.80
   5   0   0  261.07    7.70
   5   0   0  262.37    7.70
   5   0   0  271.77    7.90
   5   0   0  262.87    7.90
  -6   0   0  417.86   11.90
  -6   0   0  409.16   11.70
  -6   0   0  413.66   11.00
   6   0   0  413.26   11.80
   6   0   0  421.46   11.90
   6   0   0  405.06   12.00
   6   0   0  414.76   11.70
  -7   0   0    1.30    1.00
  -7   0   0    1.00    0.70
   7   0   0   -0.50    0.90
   7   0   0    1.50    0.80
   7   0   0    1.40    0.80
   7   0   0    1.10    1.00
  -8   0   0   43.50    2.90
  -8   0   0   40.40    2.40
   8   0   0   41.40    2.70
   8   0   0   42.80    2.60
   8   0   0   37.90    2.80
   8   0   0   43.80    2.90
  -9   0   0   -1.40    1.20
   9   0   0    0.20    0.80
   9   0   0   -1.60    1.00
   9   0   0   -0.70    1.20
   9   0   0   -1.30    1.10
 -10   0   0   -2.30    1.30
  10   0   0    1.00    1.60
  10   0   0   -1.80    1.30
  10   0   0   -1.10    1.20
  11  -1   0    0.40    1.50
  11  -1   0    4.10    2.00
  11  -1   0    2.20    1.50
 -11   1   0   -0.50    1.40
  10  -1   0    0.20    1.30
  10  -1   0    0.00    1.70
  10  -1   0    0.40    1.40
 -10   1   0    0.80    1.40
   9  -1   0    0.10    1.40
   9  -1   0    0.60    1.20
   9  -1   0    0.20    1.00
   9  -1   0    0.20    0.80
  -9   1   0    1.30    1.30
   8  -1   0   49.00    3.00
   8  -1   0   48.90    2.60
   8  -1   0   50.39    2.80
   8  -1   0   49.50    3.10
  -8   1   0   51.79    2.60
  -8   1   0   50.19    3.00
   7  -1   0   18.80    1.50
   7  -1   0   18.60    1.80
   7  -1   0   18.40    1.90
   7  -1   0   22.20    2.20
  -7   1   0   18.20    1.90
  -7   1   0   19.00    1.60
   6  -1   0    4.00    1.10
   6  -1   0    3.40    0.80
   6  -1   0    3.30    0.90
   6  -1   0    3.90    0.90
   6  -1   0    4.00    1.00
  -6   1   0    3.20    1.00
  -6   1   0    3.60    0.70
  -6   1   0    5.40    1.10
  -6   1   0    3.40    1.20
  -6   1   0    4.30    1.00
   5  -1   0   49.99    2.20
   5  -1   0   56.79    2.20
   5  -1   0   55.39    2.30
   5  -1   0   50.19    2.30
  -5   1   0   53.39    2.30
  -5   1   0   50.69    2.40
  -5   1   0   50.49    2.70
  -5   1   0   56.49    1.90
  -5   1   0   51.69    2.50
   4  -1   0    6.90    0.80
   4  -1   0    8.40    0.90
   4  -1   0    5.60    0.90
   4  -1   0    8.00    0.80
  -4   1   0    6.40    0.90
  -4   1   0    8.70    1.00
  -4   1   0    5.70    1.00
  -4   1   0    8.40    0.90
  -4   1   0    8.50    0.80
  -4   1   0    7.90    0.70
   3  -1   0  223.18    6.20
   3  -1   0  218.38    6.30
   3  -1   0  236.78    5.80
   3  -1   0  229.18    6.30
   3  -1   0  223.28    6.20
  -3   1   0  228.38    6.40
  -3   1   0  216.88    6.60
  -3   1   0  223.58    6.30
  -3   1   0  223.38    6.40
  -3   1   0  222.68    6.20
   2  -1   0  208.28    5.90
   2  -1   0  208.38    5.90
   2  -1   0  219.38    5.80
   2  -1   0  220.38    5.90
   2  -1   0  216.08    5.80
  -2   1   0  221.08    6.00
  -2   1   0  216.28    5.80
  -2   1   0  214.98    6.10
  -2   1   0  212.68    5.80
   1  -1   0 2056.69   51.29
   1  -1   0 1991.80   51.19
   1  -1   0 1959.80   51.29
   1  -1   0 2084.09   50.89
   1  -1   0 1949.10   51.19
   1  -1   0 1990.60   51.09
   1  -1   0 1974.00   51.39
   1  -1   0 1943.91   50.49
  -1   1   0 1969.60   51.59
  -1   1   0 1869.01   51.19
  -1   1   0 1961.80   50.79
  -1   1   0 2041.90   50.69
  -1   1   0 1917.61   50.79
  -1   1   0 1965.20   51.09
   0  -1   0 1878.51   45.30
   0  -1   0 1662.83   45.00
   0  -1   0 1826.42   45.20
   0  -1   0 1755.02   45.40
   0   1   0 1870.91   45.20
   0   1   0 1916.31   45.80
   0   1   0 1627.44   45.00
   0   1   0 1508.25   44.80
  -1  -1   0    0.10    0.20
  -1  -1   0    0.00    0.30
  -1  -1   0   -0.10    0.20
  -1  -1   0   -0.20    0.30
  -1  -1   0   -0.50    0.30
  -1  -1   0    0.20    0.20
  -1  -1   0   -0.20    0.20
  -1  -1   0   -0.10    0.20
   1   1   0   -0.20    0.30
   1   1   0    0.00    0.20
   1   1   0   -0.10    0.30
   1   1   0    0.00    0.20
   1   1   0    0.00    0.20
   1   1   0    0.10    0.20
   1   1   0    0.00    0.30
   1   1   0   -0.20    0.20
  -2  -1   0  922.71   23.90
  -2  -1   0  943.31   23.80
  -2  -1   0  907.21   23.90
  -2  -1   0  905.11   24.00
   2   1   0  903.91   23.90
   2   1   0  908.61   23.90
   2   1   0  937.71   24.00
   2   1   0  957.10   23.80
   2   1   0  949.90   24.00
   2   1   0  930.21   23.80
  -3  -1   0   15.70    0.90
  -3  -1   0   14.90    1.10
  -3  -1   0   16.30    1.10
  -3  -1   0   17.10    1.00
   3   1   0   15.00    1.20
   3   1   0   15.60    1.00
   3   1   0   15.10    1.00
   3   1   0   16.60    0.90
   3   1   0   16.40    1.00
  -4  -1   0   36.20    1.80
  -4  -1   0   34.90    1.80
  -4  -1   0   40.10    1.50
  -4  -1   0   38.00    1.70
   4   1   0   35.90    1.70
   4   1   0   34.80    1.60
   4   1   0   35.90    1.80
   4   1   0   38.30    2.00
   4   1   0   36.30    1.80
  -5  -1   0   55.09    2.50
  -5  -1   0   56.69    2.10
  -5  -1   0   57.29    2.50
   5   1   0   51.69    2.40
   5   1   0   51.69    2.30
   5   1   0   54.09    2.30
   5   1   0   57.39    2.70
   5   1   0   52.59    2.50
  -6  -1   0   23.50    1.30
  -6  -1   0   25.00    1.90
  -6  -1   0   23.80    1.90
   6   1   0   23.50    1.90
   6   1   0   24.30    1.90
   6   1   0   23.60    1.70
   6   1   0   23.50    1.70
  -7  -1   0   87.59    3.80
  -7  -1   0   95.59    4.00
   7   1   0   94.79    3.80
   7   1   0   92.29    4.00
   7   1   0   84.19    3.90
   7   1   0   86.59    3.70
  -8  -1   0    2.20    0.80
  -8  -1   0   -2.20    0.90
   8   1   0   -1.00    0.80
   8   1   0    0.40    1.20
   8   1   0   -0.60    1.00
   8   1   0    0.80    0.90
  -9  -1   0   -0.50    1.10
  -9  -1   0    1.00    1.50
   9   1   0    1.10    1.10
   9   1   0    1.30    1.20
   9   1   0    0.40    1.10
   9   1   0   -0.90    1.30
 -10  -1   0    1.10    1.50
 -10  -1   0   -1.60    1.60
  10   1   0    1.20    1.20
  10   1   0   -0.60    1.50
  10   1   0    0.40    1.50
  11  -2   0    1.00    1.60
  11  -2   0   -0.50    1.60
  11  -2   0    1.40    1.80
 -11   2   0    1.00    1.70
  10  -2   0    0.00    1.10
  10  -2   0   -0.10    1.40
  10  -2   0   -0.20    1.50
 -10   2   0    0.10    1.40
   9  -2   0    4.80    1.10
   9  -2   0    2.50    1.40
   9  -2   0    5.90    1.80
   9  -2   0    7.90    1.60
  -9   2   0    4.70    1.60
   8  -2   0   44.30    2.70
   8  -2   0   40.50    2.70
   8  -2   0   41.90    2.90
   8  -2   0   37.40    2.20
  -8   2   0   38.60    3.30
  -8   2   0   32.90    2.50
   7  -2   0   33.90    2.30
   7  -2   0   30.00    1.80
   7  -2   0   24.60    1.90
  -7   2   0   28.60    1.80
  -7   2   0   20.50    2.10
  -7   2   0   28.30    2.10
  -7   2   0   26.80    2.50
   6  -2   0  284.47    8.10
   6  -2   0  257.67    8.20
   6  -2   0  285.57    8.40
   6  -2   0  276.67    8.00
  -6   2   0  279.77    8.50
  -6   2   0  277.17    7.70
  -6   2   0  268.77    9.00
  -6   2   0  278.07    8.10
  -6   2   0  273.47    8.50
   5  -2   0    1.80    0.50
   5  -2   0    1.60    0.60
   5  -2   0    3.10    0.80
   5  -2   0    2.50    0.30
   5  -2   0    2.20    0.60
  -5   2   0    2.90    0.80
  -5   2   0    1.90    0.80
  -5   2   0    2.20    1.10
  -5   2   0    1.40    0.70
  -5   2   0    3.10    0.60
   4  -2   0   23.00    1.30
   4  -2   0   22.90    1.20
   4  -2   0   23.10    0.90
   4  -2   0   21.60    1.10
   4  -2   0   21.00    1.30
  -4   2   0   21.70    1.10
  -4   2   0   22.10    1.40
  -4   2   0   22.50    1.70
  -4   2   0   24.40    1.40
  -4   2   0   24.40    1.40
   3  -2   0 1223.88   31.30
   3  -2   0 1224.18   31.70
   3  -2   0 1280.17   31.60
   3  -2   0 1241.68   31.60
  -3   2   0 1179.28   31.70
  -3   2   0 1211.18   31.90
  -3   2   0 1198.28   31.50
   2  -2   0 1174.08   29.60
   2  -2   0 1187.78   29.80
   2  -2   0 1148.99   29.90
   2  -2   0 1163.28   29.70
   2  -2   0 1141.69   29.80
  -2   2   0 1160.78   30.00
  -2   2   0 1155.78   29.60
  -2   2   0 1141.29   29.80
  -2   2   0 1147.99   29.90
  -2   2   0 1179.88   29.90
   1  -2   0 2816.92   72.19
   1  -2   0 2919.81   71.59
   1  -2   0 2794.82   72.09
   1  -2   0 2719.03   71.79
  -1   2   0 2773.62   72.49
  -1   2   0 2646.14   71.59
  -1   2   0 2878.21   72.09
  -1   2   0 2809.32   71.99
  -1   2   0 2820.92   71.79
  -1   2   0 2809.32   72.49
   0  -2   0    9.60    0.60
   0  -2   0   10.20    0.70
   0  -2   0    9.10    0.70
   0  -2   0   10.50    0.50
   0  -2   0    9.00    0.60
   0   2   0   11.40    0.60
   0   2   0    8.60    0.70
   0   2   0    9.90    0.80
   0   2   0    9.70    0.60
  -1  -2   0  130.79    3.60
  -1  -2   0  133.29    3.40
  -1  -2   0  126.49    3.60
  -1  -2   0  128.19    3.70
  -1  -2   0  129.59    3.60
   1   2   0  126.79    3.80
   1   2   0  125.19    3.40
   1   2   0  117.39    3.60
   1   2   0  121.39    3.70
   1   2   0  124.79    3.70
  -2  -2   0  234.08    6.60
  -2  -2   0  234.18    6.90
  -2  -2   0  253.67    6.70
  -2  -2   0  242.28    6.70
  -2  -2   0  242.58    6.70
   2   2   0  234.18    6.40
   2   2   0  239.28    6.70
   2   2   0  232.28    6.80
   2   2   0  246.58    6.90
   2   2   0  237.58    6.70
  -3  -2   0  346.77    9.60
  -3  -2   0  351.66    9.50
  -3  -2   0  341.07    9.80
  -3  -2   0  356.76    9.70
  -3  -2   0  352.26    9.70
   3   2   0  362.76    9.90
   3   2   0  344.27    9.70
   3   2   0  351.06    9.80
   3   2   0  342.47    9.40
   3   2   0  345.27    9.70
  -4  -2   0    0.10    0.60
  -4  -2   0    0.30    0.60
  -4  -2   0   -0.70    0.50
  -4  -2   0   -0.10    0.40
   4   2   0    0.90    0.50
   4   2   0    0.20    0.50
   4   2   0    0.20    0.50
   4   2   0    0.30    0.50
   4   2   0    0.80    0.70
   4   2   0    0.60    0.80
  -5  -2   0   96.19    3.80
  -5  -2   0   98.29    3.70
  -5  -2   0  101.99    3.30
  -5  -2   0   96.19    3.70
   5   2   0  102.49    3.50
   5   2   0   97.99    3.80
   5   2   0   96.59    3.80
   5   2   0   96.59    3.70
   5   2   0   98.29    3.70
  -6  -2   0    9.50    1.00
  -6  -2   0    9.40    1.30
  -6  -2   0    7.50    1.30
  -6  -2   0    6.20    1.20
   6   2   0    5.60    1.00
   6   2   0    6.40    1.20
   6   2   0    4.10    1.00
   6   2   0    8.10    1.40
   6   2   0    6.30    1.10
  -7  -2   0   85.39    3.90
  -7  -2   0   89.49    3.90
  -7  -2   0   83.89    3.80
   7   2   0   83.69    3.60
   7   2   0   85.89    3.80
   7   2   0   87.69    4.10
   7   2   0   89.59    4.00
   7   2   0   87.29    4.10
  -8  -2   0    9.90    1.80
  -8  -2   0   15.60    2.00
   8   2   0   11.70    1.70
   8   2   0   10.30    1.70
   8   2   0    9.00    1.90
   8   2   0   12.40    1.70
  -9  -2   0   13.90    2.20
  -9  -2   0   10.20    2.10
   9   2   0   11.20    1.90
   9   2   0   13.40    1.90
   9   2   0    8.80    2.00
 -10  -2   0    0.00    1.50
 -10  -2   0    1.70    1.40
  10   2   0    0.00    1.50
  10   2   0   -1.50    1.00
  11  -3   0    1.50    1.70
  11  -3   0    0.00    1.70
  11  -3   0    0.40    1.30
 -11   3   0    1.50    1.80
  10  -3   0   -1.30    1.20
  10  -3   0    0.20    1.40
  10  -3   0   -1.30    1.30
 -10   3   0   -0.90    1.40
   9  -3   0   43.20    2.90
   9  -3   0   43.60    3.10
   9  -3   0   40.30    3.20
   9  -3   0   39.90    2.40
  -9   3   0   42.30    3.10
  -9   3   0   40.80    3.80
   8  -3   0   18.90    1.70
   8  -3   0   17.40    2.00
   8  -3   0   21.20    2.10
  -8   3   0   16.70    2.10
  -8   3   0   19.70    2.30
  -8   3   0   17.40    2.40
   7  -3   0    8.70    1.10
   7  -3   0    7.80    1.30
   7  -3   0    7.90    1.40
  -7   3   0    9.40    1.60
  -7   3   0    6.80    1.60
  -7   3   0    7.90    1.20
  -7   3   0    6.20    1.30
   6  -3   0   39.60    2.40
   6  -3   0   45.20    2.20
   6  -3   0   41.20    2.20
   6  -3   0   41.60    1.90
   6  -3   0   43.20    1.50
  -6   3   0   43.80    2.50
  -6   3   0   44.80    2.50
  -6   3   0   40.20    2.90
  -6   3   0   42.00    2.20
   5  -3   0    4.60    0.60
   5  -3   0    4.30    0.60
   5  -3   0    4.00    0.80
   5  -3   0    3.90    0.80
   5  -3   0    5.30    1.00
  -5   3   0    4.60    0.90
  -5   3   0    4.40    1.20
  -5   3   0    4.00    0.90
  -5   3   0    5.20    1.10
   4  -3   0  163.38    4.70
   4  -3   0  161.78    5.10
   4  -3   0  156.18    5.20
   4  -3   0  166.48    4.70
   4  -3   0  173.28    4.90
   4  -3   0  166.38    5.00
  -4   3   0  160.28    4.90
  -4   3   0  167.68    5.60
  -4   3   0  162.28    5.20
   3  -3   0  613.24   15.50
   3  -3   0  608.64   15.70
   3  -3   0  589.44   15.80
   3  -3   0  583.54   15.30
   3  -3   0  587.14   15.60
  -3   3   0  589.04   15.60
  -3   3   0  590.54   15.40
  -3   3   0  575.94   15.80
  -3   3   0  591.04   16.00
  -3   3   0  561.34   15.80
   2  -3   0  366.06    9.60
   2  -3   0  363.06    9.60
   2  -3   0  360.96    9.80
  -2   3   0  358.46    9.90
  -2   3   0  358.66    9.50
  -2   3   0  351.06    9.80
  -2   3   0  365.66   10.00
   1  -3   0  109.49    3.20
   1  -3   0  109.39    3.10
   1  -3   0  108.19    3.50
   1  -3   0  108.79    3.00
   1  -3   0  115.19    3.40
  -1   3   0  107.39    3.50
  -1   3   0  112.79    3.20
  -1   3   0  110.29    3.40
  -1   3   0  111.39    3.10
  -1   3   0  109.59    3.10
  -1   3   0  110.99    3.50
   0  -3   0   54.49    1.70
   0  -3   0   53.79    1.50
   0  -3   0   54.99    1.80
   0  -3   0   52.59    1.90
   0  -3   0   54.59    1.90
   0   3   0   49.20    1.70
   0   3   0   52.89    2.10
   0   3   0   52.09    2.00
  -1  -3   0  600.74   15.80
  -1  -3   0  602.54   15.90
  -1  -3   0  636.54   15.50
  -1  -3   0  621.84   15.90
  -1  -3   0  611.54   16.10
   1   3   0  586.54   16.10
   1   3   0  591.44   15.80
   1   3   0  590.44   16.20
   1   3   0  598.54   15.90
  -2  -3   0   46.40    1.90
  -2  -3   0   45.10    1.90
  -2  -3   0   49.90    1.90
   2   3   0   49.99    2.10
   2   3   0   46.90    1.90
   2   3   0   52.29    2.30
   2   3   0   45.80    1.90
   2   3   0   49.00    1.60
  -3  -3   0    8.70    1.00
  -3  -3   0    8.50    0.90
  -3  -3   0    9.80    0.90
   3   3   0    8.50    1.20
   3   3   0    9.30    1.00
   3   3   0    8.20    1.00
   3   3   0    9.50    0.70
   3   3   0   10.00    1.10
  -4  -3   0   14.80    1.40
  -4  -3   0   16.90    1.70
  -4  -3   0   16.30    1.30
  -4  -3   0   15.20    1.20
   4   3   0   15.10    1.50
   4   3   0   15.00    1.10
   4   3   0   15.60    1.30
   4   3   0   15.50    1.40
  -5  -3   0   32.70    1.80
  -5  -3   0   36.80    2.10
  -5  -3   0   29.90    2.00
  -5  -3   0   34.30    2.20
   5   3   0   36.60    2.20
   5   3   0   35.60    1.80
   5   3   0   35.40    2.00
   5   3   0   35.40    2.20
  -6  -3   0    0.30    0.90
  -6  -3   0    1.10    0.60
  -6  -3   0    1.30    1.00
   6   3   0    0.30    0.90
   6   3   0   -0.70    0.70
   6   3   0    0.00    0.90
   6   3   0    0.60    0.70
  -7  -3   0    0.50    1.00
  -7  -3   0    0.20    1.10
   7   3   0    1.10    0.90
   7   3   0    0.80    0.90
   7   3   0   -0.60    1.10
   7   3   0    1.30    1.00
  -8  -3   0    3.40    1.30
  -8  -3   0    4.90    1.50
   8   3   0    4.00    1.20
   8   3   0    4.40    1.50
   8   3   0    5.30    1.70
   8   3   0    3.10    1.30
  -9  -3   0    3.00    1.60
  -9  -3   0    1.50    1.50
   9   3   0    0.40    1.30
   9   3   0   -0.20    1.40
   9   3   0    1.20    1.30
 -10  -3   0    0.80    1.50
 -10  -3   0    3.90    1.60
 -10  -3   0   -0.70    1.40
  10   3   0    1.30    1.60
  10   3   0   -0.60    1.10
  10  -4   0    4.30    1.60
  10  -4   0    2.60    1.70
  10  -4   0   -0.30    1.50
 -10   4   0    3.40    2.00
 -10   4   0    5.40    2.00
   9  -4   0    0.10    1.40
   9  -4   0    0.40    1.20
  -9   4   0   -1.10    1.40
  -9   4   0   -0.90    1.30
  -9   4   0    1.10    1.40
   8  -4   0    9.40    1.50
   8  -4   0    8.70    1.10
   8  -4   0    9.10    1.60
  -8   4   0    7.80    1.60
  -8   4   0    9.20    1.70
  -8   4   0    7.30    1.90
   7  -4   0  108.79    3.80
   7  -4   0  118.29    4.40
   7  -4   0  115.39    4.50
   7  -4   0  113.89    4.10
  -7   4   0  110.19    4.60
  -7   4   0  102.79    5.10
  -7   4   0  115.29    4.80
  -7   4   0  114.09    4.20
   6  -4   0   -1.10    0.50
   6  -4   0    0.60    0.80
   6  -4   0    0.00    0.40
   6  -4   0    0.30    0.60
   6  -4   0    0.20    0.40
  -6   4   0    0.70    0.90
  -6   4   0   -0.50    1.10
  -6   4   0    0.70    0.90
  -6   4   0   -0.60    0.70
   5  -4   0   41.10    2.00
   5  -4   0   44.10    1.90
   5  -4   0   43.50    1.80
   5  -4   0   41.40    1.70
   5  -4   0   39.30    2.20
   5  -4   0   40.40    2.30
  -5   4   0   42.10    2.10
  -5   4   0   44.10    2.30
  -5   4   0   39.20    2.70
   4  -4   0    2.00    0.60
   4  -4   0    0.50    0.60
   4  -4   0    0.50    0.70
   4  -4   0    1.30    0.50
   4  -4   0    1.90    0.40
  -4   4   0    2.30    0.80
  -4   4   0    1.80    0.60
  -4   4   0    0.40    0.90
  -4   4   0    1.30    0.80
   3  -4   0  131.39    4.20
   3  -4   0  126.19    4.20
   3  -4   0  129.19    3.90
   3  -4   0  129.29    3.80
  -3   4   0  124.69    4.20
  -3   4   0  124.89    3.70
  -3   4   0  130.89    4.50
  -3   4   0  128.09    4.40
   2  -4   0  108.89    3.20
   2  -4   0  105.59    3.10
   2  -4   0  105.29    3.00
  -2   4   0  104.29    3.50
  -2   4   0  102.09    3.10
  -2   4   0  109.69    3.70
  -2   4   0  105.79    3.70
   1  -4   0   19.90    0.90
   1  -4   0   21.00    1.30
   1  -4   0   21.30    0.80
   1  -4   0   21.60    1.30
  -1   4   0   20.30    0.90
  -1   4   0   21.30    1.30
  -1   4   0   21.30    1.40
  -1   4   0   22.40    1.40
   0  -4   0  628.84   17.50
   0  -4   0  669.53   17.10
   0  -4   0  648.54   17.30
   0  -4   0  682.43   16.70
   0  -4   0  646.34   17.30
   0  -4   0  651.33   17.10
   0   4   0  647.34   17.60
   0   4   0  648.34   17.10
   0   4   0  664.63   17.50
  -1  -4   0  997.40   26.00
  -1  -4   0 1042.20   25.50
  -1  -4   0 1029.50   26.10
  -1  -4   0 1001.40   26.20
  -1  -4   0 1005.30   26.40
   1   4   0  971.70   26.20
   1   4   0 1001.10   26.50
   1   4   0  978.40   26.00
   1   4   0  994.80   26.50
  -2  -4   0   38.40    1.90
  -2  -4   0   38.30    1.70
  -2  -4   0   38.00    1.80
   2   4   0   37.50    1.90
   2   4   0   39.50    1.70
   2   4   0   38.10    1.80
  -3  -4   0   31.60    1.70
  -3  -4   0   28.90    1.70
  -3  -4   0   28.80    1.70
   3   4   0   31.80    1.90
   3   4   0   28.40    1.70
   3   4   0   33.30    1.70
   3   4   0   31.40    1.30
  -4  -4   0   77.59    3.10
  -4  -4   0   72.89    3.10
  -4  -4   0   70.99    3.00
   4   4   0   72.39    3.10
   4   4   0   73.49    3.30
   4   4   0   75.69    3.10
   4   4   0   75.89    2.70
  -5  -4   0   99.19    3.80
  -5  -4   0  101.49    4.00
  -5  -4   0  108.69    4.10
   5   4   0  100.39    3.60
   5   4   0  106.49    4.10
   5   4   0  104.39    4.10
   5   4   0  100.39    4.30
  -6  -4   0    5.10    1.20
  -6  -4   0    4.70    1.00
  -6  -4   0    3.60    1.10
   6   4   0    5.10    1.20
   6   4   0    6.60    1.50
   6   4   0    3.90    1.20
   6   4   0    3.40    0.90
  -7  -4   0    1.70    1.10
  -7  -4   0    0.70    1.10
   7   4   0    1.40    1.10
   7   4   0    2.10    1.30
   7   4   0    0.50    0.80
   7   4   0    1.40    1.00
  -8  -4   0    0.50    1.30
  -8  -4   0    1.20    1.20
  -8  -4   0   -0.50    1.10
   8   4   0    3.90    1.60
   8   4   0    0.00    1.10
   8   4   0    0.00    0.90
  -9  -4   0    8.70    2.00
  -9  -4   0    8.40    2.00
  -9  -4   0   11.20    2.10
   9   4   0    7.70    1.60
   9   4   0    7.70    1.80
   9   4   0   11.20    2.30
  10  -5   0    0.40    1.30
  10  -5   0   -2.00    1.40
 -10   5   0    0.40    1.60
 -10   5   0    1.50    1.80
 -10   5   0   -2.60    1.30
   9  -5   0    0.00    1.30
   9  -5   0    1.50    1.30
  -9   5   0   -0.20    1.60
  -9   5   0    0.70    1.50
  -9   5   0    0.20    1.30
   8  -5   0   -1.20    0.90
   8  -5   0   -2.60    0.80
  -8   5   0   -0.70    1.00
  -8   5   0   -1.90    1.50
  -8   5   0    0.50    1.20
   7  -5   0   23.40    1.40
   7  -5   0   25.80    2.30
   7  -5   0   24.90    1.90
  -7   5   0   18.30    2.50
  -7   5   0   24.30    2.40
  -7   5   0   24.30    2.40
   6  -5   0    4.00    1.10
   6  -5   0    4.10    0.90
   6  -5   0    4.20    0.70
   6  -5   0    3.60    0.60
   6  -5   0    3.60    1.20
   6  -5   0    3.60    0.80
  -6   5   0    4.20    1.20
  -6   5   0    3.10    1.40
  -6   5   0    3.50    1.00
  -6   5   0    2.40    1.00
   5  -5   0    7.60    1.20
   5  -5   0    7.90    1.00
   5  -5   0    7.70    1.20
   5  -5   0    8.50    1.00
   5  -5   0   10.40    1.00
   5  -5   0    7.90    0.80
  -5   5   0    7.90    1.50
  -5   5   0    7.10    1.30
  -5   5   0    7.40    1.30
  -5   5   0    7.20    1.10
   4  -5   0   16.10    1.20
   4  -5   0   16.40    0.90
   4  -5   0   15.50    1.50
   4  -5   0   17.50    1.10
   4  -5   0   15.20    1.50
  -4   5   0   16.30    1.70
  -4   5   0   16.10    1.40
  -4   5   0   18.00    1.00
  -4   5   0   16.90    1.70
  -4   5   0   16.10    1.60
   3  -5   0  248.28    6.90
   3  -5   0  254.67    6.90
   3  -5   0  241.78    7.40
  -3   5   0  241.98    7.40
  -3   5   0  244.78    6.80
  -3   5   0  243.88    7.60
  -3   5   0  237.38    7.50
   2  -5   0   11.00    0.70
   2  -5   0   10.50    1.10
   2  -5   0   11.40    0.70
  -2   5   0    9.60    1.20
  -2   5   0   10.30    1.10
  -2   5   0    8.30    1.10
  -2   5   0   12.00    0.80
   1  -5   0   11.70    1.10
   1  -5   0   12.70    0.60
   1  -5   0   12.80    0.80
   1  -5   0   13.00    1.20
   1  -5   0   13.30    1.10
  -1   5   0   14.10    1.20
  -1   5   0   13.90    1.20
  -1   5   0   13.00    1.30
  -1   5   0   15.00    0.90
   0  -5   0  133.09    4.00
   0  -5   0  131.69    3.40
   0  -5   0  139.99    3.40
   0  -5   0  129.59    4.30
   0  -5   0  135.29    4.00
   0  -5   0  127.29    4.50
   0  -5   0  131.99    4.30
   0   5   0  126.49    4.00
   0   5   0  127.69    4.50
   0   5   0  127.19    4.40
  -1  -5   0   46.00    2.10
  -1  -5   0   44.10    2.20
  -1  -5   0   44.70    1.80
  -1  -5   0   46.10    1.30
  -1  -5   0   47.00    1.90
   1   5   0   46.10    1.90
   1   5   0   40.90    2.10
   1   5   0   43.20    2.10
   1   5   0   45.00    2.30
  -2  -5   0   51.29    2.20
  -2  -5   0   51.39    2.50
  -2  -5   0   55.49    2.40
   2   5   0   57.39    2.30
   2   5   0   53.09    2.60
   2   5   0   53.69    2.40
  -3  -5   0    9.20    1.20
  -3  -5   0   10.10    1.40
  -3  -5   0    8.60    1.20
   3   5   0    9.50    1.30
   3   5   0    9.50    1.20
   3   5   0    9.80    1.30
  -4  -5   0    4.90    1.10
  -4  -5   0    6.00    1.20
  -4  -5   0    7.60    1.30
   4   5   0    6.80    0.80
   4   5   0    5.40    1.10
   4   5   0    3.80    1.10
   4   5   0    6.30    1.20
  -5  -5   0   17.60    1.60
  -5  -5   0   18.90    2.00
  -5  -5   0   17.40    1.80
   5   5   0   17.90    2.00
   5   5   0   11.70    1.70
   5   5   0   18.50    1.80
   5   5   0   19.60    1.30
  -6  -5   0   13.50    1.70
  -6  -5   0   10.20    1.60
  -6  -5   0    9.60    1.60
  -6  -5   0    9.00    1.70
   6   5   0   10.30    1.80
   6   5   0    7.30    1.40
   6   5   0    9.80    1.20
   6   5   0    8.20    1.60
  -7  -5   0    9.50    1.70
  -7  -5   0    5.50    1.50
  -7  -5   0    3.50    1.50
   7   5   0    7.00    1.80
   7   5   0    6.80    1.20
   7   5   0    5.20    1.40
  -8  -5   0   -1.20    1.20
  -8  -5   0    0.30    1.30
  -8  -5   0   -0.60    1.20
   8   5   0   -0.50    1.40
   8   5   0   -0.60    1.10
  -9  -5   0    1.30    1.40
  -9  -5   0   -0.20    1.20
  -9  -5   0    1.70    1.60
   9   5   0    1.70    1.50
   9   5   0    2.90    1.70
  10  -6   0   -1.20    1.20
  10  -6   0    1.60    1.60
 -10   6   0    0.40    1.60
 -10   6   0   -1.00    1.70
 -10   6   0   -0.50    1.80
   9  -6   0    9.50    1.90
   9  -6   0    9.40    2.00
  -9   6   0   10.70    2.20
  -9   6   0    8.40    2.40
  -9   6   0    8.50    2.10
   8  -6   0   15.50    1.90
   8  -6   0   16.20    2.30
  -8   6   0   13.60    2.50
  -8   6   0   16.90    2.30
  -8   6   0   16.40    2.40
   7  -6   0    0.80    0.90
   7  -6   0    0.40    0.90
  -7   6   0    2.00    1.30
  -7   6   0    0.30    1.40
  -7   6   0    0.90    1.00
   6  -6   0   11.90    1.70
   6  -6   0    8.80    1.40
   6  -6   0   10.60    1.40
   6  -6   0   10.10    1.20
   6  -6   0   13.30    1.50
  -6   6   0   13.70    2.20
  -6   6   0   14.60    1.60
  -6   6   0   11.20    1.60
   5  -6   0    1.40    0.40
   5  -6   0    1.70    0.90
   5  -6   0    1.70    0.60
   5  -6   0    1.60    0.90
   5  -6   0    2.00    0.60
  -5   6   0    0.50    1.00
  -5   6   0    0.40    0.90
  -5   6   0    1.30    0.80
  -5   6   0    2.20    1.30
   4  -6   0  105.99    3.60
   4  -6   0  106.49    3.50
   4  -6   0  101.59    4.00
   4  -6   0  110.89    3.20
   4  -6   0  104.79    3.20
   4  -6   0  107.19    4.10
  -4   6   0  103.29    4.50
  -4   6   0  108.39    4.20
  -4   6   0  102.39    4.30
  -4   6   0  102.79    3.30
   3  -6   0  611.74   16.80
   3  -6   0  639.34   16.90
   3  -6   0  620.34   17.50
   3  -6   0  654.33   16.60
  -3   6   0  643.74   16.70
  -3   6   0  646.74   17.90
  -3   6   0  621.84   17.50
  -3   6   0  643.24   17.80
   2  -6   0  189.88    5.30
   2  -6   0  189.18    6.10
   2  -6   0  195.38    5.50
  -2   6   0  193.28    6.50
  -2   6   0  189.28    6.10
  -2   6   0  194.38    5.50
  -2   6   0  194.68    6.40
   1  -6   0    2.90    0.50
   1  -6   0    1.90    0.80
   1  -6   0    3.30    0.30
  -1   6   0    3.20    0.60
  -1   6   0    3.00    0.90
  -1   6   0    1.80    0.80
  -1   6   0    1.00    0.70
   0  -6   0  431.46   12.70
   0  -6   0  431.66   12.40
   0  -6   0  458.25   12.00
   0  -6   0  420.76   12.30
   0  -6   0  446.46   11.90
   0   6   0  436.66   12.70
   0   6   0  442.26   12.00
   0   6   0  440.46   12.60
  -1  -6   0   45.20    2.20
  -1  -6   0   42.70    2.20
  -1  -6   0   42.30    2.40
  -1  -6   0   47.60    2.00
   1   6   0   42.00    2.00
   1   6   0   44.80    2.40
   1   6   0   42.50    2.50
  -2  -6   0  150.28    5.00
  -2  -6   0  146.29    5.30
  -2  -6   0  149.88    4.80
  -2  -6   0  143.19    5.00
   2   6   0  143.09    4.80
   2   6   0  135.69    5.30
   2   6   0  156.98    5.10
  -3  -6   0  278.17    8.30
  -3  -6   0  273.57    8.70
  -3  -6   0  270.77    8.30
   3   6   0  259.37    8.80
   3   6   0  289.07    8.50
   3   6   0  265.97    8.30
  -4  -6   0    3.60    1.00
  -4  -6   0    1.80    1.00
  -4  -6   0    2.80    1.10
   4   6   0    3.60    1.10
   4   6   0    3.10    0.90
   4   6   0    2.60    1.00
  -5  -6   0   29.90    2.20
  -5  -6   0   29.00    2.20
  -5  -6   0   31.30    2.20
   5   6   0   27.30    2.40
   5   6   0   31.30    2.40
   5   6   0   26.40    2.10
  -6  -6   0   11.30    1.80
  -6  -6   0    9.00    1.80
  -6  -6   0   12.60    1.80
   6   6   0   11.00    1.90
   6   6   0    9.50    1.60
   6   6   0    6.50    1.60
  -7  -6   0    3.20    1.40
  -7  -6   0    2.90    1.40
   7   6   0    5.40    1.50
   7   6   0    5.00    1.70
  -8  -6   0   11.60    2.10
  -8  -6   0   16.00    2.30
   8   6   0   13.00    2.20
   8   6   0   17.10    2.60
  10  -7   0    1.50    1.40
  10  -7   0    2.40    1.80
 -10   7   0   -0.70    1.80
 -10   7   0   -1.30    1.60
 -10   7   0   -0.30    1.80
   9  -7   0   12.90    2.10
   9  -7   0    8.30    2.00
  -9   7   0   12.90    2.60
  -9   7   0   12.20    2.30
  -9   7   0   15.50    3.00
   8  -7   0   -0.30    1.00
   8  -7   0   -0.40    1.20
  -8   7   0   -0.70    1.70
  -8   7   0    0.00    1.30
  -8   7   0    3.30    1.70
   7  -7   0    2.10    1.30
   7  -7   0    3.50    1.10
   7  -7   0    1.30    1.20
  -7   7   0    2.00    1.30
  -7   7   0   -0.10    1.80
  -7   7   0    2.30    1.30
   6  -7   0    0.60    0.70
   6  -7   0    0.30    1.00
   6  -7   0   -0.20    0.90
   6  -7   0    0.00    0.70
  -6   7   0   -0.40    1.40
  -6   7   0    0.10    1.20
  -6   7   0   -0.30    0.90
  -6   7   0   -1.70    0.90
   5  -7   0    0.10    1.00
   5  -7   0    0.50    0.60
   5  -7   0    0.40    0.90
  -5   7   0    0.30    1.00
  -5   7   0    0.90    0.80
  -5   7   0   -0.30    0.80
  -5   7   0    0.50    1.30
   4  -7   0  110.09    3.40
   4  -7   0  115.99    3.80
   4  -7   0  107.89    4.50
   4  -7   0  117.79    4.50
  -4   7   0  114.49    4.80
  -4   7   0  110.09    3.50
  -4   7   0  116.89    5.00
  -4   7   0  112.49    4.50
   3  -7   0    5.20    1.20
   3  -7   0    4.60    0.70
  -3   7   0    3.30    1.20
  -3   7   0    5.50    1.30
  -3   7   0    5.00    0.70
  -3   7   0    4.20    1.10
   2  -7   0   12.90    0.80
   2  -7   0   11.80    0.70
   2  -7   0    9.50    1.30
  -2   7   0   11.50    1.50
  -2   7   0   13.00    1.00
  -2   7   0   10.70    1.50
  -2   7   0   11.70    1.60
   1  -7   0    2.00    0.80
   1  -7   0    2.60    0.50
  -1   7   0    2.50    0.90
  -1   7   0    2.60    0.60
  -1   7   0    2.10    1.00
  -1   7   0    2.80    1.00
   0  -7   0    5.70    1.00
   0  -7   0    8.10    1.30
   0  -7   0    6.10    1.30
   0  -7   0    8.40    0.90
   0   7   0    7.30    1.20
   0   7   0    4.80    1.30
   0   7   0    8.40    1.00
  -1  -7   0   28.20    1.90
  -1  -7   0   30.90    2.00
  -1  -7   0   30.60    2.30
  -1  -7   0   30.50    1.70
   1   7   0   28.60    2.20
   1   7   0   25.30    2.00
   1   7   0   33.20    1.80
  -2  -7   0   27.70    2.00
  -2  -7   0   28.90    2.00
  -2  -7   0   36.70    1.90
  -2  -7   0   31.40    2.40
   2   7   0   30.50    2.30
   2   7   0   32.10    2.00
   2   7   0   31.60    2.30
  -3  -7   0    1.30    1.00
  -3  -7   0    1.20    1.10
  -3  -7   0    2.10    0.90
   3   7   0    2.80    1.00
   3   7   0    2.40    1.00
   3   7   0    2.10    0.90
  -4  -7   0   24.20    2.50
  -4  -7   0   22.60    2.20
  -4  -7   0   23.70    2.30
   4   7   0   17.00    1.90
   4   7   0   24.50    2.40
   4   7   0   20.50    2.30
  -5  -7   0    4.50    1.30
  -5  -7   0    4.60    1.30
  -5  -7   0    4.80    1.40
   5   7   0    3.10    1.30
   5   7   0    3.80    1.20
   5   7   0    5.40    1.60
  -6  -7   0    1.20    1.20
  -6  -7   0    3.40    1.30
  -6  -7   0    0.20    1.10
   6   7   0    1.60    1.30
   6   7   0    1.20    1.30
  -7  -7   0    3.70    1.60
  -7  -7   0    5.20    1.60
   7   7   0    8.10    1.90
   7   7   0    5.30    1.70
  -8  -7   0    6.60    1.80
  -8  -7   0    4.80    1.80
   8   7   0    4.90    1.90
   8   7   0   11.50    2.30
   9  -8   0   22.10    2.90
   9  -8   0   18.60    2.30
  -9   8   0   18.40    3.40
  -9   8   0   22.10    3.00
  -9   8   0   20.10    3.00
   8  -8   0    0.50    1.30
   8  -8   0   -0.90    0.90
  -8   8   0   -1.30    2.00
  -8   8   0    0.40    1.40
  -8   8   0    4.20    1.80
   7  -8   0    3.10    1.50
   7  -8   0   -0.90    1.20
   7  -8   0    0.40    0.90
  -7   8   0    1.80    1.50
  -7   8   0    1.60    2.00
   6  -8   0    2.20    1.20
   6  -8   0    0.30    0.70
   6  -8   0    1.40    1.20
   6  -8   0    0.30    0.80
  -6   8   0    0.40    1.40
  -6   8   0   -1.40    1.50
  -6   8   0   -1.30    1.10
   5  -8   0    1.00    0.80
   5  -8   0    1.70    0.70
   5  -8   0    0.10    1.00
   5  -8   0    0.10    1.00
  -5   8   0    4.60    1.10
  -5   8   0    2.30    1.20
  -5   8   0   -0.80    1.30
  -5   8   0    0.50    1.30
   4  -8   0    0.60    1.00
   4  -8   0    0.30    0.90
   4  -8   0    0.40    0.50
  -4   8   0    0.90    1.10
  -4   8   0   -2.10    0.90
  -4   8   0    0.20    1.00
   3  -8   0    0.10    0.80
  -3   8   0   -0.30    1.00
  -3   8   0    0.20    1.00
  -3   8   0   -0.50    0.90
  -2   8   0   80.89    3.90
  -2   8   0   74.09    3.90
  -2   8   0   77.59    3.60
  -2   8   0   77.29    2.80
   1  -8   0    1.20    1.00
  -1   8   0    0.60    0.60
  -1   8   0    0.60    0.90
  -1   8   0    0.90    1.00
  -1   8   0   -0.30    0.80
   0  -8   0   30.50    2.20
   0  -8   0   30.70    1.70
   0  -8   0   28.30    2.00
   0   8   0   25.00    2.30
   0   8   0   26.50    2.50
   0   8   0   27.80    1.70
  -1  -8   0    1.20    0.80
  -1  -8   0    0.10    1.00
  -1  -8   0   -0.30    0.60
  -1  -8   0    0.20    0.80
   1   8   0    0.00    1.00
   1   8   0    0.00    0.80
   1   8   0    0.40    0.60
  -2  -8   0   28.40    2.40
  -2  -8   0   30.60    2.30
  -2  -8   0   34.20    2.00
  -2  -8   0   30.20    2.10
   2   8   0   29.90    2.50
   2   8   0   31.10    2.10
   2   8   0   35.20    2.60
  -3  -8   0    0.40    0.80
  -3  -8   0    1.30    1.10
  -3  -8   0    0.70    0.80
  -3  -8   0    2.30    1.10
   3   8   0    1.90    1.10
   3   8   0   -0.10    0.80
   3   8   0    1.20    1.00
  -4  -8   0    1.80    1.00
  -4  -8   0   -0.50    1.00
  -4  -8   0    0.80    1.10
  -4  -8   0    0.00    0.80
   4   8   0    0.00    0.90
   4   8   0    1.40    1.00
   4   8   0    0.80    1.00
  -5  -8   0    5.00    1.50
  -5  -8   0    5.30    1.50
  -5  -8   0    5.30    1.40
   5   8   0    3.00    1.50
   5   8   0    3.50    1.40
  -6  -8   0    1.90    1.20
  -6  -8   0    3.90    1.60
   6   8   0    1.70    1.50
   6   8   0    2.00    1.60
  -7  -8   0    8.70    2.10
  -7  -8   0    7.00    1.80
   7   8   0    5.90    2.00
   7   8   0    2.30    1.70
   8  -9   0    6.10    2.00
  -8   9   0    7.40    2.00
  -8   9   0    7.90    2.20
  -8   9   0    4.80    2.60
   7  -9   0   10.80    2.20
   7  -9   0    6.80    1.80
  -7   9   0    6.50    2.00
  -7   9   0    6.60    2.60
   6  -9   0   13.60    1.80
   6  -9   0   15.10    2.20
   6  -9   0   15.20    2.20
  -6   9   0   18.10    2.50
  -6   9   0   13.10    2.50
  -6   9   0   10.50    2.40
   5  -9   0    6.30    1.60
   5  -9   0    6.40    1.40
   5  -9   0    8.20    1.70
  -5   9   0    2.00    1.70
  -5   9   0    5.70    1.60
  -5   9   0    8.70    2.00
   4  -9   0   11.00    1.70
   4  -9   0   10.90    1.70
  -4   9   0   11.80    1.80
  -4   9   0   10.10    2.00
  -4   9   0   13.00    2.20
   3  -9   0   24.30    2.40
  -3   9   0   22.70    2.60
  -3   9   0   23.60    2.60
  -3   9   0   22.60    2.20
   2  -9   0   48.30    3.00
  -2   9   0   44.90    2.80
  -2   9   0   42.90    3.30
  -2   9   0   41.80    3.10
   1  -9   0    4.60    1.30
  -1   9   0    5.90    1.50
  -1   9   0    5.80    1.40
  -1   9   0    4.70    1.30
   0  -9   0    1.10    1.00
   0  -9   0    2.40    1.00
   0   9   0    1.60    1.10
   0   9   0    1.40    0.80
   0   9   0    1.90    0.90
   0   9   0    0.90    1.10
  -1  -9   0    4.60    1.20
  -1  -9   0    5.20    1.30
   1   9   0    5.70    1.10
   1   9   0    6.80    1.50
   1   9   0    3.80    1.30
  -2  -9   0    2.20    1.20
  -2  -9   0    0.40    0.90
   2   9   0    0.10    0.70
   2   9   0   -0.70    1.00
   2   9   0   -0.80    0.70
  -3  -9   0    1.20    1.20
  -3  -9   0    1.00    0.90
   3   9   0    1.20    1.00
   3   9   0    1.50    1.10
   3   9   0    0.00    1.20
  -4  -9   0    1.10    1.20
  -4  -9   0    3.10    1.20
   4   9   0    2.20    1.20
   4   9   0    2.40    1.40
  -5  -9   0    3.30    1.50
  -5  -9   0    2.80    1.10
  -5  -9   0    3.30    1.40
   5   9   0    5.30    1.70
   5   9   0    5.90    1.60
   5   9   0    3.60    1.60
  -6  -9   0    0.40    1.40
  -6  -9   0    1.30    1.30
   6   9   0   -0.10    1.50
   6   9   0    2.40    1.70
   7 -10   0    5.30    1.70
   7 -10   0    2.10    1.70
  -7  10   0    0.00    2.20
  -7  10   0    1.50    1.70
   6 -10   0    0.70    1.40
   6 -10   0    3.00    1.20
   6 -10   0    3.80    1.70
  -6  10   0    2.50    1.70
  -6  10   0    4.70    2.20
  -6  10   0    2.90    1.80
   5 -10   0    1.20    1.30
   5 -10   0    2.30    1.00
   5 -10   0   -0.50    1.40
  -5  10   0   -2.30    1.50
  -5  10   0    1.30    1.30
  -5  10   0    0.60    1.70
   4 -10   0    5.50    1.70
   4 -10   0    4.00    1.40
  -4  10   0    4.40    1.50
  -4  10   0    1.40    1.50
  -4  10   0    3.80    1.90
   3 -10   0   35.30    2.90
  -3  10   0   24.00    2.90
  -3  10   0   27.40    2.70
  -3  10   0   23.70    2.70
   2 -10   0   24.70    2.50
  -2  10   0   20.30    2.70
  -2  10   0   21.90    2.40
  -2  10   0   18.70    2.30
   1 -10   0   -0.50    0.90
  -1  10   0   -0.40    1.00
  -1  10   0    0.40    1.40
  -1  10   0   -1.40    0.80
   0 -10   0    0.70    1.00
   0  10   0    0.10    1.20
   0  10   0   -0.70    1.10
   0  10   0    0.30    0.90
  -1 -10   0   -0.90    0.90
  -1 -10   0    0.60    1.10
   1  10   0   -1.80    1.00
   1  10   0    1.00    1.30
  -2 -10   0    1.40    1.30
  -2 -10   0   -0.30    1.00
   2  10   0    0.90    1.30
   2  10   0    2.30    1.30
  -3 -10   0    3.00    1.40
  -3 -10   0    3.00    1.40
   3  10   0    4.70    1.60
   3  10   0    1.30    1.50
  -4 -10   0    1.50    1.40
  -4 -10   0    1.00    1.00
  -4 -10   0    0.10    1.20
   4  10   0   -1.40    1.30
   4  10   0   -0.20    1.20
  -5 -10   0    3.80    1.50
  -5 -10   0    6.30    2.10
  -5 -10   0    5.80    1.80
   5  10   0    2.50    1.40
   5  10   0    6.20    2.10
   6 -11   0    1.50    1.70
   6 -11   0   -1.40    1.30
   6 -11   0    0.90    1.10
  -6  11   0   -0.20    1.80
  -6  11   0   -2.60    2.00
  -6  11   0    1.30    1.70
   5 -11   0    2.50    1.70
   5 -11   0    1.40    1.20
   5 -11   0    3.60    1.70
  -5  11   0    4.00    1.80
  -5  11   0    2.10    2.10
  -5  11   0    0.10    2.00
   4 -11   0    3.20    1.50
   4 -11   0    0.10    1.40
   4 -11   0    0.80    1.10
  -4  11   0    0.30    1.30
  -4  11   0   -0.80    1.60
  -4  11   0   -1.80    1.60
   3 -11   0    1.10    1.50
  -3  11   0    2.40    1.80
  -3  11   0    5.20    1.60
  -3  11   0    0.40    1.60
   2 -11   0    5.40    1.70
  -2  11   0    3.30    1.50
  -2  11   0    4.60    1.60
  -2  11   0    5.80    2.00
   1 -11   0    1.60    1.30
  -1  11   0    3.10    1.40
  -1  11   0    5.40    1.90
  -1  11   0    0.70    1.40
   0 -11   0    0.70    1.20
   0  11   0    0.40    1.50
   0  11   0    3.40    1.40
   0  11   0   -0.60    1.40
  -1 -11   0    0.00    1.20
   1  11   0    5.70    1.60
   1  11   0    4.70    1.70
   1  11   0    4.00    1.80
  -2 -11   0   -0.60    1.30
  -2 -11   0    2.00    1.40
   2  11   0    1.40    1.70
   2  11   0    0.10    1.40
  -3 -11   0    0.00    1.00
  -3 -11   0   -0.40    1.20
  -3 -11   0   -0.40    1.20
   3  11   0   -1.00    1.50
   3  11   0   -1.40    1.10
   4 -12   0    1.30    1.10
   4 -12   0    4.10    1.50
   4 -12   0   -1.10    1.30
  -4  12   0   -1.20    1.90
  -4  12   0   -5.10    1.80
  -4  12   0   -0.80    1.30
   3 -12   0    4.00    1.50
   3 -12   0    2.80    1.60
  -3  12   0   -0.80    2.00
  -3  12   0    1.80    1.40
  -3  12   0   -1.30    1.60
   2 -12   0   -1.90    1.10
   2 -12   0   -0.20    1.00
  -2  12   0   -0.80    1.20
  -2  12   0   -1.50    1.50
  -2  12   0   -1.60    1.60
   1 -12   0    4.80    1.60
   1 -12   0    3.40    1.60
  -1  12   0    5.80    1.70
  -1  12   0    2.60    1.70
  -1  12   0    3.00    2.00
   0 -12   0   18.00    2.50
   0  12   0   19.20    2.90
   0  12   0   15.90    2.30
   0  12   0   15.10    2.70
  -1 -12   0    5.80    1.80
   1  12   0    3.40    1.80
   1  12   0    3.80    2.00
   1  12  -1    2.80    2.00
   1  12  -1    1.90    1.40
  -1 -12   1    4.70    1.90
   0  12  -1    4.30    2.10
   0  12  -1    6.00    1.80
   0 -12   1    7.80    2.00
  -1  12  -1    1.70    1.50
  -1  12  -1   -0.50    1.70
  -1  12  -1   -1.90    1.30
   1 -12   1   -2.30    1.20
  -2  12  -1    0.10    1.80
  -2  12  -1   -2.70    1.40
  -2  12  -1   -0.70    1.40
   2 -12   1   -2.40    1.20
  -3  12  -1    1.70    1.60
  -3  12  -1    1.20    2.10
  -3  12  -1   -4.90    1.50
   3 -12   1    2.40    1.70
  -4  12  -1   -2.30    1.90
  -4  12  -1   -2.80    1.80
   4 -12   1   -0.90    1.60
   4 -12   1    0.90    1.40
   3  11  -1    0.80    1.80
  -3 -11   1    7.20    2.10
  -3 -11   1    7.80    1.90
   2  11  -1   17.50    2.50
   2  11  -1   13.70    2.60
  -2 -11   1   24.10    2.80
  -2 -11   1   17.40    2.50
   1  11  -1   31.50    3.20
   1  11  -1   36.50    2.90
   1  11  -1   27.60    3.20
  -1 -11   1   30.90    3.10
   0  11  -1    7.70    1.80
   0  11  -1    3.00    1.50
   0  11  -1    4.60    1.80
   0 -11   1    6.20    1.80
  -1  11  -1   -2.50    0.90
  -1  11  -1    1.20    1.60
  -1  11  -1    0.90    1.30
   1 -11   1    0.30    1.20
  -2  11  -1   -0.50    1.50
  -2  11  -1   -1.00    1.30
  -2  11  -1   -0.10    1.20
   2 -11   1   -0.30    1.20
  -3  11  -1   -1.80    1.70
  -3  11  -1   -1.20    1.10
  -3  11  -1   -4.60    1.10
   3 -11   1    0.10    1.40
  -4  11  -1    0.80    1.80
  -4  11  -1    2.90    1.70
  -4  11  -1   -2.30    1.60
   4 -11   1    3.70    1.70
   4 -11   1    1.80    1.60
  -5  11  -1   -1.80    1.70
  -5  11  -1    1.10    2.10
  -5  11  -1    1.10    1.70
   5 -11   1    3.40    1.30
   5 -11   1    0.20    1.50
   5 -11   1    2.80    1.70
  -6  11  -1   -2.60    1.80
  -6  11  -1   -1.50    1.60
  -6  11  -1   -2.90    1.90
   6 -11   1    0.00    1.60
   6 -11   1    0.70    1.60
   5  10  -1    1.60    1.60
  -5 -10   1    3.20    1.70
  -5 -10   1    3.80    1.70
   4  10  -1    4.90    1.80
   4  10  -1    3.20    1.90
  -4 -10   1    4.80    1.60
  -4 -10   1    5.00    1.90
  -4 -10   1    5.90    1.80
   3  10  -1    1.10    1.10
   3  10  -1   -0.10    1.30
   3  10  -1    2.30    1.20
  -3 -10   1    0.90    1.30
  -3 -10   1    0.00    1.30
  -3 -10   1    3.30    1.70
   2  10  -1    2.10    1.50
   2  10  -1    2.00    1.10
   2  10  -1    1.30    0.90
  -2 -10   1    1.60    1.30
  -2 -10   1    0.70    1.30
   1  10  -1    0.20    1.20
   1  10  -1    1.80    1.10
  -1 -10   1    0.00    1.20
  -1 -10   1    1.20    1.20
   0  10  -1   -0.90    1.00
   0  10  -1   -0.50    1.20
   0  10  -1   -1.00    0.90
   0 -10   1   -2.10    0.80
  -1  10  -1   11.40    1.80
  -1  10  -1    8.80    2.00
  -1  10  -1   12.60    1.90
   1 -10   1   15.80    2.00
  -2  10  -1   -0.20    1.30
  -2  10  -1    0.20    1.20
  -2  10  -1   -2.40    1.10
   2 -10   1   -0.20    1.10
  -3  10  -1    2.20    1.60
  -3  10  -1    2.00    1.60
  -3  10  -1    3.30    1.50
   3 -10   1    5.30    1.60
  -4  10  -1   -1.30    1.60
  -4  10  -1    0.20    1.20
  -4  10  -1   -2.40    1.40
   4 -10   1   -0.90    1.30
   4 -10   1   -0.50    1.30
  -5  10  -1    1.80    1.80
  -5  10  -1    0.50    1.80
  -5  10  -1    0.50    1.40
   5 -10   1   -1.20    1.50
   5 -10   1    1.10    1.50
  -6  10  -1   19.20    3.00
  -6  10  -1   16.60    3.00
  -6  10  -1   21.00    3.00
   6 -10   1   17.40    2.10
   6 -10   1   22.20    2.70
   6 -10   1   18.40    2.70
  -7  10  -1    0.30    2.30
  -7  10  -1    2.30    1.70
   7 -10   1    2.50    1.60
   7 -10   1    2.10    1.80
   6   9  -1    5.40    1.90
   6   9  -1    3.30    1.70
  -6  -9   1    3.30    1.60
  -6  -9   1    0.40    1.50
  -6  -9   1    1.30    1.40
   5   9  -1    1.80    1.10
   5   9  -1    0.50    1.30
   5   9  -1    0.40    1.40
  -5  -9   1   -0.80    1.20
  -5  -9   1    1.60    1.40
  -5  -9   1   -1.30    1.10
   4   9  -1    2.80    1.60
   4   9  -1    4.50    1.30
  -4  -9   1    4.90    1.70
  -4  -9   1    0.70    1.20
  -4  -9   1    2.80    1.20
   3   9  -1    0.10    0.90
   3   9  -1    0.40    0.80
   3   9  -1    0.00    1.10
  -3  -9   1   -0.30    0.90
  -3  -9   1    0.90    1.30
  -3  -9   1    0.60    1.10
   2   9  -1    3.50    1.00
   2   9  -1    2.30    1.40
   2   9  -1    1.20    1.00
  -2  -9   1    3.60    1.50
  -2  -9   1    0.80    1.10
  -2  -9   1    1.90    1.20
   1   9  -1    7.60    1.20
   1   9  -1    5.20    1.60
   1   9  -1    6.00    1.30
  -1  -9   1    5.00    1.40
  -1  -9   1    6.60    1.40
  -1  -9   1    4.00    1.50
   0   9  -1    3.70    0.90
   0   9  -1    3.70    1.30
   0   9  -1    4.90    1.30
   0   9  -1    5.60    1.30
   0  -9   1    4.70    1.30
   0  -9   1    7.80    1.50
  -1   9  -1    4.40    0.90
  -1   9  -1    3.50    1.20
  -1   9  -1    7.90    1.50
  -1   9  -1    4.40    1.60
   1  -9   1    4.10    1.30
  -2   9  -1    4.60    1.60
  -2   9  -1    6.10    1.50
  -2   9  -1    3.80    1.40
   2  -9   1    5.50    1.50
  -3   9  -1   -2.20    1.20
  -3   9  -1    0.80    1.00
  -3   9  -1   -0.50    1.10
   3  -9   1   -0.80    1.00
  -4   9  -1    0.40    1.30
  -4   9  -1   -1.40    1.30
  -4   9  -1    0.50    1.10
   4  -9   1    0.80    1.10
   4  -9   1    0.00    1.20
  -5   9  -1   13.50    2.30
  -5   9  -1   15.60    2.40
  -5   9  -1   16.40    2.70
   5  -9   1   13.60    2.10
   5  -9   1   14.60    2.20
  -6   9  -1   18.50    2.60
  -6   9  -1   15.40    2.60
  -6   9  -1   14.90    2.70
   6  -9   1   14.90    1.80
   6  -9   1   17.30    2.50
   6  -9   1   12.80    2.10
  -7   9  -1    1.50    1.80
  -7   9  -1    2.70    2.10
   7  -9   1    2.80    1.60
   7  -9   1    2.80    1.70
   7  -9   1    0.50    1.50
  -8   9  -1    9.20    2.20
  -8   9  -1    7.60    2.30
  -8   9  -1    9.80    2.80
   8  -9   1   10.50    2.00
   8  -9   1   12.40    2.30
   7   8  -1    4.30    1.90
   7   8  -1    9.60    2.20
  -7  -8   1    6.50    2.00
   6   8  -1    6.10    1.90
   6   8  -1    2.30    1.60
  -6  -8   1    3.30    1.50
  -6  -8   1    4.10    1.50
   5   8  -1   -1.30    1.10
   5   8  -1    0.10    1.10
  -5  -8   1   -0.60    0.90
  -5  -8   1   -1.30    1.00
  -5  -8   1    1.50    1.20
   4   8  -1    7.10    1.70
   4   8  -1    7.50    1.30
   4   8  -1    6.40    1.30
   4   8  -1    7.40    1.60
  -4  -8   1    6.90    1.50
  -4  -8   1    8.70    1.90
  -4  -8   1    9.80    1.60
  -4  -8   1    7.90    1.80
   3   8  -1    1.70    0.90
   3   8  -1    1.50    1.10
   3   8  -1    4.20    1.10
  -3  -8   1    4.60    1.20
  -3  -8   1    3.20    1.40
  -3  -8   1    1.40    1.00
   2   8  -1    2.70    1.20
   2   8  -1    2.40    0.90
   2   8  -1    3.10    0.90
  -2  -8   1    2.00    1.00
  -2  -8   1    2.50    1.30
  -2  -8   1    0.90    1.00
   1   8  -1   17.00    1.60
   1   8  -1   16.00    2.00
   1   8  -1   15.40    1.70
  -1  -8   1   16.00    1.80
  -1  -8   1   20.50    2.50
  -1  -8   1   20.30    2.00
   0   8  -1  259.97    8.50
   0   8  -1  267.57    7.90
   0   8  -1  258.17    8.90
   0  -8   1  267.07    8.40
   0  -8   1  255.87    8.40
   0  -8   1  264.87    8.90
  -1   8  -1   42.00    2.60
  -1   8  -1   42.00    3.00
  -1   8  -1   34.60    2.00
  -1   8  -1   38.30    2.60
   1  -8   1   39.50    2.50
  -2   8  -1   36.10    2.80
  -2   8  -1   37.40    1.90
  -2   8  -1   35.10    2.60
  -2   8  -1   34.90    2.40
   2  -8   1   37.30    2.50
  -3   8  -1    1.20    1.20
  -3   8  -1   -2.50    0.90
  -3   8  -1    1.10    0.90
  -3   8  -1   -0.20    0.50
   3  -8   1    0.00    0.80
   3  -8   1    1.30    0.50
  -4   8  -1    0.00    1.00
  -4   8  -1    0.20    0.80
  -4   8  -1    0.90    1.40
  -4   8  -1    0.30    1.30
   4  -8   1    0.60    1.00
   4  -8   1    0.30    0.60
   4  -8   1   -0.30    0.90
  -5   8  -1    8.60    1.90
  -5   8  -1   10.00    2.00
  -5   8  -1    6.50    1.60
   5  -8   1   13.20    1.90
   5  -8   1    8.80    1.70
   5  -8   1   10.20    1.30
  -6   8  -1   25.60    3.10
  -6   8  -1   37.00    3.20
   6  -8   1   33.00    2.20
   6  -8   1   28.40    2.10
   6  -8   1   28.20    2.70
   6  -8   1   27.90    2.80
  -7   8  -1   -0.70    1.80
  -7   8  -1    0.90    1.50
   7  -8   1   -2.10    1.20
   7  -8   1   -0.40    0.80
   7  -8   1   -1.20    1.20
  -8   8  -1   26.80    3.10
  -8   8  -1   20.90    3.30
  -8   8  -1   25.90    3.30
   8  -8   1   28.90    3.10
   8  -8   1   25.40    2.60
  -9   8  -1    2.30    2.00
  -9   8  -1    3.10    2.00
  -9   8  -1    1.60    1.60
   9  -8   1    0.60    1.10
   9  -8   1    0.90    1.60
   8   7  -1    0.30    1.40
   8   7  -1    2.70    1.70
  -8  -7   1    2.00    1.50
  -8  -7   1   -0.40    1.20
   7   7  -1    0.60    1.30
   7   7  -1    1.60    1.50
  -7  -7   1    2.00    1.20
  -7  -7   1    3.70    1.60
  -7  -7   1   -0.50    1.10
   6   7  -1    0.30    1.20
   6   7  -1    2.50    1.30
  -6  -7   1    2.40    1.20
  -6  -7   1    2.40    1.20
  -6  -7   1    1.50    1.20
   5   7  -1   23.50    2.60
   5   7  -1   24.70    2.60
  -5  -7   1   23.70    2.40
  -5  -7   1   28.70    2.40
  -5  -7   1   24.00    2.00
   4   7  -1    1.20    0.90
   4   7  -1    1.90    1.00
   4   7  -1   -0.10    1.10
  -4  -7   1    1.50    1.10
  -4  -7   1    0.70    0.80
  -4  -7   1    0.20    1.00
   3   7  -1   38.10    2.40
   3   7  -1   41.00    2.40
   3   7  -1   37.60    2.40
   3   7  -1   34.10    2.50
  -3  -7   1   40.80    2.10
  -3  -7   1   37.70    2.40
  -3  -7   1   34.00    2.40
  -3  -7   1   34.10    2.50
   2   7  -1   79.59    3.50
   2   7  -1   78.39    3.20
   2   7  -1   73.09    3.70
  -2  -7   1   81.19    3.80
  -2  -7   1   70.89    3.30
  -2  -7   1   76.19    3.40
  -2  -7   1   81.09    2.90
   1   7  -1  114.49    4.90
   1   7  -1  122.29    4.60
   1   7  -1  123.89    4.20
   1   7  -1  121.19    4.20
  -1  -7   1  121.09    4.60
  -1  -7   1  127.29    5.00
  -1  -7   1  126.79    3.90
  -1  -7   1  117.99    4.50
   0   7  -1  140.49    5.50
   0   7  -1  148.49    4.80
   0   7  -1  139.89    5.20
   0  -7   1  145.39    5.20
   0  -7   1  148.79    5.20
   0  -7   1  140.99    5.40
   0  -7   1  151.38    4.00
  -1   7  -1    0.90    0.60
  -1   7  -1    1.30    0.90
  -1   7  -1   -0.10    0.80
  -1   7  -1   -1.00    0.70
   1  -7   1   -0.50    0.70
   1  -7   1   -0.70    0.80
   1  -7   1   -0.40    0.30
  -2   7  -1   88.39    3.80
  -2   7  -1   83.59    4.00
  -2   7  -1   97.49    4.10
  -2   7  -1   90.89    3.20
   2  -7   1   91.99    3.90
   2  -7   1   96.89    3.10
   2  -7   1   99.29    3.20
  -3   7  -1  164.48    6.20
  -3   7  -1  161.78    5.80
  -3   7  -1  161.98    5.00
  -3   7  -1  156.78    6.00
   3  -7   1  149.99    5.70
   3  -7   1  177.58    5.80
   3  -7   1  165.48    5.00
  -4   7  -1   67.09    3.80
  -4   7  -1   67.29    3.70
  -4   7  -1   69.29    2.70
  -4   7  -1   74.99    3.50
   4  -7   1   70.09    2.80
   4  -7   1   65.99    3.20
   4  -7   1   67.99    3.40
  -5   7  -1   29.30    2.00
  -5   7  -1   28.70    2.60
  -5   7  -1   22.70    2.50
  -5   7  -1   24.10    2.60
   5  -7   1   22.20    2.20
   5  -7   1   29.80    2.30
   5  -7   1   27.70    1.80
   5  -7   1   30.20    2.20
  -6   7  -1    2.20    1.30
  -6   7  -1    0.40    1.40
   6  -7   1    1.40    0.90
   6  -7   1    0.20    1.00
   6  -7   1    1.50    0.70
   6  -7   1    1.10    1.20
  -7   7  -1    2.90    1.50
  -7   7  -1    6.30    1.70
  -7   7  -1    6.50    2.20
   7  -7   1    6.30    1.70
   7  -7   1    9.00    1.90
   7  -7   1    5.50    1.30
  -8   7  -1   12.30    2.30
  -8   7  -1    9.00    2.10
  -8   7  -1    8.70    2.40
   8  -7   1   10.60    2.10
   8  -7   1    8.40    1.60
  -9   7  -1   21.50    3.00
  -9   7  -1   18.90    3.00
  -9   7  -1   20.60    2.90
   9  -7   1   15.20    2.30
   9  -7   1   24.80    3.00
   9   6  -1    3.80    1.90
  -9  -6   1    1.50    1.50
  -9  -6   1    1.00    1.30
   8   6  -1    1.70    1.30
   8   6  -1    1.60    1.60
  -8  -6   1    0.10    1.40
  -8  -6   1    0.00    1.10
   7   6  -1   -0.30    1.20
   7   6  -1   -0.20    1.00
  -7  -6   1    2.10    1.30
  -7  -6   1    2.50    1.20
  -7  -6   1    1.60    1.30
   6   6  -1   38.70    2.90
   6   6  -1   40.50    2.90
   6   6  -1   36.80    2.70
  -6  -6   1   33.00    2.50
  -6  -6   1   31.70    2.50
  -6  -6   1   36.30    2.50
   5   6  -1    4.80    1.20
   5   6  -1    4.00    1.10
   5   6  -1    5.50    1.40
  -5  -6   1    6.00    1.30
  -5  -6   1    5.40    1.20
  -5  -6   1    4.60    1.30
   4   6  -1   44.00    2.40
   4   6  -1   42.90    2.70
   4   6  -1   43.70    2.60
  -4  -6   1   42.50    2.30
  -4  -6   1   44.50    2.60
  -4  -6   1   42.50    2.60
   3   6  -1    3.80    1.10
   3   6  -1    3.50    0.90
   3   6  -1    3.00    1.00
  -3  -6   1    4.20    0.90
  -3  -6   1    0.70    0.90
  -3  -6   1    4.10    1.10
   2   6  -1    3.00    0.80
   2   6  -1    1.20    0.80
   2   6  -1    1.80    0.80
   2   6  -1    1.00    0.80
  -2  -6   1    1.80    0.90
  -2  -6   1    2.90    1.00
  -2  -6   1    1.30    0.60
  -2  -6   1    2.20    0.80
   1   6  -1   67.89    2.60
   1   6  -1   63.19    3.10
   1   6  -1   66.79    2.90
  -1  -6   1   65.79    2.30
  -1  -6   1   60.79    2.80
  -1  -6   1   71.89    3.20
  -1  -6   1   66.69    2.90
   0   6  -1   47.80    2.40
   0   6  -1   49.80    2.70
   0   6  -1   51.99    2.10
   0  -6   1   45.20    2.30
   0  -6   1   50.89    1.60
   0  -6   1   49.80    2.20
   0  -6   1   46.90    2.50
   0  -6   1   46.80    2.40
  -1   6  -1    1.50    0.70
  -1   6  -1    1.10    0.60
  -1   6  -1    1.90    0.90
  -1   6  -1    1.10    0.80
   1  -6   1    1.30    0.70
   1  -6   1    1.00    0.40
   1  -6   1    1.60    0.40
   1  -6   1    1.50    0.90
  -2   6  -1  102.29    4.00
  -2   6  -1   97.39    3.90
  -2   6  -1  103.09    3.40
   2  -6   1   92.99    3.80
   2  -6   1  106.79    3.30
   2  -6   1  108.19    3.40
  -3   6  -1    0.40    0.90
  -3   6  -1    0.60    0.50
  -3   6  -1   -1.70    0.60
  -3   6  -1   -0.40    0.90
   3  -6   1   -0.20    0.40
   3  -6   1    0.80    0.80
   3  -6   1   -0.70    0.50
  -4   6  -1   16.90    1.30
  -4   6  -1   14.00    1.70
  -4   6  -1   11.80    1.70
  -4   6  -1   11.80    1.10
  -4   6  -1   13.10    1.60
   4  -6   1   13.70    1.00
   4  -6   1   13.80    1.30
   4  -6   1   12.80    1.60
   4  -6   1   13.50    1.50
  -5   6  -1   48.60    2.90
  -5   6  -1   48.80    2.30
  -5   6  -1   52.29    3.20
  -5   6  -1   50.69    3.50
   5  -6   1   48.00    2.70
   5  -6   1   53.89    2.10
   5  -6   1   45.90    2.80
   5  -6   1   49.10    2.40
  -6   6  -1    2.90    1.20
  -6   6  -1    3.80    1.60
   6  -6   1    4.20    1.10
   6  -6   1    4.30    0.80
   6  -6   1    6.80    1.40
   6  -6   1    4.60    0.80
   6  -6   1    1.80    1.20
  -7   6  -1   40.90    2.90
  -7   6  -1   31.80    3.30
  -7   6  -1   44.60    3.10
   7  -6   1   40.80    2.80
   7  -6   1   42.60    2.50
  -8   6  -1    0.70    1.30
  -8   6  -1    1.50    1.80
  -8   6  -1    1.00    1.50
   8  -6   1    0.00    1.20
   8  -6   1   -0.70    1.00
  -9   6  -1    3.20    2.10
  -9   6  -1   -1.50    1.50
  -9   6  -1    1.50    1.50
   9  -6   1    1.80    1.40
   9  -6   1    0.10    1.40
 -10   6  -1    1.30    1.70
 -10   6  -1    3.20    2.00
 -10   6  -1    5.00    2.20
  10  -6   1    2.90    1.60
  10  -6   1    3.10    1.70
   9   5  -1    5.00    1.90
  -9  -5   1    6.00    2.00
  -9  -5   1    6.70    2.00
  -9  -5   1    2.30    1.50
   8   5  -1    3.20    1.30
   8   5  -1    4.20    1.30
   8   5  -1    3.90    1.70
  -8  -5   1   -1.00    1.20
  -8  -5   1    3.90    1.60
  -8  -5   1    3.40    1.60
   7   5  -1    0.70    1.20
   7   5  -1    0.90    0.80
   7   5  -1    1.00    1.00
   7   5  -1    1.60    1.10
  -7  -5   1    1.40    0.90
  -7  -5   1    0.80    1.20
  -7  -5   1    3.00    1.40
   6   5  -1   53.39    2.50
   6   5  -1   54.49    3.00
   6   5  -1   54.79    3.10
   6   5  -1   49.20    3.00
  -6  -5   1   53.99    3.10
  -6  -5   1   52.59    2.80
  -6  -5   1   51.09    3.00
   5   5  -1   21.90    2.00
   5   5  -1   23.90    2.30
   5   5  -1   24.10    2.10
  -5  -5   1   20.10    1.70
  -5  -5   1   19.50    1.90
   4   5  -1  108.59    4.20
   4   5  -1  112.19    4.10
   4   5  -1  105.49    4.30
  -4  -5   1  109.69    4.10
  -4  -5   1  107.39    4.00
  -4  -5   1  110.39    4.30
   3   5  -1   80.49    3.40
   3   5  -1   78.49    3.20
   3   5  -1   79.49    3.10
  -3  -5   1   78.59    3.00
  -3  -5   1   74.19    3.30
  -3  -5   1   79.19    3.20
   2   5  -1   -0.90    0.60
   2   5  -1    0.20    0.50
   2   5  -1   -0.20    0.70
  -2  -5   1    0.50    0.50
  -2  -5   1    0.90    0.70
  -2  -5   1    0.00    0.70
   1   5  -1   54.69    2.20
   1   5  -1   54.39    2.40
   1   5  -1   51.99    2.50
  -1  -5   1   52.89    2.30
  -1  -5   1   55.19    2.60
  -1  -5   1   60.09    2.20
  -1  -5   1   54.69    2.40
  -1  -5   1   53.09    1.90
   0   5  -1  107.19    3.90
   0   5  -1  106.49    3.70
   0   5  -1  102.09    3.40
   0   5  -1  114.19    3.90
   0  -5   1  106.09    3.00
   0  -5   1  104.89    3.00
   0  -5   1  106.49    3.40
   0  -5   1  102.49    3.90
   0  -5   1  100.69    3.60
   0  -5   1  103.09    3.70
  -1   5  -1  199.08    5.90
  -1   5  -1  199.98    5.20
  -1   5  -1  182.58    5.90
  -1   5  -1  184.38    6.20
  -1   5  -1  195.28    5.60
  -1   5  -1  190.48    6.00
   1  -5   1  187.28    5.90
   1  -5   1  192.48    5.50
   1  -5   1  187.68    6.10
   1  -5   1  198.58    5.40
  -2   5  -1  149.79    4.50
  -2   5  -1  143.69    5.10
  -2   5  -1  153.38    5.00
  -2   5  -1  150.78    4.90
   2  -5   1  138.89    4.80
   2  -5   1  149.88    4.40
   2  -5   1  152.28    4.40
   2  -5   1  144.99    4.90
  -3   5  -1   18.50    1.80
  -3   5  -1   17.30    1.40
  -3   5  -1   16.40    1.10
  -3   5  -1   16.40    1.70
   3  -5   1   15.20    1.40
   3  -5   1   17.90    0.90
   3  -5   1   15.20    1.10
  -4   5  -1   41.90    2.40
  -4   5  -1   42.90    2.00
  -4   5  -1   40.70    2.60
  -4   5  -1   40.00    1.90
  -4   5  -1   41.00    2.60
   4  -5   1   42.60    2.00
   4  -5   1   41.40    2.30
   4  -5   1   41.50    1.80
   4  -5   1   44.70    1.60
   4  -5   1   41.70    2.40
  -5   5  -1   -0.50    1.10
  -5   5  -1   -0.10    0.60
  -5   5  -1    1.60    0.90
   5  -5   1    1.10    0.70
   5  -5   1    1.70    0.90
   5  -5   1    0.90    0.80
   5  -5   1    1.60    0.50
   5  -5   1    1.40    0.60
  -6   5  -1   28.10    2.80
  -6   5  -1   30.40    2.40
  -6   5  -1   30.90    2.30
   6  -5   1   31.50    2.10
   6  -5   1   28.90    2.40
   6  -5   1   33.80    2.40
   6  -5   1   32.20    1.70
   6  -5   1   36.00    1.80
  -7   5  -1   33.30    2.70
  -7   5  -1   30.10    2.40
  -7   5  -1   24.10    2.80
   7  -5   1   28.20    1.80
   7  -5   1   26.40    2.10
   7  -5   1   32.30    2.40
  -8   5  -1    8.30    1.90
  -8   5  -1    5.00    2.00
  -8   5  -1    5.60    1.70
   8  -5   1    7.20    1.60
   8  -5   1    6.00    1.60
  -9   5  -1    8.80    2.00
  -9   5  -1    8.00    2.00
  -9   5  -1    6.30    2.10
   9  -5   1    7.40    1.80
   9  -5   1    8.90    2.00
 -10   5  -1    0.90    1.90
 -10   5  -1   -0.40    1.70
 -10   5  -1    2.90    1.70
  10  -5   1    0.60    1.50
  10  -5   1   -0.10    1.30
  10   4  -1    1.30    1.70
  10   4  -1   -1.50    1.30
 -10  -4   1   -1.50    1.30
 -10  -4   1    1.80    1.50
   9   4  -1    2.60    1.70
   9   4  -1    1.00    1.00
   9   4  -1    0.00    1.10
  -9  -4   1    1.30    1.40
  -9  -4   1    1.30    1.30
   8   4  -1    1.20    1.00
   8   4  -1    2.10    1.50
   8   4  -1    1.50    1.00
  -8  -4   1    2.20    1.30
  -8  -4   1    1.50    1.30
   7   4  -1   59.59    3.20
   7   4  -1   60.19    2.90
   7   4  -1   57.59    3.40
   7   4  -1   56.19    3.20
  -7  -4   1   57.89    3.20
  -7  -4   1   58.99    2.90
  -7  -4   1   60.89    3.30
   6   4  -1   91.69    4.00
   6   4  -1   94.69    3.60
   6   4  -1   94.29    4.10
   6   4  -1   94.69    4.00
  -6  -4   1   92.09    3.80
  -6  -4   1   90.19    4.20
  -6  -4   1   96.99    4.10
  -6  -4   1   94.79    4.00
   5   4  -1    6.60    1.20
   5   4  -1    7.50    1.00
   5   4  -1    5.50    1.00
   5   4  -1    7.60    1.30
  -5  -4   1    7.50    1.20
  -5  -4   1    6.50    1.40
  -5  -4   1    7.00    1.30
  -5  -4   1    7.60    1.30
   4   4  -1    6.20    1.20
   4   4  -1    5.60    0.70
   4   4  -1    4.50    0.90
   4   4  -1    5.20    1.00
  -4  -4   1    5.50    1.00
  -4  -4   1    4.00    1.00
  -4  -4   1    3.60    0.90
  -4  -4   1    5.30    1.30
   3   4  -1    0.40    0.60
   3   4  -1    0.30    0.50
   3   4  -1   -0.20    0.50
  -3  -4   1    0.10    0.80
  -3  -4   1    0.50    0.60
  -3  -4   1    1.30    0.70
   2   4  -1  354.26   10.30
   2   4  -1  363.26   10.40
   2   4  -1  368.26   10.20
  -2  -4   1  373.46   10.50
  -2  -4   1  383.16   10.20
  -2  -4   1  365.56   10.30
  -2  -4   1  377.06   10.00
   1   4  -1  552.54   14.50
   1   4  -1  504.45   14.20
   1   4  -1  521.25   14.40
   1   4  -1  527.95   14.20
   1   4  -1  518.55   14.10
  -1  -4   1  530.75   13.80
  -1  -4   1  546.65   14.10
  -1  -4   1  514.75   14.20
  -1  -4   1  542.05   14.30
  -1  -4   1  516.15   14.40
   0   4  -1  159.38    4.90
   0   4  -1  163.18    5.00
   0   4  -1  163.28    4.70
   0   4  -1  162.78    5.10
   0  -4   1  158.78    4.30
   0  -4   1  159.08    4.40
   0  -4   1  156.08    5.10
   0  -4   1  162.38    4.90
   0  -4   1  167.78    4.70
   0  -4   1  158.98    4.90
  -1   4  -1  418.26   10.20
  -1   4  -1  389.76   10.90
  -1   4  -1  400.06   10.90
  -1   4  -1  394.96   10.60
  -1   4  -1  389.46   11.10
   1  -4   1  389.66   10.90
   1  -4   1  370.96   10.90
   1  -4   1  402.46   10.50
   1  -4   1  399.46   10.60
  -2   4  -1    2.30    0.80
  -2   4  -1    1.60    0.50
  -2   4  -1    2.00    0.70
  -2   4  -1    1.40    0.50
   2  -4   1    0.80    0.50
   2  -4   1    1.20    0.40
   2  -4   1    1.30    0.50
  -3   4  -1    1.90    0.90
  -3   4  -1    2.00    0.50
  -3   4  -1    3.10    0.70
  -3   4  -1    2.50    0.80
   3  -4   1    1.60    0.70
   3  -4   1    3.40    0.40
   3  -4   1    2.60    0.60
   3  -4   1    3.80    0.80
  -4   4  -1    7.90    1.40
  -4   4  -1    9.60    0.90
  -4   4  -1   10.20    1.00
  -4   4  -1    9.70    1.20
   4  -4   1    6.80    1.10
   4  -4   1    7.70    0.80
   4  -4   1    9.80    0.70
   4  -4   1   10.70    1.10
   4  -4   1    8.10    1.10
  -5   4  -1    0.50    0.60
  -5   4  -1    0.00    1.10
  -5   4  -1    1.60    0.80
   5  -4   1    0.60    0.80
   5  -4   1    0.70    0.50
   5  -4   1   -0.60    0.70
   5  -4   1    0.50    0.50
   5  -4   1    0.90    0.70
  -6   4  -1   39.40    2.60
  -6   4  -1   37.40    3.10
  -6   4  -1   39.90    2.50
  -6   4  -1   37.70    1.80
   6  -4   1   40.20    2.00
   6  -4   1   39.70    2.40
   6  -4   1   40.60    1.90
   6  -4   1   42.60    2.30
  -7   4  -1    9.60    1.70
  -7   4  -1   13.70    2.10
  -7   4  -1   17.40    2.00
   7  -4   1   13.50    1.40
   7  -4   1   13.70    1.60
   7  -4   1   13.50    1.80
  -8   4  -1   -0.20    1.50
  -8   4  -1    0.60    1.30
  -8   4  -1    1.40    1.20
   8  -4   1   -0.40    1.10
   8  -4   1    0.40    0.70
   8  -4   1    2.20    1.20
  -9   4  -1    2.50    1.70
  -9   4  -1    2.30    1.50
  -9   4  -1    5.50    1.90
   9  -4   1   -2.50    1.10
   9  -4   1    1.70    1.50
 -10   4  -1   -0.20    1.50
  10  -4   1    3.10    1.70
  10  -4   1   -1.70    1.40
  10  -4   1    0.40    1.60
  10   3  -1    3.90    1.80
  10   3  -1    2.20    1.30
 -10  -3   1    3.10    1.60
 -10  -3   1    5.90    1.90
   9   3  -1    1.60    1.10
   9   3  -1    2.30    1.60
   9   3  -1    0.30    1.00
  -9  -3   1    1.10    1.50
  -9  -3   1    1.20    1.40
   8   3  -1    1.70    1.30
   8   3  -1    1.90    1.00
   8   3  -1    0.50    0.90
   8   3  -1    0.50    0.90
  -8  -3   1    0.80    1.30
  -8  -3   1    2.30    0.90
  -8  -3   1    0.70    1.30
   7   3  -1   18.40    1.80
   7   3  -1   17.40    1.90
   7   3  -1   16.80    1.80
   7   3  -1   23.00    2.40
  -7  -3   1   20.30    1.60
  -7  -3   1   21.00    2.00
  -7  -3   1   20.40    2.10
  -7  -3   1   16.90    2.10
   6   3  -1    3.10    0.90
   6   3  -1    5.70    1.00
   6   3  -1    3.80    1.10
   6   3  -1    4.90    1.00
  -6  -3   1    4.10    1.10
  -6  -3   1    3.80    1.10
  -6  -3   1    6.10    1.10
  -6  -3   1    3.20    1.00
   5   3  -1   13.50    1.40
   5   3  -1   12.70    1.20
   5   3  -1   12.00    1.40
   5   3  -1    9.40    1.20
  -5  -3   1   11.90    1.50
  -5  -3   1   10.40    1.40
  -5  -3   1   13.20    1.50
  -5  -3   1   10.90    1.50
   4   3  -1   11.00    0.90
   4   3  -1    9.20    1.00
   4   3  -1   10.30    1.20
   4   3  -1    9.40    1.00
  -4  -3   1   12.50    1.30
  -4  -3   1   11.00    1.20
  -4  -3   1   11.00    1.20
  -4  -3   1   10.20    1.40
   3   3  -1   86.89    2.80
   3   3  -1   93.59    3.20
   3   3  -1   88.49    3.10
   3   3  -1   92.49    3.50
   3   3  -1   91.29    3.20
  -3  -3   1   87.49    3.40
  -3  -3   1   88.49    3.20
  -3  -3   1   88.79    3.20
  -3  -3   1   94.89    3.10
  -3  -3   1   84.89    3.20
   2   3  -1    1.00    0.40
   2   3  -1    0.60    0.50
   2   3  -1    0.40    0.60
  -2  -3   1    1.00    0.60
  -2  -3   1    0.80    0.60
  -2  -3   1    2.10    0.50
  -2  -3   1    1.30    0.50
   1   3  -1  209.98    6.20
   1   3  -1  216.18    6.30
   1   3  -1  214.68    6.10
   1   3  -1  225.88    6.40
  -1  -3   1  221.58    6.40
  -1  -3   1  226.18    6.10
  -1  -3   1  207.28    6.30
  -1  -3   1  214.08    5.80
  -1  -3   1  219.48    6.20
   0   3  -1   17.30    0.90
   0   3  -1   15.30    1.00
   0   3  -1   16.30    0.90
   0  -3   1   16.40    1.00
   0  -3   1   16.20    1.00
   0  -3   1   16.20    1.00
   0  -3   1   17.20    0.60
  -1   3  -1    3.80    0.60
  -1   3  -1    4.70    0.60
  -1   3  -1    5.00    0.40
  -1   3  -1    5.00    0.70
  -1   3  -1    4.40    0.70
   1  -3   1    3.90    0.70
   1  -3   1    6.30    0.60
   1  -3   1    4.90    0.70
  -2   3  -1  224.58    6.60
  -2   3  -1  222.68    6.40
  -2   3  -1  211.18    6.60
  -2   3  -1  227.18    6.20
   2  -3   1  226.18    5.90
   2  -3   1  223.78    6.40
   2  -3   1  224.78    6.20
   2  -3   1  221.38    6.30
  -3   3  -1  509.45   13.70
  -3   3  -1  489.95   13.30
  -3   3  -1  507.85   13.10
  -3   3  -1  494.55   13.80
   3  -3   1  476.05   13.60
   3  -3   1  495.05   13.40
   3  -3   1  479.35   13.50
   3  -3   1  510.85   13.30
   3  -3   1  531.65   13.00
  -4   3  -1   30.90    1.80
  -4   3  -1   35.20    2.40
  -4   3  -1   30.50    1.40
   4  -3   1   30.20    1.50
   4  -3   1   29.90    1.40
   4  -3   1   30.50    1.80
   4  -3   1   30.00    1.70
   4  -3   1   27.30    1.50
  -5   3  -1   49.70    2.00
  -5   3  -1   48.20    2.50
  -5   3  -1   53.59    3.10
  -5   3  -1   44.40    2.40
   5  -3   1   51.69    1.70
   5  -3   1   49.90    2.40
   5  -3   1   51.59    2.20
   5  -3   1   47.50    2.30
  -6   3  -1    2.30    1.00
  -6   3  -1    0.00    1.10
  -6   3  -1    2.40    0.70
  -6   3  -1    1.40    1.00
   6  -3   1    4.10    0.90
   6  -3   1    1.80    0.70
   6  -3   1    3.20    1.00
  -7   3  -1    0.60    1.30
  -7   3  -1    1.30    1.00
  -7   3  -1    0.40    1.00
   7  -3   1    1.90    0.80
   7  -3   1    2.80    1.10
   7  -3   1    1.30    0.90
  -8   3  -1    0.80    1.10
  -8   3  -1    0.60    1.20
  -8   3  -1    1.10    1.50
   8  -3   1   -0.50    1.10
   8  -3   1    0.50    0.70
   8  -3   1    0.40    0.90
  -9   3  -1    8.20    2.00
   9  -3   1    8.20    1.90
   9  -3   1    7.90    1.40
   9  -3   1    8.10    1.70
   9  -3   1    7.30    2.00
 -10   3  -1    3.00    1.60
  10  -3   1    1.80    1.60
  10  -3   1    0.80    1.50
  10  -3   1    2.60    1.60
  10   2  -1    2.00    1.30
  10   2  -1    4.00    1.60
 -10  -2   1   -2.30    1.40
 -10  -2   1    2.40    1.70
   9   2  -1   -0.80    0.80
   9   2  -1    0.80    1.10
   9   2  -1   -0.10    1.30
  -9  -2   1    4.50    1.10
  -9  -2   1    1.10    1.40
  -9  -2   1   -0.70    1.40
   8   2  -1    2.70    1.50
   8   2  -1    4.40    1.10
   8   2  -1    7.30    1.40
   8   2  -1    5.70    1.20
  -8  -2   1    6.50    1.30
  -8  -2   1    4.20    1.40
  -8  -2   1    7.90    1.60
   7   2  -1   -0.60    0.80
   7   2  -1    0.10    0.80
   7   2  -1    0.10    0.70
   7   2  -1    2.00    1.10
  -7  -2   1    0.30    0.90
  -7  -2   1   -0.10    0.80
  -7  -2   1   -0.20    0.90
  -7  -2   1    1.60    0.70
   6   2  -1    0.50    0.60
   6   2  -1    0.40    0.60
   6   2  -1   -0.20    0.60
   6   2  -1   -1.00    0.70
   6   2  -1   -1.00    0.80
  -6  -2   1   -0.50    0.80
  -6  -2   1   -0.70    0.70
  -6  -2   1   -0.30    0.60
  -6  -2   1   -0.30    0.80
   5   2  -1    6.40    0.90
   5   2  -1    6.40    1.00
   5   2  -1    7.20    1.20
   5   2  -1    7.10    1.00
  -5  -2   1    8.30    1.20
  -5  -2   1    6.10    1.10
  -5  -2   1    6.90    1.20
  -5  -2   1    5.50    1.00
   4   2  -1    5.80    0.80
   4   2  -1    6.70    0.80
   4   2  -1    6.40    0.80
   4   2  -1    6.60    1.20
   4   2  -1    5.80    0.90
  -4  -2   1    5.70    1.00
  -4  -2   1    7.40    1.00
  -4  -2   1    7.20    1.00
  -4  -2   1    8.20    1.00
   3   2  -1  740.33   19.60
   3   2  -1  708.93   19.50
   3   2  -1  770.42   19.90
   3   2  -1  743.73   19.40
   3   2  -1  714.13   19.60
  -3  -2   1  712.63   19.80
  -3  -2   1  768.22   19.60
  -3  -2   1  755.72   19.60
  -3  -2   1  760.42   19.60
  -3  -2   1  762.72   19.60
   2   2  -1  106.89    3.50
   2   2  -1  104.79    3.10
   2   2  -1  100.99    3.30
   2   2  -1  105.29    3.20
   2   2  -1  100.79    3.20
  -2  -2   1  106.49    3.30
  -2  -2   1  103.19    3.30
  -2  -2   1   99.29    3.40
  -2  -2   1  107.09    3.40
  -2  -2   1  109.79    3.20
   1   2  -1  310.07    8.30
   1   2  -1  294.87    8.10
   1   2  -1  289.67    8.10
   1   2  -1  308.67    8.20
  -1  -2   1  299.97    8.20
  -1  -2   1  307.07    8.30
  -1  -2   1  294.87    8.30
  -1  -2   1  315.37    8.10
   0   2  -1 3671.63   94.79
   0   2  -1 3739.83   95.99
   0   2  -1 3687.43   95.29
   0   2  -1 3722.43   94.79
   0  -2   1 3714.03   94.39
   0  -2   1 3627.84   96.09
   0  -2   1 3705.53   95.29
   0  -2   1 3590.94   95.19
   0  -2   1 3742.13   95.19
  -1   2  -1  508.95   12.70
  -1   2  -1  491.05   13.20
  -1   2  -1  501.35   13.00
  -1   2  -1  500.55   13.20
  -1   2  -1  498.75   13.10
   1  -2   1  499.05   13.10
   1  -2   1  502.95   13.00
   1  -2   1  482.85   13.10
  -2   2  -1  440.46   11.80
  -2   2  -1  457.35   11.60
  -2   2  -1  443.66   12.00
  -2   2  -1  436.06   12.00
  -2   2  -1  439.76   11.70
  -2   2  -1  428.86   11.40
   2  -2   1  423.76   11.70
   2  -2   1  454.45   11.40
   2  -2   1  437.06   11.70
   2  -2   1  440.86   11.80
  -3   2  -1  601.74   14.70
  -3   2  -1  579.14   15.50
  -3   2  -1  546.15   15.00
  -3   2  -1  562.44   14.70
  -3   2  -1  563.64   15.20
   3  -2   1  567.74   15.20
   3  -2   1  554.14   14.90
   3  -2   1  563.94   15.10
   3  -2   1  551.84   15.10
  -4   2  -1  157.08    5.00
  -4   2  -1  155.58    4.50
  -4   2  -1  165.38    4.30
  -4   2  -1  155.38    5.40
  -4   2  -1  147.69    4.90
   4  -2   1  147.69    4.90
   4  -2   1  156.48    4.80
   4  -2   1  156.88    4.90
  -5   2  -1  243.18    7.90
  -5   2  -1  254.07    6.40
  -5   2  -1  229.38    7.30
  -5   2  -1  241.48    6.40
  -5   2  -1  237.78    6.70
  -5   2  -1  225.88    7.30
   5  -2   1  244.28    7.30
   5  -2   1  238.68    6.70
   5  -2   1  226.38    7.20
   5  -2   1  238.68    7.10
  -6   2  -1    4.50    0.70
  -6   2  -1    3.70    1.30
  -6   2  -1    4.80    1.10
  -6   2  -1    4.90    1.10
   6  -2   1    3.30    0.90
   6  -2   1    3.30    0.90
   6  -2   1    6.20    1.00
  -7   2  -1    3.10    1.20
  -7   2  -1    1.00    1.20
  -7   2  -1    1.70    1.00
   7  -2   1    1.00    0.80
   7  -2   1    0.10    0.70
   7  -2   1    2.20    1.10
  -8   2  -1   22.00    2.40
   8  -2   1   21.70    2.30
   8  -2   1   21.50    2.50
   8  -2   1   20.60    2.00
   8  -2   1   20.00    2.10
  -9   2  -1    1.70    1.40
   9  -2   1    0.90    1.20
   9  -2   1    1.60    1.50
   9  -2   1    1.10    0.90
   9  -2   1    1.90    1.60
 -10   2  -1    1.90    1.60
  10  -2   1    2.00    1.40
  10  -2   1    1.90    1.90
  10  -2   1    6.50    1.90
  11   1  -1   -1.30    1.10
  11   1  -1    3.20    1.80
 -11  -1   1    1.20    1.50
 -11  -1   1    1.30    1.60
  10   1  -1   -2.00    1.20
  10   1  -1   -0.50    1.20
  10   1  -1    1.60    1.50
 -10  -1   1   -3.20    1.40
 -10  -1   1    1.20    1.60
   9   1  -1    7.50    1.40
   9   1  -1    5.70    1.50
   9   1  -1    6.30    1.40
   9   1  -1    3.40    1.60
   9   1  -1    7.20    1.80
  -9  -1   1    4.90    1.70
  -9  -1   1    8.60    1.40
  -9  -1   1    7.00    1.80
   8   1  -1   13.00    1.80
   8   1  -1   13.00    1.70
   8   1  -1   12.00    2.00
   8   1  -1   11.10    1.60
   8   1  -1   11.20    1.50
  -8  -1   1   12.00    1.70
  -8  -1   1    9.20    1.70
   7   1  -1    9.00    1.30
   7   1  -1   10.60    1.40
   7   1  -1    6.60    1.30
   7   1  -1   10.90    1.70
  -7  -1   1    6.80    1.40
  -7  -1   1    9.60    1.20
  -7  -1   1    8.40    1.40
   6   1  -1    8.10    1.30
   6   1  -1    8.30    1.20
   6   1  -1    7.20    1.30
   6   1  -1    5.60    1.00
  -6  -1   1   10.20    1.20
  -6  -1   1    6.80    1.20
  -6  -1   1    7.20    1.30
   5   1  -1   68.79    2.70
   5   1  -1   64.69    2.80
   5   1  -1   66.29    2.80
   5   1  -1   65.09    2.60
  -5  -1   1   67.09    2.60
  -5  -1   1   69.79    2.90
  -5  -1   1   68.09    2.90
   4   1  -1  408.36   11.50
   4   1  -1  412.36   11.40
   4   1  -1  412.16   11.40
   4   1  -1  439.26   11.90
   4   1  -1  419.06   11.60
  -4  -1   1  411.36   11.70
  -4  -1   1  419.86   11.40
  -4  -1   1  420.06   11.50
  -4  -1   1  432.16   11.40
   3   1  -1   34.90    1.60
   3   1  -1   37.20    1.50
   3   1  -1   37.40    1.50
   3   1  -1   35.80    1.50
   3   1  -1   41.90    1.90
   3   1  -1   36.70    1.50
  -3  -1   1   35.70    1.80
  -3  -1   1   37.20    1.60
  -3  -1   1   37.30    1.50
   2   1  -1 2351.56   60.29
   2   1  -1 2310.47   60.29
   2   1  -1 2251.47   60.09
   2   1  -1 2512.35   59.79
   2   1  -1 2328.17   60.09
   2   1  -1 2335.77   59.49
  -2  -1   1 2278.87   59.99
  -2  -1   1 2318.57   59.39
  -2  -1   1 2355.46   60.89
  -2  -1   1 2299.87   60.09
  -2  -1   1 2291.57   60.89
   1   1  -1 1221.68   30.00
   1   1  -1 1211.98   29.90
   1   1  -1 1125.59   29.90
   1   1  -1 1153.18   29.90
   1   1  -1 1161.88   30.50
   1   1  -1 1208.58   30.30
   1   1  -1 1199.88   30.10
  -1  -1   1 1165.48   29.90
  -1  -1   1 1152.18   30.40
  -1  -1   1 1134.69   29.90
  -1  -1   1 1171.38   29.90
  -1  -1   1 1229.68   30.10
  -1  -1   1 1147.39   29.90
  -1  -1   1 1122.99   30.40
   0   1  -1  520.55   13.20
   0   1  -1  512.25   13.30
   0   1  -1  504.35   13.40
   0   1  -1  521.55   13.30
   0   1  -1  530.15   13.40
   0   1  -1  548.75   13.40
   0   1  -1  535.45   13.40
   0   1  -1  514.45   13.50
   0  -1   1  523.95   13.50
   0  -1   1  473.75   13.30
   0  -1   1  540.15   13.40
   0  -1   1  506.15   13.40
   0  -1   1  528.75   13.20
   0  -1   1  500.75   13.40
   0  -1   1  512.05   13.40
   0  -1   1  519.65   13.30
  -1   1  -1  340.37    8.60
  -1   1  -1  305.37    8.50
  -1   1  -1  345.07    8.40
  -1   1  -1  309.07    8.50
  -1   1  -1  324.47    8.70
   1  -1   1  317.37    8.50
   1  -1   1  318.97    8.50
   1  -1   1  315.37    8.50
   1  -1   1  327.57    8.70
   1  -1   1  315.37    8.40
  -2   1  -1   23.10    0.70
  -2   1  -1   21.40    1.00
  -2   1  -1   22.00    0.80
  -2   1  -1   21.80    1.30
  -2   1  -1   23.50    1.10
   2  -1   1   23.10    1.10
   2  -1   1   22.80    0.80
   2  -1   1   21.90    1.00
   2  -1   1   23.00    1.10
   2  -1   1   22.50    1.00
  -3   1  -1    2.20    0.30
  -3   1  -1    2.30    0.20
  -3   1  -1    2.80    0.60
  -3   1  -1    1.80    0.50
  -3   1  -1    1.70    0.40
  -3   1  -1    1.50    0.50
  -3   1  -1    2.00    0.70
   3  -1   1    1.80    0.50
   3  -1   1    1.60    0.50
   3  -1   1    1.80    0.20
   3  -1   1    2.30    0.50
   3  -1   1    1.40    0.40
  -4   1  -1  375.86   10.10
  -4   1  -1  390.16   10.50
  -4   1  -1  360.46   10.90
  -4   1  -1  373.46   10.60
  -4   1  -1  371.56   10.50
   4  -1   1  388.16   10.20
   4  -1   1  377.66   10.50
   4  -1   1  367.46   10.50
   4  -1   1  390.06   10.50
  -5   1  -1   71.89    3.00
  -5   1  -1   65.79    3.30
  -5   1  -1   67.79    2.50
   5  -1   1   72.89    2.80
   5  -1   1   73.29    3.00
   5  -1   1   65.69    2.80
   5  -1   1   73.09    2.70
  -6   1  -1  108.49    4.20
  -6   1  -1  113.99    4.30
  -6   1  -1  107.39    3.70
   6  -1   1  114.69    4.30
   6  -1   1  110.89    4.00
   6  -1   1  111.89    4.10
   6  -1   1  111.79    3.90
  -7   1  -1   39.00    2.00
  -7   1  -1   42.00    2.60
   7  -1   1   34.90    2.20
   7  -1   1   37.20    2.30
   7  -1   1   38.80    2.50
   7  -1   1   35.60    2.50
  -8   1  -1   12.20    1.80
   8  -1   1   11.90    1.90
   8  -1   1   11.40    1.70
   8  -1   1   13.00    1.80
   8  -1   1   10.80    1.50
  -9   1  -1    0.40    1.30
   9  -1   1   -0.20    1.40
   9  -1   1    0.90    1.00
   9  -1   1    0.30    1.20
   9  -1   1    0.10    1.40
 -10   1  -1   -0.80    1.20
  10  -1   1    0.80    1.70
  10  -1   1   -0.50    1.30
  10  -1   1    0.50    1.30
  11   0  -1    3.70    1.90
  11   0  -1    0.30    1.60
  11   0  -1   -1.80    1.10
 -11   0   1    1.00    1.70
 -11   0   1   -2.10    1.50
  10   0  -1    4.20    1.50
  10   0  -1    5.30    1.80
  10   0  -1    3.80    1.80
 -10   0   1    4.20    1.80
   9   0  -1   99.49    4.50
   9   0  -1   97.89    4.70
   9   0  -1   96.39    4.80
   9   0  -1   93.49    4.10
  -9   0   1   92.19    4.20
  -9   0   1   92.49    4.50
   8   0  -1    6.60    1.40
   8   0  -1    6.80    1.50
   8   0  -1    5.40    1.40
   8   0  -1    7.90    1.30
  -8   0   1    6.30    1.40
  -8   0   1    7.50    1.40
   7   0  -1   27.00    1.80
   7   0  -1   33.60    2.20
   7   0  -1   35.20    2.40
   7   0  -1   29.40    2.00
  -7   0   1   30.70    2.20
  -7   0   1   30.20    1.70
  -7   0   1   33.70    2.20
   6   0  -1   48.30    2.50
   6   0  -1   48.00    2.30
   6   0  -1   51.19    2.30
   6   0  -1   48.40    2.60
  -6   0   1   48.40    2.50
  -6   0   1   47.70    2.80
  -6   0   1   48.10    2.60
  -6   0   1   51.29    2.20
   5   0  -1    0.10    0.60
   5   0  -1    1.00    0.60
   5   0  -1    1.60    0.80
   5   0  -1    0.90    0.50
   5   0  -1    0.40    0.50
  -5   0   1    1.30    0.80
  -5   0   1    0.50    0.80
  -5   0   1    0.30    0.40
  -5   0   1    0.20    0.60
  -5   0   1    0.60    0.60
  -5   0   1    1.10    0.20
   4   0  -1   16.00    1.00
   4   0  -1   15.70    1.00
   4   0  -1   15.60    1.10
   4   0  -1   14.00    1.10
   4   0  -1   14.70    1.30
  -4   0   1   15.40    0.90
  -4   0   1   16.60    1.30
  -4   0   1   16.80    0.70
  -4   0   1   15.30    1.10
  -4   0   1   14.80    1.10
  -4   0   1   13.60    1.30
   3   0  -1  448.26   11.80
   3   0  -1  420.06   11.70
   3   0  -1  455.05   11.80
   3   0  -1  441.16   12.00
   3   0  -1  426.56   11.80
  -3   0   1  457.55   12.00
  -3   0   1  440.66   11.70
  -3   0   1  470.95   11.50
  -3   0   1  429.56   12.00
  -3   0   1  431.56   11.70
  -3   0   1  446.96   11.80
   2   0  -1  108.09    3.10
   2   0  -1  100.99    3.10
   2   0  -1  101.49    3.00
   2   0  -1  100.49    3.00
   2   0  -1   97.89    2.90
   2   0  -1   97.39    2.90
  -2   0   1  101.79    3.00
  -2   0   1   98.69    3.10
  -2   0   1   97.39    3.00
  -2   0   1  105.59    2.80
  -2   0   1   96.49    2.80
  -2   0   1   97.99    3.00
   1   0  -1  835.82   22.30
   1   0  -1  887.81   22.10
   1   0  -1  893.41   22.60
   1   0  -1  841.42   22.30
   1   0  -1  866.91   22.10
   1   0  -1  858.21   22.20
   1   0  -1  870.41   22.30
  -1   0   1  851.41   22.40
  -1   0   1  859.11   22.30
  -1   0   1  869.91   22.30
  -1   0   1  878.91   22.20
  -1   0   1  815.72   22.30
  -1   0   1  833.62   22.30
  -1   0   1  781.22   22.10
  -1   0   1  894.41   22.20
   0   0  -1  162.88    3.90
   0   0  -1  158.28    3.90
   0   0  -1  142.29    3.80
   0   0  -1  142.79    3.80
   0   0  -1  131.09    3.90
   0   0  -1  151.18    3.90
   0   0  -1  147.29    3.80
   0   0   1  130.89    3.80
   0   0   1  124.29    3.80
   0   0   1  136.69    3.90
  -1   0  -1  709.63   17.70
  -1   0  -1  712.73   17.80
  -1   0  -1  729.93   17.70
  -1   0  -1  652.93   17.70
  -1   0  -1  658.63   17.70
  -1   0  -1  692.33   17.60
  -1   0  -1  678.83   17.70
  -1   0  -1  675.63   17.70
   1   0   1  652.73   17.70
   1   0   1  708.63   17.70
   1   0   1  675.93   17.70
   1   0   1  699.43   17.80
   1   0   1  662.23   17.60
   1   0   1  718.23   18.00
   1   0   1  701.93   17.60
  -2   0  -1   39.20    1.50
  -2   0  -1   40.80    1.40
  -2   0  -1   40.00    1.50
  -2   0  -1   38.70    1.50
   2   0   1   38.40    1.50
   2   0   1   41.90    1.20
   2   0   1   40.20    1.50
   2   0   1   40.80    1.40
   2   0   1   39.10    1.50
  -3   0  -1   63.59    2.30
  -3   0  -1   62.09    2.20
  -3   0  -1   65.59    1.70
  -3   0  -1   66.49    2.30
  -3   0  -1   63.99    2.30
   3   0   1   64.09    2.30
   3   0   1   63.39    2.30
   3   0   1   65.89    2.30
   3   0   1   63.89    2.30
  -4   0  -1   39.60    1.90
  -4   0  -1   35.90    1.70
  -4   0  -1   40.00    1.20
   4   0   1   38.70    1.80
   4   0   1   38.60    1.90
   4   0   1   38.50    1.80
   4   0   1   40.70    1.90
  -5   0  -1   60.89    1.60
  -5   0  -1   60.29    2.60
  -5   0  -1   55.09    2.40
   5   0   1   57.89    2.50
   5   0   1   55.99    2.60
   5   0   1   56.79    2.50
   5   0   1   60.89    2.50
   5   0   1   56.39    2.60
  -6   0  -1    6.00    0.90
  -6   0  -1    4.70    1.10
   6   0   1    4.30    1.10
   6   0   1    4.80    1.00
   6   0   1    5.20    1.30
   6   0   1    5.60    1.00
   6   0   1    5.00    1.00
  -7   0  -1   90.39    3.40
  -7   0  -1   81.09    3.80
   7   0   1   88.59    4.00
   7   0   1   90.29    3.80
   7   0   1   88.49    3.80
   7   0   1   82.69    3.60
  -8   0  -1   41.70    2.90
   8   0   1   41.00    2.70
   8   0   1   44.40    3.00
   8   0   1   47.10    3.20
   8   0   1   40.80    2.70
  -9   0  -1    1.40    1.30
   9   0   1   -1.00    0.90
   9   0   1   -0.10    1.30
   9   0   1    0.00    1.10
 -10   0  -1   -1.70    1.40
  10   0   1   -1.70    1.30
  10   0   1   -1.30    1.10
  10   0   1   -2.10    1.50
  11  -1  -1    0.80    1.40
  11  -1  -1   -0.50    1.50
  11  -1  -1   -0.90    1.50
 -11   1   1    1.20    1.80
  10  -1  -1   10.60    1.90
  10  -1  -1    9.60    1.50
  10  -1  -1    8.00    2.30
  10  -1  -1   13.60    2.20
 -10   1   1    9.30    1.90
   9  -1  -1   25.40    2.00
   9  -1  -1   26.70    2.80
   9  -1  -1   23.90    2.40
   9  -1  -1   25.60    2.70
  -9   1   1   28.90    2.80
  -9   1   1   27.10    3.50
   8  -1  -1    2.00    1.20
   8  -1  -1    0.70    0.90
   8  -1  -1    1.10    1.10
   8  -1  -1    2.30    0.80
  -8   1   1    3.80    1.20
  -8   1   1    3.90    1.20
   7  -1  -1   77.89    3.10
   7  -1  -1   81.89    3.40
   7  -1  -1   82.19    3.60
   7  -1  -1   74.99    3.40
  -7   1   1   79.69    2.90
  -7   1   1   81.29    4.00
  -7   1   1   79.79    3.50
  -7   1   1   75.89    3.40
   6  -1  -1   33.80    2.10
   6  -1  -1   30.80    1.70
   6  -1  -1   32.80    2.00
   6  -1  -1   36.40    2.00
  -6   1   1   31.50    1.70
  -6   1   1   33.70    2.20
  -6   1   1   32.90    2.40
  -6   1   1   31.40    2.00
   5  -1  -1   43.10    2.10
   5  -1  -1   37.40    1.90
   5  -1  -1   42.30    1.70
  -5   1   1   39.80    2.10
  -5   1   1   38.30    2.00
  -5   1   1   39.40    1.80
  -5   1   1   40.50    1.70
  -5   1   1   36.30    2.30
  -5   1   1   41.80    2.00
   4  -1  -1   56.69    2.20
   4  -1  -1   55.69    2.20
   4  -1  -1   54.69    1.90
   4  -1  -1   56.99    1.80
  -4   1   1   57.29    2.00
  -4   1   1   59.09    1.70
  -4   1   1   51.89    2.50
  -4   1   1   51.99    2.20
  -4   1   1   55.99    2.10
  -4   1   1   57.29    2.30
  -4   1   1   52.19    2.30
   3  -1  -1  567.14   15.20
   3  -1  -1  564.44   15.00
   3  -1  -1  586.34   15.00
   3  -1  -1  626.44   15.10
   3  -1  -1  571.24   15.30
   3  -1  -1  586.24   15.20
  -3   1   1  585.94   14.90
  -3   1   1  570.04   15.30
  -3   1   1  572.44   15.50
  -3   1   1  561.24   15.30
  -3   1   1  576.54   15.40
  -3   1   1  571.04   15.00
   2  -1  -1 1070.09   26.70
   2  -1  -1 1010.70   26.70
   2  -1  -1 1040.40   26.60
   2  -1  -1 1031.50   26.70
   2  -1  -1 1028.10   26.70
   2  -1  -1 1038.50   26.80
   2  -1  -1 1089.19   26.50
  -2   1   1 1036.10   26.70
  -2   1   1 1068.09   26.60
  -2   1   1 1032.00   26.70
  -2   1   1 1012.40   26.60
  -2   1   1 1025.50   26.80
  -2   1   1 1045.80   26.80
  -2   1   1 1025.80   26.70
   1  -1  -1 1336.57   34.60
   1  -1  -1 1390.26   34.40
   1  -1  -1 1403.56   34.20
   1  -1  -1 1299.47   34.10
   1  -1  -1 1146.39   34.00
   1  -1  -1 1338.97   34.20
   1  -1  -1 1375.76   34.70
   1  -1  -1 1311.17   34.70
   1  -1  -1 1376.76   34.60
  -1   1   1 1299.27   34.20
  -1   1   1 1300.37   34.40
  -1   1   1 1325.77   34.40
  -1   1   1 1313.37   34.50
  -1   1   1 1381.36   34.20
  -1   1   1 1396.76   34.40
  -1   1   1 1377.66   34.50
  -1   1   1 1383.26   34.20
   0  -1  -1  884.01   23.30
   0  -1  -1  897.41   23.20
   0  -1  -1  881.91   23.20
   0  -1  -1  884.61   23.20
   0  -1  -1  936.01   23.00
   0  -1  -1  910.31   23.10
   0   1   1  854.31   23.10
   0   1   1  959.80   23.20
   0   1   1  923.91   23.00
   0   1   1  931.71   23.30
   0   1   1  908.51   23.10
   0   1   1  892.41   23.20
   0   1   1  889.91   23.00
  -1  -1  -1  501.35   12.70
  -1  -1  -1  476.15   12.90
  -1  -1  -1  487.75   12.70
  -1  -1  -1  488.65   12.80
  -1  -1  -1  480.15   12.70
  -1  -1  -1  501.05   12.70
  -1  -1  -1  514.75   12.70
   1   1   1  481.65   12.80
   1   1   1  481.75   12.70
   1   1   1  497.35   12.70
   1   1   1  481.85   12.70
   1   1   1  504.95   12.70
   1   1   1  485.15   12.70
  -2  -1  -1  151.98    4.20
  -2  -1  -1  155.28    4.20
  -2  -1  -1  149.99    4.50
  -2  -1  -1  156.98    4.40
   2   1   1  157.08    4.20
   2   1   1  149.59    4.50
   2   1   1  149.99    4.30
   2   1   1  152.38    4.40
   2   1   1  151.98    4.50
   2   1   1  152.18    4.40
  -3  -1  -1  614.84   15.70
  -3  -1  -1  616.14   15.60
  -3  -1  -1  577.04   16.10
  -3  -1  -1  617.04   16.10
   3   1   1  617.64   16.10
   3   1   1  623.64   15.70
   3   1   1  594.24   16.10
   3   1   1  608.74   16.10
   3   1   1  588.04   16.00
   3   1   1  596.94   16.10
  -4  -1  -1   57.99    1.90
  -4  -1  -1   56.39    2.30
  -4  -1  -1   55.79    2.40
  -4  -1  -1   62.09    1.70
   4   1   1   58.99    2.40
   4   1   1   54.59    2.30
   4   1   1   59.79    2.50
   4   1   1   56.19    2.40
   4   1   1   64.39    2.10
   4   1   1   57.99    2.40
  -5  -1  -1    4.30    0.90
  -5  -1  -1    3.50    1.00
  -5  -1  -1    5.10    0.60
   5   1   1    3.70    0.80
   5   1   1    3.30    1.10
   5   1   1    3.00    1.00
   5   1   1    3.30    0.80
   5   1   1    3.90    1.00
  -6  -1  -1    0.60    0.60
  -6  -1  -1    1.50    0.90
   6   1   1   -2.10    0.80
   6   1   1   -1.40    0.80
   6   1   1    0.10    0.70
   6   1   1   -0.80    0.60
  -7  -1  -1   70.79    3.50
   7   1   1   60.79    3.20
   7   1   1   73.69    3.50
   7   1   1   65.49    3.40
   7   1   1   74.09    3.40
  -8  -1  -1    0.90    1.20
   8   1   1   -0.10    1.10
   8   1   1    1.20    1.00
   8   1   1   -1.40    1.10
   8   1   1    0.30    0.90
  -9  -1  -1    1.80    1.30
  -9  -1  -1    1.60    1.50
   9   1   1    2.20    1.40
   9   1   1    2.70    1.70
   9   1   1    1.90    1.20
 -10  -1  -1    1.30    1.50
 -10  -1  -1   -0.40    1.60
  10   1   1   -1.00    1.50
  10   1   1    1.30    1.70
  10   1   1   -0.20    1.20
  11  -2  -1    1.90    1.80
  11  -2  -1    0.60    1.40
  11  -2  -1   -0.20    1.40
 -11   2   1   -0.10    1.40
  10  -2  -1   28.60    2.90
  10  -2  -1   36.40    3.50
  10  -2  -1   30.50    2.90
 -10   2   1   32.30    3.20
   9  -2  -1   10.50    1.70
   9  -2  -1    9.80    1.90
   9  -2  -1    6.00    1.10
   9  -2  -1    8.00    1.80
  -9   2   1    7.00    1.70
  -9   2   1    5.30    1.70
   8  -2  -1    4.10    1.10
   8  -2  -1    1.80    1.10
   8  -2  -1    2.20    1.30
   8  -2  -1    4.50    0.90
  -8   2   1    4.30    1.50
  -8   2   1    1.70    1.10
  -8   2   1    4.70    1.20
   7  -2  -1   10.80    1.40
   7  -2  -1   11.40    1.20
   7  -2  -1    9.80    1.40
  -7   2   1   13.10    1.60
  -7   2   1   14.60    1.40
  -7   2   1    8.50    1.70
  -7   2   1   12.80    1.60
  -7   2   1   17.20    1.80
   6  -2  -1   72.49    2.70
   6  -2  -1   70.79    2.90
   6  -2  -1   73.39    3.00
   6  -2  -1   71.69    3.10
  -6   2   1   78.49    2.70
  -6   2   1   68.49    3.20
  -6   2   1   68.29    3.10
  -6   2   1   77.09    3.20
  -6   2   1   70.69    3.60
  -6   2   1   73.39    2.80
   5  -2  -1    1.00    0.40
   5  -2  -1    2.10    0.70
   5  -2  -1    1.80    0.60
   5  -2  -1    2.00    0.40
   5  -2  -1    1.30    0.60
  -5   2   1    1.70    0.80
  -5   2   1    1.40    0.40
  -5   2   1    1.20    0.70
  -5   2   1    0.90    0.80
  -5   2   1    2.20    1.00
   4  -2  -1  558.54   14.20
   4  -2  -1  543.35   14.20
   4  -2  -1  564.04   14.60
   4  -2  -1  553.94   14.60
   4  -2  -1  540.05   14.50
  -4   2   1  528.25   14.70
  -4   2   1  526.35   14.90
  -4   2   1  553.64   14.20
  -4   2   1  533.15   14.70
  -4   2   1  529.95   14.60
   3  -2  -1   22.10    1.10
   3  -2  -1   21.60    1.00
   3  -2  -1   22.60    1.10
   3  -2  -1   20.70    1.00
   3  -2  -1   21.90    0.80
   3  -2  -1   20.20    1.10
  -3   2   1   21.10    1.20
  -3   2   1   20.60    1.20
  -3   2   1   21.30    1.10
  -3   2   1   20.70    0.80
  -3   2   1   23.60    1.40
   2  -2  -1 1957.00   49.50
   2  -2  -1 2084.29   49.70
   2  -2  -1 1914.21   49.90
   2  -2  -1 1926.91   49.50
   2  -2  -1 1865.41   50.19
   2  -2  -1 2018.50   49.60
   2  -2  -1 1937.41   49.60
  -2   2   1 1874.31   49.50
  -2   2   1 1904.21   49.60
  -2   2   1 1948.11   49.70
  -2   2   1 1928.81   49.80
   1  -2  -1   85.79    2.70
   1  -2  -1   87.99    2.70
   1  -2  -1   88.99    2.30
   1  -2  -1   85.79    2.70
   1  -2  -1   89.19    2.60
   1  -2  -1   89.69    2.40
  -1   2   1   91.09    2.30
  -1   2   1   92.79    2.60
  -1   2   1   85.49    2.60
  -1   2   1   84.59    2.70
  -1   2   1   89.69    2.60
  -1   2   1   92.19    2.40
  -1   2   1   86.29    2.30
  -1   2   1   85.29    2.80
   0  -2  -1 1294.67   31.10
   0  -2  -1 1229.28   31.60
   0  -2  -1 1183.48   31.30
   0  -2  -1 1208.88   31.10
   0  -2  -1 1210.78   31.20
   0  -2  -1 1214.48   31.10
   0   2   1 1184.58   31.30
   0   2   1 1268.47   31.10
   0   2   1 1214.68   31.10
   0   2   1 1219.48   31.10
   0   2   1 1160.88   31.30
  -1  -2  -1  973.50   24.90
  -1  -2  -1  967.50   25.00
  -1  -2  -1  957.70   24.80
  -1  -2  -1  986.80   24.60
  -1  -2  -1  971.60   24.80
  -1  -2  -1  992.30   24.90
   1   2   1  939.81   24.90
   1   2   1  931.31   24.80
   1   2   1  953.00   25.10
   1   2   1  962.80   24.60
  -2  -2  -1  865.71   22.70
  -2  -2  -1  870.61   22.50
  -2  -2  -1  838.52   22.40
  -2  -2  -1  892.41   22.40
  -2  -2  -1  887.31   22.60
  -2  -2  -1  851.61   22.50
   2   2   1  861.21   22.60
   2   2   1  875.11   22.80
   2   2   1  874.91   22.40
   2   2   1  837.02   22.50
  -3  -2  -1   81.49    2.70
  -3  -2  -1   79.79    2.80
  -3  -2  -1   81.49    2.80
  -3  -2  -1   84.89    2.90
  -3  -2  -1   82.29    2.60
   3   2   1   78.39    2.70
   3   2   1   79.99    2.90
   3   2   1   85.99    3.10
  -4  -2  -1   71.19    2.80
  -4  -2  -1   71.29    2.80
  -4  -2  -1   72.09    2.20
  -4  -2  -1   69.99    2.40
   4   2   1   67.19    2.70
   4   2   1   67.19    2.80
   4   2   1   71.19    3.00
   4   2   1   69.69    2.80
   4   2   1   65.89    2.50
  -5  -2  -1   38.10    2.10
  -5  -2  -1   40.60    2.20
  -5  -2  -1   39.50    1.40
  -5  -2  -1   39.30    1.60
   5   2   1   35.30    1.90
   5   2   1   36.30    2.10
   5   2   1   38.50    2.20
   5   2   1   39.20    2.20
  -6  -2  -1   16.70    1.80
  -6  -2  -1   14.60    1.70
   6   2   1   15.00    1.70
   6   2   1   16.30    1.70
   6   2   1   15.10    1.50
   6   2   1   16.80    1.90
  -7  -2  -1    7.40    1.40
  -7  -2  -1    6.00    1.40
   7   2   1    6.10    1.30
   7   2   1    5.50    1.30
   7   2   1    7.40    1.50
   7   2   1    4.80    1.50
  -8  -2  -1    5.00    1.50
  -8  -2  -1    8.70    1.80
   8   2   1    5.20    1.50
   8   2   1    5.90    1.30
   8   2   1    5.30    1.50
   8   2   1    4.70    1.70
  -9  -2  -1    0.90    1.30
  -9  -2  -1   -1.60    1.20
   9   2   1    1.30    1.50
   9   2   1    0.80    1.20
   9   2   1   -0.40    1.10
 -10  -2  -1    2.10    1.60
 -10  -2  -1   -0.40    1.30
 -10  -2  -1    1.00    1.40
  10   2   1    2.50    1.30
  10   2   1    1.60    1.70
  11  -3  -1   -0.80    1.70
  11  -3  -1    0.20    1.50
  11  -3  -1   -0.70    1.20
 -11   3   1    0.40    1.50
  10  -3  -1    3.20    1.70
  10  -3  -1    2.70    1.50
  10  -3  -1    4.50    1.80
 -10   3   1    2.80    1.60
 -10   3   1    2.90    1.90
   9  -3  -1   13.70    1.90
   9  -3  -1   14.60    2.00
   9  -3  -1   14.90    1.50
   9  -3  -1   10.70    2.00
   9  -3  -1   11.60    1.70
  -9   3   1    9.50    2.00
  -9   3   1    9.50    1.80
   8  -3  -1    6.40    1.40
   8  -3  -1    4.80    1.20
   8  -3  -1    4.80    0.90
   8  -3  -1    4.60    1.20
  -8   3   1    4.70    1.30
  -8   3   1    3.70    1.60
  -8   3   1    6.10    1.30
  -8   3   1    4.90    1.40
   7  -3  -1   16.70    1.70
   7  -3  -1   18.90    1.70
   7  -3  -1   18.00    1.70
   7  -3  -1   14.00    1.10
  -7   3   1   14.70    2.10
  -7   3   1   16.60    1.40
  -7   3   1   15.40    1.90
  -7   3   1   18.10    1.80
  -7   3   1   14.60    1.80
   6  -3  -1   80.39    3.10
   6  -3  -1   72.09    3.00
   6  -3  -1   74.29    3.20
   6  -3  -1   70.49    2.60
   6  -3  -1   79.49    2.50
  -6   3   1   78.29    3.30
  -6   3   1   75.99    3.20
  -6   3   1   75.39    3.80
  -6   3   1   75.09    3.30
   5  -3  -1    1.50    0.60
   5  -3  -1    0.40    0.60
   5  -3  -1    2.10    0.80
   5  -3  -1    0.00    0.40
   5  -3  -1    1.20    0.40
  -5   3   1    1.30    0.70
  -5   3   1    0.60    0.90
  -5   3   1    0.10    0.70
  -5   3   1    0.30    0.70
   4  -3  -1    0.10    0.30
   4  -3  -1    0.10    0.50
   4  -3  -1   -0.40    0.40
   4  -3  -1   -0.10    0.50
   4  -3  -1    0.00    0.20
   4  -3  -1   -0.10    0.30
  -4   3   1    0.20    0.60
  -4   3   1   -0.10    0.50
  -4   3   1    1.00    0.70
  -4   3   1   -0.80    0.40
   3  -3  -1 1232.48   31.20
   3  -3  -1 1224.78   31.40
   3  -3  -1 1257.97   31.40
   3  -3  -1 1238.78   31.20
   3  -3  -1 1234.38   31.50
   3  -3  -1 1185.68   31.30
  -3   3   1 1206.68   31.50
  -3   3   1 1201.28   31.50
  -3   3   1 1200.08   31.40
  -3   3   1 1147.69   31.70
   2  -3  -1    8.60    0.50
   2  -3  -1    7.40    0.70
   2  -3  -1    9.00    0.30
   2  -3  -1    8.80    0.40
   2  -3  -1    7.00    0.70
  -2   3   1    8.90    0.80
  -2   3   1    8.60    0.80
  -2   3   1    8.40    0.90
  -2   3   1    9.00    0.40
   1  -3  -1  383.06    9.80
   1  -3  -1  375.26   10.20
   1  -3  -1  374.46   10.10
   1  -3  -1  379.96   10.10
   1  -3  -1  386.96    9.70
  -1   3   1  362.16   10.30
  -1   3   1  377.16   10.10
  -1   3   1  372.86    9.80
  -1   3   1  392.96    9.70
  -1   3   1  367.96   10.30
   0  -3  -1   56.89    1.90
   0  -3  -1   57.09    1.90
   0  -3  -1   58.99    1.80
   0  -3  -1   58.19    2.00
   0   3   1   52.79    1.80
   0   3   1   57.29    2.20
  -1  -3  -1    0.30    0.40
  -1  -3  -1    0.00    0.40
  -1  -3  -1    0.00    0.30
  -1  -3  -1    0.20    0.20
  -1  -3  -1   -0.40    0.20
   1   3   1    0.00    0.20
   1   3   1    0.00    0.30
   1   3   1   -0.30    0.30
   1   3   1    0.90    0.50
  -2  -3  -1   11.70    1.00
  -2  -3  -1   11.30    0.90
  -2  -3  -1   12.10    0.90
  -2  -3  -1   12.80    1.00
  -2  -3  -1   12.00    0.90
   2   3   1   12.10    0.90
   2   3   1   12.10    0.70
   2   3   1   12.40    0.90
   2   3   1   11.80    1.10
   2   3   1   14.00    1.20
  -3  -3  -1    6.00    0.90
  -3  -3  -1    6.40    0.90
  -3  -3  -1    6.80    1.00
  -3  -3  -1    5.20    0.80
   3   3   1    4.90    0.90
   3   3   1    5.90    1.00
   3   3   1    6.40    0.90
   3   3   1    6.40    0.70
  -4  -3  -1   30.90    2.00
  -4  -3  -1   33.10    1.60
  -4  -3  -1   34.10    1.50
  -4  -3  -1   33.50    1.90
  -4  -3  -1   33.00    1.80
   4   3   1   30.70    1.90
   4   3   1   32.80    2.20
   4   3   1   33.40    1.60
   4   3   1   31.90    1.90
  -5  -3  -1   46.90    2.40
  -5  -3  -1   47.60    2.50
  -5  -3  -1   46.40    2.10
  -5  -3  -1   45.40    1.80
   5   3   1   49.20    2.80
   5   3   1   48.20    2.20
   5   3   1   46.60    2.50
   5   3   1   47.90    2.50
  -6  -3  -1   20.60    2.00
  -6  -3  -1   18.60    1.90
   6   3   1   20.90    1.60
   6   3   1   17.20    1.90
   6   3   1   14.70    1.90
   6   3   1   20.50    2.00
  -7  -3  -1    0.70    1.00
  -7  -3  -1    1.20    1.10
  -7  -3  -1   -0.60    1.00
   7   3   1   -0.10    0.90
   7   3   1    2.60    1.30
   7   3   1    3.00    1.40
   7   3   1    0.30    0.70
  -8  -3  -1   -0.10    1.10
  -8  -3  -1    2.70    1.30
  -8  -3  -1   -0.70    1.20
   8   3   1    2.80    1.50
   8   3   1   -0.30    1.10
   8   3   1    1.30    1.10
  -9  -3  -1    3.20    1.60
  -9  -3  -1   -1.50    1.20
  -9  -3  -1    0.50    1.30
   9   3   1    1.10    1.40
   9   3   1    1.40    1.40
   9   3   1    1.10    1.10
  11  -4  -1   -1.00    1.60
  11  -4  -1   -1.00    1.60
  11  -4  -1    2.20    1.60
 -11   4   1    2.60    1.90
 -11   4   1   -1.70    1.20
  10  -4  -1    2.00    1.70
  10  -4  -1    0.90    1.20
  10  -4  -1    0.80    1.50
 -10   4   1    0.80    1.70
 -10   4   1   -1.50    1.30
   9  -4  -1   -0.70    0.90
   9  -4  -1   -0.20    1.10
   9  -4  -1    0.50    1.20
  -9   4   1   -0.80    1.50
  -9   4   1    2.20    1.50
  -9   4   1    0.10    1.20
   8  -4  -1   22.80    1.90
   8  -4  -1   21.20    2.20
   8  -4  -1   27.20    2.30
   8  -4  -1   20.90    1.40
  -8   4   1   18.10    2.50
  -8   4   1   20.30    2.30
  -8   4   1   22.40    2.20
  -8   4   1   22.60    2.40
   7  -4  -1    0.60    0.80
   7  -4  -1    1.50    0.90
   7  -4  -1   -0.20    0.70
   7  -4  -1    0.70    0.50
  -7   4   1    0.10    0.90
  -7   4   1    1.60    1.40
  -7   4   1   -0.50    0.80
  -7   4   1   -0.50    0.90
   6  -4  -1    5.20    0.90
   6  -4  -1    5.80    0.80
   6  -4  -1    4.70    0.90
   6  -4  -1    5.00    1.10
   6  -4  -1    5.10    0.60
  -6   4   1    4.50    1.00
  -6   4   1    4.50    1.20
  -6   4   1    4.90    1.10
  -6   4   1    6.10    1.60
   5  -4  -1    0.20    0.70
   5  -4  -1    0.40    0.50
   5  -4  -1    0.90    0.60
   5  -4  -1    0.30    0.60
   5  -4  -1   -0.10    0.60
   5  -4  -1    1.00    0.30
  -5   4   1    1.20    0.80
  -5   4   1    0.40    0.90
  -5   4   1    0.20    0.70
  -5   4   1    1.20    0.80
   4  -4  -1    6.60    0.40
   4  -4  -1    6.60    0.80
   4  -4  -1    5.50    0.90
   4  -4  -1    5.90    0.90
   4  -4  -1    7.10    0.80
   4  -4  -1    6.00    0.80
  -4   4   1    6.00    1.00
  -4   4   1    5.50    0.90
  -4   4   1    5.10    1.10
  -4   4   1    6.80    1.00
   3  -4  -1  118.79    3.70
   3  -4  -1  111.59    3.70
   3  -4  -1  113.19    3.00
   3  -4  -1  108.09    3.60
   3  -4  -1  109.29    3.40
   3  -4  -1  113.49    3.00
   3  -4  -1  112.79    3.60
  -3   4   1  114.59    4.00
  -3   4   1  107.39    3.70
  -3   4   1  114.99    3.80
   2  -4  -1   50.29    2.00
   2  -4  -1   48.90    1.60
   2  -4  -1   48.30    1.50
   2  -4  -1   51.19    2.00
  -2   4   1   50.49    1.50
  -2   4   1   52.19    2.20
  -2   4   1   49.70    2.30
  -2   4   1   46.60    2.00
   1  -4  -1    0.00    0.40
   1  -4  -1    0.30    0.20
   1  -4  -1    0.00    0.40
   1  -4  -1    0.50    0.10
   1  -4  -1    0.10    0.40
  -1   4   1    0.30    0.10
  -1   4   1    0.70    0.30
  -1   4   1    0.40    0.20
  -1   4   1    0.50    0.50
  -1   4   1    0.90    0.40
  -1   4   1    0.50    0.50
   0  -4  -1  616.44   16.50
   0  -4  -1  631.44   16.60
   0  -4  -1  642.74   16.30
   0  -4  -1  639.94   16.50
   0   4   1  620.74   16.30
   0   4   1  613.64   16.90
   0   4   1  607.94   16.90
  -1  -4  -1  328.17    9.30
  -1  -4  -1  346.37    9.20
  -1  -4  -1  335.57    9.20
  -1  -4  -1  328.97    9.50
   1   4   1  334.37    9.60
   1   4   1  331.07    9.60
   1   4   1  325.07    9.20
   1   4   1  329.37    9.10
  -2  -4  -1    6.60    1.00
  -2  -4  -1    7.10    1.00
  -2  -4  -1    6.20    0.80
   2   4   1    4.90    0.90
   2   4   1    4.80    0.70
   2   4   1    4.60    0.80
   2   4   1    6.10    0.50
  -3  -4  -1   24.20    1.50
  -3  -4  -1   23.30    1.50
  -3  -4  -1   27.30    1.70
   3   4   1   22.40    1.50
   3   4   1   21.40    1.50
   3   4   1   22.20    1.90
   3   4   1   24.50    1.20
  -4  -4  -1  117.49    4.10
  -4  -4  -1  118.29    4.10
  -4  -4  -1  112.39    4.40
  -4  -4  -1  117.79    3.90
  -4  -4  -1  113.19    4.10
   4   4   1  116.09    4.20
   4   4   1  113.49    4.60
   4   4   1  110.79    4.20
   4   4   1  113.49    3.80
  -5  -4  -1   80.19    3.20
  -5  -4  -1   77.29    3.30
  -5  -4  -1   78.39    3.60
  -5  -4  -1   78.39    2.90
  -5  -4  -1   76.39    3.40
   5   4   1   77.39    3.80
   5   4   1   82.39    3.10
   5   4   1   82.59    3.60
   5   4   1   82.39    3.60
  -6  -4  -1   17.50    1.90
  -6  -4  -1   17.50    2.10
  -6  -4  -1   16.70    1.90
   6   4   1   16.80    1.90
   6   4   1   19.70    2.10
   6   4   1   20.40    1.60
   6   4   1   16.90    2.00
  -7  -4  -1    1.10    1.20
  -7  -4  -1    2.50    1.10
  -7  -4  -1   -0.70    1.00
   7   4   1   -0.10    1.00
   7   4   1    0.60    0.80
   7   4   1    0.80    1.20
   7   4   1   -0.20    1.10
  -8  -4  -1    8.50    1.80
  -8  -4  -1    8.60    1.80
  -8  -4  -1    7.70    1.70
   8   4   1    9.00    2.00
   8   4   1    6.00    1.70
   8   4   1   10.10    1.60
  -9  -4  -1    2.30    1.60
  -9  -4  -1    1.60    1.40
  -9  -4  -1    2.20    1.50
   9   4   1    2.00    1.60
   9   4   1   -0.40    1.30
  11  -5  -1    0.70    1.40
  11  -5  -1    0.80    1.80
  11  -5  -1    0.80    1.70
 -11   5   1   -0.50    1.40
 -11   5   1    3.00    2.10
  10  -5  -1    2.90    1.70
  10  -5  -1    4.20    1.50
 -10   5   1    1.10    2.00
 -10   5   1    1.30    1.60
 -10   5   1   -0.50    1.50
   9  -5  -1   40.70    2.80
   9  -5  -1   47.20    3.30
  -9   5   1   45.00    3.40
  -9   5   1   48.50    3.40
  -9   5   1   45.40    4.30
   8  -5  -1    9.40    1.70
   8  -5  -1   10.00    1.40
   8  -5  -1    9.70    1.50
  -8   5   1   11.70    2.00
  -8   5   1    9.50    1.80
  -8   5   1   12.60    2.40
   7  -5  -1    6.90    1.30
   7  -5  -1    5.80    1.10
   7  -5  -1    6.10    1.30
  -7   5   1    6.40    1.40
  -7   5   1    5.00    1.30
  -7   5   1    4.60    1.80
  -7   5   1    4.90    1.30
   6  -5  -1   11.40    1.10
   6  -5  -1   12.30    1.30
   6  -5  -1   14.10    1.30
   6  -5  -1   10.60    1.50
   6  -5  -1   10.60    0.80
  -6   5   1    9.70    1.80
  -6   5   1   10.80    1.50
  -6   5   1   11.40    1.50
  -6   5   1   10.70    1.50
   5  -5  -1   19.20    0.90
   5  -5  -1   17.60    1.70
   5  -5  -1   21.20    1.30
   5  -5  -1   20.20    1.40
   5  -5  -1   17.30    1.60
   5  -5  -1   23.20    1.50
  -5   5   1   20.60    1.80
  -5   5   1   21.30    1.70
  -5   5   1   18.60    1.80
  -5   5   1   16.70    1.90
   4  -5  -1    1.50    0.60
   4  -5  -1    1.20    0.20
   4  -5  -1    1.30    0.60
   4  -5  -1    0.80    0.70
   4  -5  -1    1.10    0.20
   4  -5  -1    1.20    0.50
   4  -5  -1    1.80    0.80
  -4   5   1    2.50    1.00
  -4   5   1    1.40    0.80
  -4   5   1    2.40    0.90
  -4   5   1    1.60    0.80
   3  -5  -1   77.39    2.20
   3  -5  -1   78.69    2.50
   3  -5  -1   80.59    3.00
   3  -5  -1   78.09    2.90
  -3   5   1   76.69    3.30
  -3   5   1   80.79    3.20
  -3   5   1   76.69    3.00
  -3   5   1   77.89    2.30
   2  -5  -1  450.55   12.20
   2  -5  -1  440.16   11.50
   2  -5  -1  452.25   11.60
   2  -5  -1  442.96   12.20
  -2   5   1  450.75   11.50
  -2   5   1  421.66   12.20
  -2   5   1  442.86   12.50
  -2   5   1  443.36   12.60
   1  -5  -1   28.80    1.50
   1  -5  -1   27.00    1.40
   1  -5  -1   30.30    1.20
  -1   5   1   30.30    1.20
  -1   5   1   29.70    1.20
  -1   5   1   33.60    1.90
  -1   5   1   29.20    1.50
  -1   5   1   29.70    1.90
   0  -5  -1    4.00    0.50
   0  -5  -1    4.60    0.80
   0  -5  -1    4.30    0.70
   0  -5  -1    3.20    0.70
   0   5   1    3.00    0.50
   0   5   1    2.50    0.80
   0   5   1    3.30    0.80
  -1  -5  -1   18.80    1.30
  -1  -5  -1   16.90    1.20
  -1  -5  -1   20.50    1.20
  -1  -5  -1   20.80    1.50
  -1  -5  -1   15.90    1.20
   1   5   1   19.00    1.30
   1   5   1   20.20    1.20
   1   5   1   19.50    1.60
  -2  -5  -1   67.59    2.40
  -2  -5  -1   65.59    2.80
  -2  -5  -1   66.09    2.90
  -2  -5  -1   70.39    2.70
   2   5   1   66.89    2.70
   2   5   1   61.29    3.00
   2   5   1   69.09    2.80
  -3  -5  -1  211.68    6.80
  -3  -5  -1  206.28    6.50
  -3  -5  -1  203.88    6.70
   3   5   1  216.98    6.70
   3   5   1  211.28    7.10
   3   5   1  212.28    6.60
   3   5   1  212.08    5.90
  -4  -5  -1  194.58    6.30
  -4  -5  -1  191.28    6.40
  -4  -5  -1  196.88    6.10
  -4  -5  -1  198.38    6.60
   4   5   1  197.78    5.80
   4   5   1  198.18    6.40
   4   5   1  188.08    6.80
   4   5   1  192.38    6.40
  -5  -5  -1    4.90    1.10
  -5  -5  -1    4.50    1.10
  -5  -5  -1    4.50    1.20
  -5  -5  -1    3.00    0.80
   5   5   1    3.30    1.20
   5   5   1    1.50    0.90
   5   5   1    2.80    1.20
   5   5   1    3.80    0.80
  -6  -5  -1    0.50    0.90
  -6  -5  -1   -0.60    0.90
  -6  -5  -1    0.60    0.90
   6   5   1    1.10    1.10
   6   5   1   -0.40    0.60
   6   5   1    1.80    1.00
   6   5   1   -0.30    0.90
  -7  -5  -1   -1.50    0.90
  -7  -5  -1    1.30    1.10
  -7  -5  -1    0.30    1.10
   7   5   1   -0.30    1.00
   7   5   1    1.20    1.30
  -8  -5  -1    6.70    1.80
  -8  -5  -1    2.80    1.50
  -8  -5  -1    2.80    1.40
   8   5   1    3.50    1.60
   8   5   1   -0.50    1.30
  10  -6  -1    0.30    1.20
  10  -6  -1   -1.20    1.30
 -10   6   1    1.90    1.70
 -10   6   1    1.90    2.10
 -10   6   1   -2.40    1.60
   9  -6  -1   18.50    2.20
   9  -6  -1   20.90    2.60
  -9   6   1   16.00    3.10
  -9   6   1   18.00    2.50
  -9   6   1   22.80    2.80
   8  -6  -1    1.70    1.20
   8  -6  -1    1.30    1.00
  -8   6   1   -0.80    1.60
  -8   6   1    1.90    1.40
  -8   6   1    1.80    1.20
   7  -6  -1   12.40    1.30
   7  -6  -1   14.50    1.90
   7  -6  -1   11.70    1.40
   7  -6  -1   12.80    1.60
  -7   6   1   11.10    1.80
  -7   6   1   11.50    1.80
  -7   6   1   10.70    2.10
  -7   6   1   12.60    1.70
   6  -6  -1   76.79    3.10
   6  -6  -1   75.69    3.40
   6  -6  -1   73.19    3.50
   6  -6  -1   68.09    3.00
   6  -6  -1   76.29    3.10
  -6   6   1   73.99    3.60
  -6   6   1   67.29    3.90
  -6   6   1   75.09    3.40
  -6   6   1   67.89    3.50
   5  -6  -1   -0.30    0.60
   5  -6  -1   -0.20    0.50
   5  -6  -1   -0.80    0.70
   5  -6  -1    0.20    0.50
   5  -6  -1    0.00    0.20
   5  -6  -1    0.30    0.70
  -5   6   1   -1.20    0.90
  -5   6   1   -1.20    1.00
  -5   6   1   -0.10    0.80
  -5   6   1    0.00    0.80
   4  -6  -1   34.30    1.90
   4  -6  -1   30.40    1.00
   4  -6  -1   34.30    2.00
   4  -6  -1   31.70    1.80
   4  -6  -1   30.00    1.00
   4  -6  -1   28.70    1.50
   4  -6  -1   31.10    2.00
  -4   6   1   32.60    2.30
  -4   6   1   29.90    2.00
  -4   6   1   31.10    2.50
   3  -6  -1    8.90    0.70
   3  -6  -1    9.30    1.10
   3  -6  -1    9.60    0.50
   3  -6  -1    9.20    1.20
  -3   6   1   10.60    1.50
  -3   6   1    9.90    1.20
  -3   6   1    8.90    1.30
  -3   6   1    9.70    0.60
   2  -6  -1   82.49    2.40
   2  -6  -1   84.99    3.20
   2  -6  -1   82.09    2.50
  -2   6   1   74.59    3.40
  -2   6   1   79.79    3.60
  -2   6   1   86.59    2.50
  -2   6   1   82.29    3.20
   1  -6  -1  138.69    4.40
   1  -6  -1  140.59    4.70
   1  -6  -1  137.79    4.10
  -1   6   1  140.79    4.70
  -1   6   1  143.29    4.10
  -1   6   1  138.39    5.10
  -1   6   1  143.09    5.10
  -1   6   1  138.19    4.20
   0  -6  -1   12.70    0.90
   0  -6  -1   12.30    1.20
   0  -6  -1   14.30    1.40
   0  -6  -1   13.20    1.10
   0   6   1   11.40    1.50
   0   6   1   12.00    1.40
   0   6   1   13.60    1.00
  -1  -6  -1    1.60    0.70
  -1  -6  -1    1.10    0.60
  -1  -6  -1    2.10    0.80
   1   6   1    0.80    0.70
   1   6   1    2.10    0.60
   1   6   1    1.40    0.80
  -2  -6  -1   13.40    1.40
  -2  -6  -1   15.70    1.80
  -2  -6  -1   18.20    1.70
   2   6   1   12.00    1.60
   2   6   1   14.00    1.50
   2   6   1   14.30    1.40
  -3  -6  -1    2.40    0.90
  -3  -6  -1    2.30    1.00
  -3  -6  -1    3.00    0.90
   3   6   1    2.30    0.80
   3   6   1    2.30    0.90
   3   6   1    2.10    1.00
  -4  -6  -1   13.40    1.70
  -4  -6  -1   14.60    1.80
  -4  -6  -1   15.00    1.50
  -4  -6  -1   14.60    1.70
   4   6   1   13.50    1.90
   4   6   1   13.30    1.70
   4   6   1   13.50    1.60
  -5  -6  -1    5.80    1.30
  -5  -6  -1    4.90    1.40
  -5  -6  -1    4.50    1.00
   5   6   1    5.00    1.20
   5   6   1    3.90    1.40
   5   6   1    3.50    1.30
  -6  -6  -1    4.20    1.30
  -6  -6  -1    4.30    1.30
   6   6   1    0.70    1.20
   6   6   1    4.90    1.40
  -7  -6  -1   -0.80    1.10
  -7  -6  -1    1.90    1.30
   7   6   1    0.00    1.30
   7   6   1   -0.60    1.10
  -8  -6  -1    0.50    1.30
  -8  -6  -1    1.00    1.50
   8   6   1    1.30    1.50
   8   6   1    2.30    1.50
  10  -7  -1    2.60    1.40
  10  -7  -1   -0.80    1.60
 -10   7   1   -1.40    2.10
 -10   7   1    0.10    1.70
 -10   7   1    1.80    1.80
   9  -7  -1    3.10    1.30
   9  -7  -1    3.20    1.50
  -9   7   1    1.80    2.30
  -9   7   1    5.30    1.90
  -9   7   1    3.20    1.80
   8  -7  -1   18.20    2.30
   8  -7  -1   17.50    2.00
  -8   7   1   17.80    2.40
  -8   7   1   13.40    2.60
  -8   7   1   17.50    2.40
   7  -7  -1    3.80    1.00
   7  -7  -1    3.70    1.00
   7  -7  -1    1.20    1.10
   7  -7  -1    4.00    1.30
  -7   7   1    0.70    1.30
  -7   7   1    3.50    1.20
  -7   7   1    1.80    1.70
   6  -7  -1    3.90    1.00
   6  -7  -1    4.50    0.90
   6  -7  -1    2.90    1.20
   6  -7  -1    4.00    0.90
   6  -7  -1    4.70    1.30
  -6   7   1    2.60    1.60
  -6   7   1    3.40    1.40
  -6   7   1    4.60    1.20
  -6   7   1    3.90    1.20
   5  -7  -1   22.00    2.10
   5  -7  -1   21.30    1.70
   5  -7  -1   18.80    1.30
   5  -7  -1   19.20    1.50
   5  -7  -1   21.80    2.10
  -5   7   1   25.60    2.10
  -5   7   1   21.80    2.10
  -5   7   1   25.10    2.40
  -5   7   1   21.30    2.30
   4  -7  -1  193.48    6.40
   4  -7  -1  193.08    5.70
   4  -7  -1  204.88    6.20
   4  -7  -1  192.38    6.50
   4  -7  -1  192.28    6.40
  -4   7   1  191.78    6.50
  -4   7   1  194.58    6.80
  -4   7   1  187.58    6.90
   3  -7  -1   89.99    2.80
   3  -7  -1   90.49    3.70
  -3   7   1   83.49    4.00
  -3   7   1   95.79    3.70
  -3   7   1   93.89    4.10
   2  -7  -1  100.49    3.80
   2  -7  -1   93.59    2.90
  -2   7   1   89.29    4.00
  -2   7   1   95.49    2.90
  -2   7   1   93.49    4.10
  -2   7   1   96.89    3.80
   1  -7  -1   33.20    1.50
   1  -7  -1   34.70    2.10
  -1   7   1   34.90    2.40
  -1   7   1   34.60    1.50
  -1   7   1   34.10    2.30
  -1   7   1   34.60    2.10
   0  -7  -1   45.30    2.40
   0  -7  -1   48.80    2.50
   0  -7  -1   48.20    2.30
   0   7   1   48.20    2.90
   0   7   1   49.50    2.80
   0   7   1   50.49    2.20
  -1  -7  -1   22.20    1.70
  -1  -7  -1   23.80    1.70
  -1  -7  -1   21.70    1.70
   1   7   1   19.40    2.00
   1   7   1   24.20    2.10
   1   7   1   21.60    1.50
  -2  -7  -1   37.70    2.20
  -2  -7  -1   42.90    2.30
  -2  -7  -1   41.30    2.30
   2   7   1   45.40    2.90
   2   7   1   41.20    2.20
  -3  -7  -1    1.40    0.80
  -3  -7  -1    1.20    0.90
   3   7   1    0.80    0.80
   3   7   1   -0.80    0.80
   3   7   1    0.80    1.00
  -4  -7  -1    7.80    1.50
  -4  -7  -1    9.40    1.30
  -4  -7  -1   10.20    1.60
   4   7   1    9.20    1.70
   4   7   1    7.80    1.40
   4   7   1    9.70    1.70
  -5  -7  -1    0.70    1.10
  -5  -7  -1    0.80    0.80
  -5  -7  -1    2.00    1.10
   5   7   1   -0.20    1.10
   5   7   1    1.20    1.00
   5   7   1   -0.80    1.10
  -6  -7  -1    0.30    1.20
  -6  -7  -1    2.80    1.40
   6   7   1    3.70    1.50
   6   7   1    1.40    1.40
  -7  -7  -1    2.60    1.50
  -7  -7  -1   -0.30    1.10
   7   7   1   -0.80    1.30
   7   7   1   -0.10    1.30
   9  -8  -1    5.70    2.00
   9  -8  -1    9.20    1.70
  -9   8   1    4.30    1.90
  -9   8   1    7.50    2.70
  -9   8   1    9.60    2.30
   8  -8  -1    1.90    1.10
   8  -8  -1    3.20    1.60
  -8   8   1    3.60    1.60
  -8   8   1    1.10    2.00
  -8   8   1    2.50    1.50
   7  -8  -1   52.69    3.60
   7  -8  -1   52.89    2.80
   7  -8  -1   50.59    3.20
   7  -8  -1   48.00    2.80
  -7   8   1   58.89    4.50
  -7   8   1   49.90    3.40
   6  -8  -1   10.20    1.80
   6  -8  -1    9.80    1.30
   6  -8  -1   11.40    1.50
   6  -8  -1   10.80    1.70
  -6   8   1    6.70    1.90
  -6   8   1   12.80    2.00
  -6   8   1   11.10    1.80
  -6   8   1   14.00    1.90
   5  -8  -1    0.50    0.50
   5  -8  -1    1.20    1.00
   5  -8  -1    0.20    0.80
   5  -8  -1   -0.20    1.00
   5  -8  -1    0.60    0.60
  -5   8   1    1.80    0.90
  -5   8   1   -1.00    1.10
  -5   8   1    0.10    1.20
  -5   8   1   -0.10    1.00
   4  -8  -1   -0.20    0.80
   4  -8  -1    0.00    0.90
   4  -8  -1    0.60    0.90
  -4   8   1   -0.10    1.10
  -4   8   1    1.00    1.00
  -4   8   1    0.70    1.20
   3  -8  -1   -0.80    0.70
  -3   8   1    0.60    0.90
  -3   8   1   -0.40    0.90
  -3   8   1   -2.20    0.80
   2  -8  -1  117.79    4.60
  -2   8   1  121.89    4.70
  -2   8   1  113.09    5.00
  -2   8   1  124.19    5.20
   1  -8  -1  122.59    4.80
  -1   8   1  126.09    4.80
  -1   8   1  142.69    4.40
  -1   8   1  127.59    5.30
  -1   8   1  131.79    5.40
   0  -8  -1   10.60    1.50
   0  -8  -1   12.30    1.30
   0  -8  -1    8.40    1.30
   0   8   1   10.90    1.20
   0   8   1   12.20    1.20
   0   8   1   10.80    1.60
   0   8   1    7.90    1.50
  -1  -8  -1    9.50    1.30
  -1  -8  -1   12.90    1.60
  -1  -8  -1   12.80    1.50
   1   8   1    8.80    1.50
   1   8   1    9.90    1.70
   1   8   1   10.60    1.30
  -2  -8  -1    2.10    1.00
  -2  -8  -1    2.70    1.00
  -2  -8  -1    1.40    0.90
   2   8   1    2.40    0.90
   2   8   1    2.50    1.20
   2   8   1    1.40    1.10
  -3  -8  -1   17.10    1.90
  -3  -8  -1   13.80    1.70
  -3  -8  -1   14.70    1.70
  -3  -8  -1   13.80    1.70
   3   8   1   16.60    2.20
   3   8   1   11.80    1.60
  -4  -8  -1   -0.20    1.00
  -4  -8  -1    0.10    0.70
  -4  -8  -1    1.20    0.90
  -4  -8  -1    0.80    1.00
   4   8   1   -0.40    1.00
   4   8   1   -0.50    1.00
   4   8   1    0.50    1.00
  -5  -8  -1    0.40    0.90
  -5  -8  -1    1.50    1.20
  -5  -8  -1    0.40    1.10
   5   8   1   -1.60    1.30
   5   8   1   -0.50    1.30
  -6  -8  -1    4.40    1.60
  -6  -8  -1    4.70    1.60
   6   8   1    2.70    1.60
   6   8   1    2.40    1.70
   9  -9  -1    2.00    1.80
  -9   9   1    3.00    2.40
  -9   9   1    4.70    2.10
  -9   9   1    0.60    1.50
   8  -9  -1   -0.90    1.20
  -8   9   1   -0.60    1.40
  -8   9   1   -3.30    1.80
  -8   9   1    0.10    1.30
   7  -9  -1    3.00    1.50
   7  -9  -1    3.20    1.40
   7  -9  -1    2.00    1.10
  -7   9   1    3.50    1.70
  -7   9   1    2.50    2.10
  -7   9   1    3.80    1.70
   6  -9  -1    8.00    1.70
   6  -9  -1    7.50    1.40
   6  -9  -1    9.80    1.90
  -6   9   1   10.70    2.20
  -6   9   1   10.20    2.40
  -6   9   1    8.10    1.80
   5  -9  -1   -0.90    0.90
   5  -9  -1    0.60    1.20
   5  -9  -1    1.10    0.90
  -5   9   1   -0.70    1.20
  -5   9   1    0.20    1.10
  -5   9   1   -1.90    1.30
   4  -9  -1    3.80    1.20
   4  -9  -1    3.60    1.10
   4  -9  -1    3.50    1.20
  -4   9   1    4.10    1.50
  -4   9   1    3.90    1.50
  -4   9   1    3.90    1.30
   3  -9  -1    0.10    1.00
   3  -9  -1    0.50    0.90
  -3   9   1    2.70    1.10
  -3   9   1    2.40    1.20
  -3   9   1    2.40    1.40
   2  -9  -1    6.60    1.40
  -2   9   1    7.90    1.70
  -2   9   1    6.20    1.60
  -2   9   1    5.70    1.30
   1  -9  -1   11.10    1.60
  -1   9   1    8.70    1.50
  -1   9   1    7.00    1.60
  -1   9   1    6.20    1.40
   0  -9  -1   22.90    2.20
   0  -9  -1   17.50    1.80
   0   9   1   17.20    2.20
   0   9   1   18.50    1.90
   0   9   1   19.20    2.30
  -1  -9  -1    1.80    1.00
  -1  -9  -1    2.70    1.00
   1   9   1    2.90    1.00
   1   9   1    3.20    1.30
   1   9   1    3.70    1.30
  -2  -9  -1    0.80    0.90
  -2  -9  -1   -0.10    1.00
   2   9   1   -0.40    0.70
   2   9   1    1.50    1.20
   2   9   1   -0.70    1.10
  -3  -9  -1    7.30    1.60
  -3  -9  -1    7.60    1.40
  -3  -9  -1    6.30    1.40
   3   9   1    7.00    1.40
   3   9   1    7.50    1.70
   3   9   1    6.50    1.90
  -4  -9  -1    3.30    1.30
  -4  -9  -1    1.50    1.00
  -4  -9  -1    3.20    1.20
   4   9   1    2.30    1.30
   4   9   1    1.00    1.40
  -5  -9  -1   12.50    2.00
  -5  -9  -1    9.20    1.70
   5   9   1    7.50    2.10
   8 -10  -1    0.10    1.50
  -8  10   1    1.80    1.70
  -8  10   1   -1.20    2.00
  -8  10   1    2.60    1.80
   7 -10  -1   11.90    2.40
   7 -10  -1   11.90    2.00
   7 -10  -1   12.20    2.20
  -7  10   1   10.10    2.40
  -7  10   1    8.20    2.00
  -7  10   1   10.20    2.80
   6 -10  -1    3.10    1.60
   6 -10  -1    2.00    1.40
   6 -10  -1    3.80    1.30
  -6  10   1    1.90    1.80
  -6  10   1    1.90    2.10
  -6  10   1    2.70    1.50
   5 -10  -1    0.10    1.10
   5 -10  -1    1.20    1.30
   5 -10  -1   -0.60    0.90
  -5  10   1   -0.30    1.60
  -5  10   1    1.50    1.70
  -5  10   1    1.10    1.30
   4 -10  -1    3.30    1.20
   4 -10  -1    4.50    1.30
   4 -10  -1    1.90    1.40
  -4  10   1    2.40    1.30
  -4  10   1    1.40    1.40
  -4  10   1    3.30    1.60
   3 -10  -1    8.10    1.60
   3 -10  -1    8.90    1.80
  -3  10   1    5.20    1.50
  -3  10   1    7.80    1.90
  -3  10   1    6.60    1.50
   2 -10  -1    3.10    1.20
   2 -10  -1    4.30    1.30
  -2  10   1    1.70    1.30
  -2  10   1    4.80    1.30
  -2  10   1    1.90    1.30
   1 -10  -1    1.10    1.00
  -1  10   1    2.00    1.10
  -1  10   1    0.30    1.40
  -1  10   1    1.20    1.30
   0 -10  -1   -1.20    0.70
   0  10   1    2.80    1.00
   0  10   1   -1.20    1.20
   0  10   1   -0.90    1.10
  -1 -10  -1    3.40    1.20
  -1 -10  -1    4.80    1.40
  -1 -10  -1    5.00    1.30
   1  10   1    6.90    1.70
   1  10   1    4.20    1.70
  -2 -10  -1    0.10    1.10
  -2 -10  -1   -0.60    0.70
  -2 -10  -1   -0.10    0.90
   2  10   1    1.40    1.30
   2  10   1   -1.20    0.90
  -3 -10  -1    7.00    1.70
  -3 -10  -1    3.90    1.30
  -3 -10  -1    4.80    1.40
   3  10   1    5.40    1.70
   3  10   1    5.00    1.90
  -4 -10  -1    1.10    1.20
  -4 -10  -1    1.40    1.00
  -4 -10  -1    0.70    1.10
   4  10   1    1.20    1.40
   4  10   1   -3.40    1.30
  -7  11   1   -6.00    1.70
   6 -11  -1    8.70    1.80
   6 -11  -1    7.00    2.00
   6 -11  -1    8.00    1.80
  -6  11   1    4.80    1.80
  -6  11   1    3.70    2.30
  -6  11   1    5.40    2.30
   5 -11  -1    1.20    1.20
   5 -11  -1    2.10    1.50
   5 -11  -1   -0.70    1.30
  -5  11   1    0.20    1.40
  -5  11   1   -2.60    1.60
  -5  11   1    0.40    1.90
   4 -11  -1   -0.80    1.20
   4 -11  -1   -0.70    0.90
   4 -11  -1    0.60    1.20
  -4  11   1   -0.70    1.10
  -4  11   1   -1.90    1.60
  -4  11   1   -2.90    1.40
   3 -11  -1    8.90    1.80
   3 -11  -1    6.10    1.60
  -3  11   1    8.30    1.80
  -3  11   1    6.60    2.00
  -3  11   1   10.70    2.40
   2 -11  -1    0.20    1.10
   2 -11  -1    1.00    1.10
  -2  11   1    0.80    1.70
  -2  11   1    0.60    1.50
  -2  11   1    1.40    1.20
   1 -11  -1    7.90    1.80
   1 -11  -1    9.20    1.80
  -1  11   1    8.60    1.70
  -1  11   1    8.20    2.00
  -1  11   1    9.10    2.10
   0 -11  -1   41.40    3.20
   0 -11  -1   45.40    3.40
   0  11   1   44.80    3.90
   0  11   1   45.20    3.20
   0  11   1   45.90    3.90
  -1 -11  -1   18.90    2.30
  -1 -11  -1   23.20    2.70
   1  11   1   19.10    2.90
   1  11   1   18.30    2.70
   1  11   1   16.60    2.10
  -2 -11  -1    4.30    1.50
  -2 -11  -1    5.70    1.70
  -2 -11  -1    3.00    1.30
   2  11   1    0.90    1.40
   2  11   1    1.70    1.60
  -3 -11  -1   -0.20    1.20
   3  11   1    2.50    1.70
   3  11   1    3.80    1.80
   4 -12  -1    0.10    1.50
   4 -12  -1   -0.90    1.00
   4 -12  -1   -0.40    1.20
  -4  12   1   -1.90    1.80
  -4  12   1   -3.40    1.60
  -4  12   1   -1.40    1.30
   3 -12  -1    1.40    1.50
   3 -12  -1    1.20    1.20
  -3  12   1   -2.10    1.60
  -3  12   1   -3.50    1.40
  -3  12   1   -0.30    1.20
   2 -12  -1    5.90    1.70
   2 -12  -1    2.20    1.50
  -2  12   1    2.10    1.70
  -2  12   1    2.80    1.50
  -2  12   1    2.10    2.20
   1 -12  -1   18.60    2.60
   1 -12  -1   19.70    2.50
  -1  12   1   14.80    2.90
  -1  12   1   11.70    2.50
  -1  12   1   20.30    2.50
   0 -12  -1    8.00    1.80
   0 -12  -1    8.60    1.80
   0  12   1    7.30    2.20
   0  12   1    8.90    1.80
   0  12   1    9.50    2.40
   1  12  -2    8.10    2.40
   1  12  -2   14.20    2.40
  -1 -12   2    9.10    2.20
   0  12  -2    1.70    1.60
   0  12  -2    0.40    1.80
   0 -12   2    1.40    1.40
  -1  12  -2    0.00    2.00
  -1  12  -2    5.40    1.70
   1 -12   2    1.80    1.80
  -2  12  -2   -0.10    1.30
  -2  12  -2   -2.30    1.60
   2 -12   2   -0.60    1.50
  -3  12  -2    4.20    2.00
  -3  12  -2    1.80    2.20
   3 -12   2    4.00    2.00
   3  11  -2    5.00    2.10
  -3 -11   2    6.40    2.10
  -3 -11   2   10.90    2.70
  -3 -11   2    9.30    2.10
   2  11  -2   13.20    2.50
  -2 -11   2   15.00    2.40
  -2 -11   2   18.10    2.70
   1  11  -2    5.40    1.60
   1  11  -2    0.60    1.50
  -1 -11   2   -1.60    1.40
   0  11  -2   -1.10    1.00
   0  11  -2   -3.10    1.20
   0 -11   2   -1.70    1.20
  -1  11  -2   -0.20    1.60
  -1  11  -2   -0.70    1.20
  -1  11  -2   -1.30    1.10
   1 -11   2    3.60    1.70
  -2  11  -2    0.40    1.70
  -2  11  -2   -3.20    1.30
  -2  11  -2    1.80    1.40
   2 -11   2    1.90    1.60
  -3  11  -2    4.60    1.70
  -3  11  -2    1.60    1.80
  -3  11  -2    0.60    1.80
   3 -11   2    4.00    1.80
  -4  11  -2    2.60    2.10
  -4  11  -2    3.70    1.90
  -4  11  -2    5.50    1.90
   4 -11   2    8.00    2.10
   4 -11   2    5.50    2.00
  -5  11  -2    1.30    1.80
  -5  11  -2   -3.10    1.70
  -5  11  -2    0.50    2.00
   5 -11   2    1.20    1.70
   5 -11   2   -2.30    1.60
   5  10  -2    1.60    1.60
  -5 -10   2   -0.40    1.40
  -5 -10   2    0.40    1.50
  -5 -10   2   -1.30    1.30
   4  10  -2    0.10    1.10
   4  10  -2    0.10    1.50
  -4 -10   2    2.60    1.50
  -4 -10   2   -1.70    1.30
  -4 -10   2    0.20    1.40
   3  10  -2    4.00    1.70
   3  10  -2    4.80    1.30
  -3 -10   2    5.50    2.00
  -3 -10   2    5.90    1.70
  -3 -10   2    3.30    1.50
   2  10  -2    2.40    1.30
   2  10  -2    3.70    1.20
   2  10  -2    2.30    1.60
  -2 -10   2    2.40    1.30
  -2 -10   2    3.00    1.70
  -2 -10   2    2.60    1.50
   1  10  -2    1.60    1.20
   1  10  -2    2.10    1.00
   1  10  -2    1.80    1.50
  -1 -10   2    5.40    2.00
  -1 -10   2    4.20    1.60
  -1 -10   2    0.90    1.40
   0  10  -2    7.60    1.60
   0  10  -2    7.20    1.70
   0  10  -2    6.20    1.80
   0  10  -2    8.50    2.00
   0 -10   2    9.60    2.20
   0 -10   2    9.40    1.90
  -1  10  -2   15.10    2.10
  -1  10  -2   14.80    2.50
  -1  10  -2   15.90    2.10
   1 -10   2   20.00    2.40
  -2  10  -2   -0.70    1.20
  -2  10  -2   -0.60    1.20
  -2  10  -2   -0.70    1.30
   2 -10   2   -0.40    1.10
  -3  10  -2    4.30    1.80
  -3  10  -2    5.70    1.80
  -3  10  -2    7.00    2.20
   3 -10   2    5.70    1.80
  -4  10  -2   -0.20    1.30
  -4  10  -2   -0.60    1.70
  -4  10  -2   -1.60    1.50
   4 -10   2   -0.50    1.40
   4 -10   2   -0.40    1.30
  -5  10  -2   10.20    2.20
  -5  10  -2    9.40    2.50
  -5  10  -2    9.00    2.60
   5 -10   2    8.50    2.20
   5 -10   2    6.70    2.00
  -6  10  -2    1.20    2.10
  -6  10  -2    6.60    2.10
   6 -10   2    3.00    1.70
   6 -10   2    1.40    1.70
   6   9  -2    0.40    1.60
   6   9  -2   -1.90    1.20
  -6  -9   2   -0.20    1.30
  -6  -9   2   -1.10    1.10
  -6  -9   2   -1.30    1.30
   5   9  -2    1.60    1.50
   5   9  -2    2.60    1.50
  -5  -9   2    3.40    1.60
  -5  -9   2    0.40    1.40
  -5  -9   2    1.80    1.40
   4   9  -2    0.90    1.10
   4   9  -2   -0.80    1.10
  -4  -9   2   -2.20    1.00
  -4  -9   2    1.50    1.60
  -4  -9   2   -0.20    1.00
   3   9  -2    0.80    1.30
   3   9  -2    3.20    1.20
   3   9  -2    3.60    1.00
  -3  -9   2    2.70    1.50
  -3  -9   2    3.60    1.30
  -3  -9   2    4.10    1.80
   2   9  -2    5.10    1.50
   2   9  -2    4.30    1.10
   2   9  -2    3.40    1.10
  -2  -9   2    5.10    1.40
  -2  -9   2    2.30    1.40
  -2  -9   2    2.40    1.30
   1   9  -2   -1.20    0.90
   1   9  -2    0.40    0.80
   1   9  -2    1.30    0.90
  -1  -9   2    0.10    1.10
  -1  -9   2    0.20    1.30
  -1  -9   2    2.70    1.30
   0   9  -2    9.50    1.80
   0   9  -2   10.80    1.60
   0   9  -2   12.80    1.80
   0   9  -2   15.40    1.60
   0  -9   2   11.50    1.80
   0  -9   2   14.00    2.20
   0  -9   2   13.10    1.80
  -1   9  -2   30.60    2.50
  -1   9  -2   28.40    2.50
  -1   9  -2   30.70    2.00
  -1   9  -2   34.60    3.00
   1  -9   2   30.20    2.70
   1  -9   2   29.70    2.70
  -2   9  -2   -1.80    1.00
  -2   9  -2   -0.40    1.20
  -2   9  -2    0.70    1.10
  -2   9  -2    1.90    0.80
   2  -9   2    0.00    1.00
  -3   9  -2   -1.20    1.20
  -3   9  -2   -0.50    1.40
  -3   9  -2    0.50    1.20
   3  -9   2   -1.00    0.90
  -4   9  -2    8.20    2.00
  -4   9  -2    4.30    1.90
  -4   9  -2    8.60    1.80
   4  -9   2    6.10    1.70
   4  -9   2    9.00    1.80
  -5   9  -2   -2.40    1.50
  -5   9  -2    0.20    1.50
  -5   9  -2    0.50    1.50
   5  -9   2    0.40    1.30
   5  -9   2    1.80    1.00
   5  -9   2    1.50    1.50
  -6   9  -2    5.00    2.30
  -6   9  -2    4.00    1.80
   6  -9   2    4.50    1.20
   6  -9   2    0.30    1.50
   6  -9   2    4.30    1.70
  -7   9  -2    0.20    2.10
  -7   9  -2   -1.10    1.70
   7  -9   2   -2.30    0.90
   7  -9   2   -0.30    1.40
   7  -9   2    1.80    1.60
   7   8  -2   12.00    2.50
   7   8  -2    8.80    2.00
  -7  -8   2   10.70    2.00
  -7  -8   2    7.00    2.00
   6   8  -2    3.00    1.60
   6   8  -2    1.70    1.30
  -6  -8   2   -0.70    1.40
  -6  -8   2    1.00    1.20
   5   8  -2   -1.10    1.20
   5   8  -2    3.40    1.30
   5   8  -2    1.60    0.90
  -5  -8   2    2.10    1.30
  -5  -8   2    0.90    1.30
   4   8  -2    5.80    1.20
   4   8  -2    2.90    1.30
   4   8  -2    6.50    1.30
   4   8  -2    6.70    1.60
  -4  -8   2    6.40    1.70
  -4  -8   2    3.60    1.30
  -4  -8   2    2.80    1.40
   3   8  -2    3.10    1.00
   3   8  -2    4.70    1.10
   3   8  -2    7.00    1.50
  -3  -8   2    6.50    1.40
  -3  -8   2    8.60    1.50
  -3  -8   2    5.40    1.70
   2   8  -2    0.60    0.70
   2   8  -2    1.10    0.90
   2   8  -2    0.50    1.00
  -2  -8   2   -0.10    0.90
  -2  -8   2    0.10    1.10
  -2  -8   2    0.80    1.10
   1   8  -2   40.60    2.30
   1   8  -2   42.80    3.00
   1   8  -2   42.30    2.50
  -1  -8   2   38.40    2.80
  -1  -8   2   41.20    2.60
  -1  -8   2   41.50    2.70
   0   8  -2   28.30    1.90
   0   8  -2   27.00    2.10
   0   8  -2   20.30    2.20
   0  -8   2   27.00    2.20
   0  -8   2   29.90    2.50
   0  -8   2   27.90    2.20
  -1   8  -2   25.50    1.70
  -1   8  -2   22.40    2.10
  -1   8  -2   23.50    2.20
  -1   8  -2   24.10    2.50
   1  -8   2   26.30    2.20
   1  -8   2   21.90    2.20
   1  -8   2   28.40    1.40
  -2   8  -2    3.40    1.50
  -2   8  -2    1.10    1.10
  -2   8  -2    1.00    1.00
  -2   8  -2    4.00    0.90
   2  -8   2    3.70    0.70
   2  -8   2    3.80    1.20
  -3   8  -2   -0.10    1.20
  -3   8  -2   -0.40    1.20
  -3   8  -2    0.20    0.90
  -3   8  -2   -1.00    0.60
   3  -8   2    0.60    0.60
   3  -8   2   -0.30    1.00
  -4   8  -2    4.60    1.60
  -4   8  -2    4.10    0.90
  -4   8  -2    4.20    1.50
  -4   8  -2    3.40    1.30
   4  -8   2    4.40    1.30
   4  -8   2    4.60    1.40
   4  -8   2    5.80    1.00
  -5   8  -2    9.60    2.10
  -5   8  -2   13.20    2.00
  -5   8  -2   13.10    1.40
  -5   8  -2    9.80    2.10
   5  -8   2   14.00    2.00
   5  -8   2   12.80    2.00
   5  -8   2   13.70    1.60
  -6   8  -2    0.80    1.70
  -6   8  -2    3.50    1.60
   6  -8   2    2.10    1.50
   6  -8   2    1.30    1.30
   6  -8   2    4.60    1.20
  -7   8  -2    5.70    2.30
  -7   8  -2    8.80    2.00
   7  -8   2    7.50    1.50
   7  -8   2    6.80    2.00
   7  -8   2    8.90    2.10
  -8   8  -2   27.70    3.60
  -8   8  -2   25.10    3.10
  -8   8  -2   31.80    3.50
   8  -8   2   23.40    2.90
   8  -8   2   24.50    2.60
   8   7  -2    1.90    1.50
   8   7  -2    2.50    1.60
  -8  -7   2    2.60    1.50
  -8  -7   2    4.00    1.80
   7   7  -2    0.50    1.10
   7   7  -2   -0.20    1.40
  -7  -7   2   -0.30    1.00
  -7  -7   2    0.10    1.30
  -7  -7   2    1.00    1.20
   6   7  -2   10.50    2.00
   6   7  -2   11.20    1.90
  -6  -7   2    9.10    1.90
  -6  -7   2    6.90    1.50
  -6  -7   2    8.40    1.80
   5   7  -2    0.30    1.20
   5   7  -2    0.50    0.80
   5   7  -2   -1.60    0.90
  -5  -7   2   -1.80    0.90
  -5  -7   2    1.30    1.10
  -5  -7   2    0.20    0.80
   4   7  -2    0.80    1.00
   4   7  -2    0.80    1.00
   4   7  -2    0.80    0.90
  -4  -7   2   -0.40    0.90
  -4  -7   2    0.80    1.10
  -4  -7   2    0.40    0.70
   3   7  -2   -0.70    0.70
   3   7  -2    0.10    0.70
   3   7  -2   -1.20    0.80
   3   7  -2   -0.20    0.60
  -3  -7   2    0.70    1.00
  -3  -7   2   -0.40    0.90
  -3  -7   2   -1.00    0.80
  -3  -7   2   -0.20    0.60
   2   7  -2   15.50    1.90
   2   7  -2   16.90    1.60
   2   7  -2   12.70    1.40
  -2  -7   2   12.60    1.60
  -2  -7   2   13.30    1.60
  -2  -7   2   18.60    2.10
   1   7  -2   20.90    1.60
   1   7  -2   25.10    1.80
   1   7  -2   16.80    1.90
  -1  -7   2   18.70    1.80
  -1  -7   2   22.50    1.10
  -1  -7   2   23.60    2.00
  -1  -7   2   17.20    1.80
   0   7  -2  152.38    5.00
   0   7  -2  152.18    5.30
   0  -7   2  159.28    4.60
   0  -7   2  149.29    5.70
   0  -7   2  158.98    5.60
   0  -7   2  155.08    5.50
  -1   7  -2   19.80    1.50
  -1   7  -2   20.00    1.90
  -1   7  -2   17.00    2.00
  -1   7  -2   16.20    1.70
   1  -7   2   17.80    1.80
   1  -7   2   18.60    1.10
   1  -7   2   18.40    2.00
  -2   7  -2   17.00    1.80
  -2   7  -2   19.20    1.40
  -2   7  -2   18.20    1.90
  -2   7  -2   14.00    1.80
   2  -7   2   17.80    1.80
   2  -7   2   22.70    2.20
   2  -7   2   17.70    1.20
  -3   7  -2    3.00    1.40
  -3   7  -2    2.90    0.80
  -3   7  -2    2.10    1.20
  -3   7  -2    3.80    1.10
   3  -7   2    1.30    1.10
   3  -7   2    3.90    0.90
  -4   7  -2    4.70    1.30
  -4   7  -2    6.00    1.00
  -4   7  -2    2.80    0.80
  -4   7  -2    1.00    1.30
  -4   7  -2    4.40    1.40
   4  -7   2    3.30    0.90
   4  -7   2    2.30    1.10
   4  -7   2    3.30    1.20
  -5   7  -2    0.10    0.60
  -5   7  -2    0.80    1.40
  -5   7  -2   -0.70    1.00
   5  -7   2    0.30    1.00
   5  -7   2    0.40    1.00
   5  -7   2    0.40    0.80
   5  -7   2   -0.10    0.50
  -6   7  -2    1.40    1.30
  -6   7  -2    2.50    1.70
   6  -7   2    4.80    1.30
   6  -7   2    4.70    1.50
   6  -7   2    4.90    1.60
  -7   7  -2   29.40    3.50
  -7   7  -2   31.30    3.10
  -7   7  -2   26.40    2.90
   7  -7   2   25.50    2.40
   7  -7   2   31.50    2.90
  -8   7  -2   16.00    2.50
  -8   7  -2   15.00    2.90
  -8   7  -2   17.10    2.70
   8  -7   2   13.30    2.10
   8  -7   2   13.90    2.30
  -9   7  -2    7.30    2.10
  -9   7  -2    4.00    2.10
  -9   7  -2    4.70    2.20
   9  -7   2    1.60    1.50
   9  -7   2    5.70    1.70
   9   6  -2    2.50    2.00
  -9  -6   2    3.00    1.70
  -9  -6   2    5.40    1.80
   8   6  -2    0.10    1.10
   8   6  -2    7.40    2.10
  -8  -6   2    1.50    1.40
  -8  -6   2    3.10    1.60
   7   6  -2    0.50    1.30
   7   6  -2    0.20    0.90
  -7  -6   2    1.00    1.30
  -7  -6   2    0.50    1.20
  -7  -6   2    0.70    1.00
   6   6  -2    4.00    1.20
   6   6  -2    5.20    1.30
   6   6  -2    5.60    1.50
  -6  -6   2    9.70    1.70
  -6  -6   2    5.90    1.50
  -6  -6   2    6.20    1.30
   5   6  -2   10.70    1.70
   5   6  -2   10.00    1.50
   5   6  -2    8.50    1.40
  -5  -6   2    8.50    1.50
  -5  -6   2    8.80    1.70
  -5  -6   2    8.90    1.40
   4   6  -2  126.59    4.80
   4   6  -2  117.89    4.60
   4   6  -2  115.69    4.80
  -4  -6   2  123.59    4.70
  -4  -6   2  124.69    5.00
  -4  -6   2  127.59    4.30
   3   6  -2   21.40    1.80
   3   6  -2   19.80    1.90
   3   6  -2   20.30    1.50
   3   6  -2   20.60    1.60
  -3  -6   2   22.20    2.00
  -3  -6   2   19.00    1.80
  -3  -6   2   19.60    1.30
   2   6  -2  194.48    6.50
   2   6  -2  188.28    6.30
   2   6  -2  200.78    6.10
   2   6  -2  190.88    6.10
  -2  -6   2  190.78    6.30
  -2  -6   2  189.88    6.20
  -2  -6   2  201.48    5.60
  -2  -6   2  179.18    6.50
   1   6  -2   38.70    2.00
   1   6  -2   38.40    2.40
   1   6  -2   36.40    1.90
  -1  -6   2   41.20    1.30
  -1  -6   2   38.50    2.20
  -1  -6   2   35.00    2.30
  -1  -6   2   38.40    2.20
   0   6  -2   16.20    1.30
   0   6  -2   16.80    1.50
   0  -6   2   15.40    1.50
   0  -6   2   18.60    1.00
   0  -6   2   19.20    1.70
   0  -6   2   17.80    1.90
  -1   6  -2  285.47    9.30
  -1   6  -2  305.07    9.10
  -1   6  -2  296.97    8.60
  -1   6  -2  304.67    9.00
   1  -6   2  299.87    9.20
   1  -6   2  306.97    9.10
   1  -6   2  312.77    8.40
  -2   6  -2  463.25   12.30
  -2   6  -2  439.16   13.00
  -2   6  -2  443.76   12.70
  -2   6  -2  431.16   12.60
  -2   6  -2  438.16   12.10
   2  -6   2  440.06   12.60
   2  -6   2  414.86   12.60
   2  -6   2  439.56   12.00
  -3   6  -2    1.00    0.70
  -3   6  -2    1.10    0.90
  -3   6  -2    0.80    0.50
  -3   6  -2    0.50    1.10
  -3   6  -2    1.80    1.10
   3  -6   2    1.40    0.60
   3  -6   2   -0.20    0.80
  -4   6  -2   52.59    2.20
  -4   6  -2   49.60    3.10
  -4   6  -2   48.10    2.30
  -4   6  -2   49.70    2.80
  -4   6  -2   48.40    3.10
   4  -6   2   52.79    2.80
   4  -6   2   50.39    2.20
   4  -6   2   51.89    2.40
   4  -6   2   52.89    2.90
  -5   6  -2    5.60    1.30
  -5   6  -2    5.30    1.00
  -5   6  -2    5.50    1.60
   5  -6   2    6.70    1.40
   5  -6   2    5.10    1.20
   5  -6   2    7.40    1.20
   5  -6   2    5.50    0.90
  -6   6  -2    6.00    1.80
  -6   6  -2    6.20    1.60
   6  -6   2    5.20    1.40
   6  -6   2    7.40    1.50
   6  -6   2    6.40    1.30
   6  -6   2    7.10    1.10
  -7   6  -2    2.40    1.60
  -7   6  -2    0.80    1.30
  -7   6  -2    0.10    1.30
   7  -6   2    0.90    1.00
   7  -6   2    0.90    1.30
  -8   6  -2   11.30    2.60
  -8   6  -2   13.30    2.40
  -8   6  -2   10.80    2.20
   8  -6   2   13.40    2.00
   8  -6   2   13.10    2.30
  -9   6  -2    0.60    1.60
  -9   6  -2   -1.60    1.60
  -9   6  -2   -0.60    1.50
   9  -6   2   -0.50    1.20
   9  -6   2    1.60    1.70
   9   5  -2    3.30    1.90
  -9  -5   2    5.10    1.80
  -9  -5   2    4.40    1.70
   8   5  -2   10.50    1.70
   8   5  -2   12.80    2.30
  -8  -5   2   13.10    1.90
  -8  -5   2   12.40    2.10
  -8  -5   2   12.60    2.10
   7   5  -2    2.10    1.10
   7   5  -2    3.30    1.50
   7   5  -2    2.70    1.10
  -7  -5   2    4.30    1.40
  -7  -5   2    6.40    1.50
  -7  -5   2    3.60    1.20
  -7  -5   2    2.90    1.40
   6   5  -2    1.80    1.00
   6   5  -2    3.50    1.30
   6   5  -2    5.40    1.20
  -6  -5   2    4.10    1.30
  -6  -5   2    5.70    1.40
  -6  -5   2    3.50    1.30
   5   5  -2   56.79    3.00
   5   5  -2   59.69    3.00
   5   5  -2   65.89    3.10
  -5  -5   2   61.79    3.40
  -5  -5   2   57.09    3.00
  -5  -5   2   64.29    3.10
   4   5  -2    0.10    0.60
   4   5  -2    0.70    0.70
   4   5  -2    1.50    0.90
  -4  -5   2   -0.10    0.80
  -4  -5   2    0.20    0.80
  -4  -5   2    0.50    0.80
   3   5  -2  321.87    9.60
   3   5  -2  328.27    9.50
   3   5  -2  315.97    9.30
  -3  -5   2  323.97    9.90
  -3  -5   2  306.67    9.60
  -3  -5   2  319.77    9.40
   2   5  -2  182.88    5.50
   2   5  -2  177.28    5.90
   2   5  -2  181.18    5.80
   2   5  -2  175.88    5.60
  -2  -5   2  175.78    5.70
  -2  -5   2  176.78    5.10
   1   5  -2  201.88    6.40
   1   5  -2  201.78    5.90
   1   5  -2  195.58    5.90
  -1  -5   2  190.78    6.10
  -1  -5   2  204.78    5.30
  -1  -5   2  184.98    6.30
  -1  -5   2  194.28    6.10
   0   5  -2   51.89    2.30
   0   5  -2   50.59    2.50
   0   5  -2   51.29    2.20
   0   5  -2   48.50    2.10
   0  -5   2   51.79    2.40
   0  -5   2   53.59    1.90
   0  -5   2   51.79    2.10
   0  -5   2   51.59    2.40
  -1   5  -2  218.28    6.40
  -1   5  -2  216.68    6.50
  -1   5  -2  212.58    6.90
  -1   5  -2  213.48    6.30
  -1   5  -2  208.28    6.60
   1  -5   2  211.48    6.60
   1  -5   2  215.48    6.10
   1  -5   2  223.88    6.30
   1  -5   2  212.88    6.70
  -2   5  -2   40.60    2.40
  -2   5  -2   38.30    1.80
  -2   5  -2   40.10    1.80
  -2   5  -2   37.00    2.00
  -2   5  -2   38.90    2.20
   2  -5   2   42.20    1.80
   2  -5   2   37.70    2.00
   2  -5   2   36.40    2.10
  -3   5  -2    3.00    0.60
  -3   5  -2    0.80    1.00
  -3   5  -2    1.70    1.00
  -3   5  -2    1.20    0.70
  -3   5  -2    2.30    0.80
   3  -5   2    2.40    0.90
   3  -5   2    2.80    0.70
  -4   5  -2    4.40    0.50
  -4   5  -2    3.40    0.80
  -4   5  -2    2.20    0.60
  -4   5  -2    3.30    1.30
  -4   5  -2    1.70    0.90
   4  -5   2    1.70    0.90
   4  -5   2    0.90    0.80
   4  -5   2    2.00    0.80
   4  -5   2    1.60    0.60
  -5   5  -2   86.09    4.20
  -5   5  -2   88.19    3.90
   5  -5   2   84.29    3.20
   5  -5   2   85.69    3.60
   5  -5   2   86.39    3.80
   5  -5   2   80.59    3.40
  -6   5  -2    5.20    1.40
  -6   5  -2    3.30    1.60
  -6   5  -2    5.10    1.30
   6  -5   2    2.90    1.10
   6  -5   2    4.70    1.20
   6  -5   2    5.80    1.00
  -7   5  -2   -0.90    1.00
  -7   5  -2    0.20    1.10
  -7   5  -2   -2.70    1.30
   7  -5   2    1.60    0.70
   7  -5   2    0.90    1.00
   7  -5   2    0.30    1.20
  -8   5  -2    2.60    1.50
  -8   5  -2    0.40    1.40
  -8   5  -2    0.40    1.50
   8  -5   2   -0.10    1.20
   8  -5   2    0.80    1.10
  -9   5  -2    4.00    1.90
  -9   5  -2    4.20    1.80
  -9   5  -2    0.20    1.40
   9  -5   2    1.00    1.60
   9  -5   2    2.40    1.40
  10   4  -2    2.20    1.80
  10   4  -2    2.40    1.40
 -10  -4   2    5.20    1.90
 -10  -4   2    1.60    1.50
   9   4  -2   11.90    2.30
   9   4  -2   13.20    1.90
  -9  -4   2   11.90    2.30
  -9  -4   2    9.40    2.10
   8   4  -2    0.60    0.80
   8   4  -2    2.50    1.10
   8   4  -2   -1.10    0.80
   8   4  -2    1.60    1.50
  -8  -4   2    2.10    1.30
  -8  -4   2    2.00    1.10
  -8  -4   2   -0.90    1.10
  -8  -4   2    1.00    0.90
   7   4  -2   12.50    1.90
   7   4  -2   13.40    1.80
   7   4  -2   13.60    1.60
   7   4  -2   16.30    1.70
  -7  -4   2   17.30    2.00
  -7  -4   2   16.20    2.00
  -7  -4   2   14.70    2.00
  -7  -4   2   17.20    2.20
   6   4  -2   16.10    1.70
   6   4  -2   19.00    1.70
   6   4  -2   17.50    2.00
   6   4  -2   16.20    1.50
  -6  -4   2   18.90    2.00
  -6  -4   2   21.30    2.30
  -6  -4   2   18.20    1.90
  -6  -4   2   14.30    1.80
   5   4  -2   11.80    1.40
   5   4  -2    8.10    1.40
   5   4  -2   11.10    1.30
  -5  -4   2   13.10    1.70
  -5  -4   2   11.70    1.40
  -5  -4   2   11.40    1.50
  -5  -4   2   10.10    1.60
   4   4  -2   88.29    3.50
   4   4  -2   90.39    3.40
   4   4  -2   95.09    3.60
  -4  -4   2   87.89    3.50
  -4  -4   2   85.59    3.60
  -4  -4   2   90.39    3.80
   3   4  -2  311.67    8.80
   3   4  -2  297.67    8.90
   3   4  -2  289.47    8.80
  -3  -4   2  314.97    9.30
  -3  -4   2  306.27    8.90
  -3  -4   2  308.17    9.10
   2   4  -2  196.18    6.10
   2   4  -2  198.28    6.00
   2   4  -2  203.18    6.20
  -2  -4   2  201.78    6.30
  -2  -4   2  193.38    6.30
  -2  -4   2  215.78    6.30
  -2  -4   2  198.58    6.10
   1   4  -2   14.10    0.90
   1   4  -2   13.90    1.00
   1   4  -2   11.50    1.20
   1   4  -2   13.30    1.20
  -1  -4   2   13.70    0.60
  -1  -4   2   11.80    1.10
  -1  -4   2   12.70    1.10
  -1  -4   2   13.60    1.00
  -1  -4   2   12.00    1.10
  -1  -4   2   13.40    1.20
   0   4  -2  107.09    3.50
   0   4  -2  100.89    3.30
   0   4  -2  103.39    3.70
   0   4  -2  105.59    3.40
   0  -4   2  100.99    3.50
   0  -4   2  107.29    3.50
   0  -4   2  101.19    3.60
  -1   4  -2  536.75   14.60
  -1   4  -2  543.05   14.40
  -1   4  -2  536.15   14.40
  -1   4  -2  545.65   14.50
  -1   4  -2  557.04   13.90
  -1   4  -2  532.15   14.80
   1  -4   2  519.65   14.60
   1  -4   2  525.55   14.60
   1  -4   2  545.45   14.30
  -2   4  -2  118.59    4.00
  -2   4  -2  118.59    3.50
  -2   4  -2  120.69    4.00
  -2   4  -2  120.39    3.80
  -2   4  -2  106.09    4.10
   2  -4   2  113.89    3.80
   2  -4   2  118.09    3.70
   2  -4   2  110.09    3.90
  -3   4  -2   78.89    3.20
  -3   4  -2   80.29    3.50
  -3   4  -2   84.39    3.00
  -3   4  -2   82.59    3.50
  -3   4  -2   81.19    2.60
  -3   4  -2   87.19    2.60
   3  -4   2   81.59    3.20
   3  -4   2   77.89    3.20
   3  -4   2   85.09    3.00
  -4   4  -2   21.10    2.10
  -4   4  -2   22.40    1.00
  -4   4  -2   22.60    1.80
  -4   4  -2   22.90    1.40
   4  -4   2   20.10    1.40
   4  -4   2   24.20    0.90
   4  -4   2   21.10    1.50
   4  -4   2   21.50    1.70
   4  -4   2   21.70    1.60
  -5   4  -2  117.59    3.20
  -5   4  -2  113.79    4.50
  -5   4  -2  113.29    5.00
   5  -4   2  115.89    4.50
   5  -4   2  121.69    4.10
   5  -4   2  118.09    4.30
   5  -4   2  113.79    4.30
  -6   4  -2   14.70    1.90
  -6   4  -2   14.80    1.80
  -6   4  -2   15.20    2.10
   6  -4   2   14.40    1.70
   6  -4   2   13.10    1.40
   6  -4   2   14.60    1.70
  -7   4  -2   15.60    2.10
  -7   4  -2   11.90    2.00
  -7   4  -2   15.00    2.00
   7  -4   2   13.10    1.50
   7  -4   2   16.70    2.00
   7  -4   2   14.70    1.80
  -8   4  -2   22.60    2.60
  -8   4  -2   17.00    2.30
  -8   4  -2   16.00    2.60
   8  -4   2   15.80    2.10
   8  -4   2   20.40    2.00
   8  -4   2   21.30    2.30
  -9   4  -2    8.30    2.10
  -9   4  -2    9.10    2.10
   9  -4   2   10.80    2.00
   9  -4   2   10.70    2.00
 -10   4  -2    1.30    1.50
  10  -4   2    0.30    1.40
  10  -4   2   -0.30    1.60
  10  -4   2    0.10    1.50
  10   3  -2    1.80    1.30
  10   3  -2   -0.20    1.50
 -10  -3   2    0.20    1.60
 -10  -3   2   -0.60    1.30
   9   3  -2    0.40    1.00
   9   3  -2    3.00    1.70
  -9  -3   2    0.30    1.30
  -9  -3   2   -0.10    1.20
  -9  -3   2    4.80    1.30
   8   3  -2    2.60    1.10
   8   3  -2    1.10    1.00
   8   3  -2   -0.40    1.30
   8   3  -2    0.00    0.80
  -8  -3   2   -2.30    0.90
  -8  -3   2    3.10    1.20
  -8  -3   2    1.90    1.00
  -8  -3   2    2.30    1.30
   7   3  -2   57.49    2.90
   7   3  -2   61.29    3.20
   7   3  -2   56.09    2.90
   7   3  -2   59.59    2.90
  -7  -3   2   59.69    3.30
  -7  -3   2   56.19    3.10
  -7  -3   2   54.69    3.10
  -7  -3   2   58.69    2.90
   6   3  -2    4.70    0.90
   6   3  -2    4.30    0.90
   6   3  -2    4.00    0.80
   6   3  -2    6.00    1.30
  -6  -3   2    3.60    1.30
  -6  -3   2    5.60    1.20
  -6  -3   2    3.00    1.00
  -6  -3   2    4.70    1.10
   5   3  -2    2.30    0.60
   5   3  -2    1.80    0.60
   5   3  -2    1.20    0.70
   5   3  -2    0.80    0.80
  -5  -3   2    1.20    0.80
  -5  -3   2    0.10    0.90
  -5  -3   2    1.30    0.80
  -5  -3   2    0.40    0.80
   4   3  -2    8.30    1.20
   4   3  -2    8.60    1.00
   4   3  -2    9.00    1.00
  -4  -3   2    8.30    1.10
  -4  -3   2    7.20    1.00
  -4  -3   2   11.00    1.50
  -4  -3   2    8.70    1.30
   3   3  -2  172.48    5.50
   3   3  -2  157.88    5.00
   3   3  -2  161.38    5.10
   3   3  -2  153.08    4.90
  -3  -3   2  156.78    5.00
  -3  -3   2  161.18    5.00
  -3  -3   2  160.78    5.30
  -3  -3   2  162.88    5.20
  -3  -3   2  167.08    5.00
   2   3  -2   16.40    1.10
   2   3  -2   18.90    1.40
   2   3  -2   15.20    1.10
   2   3  -2   17.70    1.10
  -2  -3   2   17.90    1.00
  -2  -3   2   16.10    1.30
  -2  -3   2   17.00    1.20
  -2  -3   2   14.60    1.30
   1   3  -2  147.69    4.40
   1   3  -2  148.89    4.60
   1   3  -2  148.69    4.20
   1   3  -2  145.59    4.50
   1   3  -2  150.28    4.50
  -1  -3   2  145.99    4.60
  -1  -3   2  142.49    4.40
  -1  -3   2  156.18    4.40
  -1  -3   2  145.69    4.60
   0   3  -2  411.66   11.10
   0   3  -2  386.36   10.80
   0   3  -2  422.56   10.90
   0   3  -2  409.76   10.70
   0  -3   2  400.66   10.90
   0  -3   2  392.06   11.00
   0  -3   2  396.86   10.90
  -1   3  -2  259.57    7.30
  -1   3  -2  260.67    7.30
  -1   3  -2  252.07    7.50
  -1   3  -2  260.27    7.00
  -1   3  -2  249.58    7.10
  -1   3  -2  264.27    6.70
   1  -3   2  250.17    7.20
   1  -3   2  261.07    7.10
   1  -3   2  250.07    7.30
  -2   3  -2   35.00    1.20
  -2   3  -2   35.80    1.90
  -2   3  -2   32.60    1.50
  -2   3  -2   33.10    1.60
  -2   3  -2   36.70    1.90
   2  -3   2   34.40    1.50
   2  -3   2   34.10    1.50
   2  -3   2   36.90    1.70
  -3   3  -2   17.50    0.60
  -3   3  -2   16.90    0.70
  -3   3  -2   18.90    1.40
  -3   3  -2   18.90    1.60
  -3   3  -2   17.60    1.20
   3  -3   2   16.20    1.10
   3  -3   2   16.40    1.30
   3  -3   2   17.50    1.30
   3  -3   2   18.60    0.70
   3  -3   2   13.80    1.10
  -4   3  -2   83.59    3.10
  -4   3  -2   89.19    3.40
  -4   3  -2   83.59    3.70
   4  -3   2   81.09    3.30
   4  -3   2   81.19    3.20
   4  -3   2   83.79    3.10
   4  -3   2   84.69    3.20
  -5   3  -2   69.49    3.10
  -5   3  -2   68.89    3.60
  -5   3  -2   72.19    3.20
   5  -3   2   69.19    3.00
   5  -3   2   73.99    2.90
   5  -3   2   69.89    3.00
  -6   3  -2    7.10    1.30
  -6   3  -2    4.70    1.50
  -6   3  -2    4.10    1.20
   6  -3   2    6.90    1.30
   6  -3   2    6.30    1.20
   6  -3   2    5.30    1.00
  -7   3  -2    8.00    1.60
  -7   3  -2    7.60    1.50
  -7   3  -2    3.70    1.50
   7  -3   2    8.80    1.30
   7  -3   2    9.00    1.50
   7  -3   2    8.70    1.50
  -8   3  -2    0.80    1.30
  -8   3  -2    1.70    1.40
   8  -3   2    1.30    0.90
   8  -3   2    0.50    1.20
   8  -3   2    0.90    1.10
  -9   3  -2    3.70    1.50
   9  -3   2    3.50    1.50
   9  -3   2   -0.70    1.20
   9  -3   2    3.90    1.70
 -10   3  -2    0.10    1.30
  10  -3   2    0.80    1.60
  10  -3   2    0.40    1.40
  10  -3   2    1.60    1.70
  11   2  -2    4.60    1.70
  11   2  -2    3.80    1.80
 -11  -2   2    2.70    1.80
 -11  -2   2    4.10    2.00
  10   2  -2    7.40    2.10
  10   2  -2    9.20    1.80
 -10  -2   2    8.30    2.00
 -10  -2   2   13.30    2.40
   9   2  -2   21.20    2.20
   9   2  -2   16.10    2.40
   9   2  -2   19.70    2.20
  -9  -2   2   18.90    2.30
  -9  -2   2   18.00    2.40
  -9  -2   2   21.00    2.60
   8   2  -2    0.20    1.10
   8   2  -2    0.20    0.80
   8   2  -2    0.60    0.70
   8   2  -2   -0.10    0.80
  -8  -2   2   -0.30    1.10
  -8  -2   2    1.40    1.10
  -8  -2   2    0.20    0.80
  -8  -2   2    0.30    1.20
   7   2  -2   10.00    1.60
   7   2  -2   15.40    1.60
   7   2  -2   12.00    1.40
   7   2  -2   10.00    1.20
  -7  -2   2   11.40    1.70
  -7  -2   2    9.90    1.60
  -7  -2   2   12.40    1.70
  -7  -2   2   14.10    1.60
   6   2  -2    5.00    0.90
   6   2  -2    5.40    0.90
   6   2  -2    4.30    1.10
   6   2  -2    4.50    1.00
  -6  -2   2    5.60    1.40
  -6  -2   2    4.40    1.10
  -6  -2   2    5.30    1.10
  -6  -2   2    5.10    1.10
   5   2  -2   47.60    2.20
   5   2  -2   44.90    2.10
   5   2  -2   49.00    2.40
   5   2  -2   49.10    2.10
  -5  -2   2   47.10    2.30
  -5  -2   2   48.80    2.40
  -5  -2   2   48.90    2.30
  -5  -2   2   44.70    2.50
   4   2  -2  373.76   10.00
   4   2  -2  357.96   10.10
   4   2  -2  367.46   10.00
   4   2  -2  362.16   10.30
  -4  -2   2  362.06   10.20
  -4  -2   2  359.36   10.50
  -4  -2   2  365.66   10.30
  -4  -2   2  362.06   10.20
   3   2  -2    0.90    0.50
   3   2  -2    1.20    0.50
   3   2  -2    1.30    0.40
   3   2  -2    2.60    0.80
  -3  -2   2    2.30    0.70
  -3  -2   2    1.20    0.50
  -3  -2   2    1.80    0.50
  -3  -2   2    1.20    0.70
  -3  -2   2    1.90    0.50
   2   2  -2   98.79    3.20
   2   2  -2  108.39    3.50
   2   2  -2  102.09    3.20
   2   2  -2  109.59    3.20
  -2  -2   2   97.79    3.20
  -2  -2   2  101.19    3.40
  -2  -2   2  101.29    3.20
  -2  -2   2  101.39    3.20
  -2  -2   2   93.49    3.40
   1   2  -2  215.38    5.60
   1   2  -2  215.88    6.10
   1   2  -2  209.28    5.90
   1   2  -2  210.88    5.90
   1   2  -2  215.88    6.00
  -1  -2   2  211.08    6.10
  -1  -2   2  203.58    6.00
  -1  -2   2  220.98    5.90
  -1  -2   2  204.38    5.90
   0   2  -2  612.24   15.80
   0   2  -2  617.74   15.90
   0   2  -2  613.24   16.10
   0   2  -2  601.14   16.00
   0   2  -2  620.64   15.60
   0  -2   2  586.14   15.90
   0  -2   2  605.14   16.00
   0  -2   2  597.84   15.90
   0  -2   2  589.94   16.00
   0  -2   2  639.14   15.60
   0  -2   2  632.04   15.80
  -1   2  -2  230.38    6.30
  -1   2  -2  225.98    6.40
  -1   2  -2  224.28    6.00
  -1   2  -2  217.68    6.30
  -1   2  -2  228.58    5.90
  -1   2  -2  224.58    6.50
   1  -2   2  225.58    6.20
   1  -2   2  221.38    6.20
   1  -2   2  222.68    6.30
  -2   2  -2 1130.19   29.20
  -2   2  -2 1123.29   28.90
  -2   2  -2 1162.08   28.60
  -2   2  -2 1109.39   28.90
   2  -2   2 1100.69   28.60
   2  -2   2 1101.89   28.90
   2  -2   2 1089.29   28.90
   2  -2   2 1128.39   28.40
   2  -2   2 1089.09   28.90
  -3   2  -2   60.89    2.40
  -3   2  -2   63.19    1.90
  -3   2  -2   64.29    2.80
  -3   2  -2   59.19    2.30
   3  -2   2   55.99    2.30
   3  -2   2   58.99    2.30
   3  -2   2   61.79    2.40
   3  -2   2   58.99    2.30
  -4   2  -2   99.79    4.10
  -4   2  -2  107.09    3.80
  -4   2  -2  108.59    3.80
   4  -2   2  113.09    3.80
   4  -2   2  103.99    3.70
   4  -2   2  107.99    3.80
  -5   2  -2   57.59    3.20
  -5   2  -2   61.39    2.90
  -5   2  -2   63.59    2.80
   5  -2   2   63.19    2.80
   5  -2   2   65.79    2.70
   5  -2   2   69.49    2.90
  -6   2  -2  111.29    4.30
  -6   2  -2  116.39    4.50
   6  -2   2  103.49    4.20
   6  -2   2  106.89    4.30
   6  -2   2  113.59    4.20
  -7   2  -2   12.20    1.80
  -7   2  -2   11.70    1.70
   7  -2   2   10.40    1.50
   7  -2   2   12.70    1.70
   7  -2   2    9.50    1.40
  -8   2  -2    1.80    1.30
   8  -2   2    1.60    0.90
   8  -2   2   -0.70    1.10
   8  -2   2    1.80    1.10
   8  -2   2    0.60    1.40
  -9   2  -2    1.50    1.40
   9  -2   2    0.40    1.10
   9  -2   2    0.30    1.40
   9  -2   2    1.20    1.40
 -10   2  -2    2.20    1.60
  10  -2   2    3.90    1.90
  10  -2   2    1.90    1.90
  10  -2   2    3.00    1.60
  11   1  -2    5.30    1.70
  11   1  -2    6.30    2.20
 -11  -1   2    1.90    1.90
 -11  -1   2    4.50    1.90
  10   1  -2    2.70    1.70
  10   1  -2    3.10    1.60
  10   1  -2    2.10    1.40
 -10  -1   2    0.80    1.40
 -10  -1   2   -1.30    1.60
   9   1  -2    2.00    1.00
   9   1  -2    3.10    1.40
   9   1  -2    0.90    1.10
   9   1  -2   -1.00    1.30
  -9  -1   2    1.20    1.30
  -9  -1   2    2.80    1.20
  -9  -1   2    0.20    1.30
   8   1  -2    9.80    1.40
   8   1  -2    9.90    1.60
   8   1  -2    9.70    1.80
   8   1  -2    8.10    1.40
   8   1  -2    9.10    1.30
  -8  -1   2   12.30    1.80
  -8  -1   2    8.30    1.60
  -8  -1   2   11.70    1.50
   7   1  -2   -0.20    0.50
   7   1  -2    0.10    0.60
   7   1  -2   -0.10    0.70
   7   1  -2   -0.10    0.80
   7   1  -2   -0.20    0.90
  -7  -1   2    0.40    1.00
  -7  -1   2   -0.20    0.80
  -7  -1   2   -0.40    0.80
   6   1  -2    0.70    0.50
   6   1  -2    0.20    0.80
   6   1  -2    0.10    0.60
   6   1  -2    0.30    0.80
   6   1  -2    0.60    0.60
  -6  -1   2   -0.70    0.80
  -6  -1   2   -0.50    0.90
  -6  -1   2    0.70    0.80
   5   1  -2   78.69    2.90
   5   1  -2   77.89    3.00
   5   1  -2   70.79    3.00
   5   1  -2   76.89    2.70
   5   1  -2   75.19    2.80
  -5  -1   2   75.09    3.30
  -5  -1   2   75.29    3.00
  -5  -1   2   73.49    2.90
   4   1  -2  141.29    4.40
   4   1  -2  128.19    4.10
   4   1  -2  130.59    4.20
   4   1  -2  138.69    4.00
   4   1  -2  139.89    4.30
   4   1  -2  138.99    4.70
  -4  -1   2  139.39    4.20
  -4  -1   2  131.69    4.30
  -4  -1   2  135.29    4.60
  -4  -1   2  127.79    4.30
   3   1  -2  754.52   19.50
   3   1  -2  742.03   19.20
   3   1  -2  720.93   19.10
   3   1  -2  725.73   19.10
   3   1  -2  696.53   19.10
   3   1  -2  743.53   18.90
  -3  -1   2  709.73   19.10
  -3  -1   2  744.63   19.10
  -3  -1   2  707.93   19.40
  -3  -1   2  747.43   19.30
  -3  -1   2  742.23   19.20
   2   1  -2 1467.55   37.70
   2   1  -2 1427.26   37.40
   2   1  -2 1469.55   37.40
   2   1  -2 1509.75   38.00
   2   1  -2 1457.55   37.60
  -2  -1   2 1444.36   37.40
  -2  -1   2 1465.85   37.40
  -2  -1   2 1463.75   37.60
  -2  -1   2 1509.15   37.20
  -2  -1   2 1411.26   37.60
  -2  -1   2 1427.76   37.40
   1   1  -2   97.79    2.90
   1   1  -2   99.49    3.00
   1   1  -2   99.19    2.90
   1   1  -2   99.19    2.90
   1   1  -2  100.19    3.10
  -1  -1   2   94.79    3.10
  -1  -1   2  105.29    2.90
  -1  -1   2   95.59    3.10
  -1  -1   2  102.29    3.00
  -1  -1   2   97.69    2.90
   0   1  -2  571.04   14.90
   0   1  -2  550.34   15.00
   0   1  -2  578.14   14.90
   0   1  -2  569.44   14.90
   0   1  -2  610.04   15.10
   0   1  -2  589.14   14.90
   0   1  -2  597.04   14.90
   0   1  -2  576.34   14.80
   0  -1   2  556.44   14.90
   0  -1   2  554.64   14.90
   0  -1   2  593.04   15.00
   0  -1   2  560.74   15.00
   0  -1   2  562.74   14.90
   0  -1   2  591.14   14.80
   0  -1   2  602.64   14.90
  -1   1  -2   19.20    1.00
  -1   1  -2   21.30    0.90
  -1   1  -2   20.20    1.10
  -1   1  -2   19.30    0.90
  -1   1  -2   18.90    0.90
   1  -1   2   17.80    0.90
   1  -1   2   19.10    1.00
   1  -1   2   18.70    0.90
   1  -1   2   19.90    0.90
   1  -1   2   20.10    0.80
  -2   1  -2  395.76   10.60
  -2   1  -2  388.86   10.70
  -2   1  -2  402.36   10.90
   2  -1   2  400.66   10.60
   2  -1   2  389.76   10.60
   2  -1   2  381.26   10.60
   2  -1   2  404.36   10.10
   2  -1   2  397.86   10.70
  -3   1  -2  117.79    4.10
  -3   1  -2  112.89    3.70
  -3   1  -2  114.69    3.70
   3  -1   2  113.99    3.20
   3  -1   2  118.09    3.20
   3  -1   2  109.29    3.70
   3  -1   2  107.39    3.70
   3  -1   2  111.69    3.60
  -4   1  -2  245.28    7.30
  -4   1  -2  243.18    7.30
   4  -1   2  234.28    7.20
   4  -1   2  248.68    7.30
   4  -1   2  244.38    7.20
   4  -1   2  245.08    6.70
   4  -1   2  255.07    6.40
  -5   1  -2   30.70    2.00
  -5   1  -2   33.70    2.10
   5  -1   2   31.20    1.90
   5  -1   2   37.20    1.60
   5  -1   2   35.80    2.00
   5  -1   2   33.50    1.90
  -6   1  -2   30.50    2.10
  -6   1  -2   30.30    2.10
   6  -1   2   29.20    2.00
   6  -1   2   31.50    2.10
   6  -1   2   33.90    2.10
   6  -1   2   35.60    2.10
  -7   1  -2    1.70    1.10
   7  -1   2    1.40    1.10
   7  -1   2    1.20    1.00
   7  -1   2    1.20    1.20
   7  -1   2    1.40    0.90
  -8   1  -2    1.30    1.20
   8  -1   2   -0.20    1.10
   8  -1   2    0.90    1.00
   8  -1   2    1.00    1.30
   8  -1   2    0.10    0.80
  -9   1  -2    1.70    1.40
   9  -1   2    1.70    1.50
   9  -1   2    0.30    1.20
   9  -1   2    1.30    1.40
 -10   1  -2    4.40    1.70
 -10   1  -2    6.10    1.80
  10  -1   2    8.10    2.00
  10  -1   2    4.40    1.80
  10  -1   2    5.30    2.00
  11   0  -2    2.70    1.80
  11   0  -2    1.60    1.40
  11   0  -2    2.50    1.50
 -11   0   2   -0.10    1.60
 -11   0   2   -0.60    1.50
  10   0  -2   -0.30    0.90
  10   0  -2   -0.40    1.20
  10   0  -2   -0.40    1.40
  10   0  -2   -1.90    1.20
 -10   0   2   -1.90    1.40
   9   0  -2    3.60    1.10
   9   0  -2    4.60    1.40
   9   0  -2    5.50    1.50
   9   0  -2    4.20    1.60
  -9   0   2    4.20    1.50
  -9   0   2    6.70    1.50
   8   0  -2   47.00    2.70
   8   0  -2   47.10    2.90
   8   0  -2   48.40    2.90
   8   0  -2   49.30    2.50
  -8   0   2   47.20    3.00
  -8   0   2   50.29    2.50
  -8   0   2   46.40    2.80
   7   0  -2  171.78    5.70
   7   0  -2  162.48    5.90
   7   0  -2  163.38    5.80
   7   0  -2  165.78    5.50
  -7   0   2  174.58    6.20
  -7   0   2  176.78    5.60
  -7   0   2  162.98    5.80
  -7   0   2  162.98    6.00
   6   0  -2   52.69    2.50
   6   0  -2   53.59    2.30
   6   0  -2   54.69    2.70
   6   0  -2   53.49    2.40
  -6   0   2   50.09    2.70
  -6   0   2   51.89    2.80
  -6   0   2   53.59    2.60
  -6   0   2   58.49    2.50
   5   0  -2   41.10    1.80
   5   0  -2   45.40    2.30
   5   0  -2   44.10    2.10
   5   0  -2   41.90    1.90
   5   0  -2   42.70    2.10
  -5   0   2   40.30    2.30
  -5   0   2   38.90    2.10
  -5   0   2   42.50    2.10
  -5   0   2   44.00    2.10
  -5   0   2   44.10    1.80
   4   0  -2  272.07    7.80
   4   0  -2  260.17    7.50
   4   0  -2  271.97    7.50
   4   0  -2  266.17    7.60
   4   0  -2  260.57    7.30
  -4   0   2  261.27    7.60
  -4   0   2  268.47    7.70
  -4   0   2  260.67    7.90
  -4   0   2  267.47    7.60
  -4   0   2  266.07    7.30
   3   0  -2  851.11   22.40
   3   0  -2  854.81   22.70
   3   0  -2  851.21   22.30
   3   0  -2  844.72   22.40
   3   0  -2  886.61   22.00
   3   0  -2  879.31   22.40
  -3   0   2  889.61   22.60
  -3   0   2  846.92   22.70
  -3   0   2  873.71   22.50
  -3   0   2  841.52   22.40
  -3   0   2  868.11   22.30
   2   0  -2 7924.11  204.08
   2   0  -2 7879.31  204.08
   2   0  -2 8215.88  203.88
   2   0  -2 8087.39  206.28
   2   0  -2 7813.32  204.98
   2   0  -2 7914.81  203.98
  -2   0   2 7751.72  206.18
  -2   0   2 7791.72  204.08
  -2   0   2 8047.00  204.18
  -2   0   2 8249.77  206.28
  -2   0   2 8138.59  204.08
   1   0  -2 9750.82  240.88
   1   0  -2 9999.00  240.28
   1   0  -2 9697.43  241.68
   1   0  -2 9137.09  241.98
   1   0  -2 9284.77  241.88
  -1   0   2 8997.60  241.98
  -1   0   2 9303.27  242.18
   0   0  -2 2125.99   54.29
   0   0  -2 2242.98   54.19
   0   0  -2 2203.68   54.19
   0   0  -2 2114.79   54.29
   0   0  -2 2150.88   55.09
   0   0  -2 2077.19   55.09
   0   0  -2 2135.49   54.19
   0   0   2 2052.59   54.79
   0   0   2 2118.09   54.29
   0   0   2 2002.50   54.79
  -1   0  -2 1213.78   29.70
  -1   0  -2 1147.09   29.90
  -1   0  -2 1199.28   29.80
  -1   0  -2 1237.48   29.80
  -1   0  -2 1159.18   29.70
  -1   0  -2 1140.69   29.70
  -1   0  -2 1143.69   30.00
   1   0   2 1122.19   29.90
   1   0   2 1181.58   29.70
   1   0   2 1136.19   29.80
   1   0   2 1115.39   29.90
   1   0   2 1160.28   29.70
  -2   0  -2   70.69    2.50
  -2   0  -2   67.79    2.30
  -2   0  -2   73.29    2.30
   2   0   2   66.39    2.30
   2   0   2   70.49    2.40
   2   0   2   66.69    2.20
   2   0   2   67.29    2.10
  -3   0  -2  160.38    5.00
  -3   0  -2  170.58    5.00
  -3   0  -2  166.38    5.10
   3   0   2  166.48    5.10
   3   0   2  169.38    5.00
   3   0   2  176.28    4.60
   3   0   2  167.78    4.80
   3   0   2  165.58    5.10
  -4   0  -2  325.57    9.20
  -4   0  -2  332.07    9.20
   4   0   2  318.67    9.20
   4   0   2  316.47    9.20
   4   0   2  322.97    9.30
   4   0   2  313.57    9.10
   4   0   2  328.67    9.00
  -5   0  -2   70.79    3.10
   5   0   2   81.29    3.20
   5   0   2   71.39    3.10
   5   0   2   75.39    2.90
   5   0   2   73.69    3.10
   5   0   2   78.49    3.20
  -6   0  -2   28.70    2.00
   6   0   2   28.30    2.10
   6   0   2   23.50    1.80
   6   0   2   28.90    2.10
   6   0   2   29.50    2.00
  -7   0  -2   16.20    1.90
   7   0   2   13.70    1.70
   7   0   2   20.20    2.00
   7   0   2   15.30    1.80
   7   0   2   12.50    1.80
  -8   0  -2   -0.80    1.00
   8   0   2    0.40    0.80
   8   0   2   -1.80    0.80
   8   0   2   -1.30    1.20
   8   0   2   -0.80    0.90
  -9   0  -2   -1.60    1.20
   9   0   2    1.30    1.20
   9   0   2    0.30    1.30
   9   0   2    1.00    1.50
 -10   0  -2   -1.10    1.20
 -10   0  -2    1.20    1.50
  10   0   2    0.80    1.40
  10   0   2    2.80    1.80
  10   0   2    1.10    1.60
  11  -1  -2    1.00    1.70
  11  -1  -2   -0.80    1.40
  11  -1  -2    0.70    1.20
 -11   1   2    5.40    1.90
  10  -1  -2    7.60    1.70
  10  -1  -2    6.40    1.30
  10  -1  -2    9.20    1.90
  10  -1  -2    7.90    2.10
 -10   1   2    5.90    1.80
   9  -1  -2   -1.30    0.90
   9  -1  -2    0.20    0.70
   9  -1  -2   -0.50    1.10
   9  -1  -2    2.20    1.10
  -9   1   2    0.00    1.10
  -9   1   2   -0.50    1.10
   8  -1  -2   39.40    2.20
   8  -1  -2   41.50    2.50
   8  -1  -2   37.50    2.60
   8  -1  -2   39.20    2.60
  -8   1   2   38.70    3.00
  -8   1   2   41.20    2.90
  -8   1   2   41.30    2.60
  -8   1   2   40.90    2.20
   7  -1  -2   30.20    2.10
   7  -1  -2   31.10    2.00
   7  -1  -2   30.50    1.70
   7  -1  -2   33.50    2.30
  -7   1   2   30.60    2.40
  -7   1   2   31.90    2.10
  -7   1   2   34.50    2.10
  -7   1   2   37.80    2.70
   6  -1  -2   50.09    2.10
   6  -1  -2   47.20    2.30
   6  -1  -2   51.19    2.50
   6  -1  -2   43.90    2.30
  -6   1   2   51.89    2.30
  -6   1   2   47.40    2.80
  -6   1   2   51.09    2.80
  -6   1   2   50.59    2.40
  -6   1   2   46.00    2.40
   5  -1  -2   19.10    1.10
   5  -1  -2   20.50    1.30
   5  -1  -2   21.30    1.60
   5  -1  -2   21.00    1.40
   5  -1  -2   21.50    1.40
  -5   1   2   20.30    1.80
  -5   1   2   20.60    1.40
  -5   1   2   21.40    1.10
  -5   1   2   20.80    1.50
  -5   1   2   20.80    1.40
  -5   1   2   19.50    1.70
   4  -1  -2  148.39    4.20
   4  -1  -2  158.78    4.20
   4  -1  -2  150.98    4.50
   4  -1  -2  147.29    4.30
   4  -1  -2  146.69    4.70
   4  -1  -2  147.39    4.50
  -4   1   2  143.89    4.80
  -4   1   2  148.19    4.60
  -4   1   2  145.59    4.20
  -4   1   2  143.89    4.60
  -4   1   2  148.59    4.60
  -4   1   2  144.09    4.80
   3  -1  -2 2072.49   52.19
   3  -1  -2 2057.59   52.69
   3  -1  -2 2024.70   52.49
   3  -1  -2 2103.59   52.29
   3  -1  -2 2123.59   52.39
   3  -1  -2 2030.20   52.59
   3  -1  -2 2018.70   52.39
  -3   1   2 2010.20   52.39
  -3   1   2 2023.60   52.79
  -3   1   2 2072.19   52.29
  -3   1   2 1983.50   52.49
  -3   1   2 2019.20   52.29
   2  -1  -2 7898.51  204.18
   2  -1  -2 7717.13  201.98
   2  -1  -2 7556.84  202.48
   2  -1  -2 7967.60  203.18
  -2   1   2 7869.41  202.48
  -2   1   2 7619.04  203.38
  -2   1   2 8466.45  202.98
  -2   1   2 7887.31  201.28
  -2   1   2 8478.35  203.48
  -2   1   2 7722.93  202.38
  -2   1   2 7825.22  202.48
   1  -1  -2   13.60    0.90
   1  -1  -2   14.40    0.90
   1  -1  -2   13.50    0.50
   1  -1  -2   13.30    0.80
   1  -1  -2   13.40    0.60
   1  -1  -2   15.00    0.50
  -1   1   2   14.30    0.50
  -1   1   2   11.10    0.90
  -1   1   2   11.50    0.80
  -1   1   2   13.40    0.50
  -1   1   2   14.20    0.60
  -1   1   2   13.20    0.50
   0  -1  -2  631.04   15.70
   0  -1  -2  618.84   16.20
   0  -1  -2  617.74   16.10
   0  -1  -2  620.74   15.70
   0  -1  -2  631.14   16.00
   0  -1  -2  599.64   16.10
   0   1   2  613.64   15.70
   0   1   2  607.54   16.00
   0   1   2  615.64   15.70
   0   1   2  626.04   15.70
  -1  -1  -2  181.88    4.90
  -1  -1  -2  182.48    5.10
  -1  -1  -2  184.38    5.20
  -1  -1  -2  184.48    4.90
  -1  -1  -2  183.68    5.30
   1   1   2  175.38    5.20
   1   1   2  183.58    5.00
   1   1   2  187.58    4.90
   1   1   2  176.78    5.10
   1   1   2  183.78    4.90
   1   1   2  189.98    5.00
  -2  -1  -2 1704.43   42.40
  -2  -1  -2 1653.73   42.10
  -2  -1  -2 1650.53   42.00
  -2  -1  -2 1680.73   42.50
   2   1   2 1581.14   42.10
   2   1   2 1644.94   42.20
   2   1   2 1702.93   41.90
   2   1   2 1573.74   42.20
   2   1   2 1611.24   42.30
   2   1   2 1643.34   42.10
  -3  -1  -2   68.49    2.10
  -3  -1  -2   66.89    2.70
  -3  -1  -2   69.09    2.40
   3   1   2   64.29    2.50
   3   1   2   65.09    2.40
   3   1   2   65.99    2.60
   3   1   2   69.19    2.00
   3   1   2   68.89    2.50
   3   1   2   66.59    2.50
  -4  -1  -2   64.19    1.90
  -4  -1  -2   62.59    2.50
   4   1   2   62.49    2.60
   4   1   2   62.09    1.80
   4   1   2   62.19    2.50
   4   1   2   59.19    2.60
   4   1   2   62.09    2.60
   4   1   2   58.39    2.60
  -5  -1  -2   87.59    3.40
   5   1   2   86.59    3.50
   5   1   2   86.69    3.40
   5   1   2   80.29    3.40
   5   1   2   88.69    3.60
   5   1   2   88.59    3.50
  -6  -1  -2   67.99    3.10
   6   1   2   63.39    3.20
   6   1   2   67.29    3.10
   6   1   2   65.79    3.00
   6   1   2   64.89    3.20
  -7  -1  -2    1.30    1.00
   7   1   2    0.70    1.00
   7   1   2   -0.20    1.00
   7   1   2   -1.10    0.70
   7   1   2   -0.50    0.70
  -8  -1  -2    2.50    1.30
  -8  -1  -2    3.70    1.30
   8   1   2    4.70    1.40
   8   1   2    5.40    1.60
   8   1   2    6.30    1.50
  -9  -1  -2    2.40    1.40
  -9  -1  -2    0.80    1.20
  -9  -1  -2   -0.40    1.50
   9   1   2    1.70    1.40
   9   1   2    4.70    1.80
   9   1   2    0.40    1.30
  11  -2  -2    0.00    1.40
  11  -2  -2   -0.20    1.30
  11  -2  -2    2.60    1.70
  11  -2  -2    1.40    1.70
 -11   2   2   -0.60    1.40
  10  -2  -2   19.20    2.50
  10  -2  -2   21.70    2.80
  10  -2  -2   24.10    2.60
 -10   2   2   22.30    2.80
 -10   2   2   23.40    2.70
   9  -2  -2    1.50    0.70
   9  -2  -2    1.40    1.10
   9  -2  -2    1.00    1.20
   9  -2  -2    0.50    0.90
  -9   2   2    2.40    1.20
  -9   2   2    2.40    1.40
  -9   2   2    0.50    1.20
   8  -2  -2   10.30    1.60
   8  -2  -2   10.30    1.50
   8  -2  -2   13.40    1.80
   8  -2  -2   15.00    1.40
  -8   2   2    9.40    1.80
  -8   2   2   10.60    1.60
  -8   2   2   12.80    1.50
  -8   2   2   11.00    1.80
   7  -2  -2  153.98    5.30
   7  -2  -2  149.69    4.80
   7  -2  -2  144.59    5.20
  -7   2   2  149.19    5.30
  -7   2   2  145.59    5.40
  -7   2   2  155.28    5.10
  -7   2   2  151.28    5.90
  -7   2   2  147.69    5.50
   6  -2  -2  146.19    4.90
   6  -2  -2  142.89    4.80
   6  -2  -2  151.78    4.30
   6  -2  -2  142.69    4.40
  -6   2   2  151.88    5.00
  -6   2   2  143.29    4.40
  -6   2   2  141.79    5.40
  -6   2   2  145.69    5.20
  -6   2   2  146.49    5.00
  -6   2   2  142.69    5.00
   5  -2  -2   68.99    2.80
   5  -2  -2   58.99    2.20
   5  -2  -2   63.79    2.70
   5  -2  -2   71.49    2.70
   5  -2  -2   66.39    2.30
   5  -2  -2   68.69    2.60
  -5   2   2   67.79    2.70
  -5   2   2   62.59    2.90
  -5   2   2   66.79    2.80
  -5   2   2   67.19    3.10
  -5   2   2   68.09    2.20
   4  -2  -2   92.39    2.60
   4  -2  -2   89.99    3.00
   4  -2  -2   91.29    2.90
   4  -2  -2   91.69    3.20
   4  -2  -2   87.29    3.00
   4  -2  -2   85.09    3.20
  -4   2   2   90.49    3.10
  -4   2   2   88.29    3.10
  -4   2   2   86.89    2.60
  -4   2   2   87.39    3.30
  -4   2   2   87.29    3.30
   3  -2  -2   15.30    0.60
   3  -2  -2   18.30    1.10
   3  -2  -2   17.40    0.80
   3  -2  -2   15.30    1.00
   3  -2  -2   16.60    1.00
   3  -2  -2   15.20    0.90
  -3   2   2   17.50    0.80
  -3   2   2   15.50    1.10
  -3   2   2   15.70    1.00
  -3   2   2   17.10    1.20
  -3   2   2   16.40    1.00
  -3   2   2   16.10    0.60
   2  -2  -2  372.36    9.20
   2  -2  -2  370.06    9.50
   2  -2  -2  359.76    9.60
   2  -2  -2  388.36    9.60
   2  -2  -2  364.66    9.50
   2  -2  -2  358.46    9.80
   2  -2  -2  347.57    9.70
  -2   2   2  349.27    9.80
  -2   2   2  360.96    9.60
  -2   2   2  359.66    9.20
  -2   2   2  343.37    9.90
  -2   2   2  350.86    9.60
   1  -2  -2  362.96    9.40
   1  -2  -2  355.56    9.70
   1  -2  -2  358.36    9.70
   1  -2  -2  349.07    9.70
  -1   2   2  350.16    9.40
  -1   2   2  344.37    9.60
  -1   2   2  373.46    9.40
  -1   2   2  380.86    9.30
  -1   2   2  372.46    9.40
  -1   2   2  354.46    9.30
  -1   2   2  346.17    9.80
   0  -2  -2  654.43   17.00
   0  -2  -2  651.43   16.80
   0  -2  -2  662.03   17.20
   0  -2  -2  659.53   17.30
   0  -2  -2  653.13   17.30
   0  -2  -2  653.03   16.90
   0  -2  -2  675.73   16.90
   0   2   2  646.34   17.30
   0   2   2  674.73   16.90
   0   2   2  645.84   16.90
   0   2   2  677.93   16.90
   0   2   2  629.24   17.00
  -1  -2  -2    2.00    0.60
  -1  -2  -2    1.00    0.40
  -1  -2  -2    1.00    0.30
  -1  -2  -2    2.50    0.40
  -1  -2  -2    1.20    0.30
   1   2   2    0.70    0.40
   1   2   2    0.80    0.30
   1   2   2    1.00    0.30
  -2  -2  -2    6.40    0.70
  -2  -2  -2    6.20    0.70
  -2  -2  -2    6.20    0.60
  -2  -2  -2    6.40    0.90
  -2  -2  -2    6.90    0.70
   2   2   2    7.20    0.70
   2   2   2    5.90    0.80
   2   2   2    5.30    0.80
   2   2   2    5.20    0.60
  -3  -2  -2   19.50    1.00
  -3  -2  -2   18.10    1.40
  -3  -2  -2   18.50    1.20
  -3  -2  -2   19.90    1.20
   3   2   2   17.70    1.10
   3   2   2   20.20    1.40
   3   2   2   20.10    1.30
   3   2   2   19.30    1.30
   3   2   2   18.90    1.20
  -4  -2  -2    7.60    1.20
  -4  -2  -2   11.50    1.20
  -4  -2  -2    9.30    0.80
  -4  -2  -2    8.20    1.10
   4   2   2   10.10    1.10
   4   2   2   10.30    1.10
   4   2   2   11.10    1.50
   4   2   2    8.80    1.10
   4   2   2    9.60    1.20
  -5  -2  -2  252.97    7.60
  -5  -2  -2  250.27    8.10
  -5  -2  -2  241.28    7.60
   5   2   2  247.28    7.60
   5   2   2  236.88    7.60
   5   2   2  255.97    7.80
   5   2   2  265.57    8.00
  -6  -2  -2   58.69    2.90
  -6  -2  -2   57.59    3.00
  -6  -2  -2   56.39    3.20
   6   2   2   54.39    2.70
   6   2   2   60.39    3.00
   6   2   2   56.49    2.90
   6   2   2   58.89    3.00
  -7  -2  -2    3.30    1.30
  -7  -2  -2    1.40    1.00
  -7  -2  -2    1.10    1.10
   7   2   2    1.00    1.20
   7   2   2    3.00    1.10
   7   2   2    3.20    1.10
  -8  -2  -2   -0.40    1.00
  -8  -2  -2    0.20    1.20
  -8  -2  -2   -0.70    1.20
   8   2   2   -0.60    1.00
   8   2   2   -1.60    1.10
   8   2   2    0.30    1.30
  -9  -2  -2   -0.10    1.40
  -9  -2  -2    0.10    1.20
  -9  -2  -2    0.20    1.30
   9   2   2    0.90    1.30
   9   2   2   -0.20    1.30
   9   2   2    0.00    1.50
  11  -3  -2    4.60    1.90
  11  -3  -2    7.80    2.10
  11  -3  -2    4.10    1.60
 -11   3   2    8.20    2.20
 -11   3   2    4.80    1.80
  10  -3  -2   45.70    3.20
  10  -3  -2   56.59    3.50
  10  -3  -2   53.09    3.50
  10  -3  -2   42.40    3.30
 -10   3   2   49.20    4.00
 -10   3   2   51.99    3.60
   9  -3  -2    7.40    1.70
   9  -3  -2    8.80    1.70
   9  -3  -2    5.90    1.40
   9  -3  -2    7.90    1.50
  -9   3   2    7.70    1.70
  -9   3   2   11.50    1.90
  -9   3   2    8.30    2.10
   8  -3  -2    9.00    1.50
   8  -3  -2    8.90    1.00
   8  -3  -2    6.60    1.30
   8  -3  -2    9.90    1.50
  -8   3   2    6.50    1.40
  -8   3   2    9.00    1.60
  -8   3   2    6.40    1.80
  -8   3   2   10.50    1.70
  -8   3   2    9.90    1.50
   7  -3  -2    0.80    0.80
   7  -3  -2    1.20    0.90
   7  -3  -2    0.70    0.50
   7  -3  -2    1.20    0.50
   7  -3  -2    1.80    0.80
  -7   3   2    0.30    0.80
  -7   3   2   -0.90    1.00
  -7   3   2   -0.60    0.80
  -7   3   2   -1.10    1.20
  -7   3   2    0.80    0.80
   6  -3  -2   43.00    1.70
   6  -3  -2   42.70    2.10
   6  -3  -2   43.30    2.30
   6  -3  -2   45.80    1.90
   6  -3  -2   40.80    2.30
  -6   3   2   42.80    1.70
  -6   3   2   47.10    3.00
  -6   3   2   40.00    2.30
  -6   3   2   40.70    2.30
  -6   3   2   38.90    2.50
   5  -3  -2  421.26   11.70
   5  -3  -2  433.36   11.60
   5  -3  -2  433.66   11.90
   5  -3  -2  420.26   11.10
   5  -3  -2  425.86   11.80
  -5   3   2  422.16   11.90
  -5   3   2  411.26   11.90
  -5   3   2  421.06   12.30
  -5   3   2  427.36   11.20
  -5   3   2  415.96   12.00
   4  -3  -2  584.74   15.20
   4  -3  -2  573.24   15.30
   4  -3  -2  553.64   15.40
   4  -3  -2  580.54   15.30
   4  -3  -2  560.14   14.60
  -4   3   2  578.14   15.70
  -4   3   2  572.54   15.20
  -4   3   2  573.04   15.60
  -4   3   2  571.44   15.40
  -4   3   2  563.14   15.40
   3  -3  -2  793.12   18.60
   3  -3  -2  726.83   19.30
   3  -3  -2  727.53   19.20
   3  -3  -2  745.83   19.10
   3  -3  -2  713.93   19.00
   3  -3  -2  720.43   19.20
  -3   3   2  714.53   19.50
  -3   3   2  728.13   19.20
  -3   3   2  706.93   19.50
  -3   3   2  711.83   19.10
   2  -3  -2   15.40    0.70
   2  -3  -2   14.90    1.00
   2  -3  -2   18.00    0.90
   2  -3  -2   15.20    0.90
   2  -3  -2   16.40    1.10
  -2   3   2   16.20    1.00
  -2   3   2   16.70    0.90
  -2   3   2   16.70    1.20
   1  -3  -2    2.70    0.60
   1  -3  -2    4.60    0.60
   1  -3  -2    3.90    0.50
   1  -3  -2    2.70    0.50
   1  -3  -2    3.90    0.40
  -1   3   2    5.80    0.40
  -1   3   2    3.30    0.60
  -1   3   2    4.00    0.30
  -1   3   2    4.00    0.30
  -1   3   2    3.50    0.50
  -1   3   2    3.20    0.60
   0  -3  -2    3.00    0.40
   0  -3  -2    3.30    0.60
   0  -3  -2    3.90    0.70
   0  -3  -2    3.10    0.40
   0  -3  -2    3.30    0.40
   0   3   2    3.00    0.50
   0   3   2    3.00    0.60
   0   3   2    3.30    0.30
  -1  -3  -2   13.00    1.00
  -1  -3  -2   17.40    1.00
  -1  -3  -2   16.00    1.00
  -1  -3  -2   14.80    0.90
   1   3   2   15.60    0.70
   1   3   2   14.80    0.90
   1   3   2   15.60    1.20
  -2  -3  -2   12.90    1.00
  -2  -3  -2   15.10    1.00
  -2  -3  -2   13.10    0.90
  -2  -3  -2   15.00    1.20
   2   3   2   15.50    1.40
   2   3   2   12.60    1.00
   2   3   2   14.70    0.80
   2   3   2   15.30    1.30
   2   3   2   12.40    0.90
  -3  -3  -2  106.29    3.40
  -3  -3  -2  105.09    3.50
  -3  -3  -2  101.99    3.40
  -3  -3  -2  105.59    3.90
   3   3   2  100.99    4.10
   3   3   2  103.09    3.70
   3   3   2   98.59    3.50
   3   3   2  102.49    3.30
  -4  -3  -2    8.30    1.10
  -4  -3  -2   10.00    1.20
  -4  -3  -2    7.70    0.80
  -4  -3  -2    7.30    1.20
   4   3   2   11.80    1.30
   4   3   2    9.50    1.10
   4   3   2    7.20    1.40
   4   3   2    9.00    1.20
  -5  -3  -2   46.10    2.00
  -5  -3  -2   42.90    2.60
  -5  -3  -2   45.50    2.40
  -5  -3  -2   35.90    2.20
   5   3   2   42.10    2.40
   5   3   2   43.90    2.40
   5   3   2   43.90    2.20
   5   3   2   43.40    2.80
  -6  -3  -2    2.20    1.00
  -6  -3  -2    2.10    1.00
  -6  -3  -2    3.10    1.30
   6   3   2    3.40    0.90
   6   3   2    2.30    1.20
   6   3   2    2.20    1.10
   6   3   2    1.10    0.90
  -7  -3  -2   -1.30    1.00
  -7  -3  -2    0.00    1.00
  -7  -3  -2    1.00    1.10
   7   3   2    1.10    1.00
   7   3   2   -0.40    1.10
   7   3   2    0.90    1.20
   7   3   2   -0.30    0.80
  -8  -3  -2    4.80    1.50
  -8  -3  -2    1.50    1.30
  -8  -3  -2    3.50    1.40
   8   3   2    2.60    1.50
   8   3   2    2.00    1.50
   8   3   2    3.50    1.30
  -9  -3  -2    0.70    1.30
  -9  -3  -2   -2.60    1.00
  -9  -3  -2    0.90    1.20
   9   3   2    2.50    1.50
   9   3   2   -0.40    1.40
   9   3   2   -0.50    1.10
  11  -4  -2   14.20    2.50
  11  -4  -2   13.80    2.50
  11  -4  -2   12.80    2.50
 -11   4   2   12.10    2.70
 -11   4   2   12.40    2.40
  10  -4  -2    0.00    1.40
  10  -4  -2   -0.60    1.10
  10  -4  -2   -0.20    1.50
  10  -4  -2    1.20    1.20
 -10   4   2    0.80    1.80
 -10   4   2    1.00    1.50
   9  -4  -2    1.30    1.10
   9  -4  -2    1.50    1.20
   9  -4  -2    3.20    1.20
  -9   4   2    1.10    1.30
  -9   4   2    3.10    1.70
  -9   4   2    0.80    1.20
   8  -4  -2   34.40    2.50
   8  -4  -2   31.40    2.30
   8  -4  -2   31.10    2.20
  -8   4   2   32.70    2.60
  -8   4   2   32.20    3.20
  -8   4   2   31.20    2.50
  -8   4   2   29.60    2.40
  -8   4   2   35.00    2.20
   7  -4  -2    1.30    0.80
   7  -4  -2    1.60    0.90
   7  -4  -2    0.40    0.30
   7  -4  -2    0.60    0.60
   7  -4  -2    0.90    0.80
  -7   4   2   -0.40    1.10
  -7   4   2   -0.70    0.80
  -7   4   2    1.40    1.00
  -7   4   2   -0.90    1.00
   6  -4  -2   36.60    1.40
   6  -4  -2   35.00    2.10
   6  -4  -2   36.00    2.10
   6  -4  -2   36.40    1.90
   6  -4  -2   35.60    1.80
  -6   4   2   34.40    2.20
  -6   4   2   37.80    2.40
  -6   4   2   38.60    2.70
  -6   4   2   38.00    2.30
   5  -4  -2  158.48    5.00
   5  -4  -2  162.18    5.20
   5  -4  -2  154.78    5.10
   5  -4  -2  156.78    4.90
   5  -4  -2  157.38    4.20
  -5   4   2  154.68    5.60
  -5   4   2  158.78    5.10
  -5   4   2  156.88    5.20
  -5   4   2  159.28    5.30
  -5   4   2  160.08    5.40
   4  -4  -2   99.69    3.30
   4  -4  -2  100.29    3.50
   4  -4  -2  100.99    3.60
   4  -4  -2  110.69    2.90
   4  -4  -2   97.29    3.50
   4  -4  -2  101.89    3.50
  -4   4   2  100.79    3.90
  -4   4   2   95.89    3.80
  -4   4   2  105.89    3.60
  -4   4   2  100.69    3.60
   3  -4  -2  163.18    4.70
   3  -4  -2  169.68    5.00
   3  -4  -2  160.28    5.00
   3  -4  -2  165.28    5.10
   3  -4  -2  166.58    4.90
  -3   4   2  161.98    5.40
  -3   4   2  158.38    5.00
  -3   4   2  164.88    5.10
   2  -4  -2  119.09    3.90
   2  -4  -2  117.79    3.70
   2  -4  -2  120.49    3.20
  -2   4   2  115.89    3.70
  -2   4   2  117.99    3.20
  -2   4   2  118.79    3.90
  -2   4   2  119.89    4.10
   1  -4  -2  897.91   24.10
   1  -4  -2  911.61   24.30
   1  -4  -2  926.21   23.90
   1  -4  -2  937.11   23.70
   1  -4  -2  913.01   24.20
  -1   4   2  948.91   23.40
  -1   4   2  925.21   24.30
  -1   4   2  909.91   23.60
  -1   4   2  914.31   23.90
  -1   4   2  915.91   24.50
   0  -4  -2  231.78    6.40
   0  -4  -2  225.58    6.40
   0  -4  -2  230.08    6.40
   0  -4  -2  222.28    6.70
   0  -4  -2  220.38    6.70
   0   4   2  232.68    5.80
   0   4   2  229.08    6.90
   0   4   2  222.98    6.30
  -1  -4  -2   34.70    1.70
  -1  -4  -2   34.30    1.60
  -1  -4  -2   32.10    1.50
  -1  -4  -2   31.40    1.70
   1   4   2   32.70    1.60
   1   4   2   34.80    1.10
   1   4   2   33.50    1.50
   1   4   2   33.40    1.90
  -2  -4  -2   48.40    2.00
  -2  -4  -2   48.00    2.40
  -2  -4  -2   51.29    2.20
   2   4   2   52.89    2.20
   2   4   2   51.29    1.80
   2   4   2   49.99    2.60
   2   4   2   48.30    2.10
  -3  -4  -2  273.87    7.90
  -3  -4  -2  258.17    8.30
  -3  -4  -2  275.57    7.90
   3   4   2  272.07    7.60
   3   4   2  276.17    8.70
   3   4   2  271.57    7.90
   3   4   2  270.27    8.10
  -4  -4  -2    3.60    0.90
  -4  -4  -2    3.60    1.10
  -4  -4  -2    3.30    0.90
  -4  -4  -2    4.50    0.80
   4   4   2    3.80    1.20
   4   4   2    3.70    1.00
   4   4   2    3.30    0.70
   4   4   2    1.60    0.80
  -5  -4  -2   14.40    1.60
  -5  -4  -2   13.90    1.80
  -5  -4  -2   14.60    1.60
  -5  -4  -2   13.50    1.20
   5   4   2   17.80    1.90
   5   4   2   13.20    1.40
   5   4   2   13.90    1.90
   5   4   2   14.90    1.70
  -6  -4  -2   -0.40    0.70
  -6  -4  -2    0.80    0.90
  -6  -4  -2    1.40    1.00
   6   4   2    1.40    0.80
   6   4   2   -1.60    1.00
   6   4   2    0.60    1.00
   6   4   2    0.60    1.00
  -7  -4  -2    0.50    1.10
  -7  -4  -2    0.00    1.00
  -7  -4  -2    1.40    1.20
   7   4   2    1.90    1.20
   7   4   2    2.40    1.40
   7   4   2    2.40    1.00
  -8  -4  -2    5.70    1.70
  -8  -4  -2    6.20    1.60
  -8  -4  -2    3.30    1.50
   8   4   2    7.60    1.80
   8   4   2    1.90    1.60
  11  -5  -2   -1.50    1.40
  11  -5  -2    1.10    1.40
  11  -5  -2    2.00    1.80
 -11   5   2    2.00    1.50
 -11   5   2    7.30    2.50
  10  -5  -2    1.10    1.50
  10  -5  -2    0.70    1.10
 -10   5   2    0.10    1.70
 -10   5   2    1.20    1.50
 -10   5   2    0.90    1.50
   9  -5  -2    4.00    1.50
   9  -5  -2    3.20    1.20
   9  -5  -2    4.90    1.40
  -9   5   2    5.90    2.10
  -9   5   2    4.30    1.60
  -9   5   2    4.90    1.50
   8  -5  -2    2.10    1.00
   8  -5  -2    2.60    1.20
   8  -5  -2    1.20    0.90
  -8   5   2    2.70    1.60
  -8   5   2    0.90    1.30
  -8   5   2    1.60    1.10
  -8   5   2    1.60    1.20
   7  -5  -2    2.20    1.10
   7  -5  -2    2.20    0.80
   7  -5  -2    2.00    0.90
   7  -5  -2    3.60    1.00
  -7   5   2    1.80    1.10
  -7   5   2    2.00    1.20
  -7   5   2    0.60    1.30
  -7   5   2    4.00    1.20
   6  -5  -2   93.29    2.60
   6  -5  -2   90.69    3.70
   6  -5  -2   94.79    3.50
   6  -5  -2   97.09    3.70
   6  -5  -2   97.69    3.50
  -6   5   2   91.79    4.40
  -6   5   2   92.79    4.00
  -6   5   2   96.99    3.90
  -6   5   2   90.69    3.90
  -6   5   2  101.69    3.90
   5  -5  -2  189.68    6.10
   5  -5  -2  193.38    6.00
   5  -5  -2  188.58    5.90
   5  -5  -2  186.78    5.70
   5  -5  -2  181.28    5.90
  -5   5   2  190.68    6.20
  -5   5   2  179.48    6.20
  -5   5   2  190.18    6.10
  -5   5   2  182.68    6.60
   4  -5  -2   54.69    2.50
   4  -5  -2   57.59    2.60
   4  -5  -2   56.09    2.40
   4  -5  -2   59.19    2.60
   4  -5  -2   58.79    2.20
  -4   5   2   60.69    2.60
  -4   5   2   56.59    2.90
  -4   5   2   59.49    2.80
   3  -5  -2  118.79    4.10
   3  -5  -2  124.69    3.60
   3  -5  -2  119.09    4.10
   3  -5  -2  122.59    4.00
   3  -5  -2  119.69    4.00
  -3   5   2  119.89    4.10
  -3   5   2  117.29    4.50
  -3   5   2  123.59    4.30
   2  -5  -2  197.98    6.30
   2  -5  -2  207.68    5.40
   2  -5  -2  195.48    6.30
   2  -5  -2  204.68    6.10
  -2   5   2  198.08    6.10
  -2   5   2  207.78    5.30
  -2   5   2  204.38    6.60
  -2   5   2  216.28    5.50
  -2   5   2  199.38    6.30
   1  -5  -2   78.99    3.00
   1  -5  -2   81.39    2.50
   1  -5  -2   75.69    3.10
   1  -5  -2   83.89    2.90
  -1   5   2   82.59    3.40
  -1   5   2   77.39    3.10
  -1   5   2   75.59    2.80
  -1   5   2   79.49    2.50
   0  -5  -2   27.70    1.30
   0  -5  -2   26.40    1.40
   0  -5  -2   27.00    1.40
   0  -5  -2   26.10    1.70
   0  -5  -2   27.30    1.60
   0   5   2   26.20    1.80
   0   5   2   25.50    1.30
   0   5   2   24.60    1.70
  -1  -5  -2    7.00    1.00
  -1  -5  -2    6.00    0.80
  -1  -5  -2    6.80    0.90
  -1  -5  -2    5.80    1.00
   1   5   2    6.70    0.90
   1   5   2    6.60    0.90
   1   5   2    6.10    1.10
  -2  -5  -2  307.17    9.10
  -2  -5  -2  304.37    8.90
  -2  -5  -2  296.07    8.60
   2   5   2  306.97    8.00
   2   5   2  297.37    8.80
   2   5   2  296.47    8.70
   2   5   2  297.97    9.40
  -3  -5  -2  120.19    4.70
  -3  -5  -2  116.79    4.20
  -3  -5  -2  119.09    4.20
   3   5   2  120.29    4.20
   3   5   2  118.39    3.70
   3   5   2  121.29    4.90
   3   5   2  126.39    4.50
  -4  -5  -2    1.00    1.00
  -4  -5  -2    0.40    0.60
  -4  -5  -2    0.30    0.70
   4   5   2    0.10    0.90
   4   5   2    0.30    0.50
   4   5   2    0.00    0.80
   4   5   2    0.30    0.80
  -5  -5  -2    8.50    1.30
  -5  -5  -2    5.30    1.40
   5   5   2    7.70    1.30
   5   5   2    6.70    1.30
   5   5   2    8.90    1.50
   5   5   2    5.70    1.50
  -6  -5  -2    0.20    0.90
  -6  -5  -2    0.70    1.10
   6   5   2    3.10    1.30
   6   5   2   -0.50    1.20
  -7  -5  -2    2.10    1.40
  -7  -5  -2    1.90    1.20
   7   5   2    0.60    1.30
   7   5   2    2.80    1.40
  -8  -5  -2    1.80    1.50
  -8  -5  -2    3.80    1.40
   8   5   2    3.10    1.70
   8   5   2    2.10    1.40
  11  -6  -2   -0.20    1.70
  11  -6  -2    1.80    1.50
 -11   6   2   -2.60    1.70
 -11   6   2   -0.60    1.60
 -11   6   2    0.80    1.40
  10  -6  -2    5.00    1.60
  10  -6  -2    4.30    1.70
 -10   6   2    2.70    2.10
 -10   6   2    1.60    1.50
 -10   6   2    1.00    1.70
   9  -6  -2   17.00    2.30
   9  -6  -2   24.00    2.40
  -9   6   2   21.60    2.50
  -9   6   2   27.90    3.00
  -9   6   2   16.10    2.90
   8  -6  -2    1.90    1.20
   8  -6  -2    0.80    0.80
   8  -6  -2    0.30    0.90
  -8   6   2   -0.60    1.20
  -8   6   2   -0.60    1.00
  -8   6   2    0.80    1.10
  -8   6   2    2.50    1.70
   7  -6  -2    6.00    1.20
   7  -6  -2    4.00    1.00
   7  -6  -2    4.60    1.00
   7  -6  -2    5.80    1.40
  -7   6   2    5.10    1.30
  -7   6   2    4.10    1.40
  -7   6   2    3.50    1.50
  -7   6   2    5.80    1.30
   6  -6  -2   54.59    2.70
   6  -6  -2   50.19    2.40
   6  -6  -2   51.79    2.60
   6  -6  -2   55.19    2.80
   6  -6  -2   52.19    2.80
  -6   6   2   55.29    3.10
  -6   6   2   52.89    2.90
  -6   6   2   53.49    2.90
  -6   6   2   50.09    3.40
   5  -6  -2  220.18    6.60
   5  -6  -2  210.58    6.90
   5  -6  -2  218.38    7.00
   5  -6  -2  226.88    7.00
   5  -6  -2  222.88    7.20
  -5   6   2  226.88    7.30
  -5   6   2  221.78    7.70
  -5   6   2  228.28    7.50
  -5   6   2  228.38    7.20
   4  -6  -2   75.69    3.00
   4  -6  -2   69.29    3.00
   4  -6  -2   68.69    3.00
   4  -6  -2   67.19    3.00
   4  -6  -2   70.29    2.50
  -4   6   2   68.89    3.20
  -4   6   2   72.69    3.10
  -4   6   2   76.59    3.60
   3  -6  -2   32.60    2.00
   3  -6  -2   31.60    1.90
   3  -6  -2   32.30    1.30
   3  -6  -2   32.50    1.90
  -3   6   2   30.10    1.90
  -3   6   2   35.20    2.40
  -3   6   2   30.50    2.10
   2  -6  -2  126.09    3.60
   2  -6  -2  121.09    4.50
   2  -6  -2  123.59    4.40
   2  -6  -2  133.89    4.30
  -2   6   2  130.29    3.40
  -2   6   2  123.29    4.30
  -2   6   2  121.59    4.70
  -2   6   2  115.59    4.50
   1  -6  -2   43.90    2.10
   1  -6  -2   38.90    2.20
   1  -6  -2   41.40    1.60
   1  -6  -2   39.90    2.00
  -1   6   2   41.90    1.70
  -1   6   2   42.90    2.50
  -1   6   2   40.20    2.40
  -1   6   2   38.90    2.00
   0  -6  -2    8.20    0.80
   0  -6  -2    6.50    1.00
   0  -6  -2    8.30    1.20
   0  -6  -2    6.50    1.10
   0  -6  -2    6.40    0.90
   0   6   2    3.50    1.10
   0   6   2    6.00    0.80
   0   6   2    4.40    1.10
  -1  -6  -2   99.19    3.80
  -1  -6  -2   90.29    3.70
  -1  -6  -2   94.09    3.50
  -1  -6  -2   90.89    3.40
   1   6   2   95.29    4.10
   1   6   2  100.79    3.50
  -2  -6  -2    6.60    1.00
  -2  -6  -2    7.10    1.10
  -2  -6  -2    6.90    1.30
  -2  -6  -2    8.50    1.10
   2   6   2    7.20    1.10
   2   6   2    8.00    1.20
   2   6   2    6.40    1.30
  -3  -6  -2    1.20    0.70
  -3  -6  -2    1.00    0.80
  -3  -6  -2   -0.10    0.80
   3   6   2    0.10    0.80
   3   6   2    0.50    0.80
   3   6   2    1.30    0.90
  -4  -6  -2   31.10    2.00
  -4  -6  -2   32.50    2.10
  -4  -6  -2   29.50    2.40
   4   6   2   33.90    2.20
   4   6   2   31.10    2.30
   4   6   2   28.90    2.70
  -5  -6  -2    0.00    0.90
  -5  -6  -2    1.80    1.10
   5   6   2   -0.60    1.10
   5   6   2   -0.40    0.90
   5   6   2    0.60    0.90
  -6  -6  -2   11.30    2.10
  -6  -6  -2   12.40    1.80
   6   6   2   12.00    2.30
   6   6   2   12.10    1.90
  -7  -6  -2    9.40    1.80
  -7  -6  -2   12.00    2.20
   7   6   2   10.00    1.90
   7   6   2    7.30    2.00
  10  -7  -2    0.80    1.20
  10  -7  -2    1.20    1.50
 -10   7   2   -0.20    1.50
 -10   7   2   -0.50    2.00
 -10   7   2    0.90    1.60
   9  -7  -2    2.40    1.10
   9  -7  -2   -1.40    1.30
  -9   7   2    0.70    2.10
  -9   7   2   -1.20    1.30
  -9   7   2   -1.20    1.30
   8  -7  -2    0.10    1.20
   8  -7  -2    1.60    0.90
  -8   7   2   -1.60    1.00
  -8   7   2   -0.40    1.30
  -8   7   2   -1.10    1.60
   7  -7  -2    4.80    1.30
   7  -7  -2    5.70    1.20
   7  -7  -2    8.80    1.30
   7  -7  -2    6.90    1.20
  -7   7   2    4.70    1.40
  -7   7   2    6.90    1.60
  -7   7   2    5.80    1.50
  -7   7   2    7.10    2.00
  -7   7   2    5.10    1.50
   6  -7  -2   53.09    2.70
   6  -7  -2   53.09    3.00
   6  -7  -2   51.79    2.80
   6  -7  -2   49.20    2.80
   6  -7  -2   49.20    2.30
  -6   7   2   51.49    3.10
  -6   7   2   53.59    3.10
  -6   7   2   54.29    3.60
  -6   7   2   53.09    3.10
   5  -7  -2   60.89    2.50
   5  -7  -2   66.99    3.10
   5  -7  -2   62.29    3.10
   5  -7  -2   59.69    3.00
   5  -7  -2   68.49    3.00
  -5   7   2   60.69    3.60
  -5   7   2   63.79    3.30
  -5   7   2   73.19    3.50
  -5   7   2   67.19    3.40
   4  -7  -2   10.60    1.40
   4  -7  -2   12.90    1.40
   4  -7  -2   12.00    1.40
   4  -7  -2   12.00    0.90
   4  -7  -2   10.90    1.40
  -4   7   2    9.80    1.60
  -4   7   2   12.00    1.50
  -4   7   2   11.50    1.60
   3  -7  -2   18.30    1.60
   3  -7  -2   15.60    1.50
   3  -7  -2   19.30    1.80
  -3   7   2   17.50    1.60
  -3   7   2   17.00    1.90
  -3   7   2   14.90    1.80
   2  -7  -2   18.50    1.50
   2  -7  -2   21.00    1.80
  -2   7   2   18.60    1.90
  -2   7   2   20.70    1.60
  -2   7   2   20.50    1.90
   1  -7  -2  108.59    3.90
   1  -7  -2  103.89    3.40
   1  -7  -2  100.39    4.10
   1  -7  -2  102.29    3.90
  -1   7   2  106.59    3.40
  -1   7   2  100.79    4.40
  -1   7   2   96.79    4.40
  -1   7   2  110.99    3.30
  -1   7   2  104.19    3.90
   0  -7  -2  137.59    4.70
   0  -7  -2  129.39    4.60
   0  -7  -2  131.89    4.70
   0  -7  -2  122.59    4.80
   0   7   2  132.09    5.20
   0   7   2  134.69    5.30
   0   7   2  138.19    4.30
  -1  -7  -2    9.60    1.40
  -1  -7  -2    9.80    1.20
  -1  -7  -2   10.60    1.50
  -1  -7  -2    9.70    1.20
   1   7   2   10.00    1.60
   1   7   2    8.90    1.10
   1   7   2   10.00    1.60
  -2  -7  -2   52.59    2.80
  -2  -7  -2   50.19    2.80
  -2  -7  -2   49.20    2.50
  -2  -7  -2   50.19    2.50
   2   7   2   49.60    2.60
   2   7   2   51.39    3.10
  -3  -7  -2   12.90    1.80
  -3  -7  -2    9.80    1.30
  -3  -7  -2   14.80    1.70
  -3  -7  -2   12.40    1.50
   3   7   2   11.70    1.80
   3   7   2   11.60    1.50
   3   7   2   13.30    1.60
  -4  -7  -2    1.50    1.00
  -4  -7  -2    2.40    1.00
  -4  -7  -2    3.40    1.00
   4   7   2    2.00    1.30
   4   7   2    1.30    1.10
   4   7   2    2.40    1.00
  -5  -7  -2   40.90    3.10
  -5  -7  -2   39.60    2.70
   5   7   2   41.50    2.90
   5   7   2   43.20    3.50
  -6  -7  -2    7.90    1.90
  -6  -7  -2    9.90    1.70
   6   7   2   13.50    2.10
   6   7   2    6.50    1.90
  -7  -7  -2    1.20    1.40
   7   7   2    0.20    1.40
  10  -8  -2    3.30    1.70
  10  -8  -2    0.40    1.20
 -10   8   2   -1.00    2.10
 -10   8   2    3.70    2.00
 -10   8   2    3.20    1.60
   9  -8  -2    1.50    1.10
   9  -8  -2    1.40    1.60
  -9   8   2    2.50    2.50
  -9   8   2    2.40    1.50
  -9   8   2    3.80    1.80
   8  -8  -2    0.20    0.80
   8  -8  -2    0.10    1.10
  -8   8   2    0.90    1.30
  -8   8   2    0.30    1.40
  -8   8   2   -2.70    1.60
   7  -8  -2    3.30    1.20
   7  -8  -2    1.70    0.80
   7  -8  -2    2.80    1.10
   7  -8  -2    3.10    1.30
  -7   8   2    1.90    1.40
  -7   8   2    1.00    1.30
  -7   8   2    2.50    1.40
  -7   8   2    2.80    1.80
   6  -8  -2   20.90    1.50
   6  -8  -2   18.50    2.00
   6  -8  -2   19.20    2.20
   6  -8  -2   18.70    2.00
   6  -8  -2   22.80    1.80
  -6   8   2   21.30    2.40
  -6   8   2   18.20    2.50
  -6   8   2   20.00    2.20
  -6   8   2   21.20    2.30
   5  -8  -2    0.50    0.90
   5  -8  -2    0.60    0.80
   5  -8  -2    0.10    0.90
   5  -8  -2   -0.20    0.70
  -5   8   2    0.80    1.00
  -5   8   2    2.70    1.10
  -5   8   2   -0.10    1.10
  -5   8   2   -0.50    1.00
   4  -8  -2    0.40    0.80
   4  -8  -2   -1.30    0.70
   4  -8  -2   -0.80    0.60
   4  -8  -2    0.10    0.80
  -4   8   2   -0.90    0.90
  -4   8   2    0.40    0.90
  -4   8   2    0.00    1.00
   3  -8  -2    1.30    0.90
   3  -8  -2    0.20    0.70
  -3   8   2    1.50    1.10
  -3   8   2    0.20    1.00
  -3   8   2    2.30    0.90
   2  -8  -2    9.50    1.30
   2  -8  -2    9.50    1.50
  -2   8   2   11.10    1.70
  -2   8   2   13.00    1.50
  -2   8   2   10.70    1.70
   1  -8  -2    4.90    1.10
   1  -8  -2    3.90    1.00
   1  -8  -2    3.90    1.10
  -1   8   2    5.60    1.10
  -1   8   2    4.70    1.30
  -1   8   2    4.40    0.70
  -1   8   2    3.70    1.20
   0  -8  -2    8.10    1.30
   0  -8  -2    8.80    1.50
   0  -8  -2    6.30    1.20
   0  -8  -2    6.70    1.10
   0   8   2    9.50    1.60
   0   8   2    5.10    1.30
   0   8   2    7.30    1.00
  -1  -8  -2    1.00    0.80
  -1  -8  -2    0.30    0.80
  -1  -8  -2    0.00    0.70
  -1  -8  -2    0.70    0.80
   1   8   2    0.60    1.00
   1   8   2    0.70    1.00
   1   8   2    0.30    0.70
  -2  -8  -2   12.00    1.70
  -2  -8  -2   11.90    1.70
  -2  -8  -2   12.60    1.60
  -2  -8  -2   10.60    1.40
   2   8   2   11.40    1.80
   2   8   2    8.50    1.70
   2   8   2   16.30    1.70
  -3  -8  -2    2.20    1.00
  -3  -8  -2    3.10    1.10
  -3  -8  -2    1.10    1.00
  -3  -8  -2    1.30    0.90
   3   8   2    3.30    1.00
   3   8   2   -0.30    1.00
  -4  -8  -2    0.50    1.10
  -4  -8  -2   -0.30    0.90
  -4  -8  -2    1.00    0.80
  -4  -8  -2   -0.20    0.80
   4   8   2    0.90    1.10
   4   8   2   -1.60    1.20
  -5  -8  -2    7.60    1.80
  -5  -8  -2    1.40    1.20
   5   8   2    5.90    1.60
   5   8   2    2.10    1.60
  -6  -8  -2    0.50    1.30
   6   8   2    2.20    1.70
   9  -9  -2    0.50    1.40
  -9   9   2    1.20    2.50
  -9   9   2    0.60    1.30
  -9   9   2   -1.00    1.60
   8  -9  -2    5.80    1.70
  -8   9   2    3.30    2.10
  -8   9   2    6.20    1.80
  -8   9   2    6.50    1.90
   7  -9  -2   10.70    2.00
   7  -9  -2    9.30    1.80
   7  -9  -2    7.40    1.50
  -7   9   2    7.00    1.70
  -7   9   2   10.00    2.60
  -7   9   2    7.40    2.00
   6  -9  -2    9.30    1.60
   6  -9  -2    5.00    1.30
   6  -9  -2    5.10    1.50
  -6   9   2    5.50    2.00
  -6   9   2    9.80    1.80
  -6   9   2    5.50    1.70
  -6   9   2    6.60    1.60
   5  -9  -2   21.10    2.20
   5  -9  -2   28.30    2.60
   5  -9  -2   23.80    2.30
  -5   9   2   23.90    2.40
  -5   9   2   22.50    2.50
  -5   9   2   34.90    2.60
  -5   9   2   21.60    2.60
   4  -9  -2   39.90    2.70
   4  -9  -2   40.10    2.60
   4  -9  -2   36.80    2.60
  -4   9   2   39.00    3.10
  -4   9   2   35.90    2.60
  -4   9   2   42.00    3.20
   3  -9  -2   -0.30    0.80
   3  -9  -2    0.60    0.90
  -3   9   2    0.40    1.10
  -3   9   2    0.60    1.10
  -3   9   2   -0.60    0.80
   2  -9  -2    6.50    1.40
   2  -9  -2    4.50    1.20
  -2   9   2    4.10    1.40
  -2   9   2    6.10    1.30
  -2   9   2    5.70    1.60
   1  -9  -2   -1.00    0.70
   1  -9  -2    0.40    0.80
  -1   9   2    0.10    0.90
  -1   9   2   -0.70    1.00
  -1   9   2    0.60    1.20
   0  -9  -2   13.40    1.90
   0  -9  -2   15.70    1.70
   0  -9  -2   15.00    1.80
   0   9   2   13.80    2.00
   0   9   2   12.70    2.00
   0   9   2   16.10    1.80
  -1  -9  -2    2.90    1.10
  -1  -9  -2    0.70    0.80
  -1  -9  -2    0.70    0.90
  -1  -9  -2    2.00    1.00
   1   9   2    1.90    1.30
   1   9   2    1.60    1.20
  -2  -9  -2    2.20    1.00
  -2  -9  -2    1.40    1.00
  -2  -9  -2    0.40    1.00
  -2  -9  -2    0.50    0.90
   2   9   2   -0.30    0.80
   2   9   2    1.70    1.30
   2   9   2    0.90    1.20
  -3  -9  -2   -1.00    0.90
  -3  -9  -2    0.10    0.80
  -3  -9  -2   -0.10    0.90
  -3  -9  -2   -2.30    0.80
   3   9   2    0.20    1.20
   3   9   2    1.10    1.00
   3   9   2   -0.60    1.20
  -4  -9  -2   -1.70    0.70
  -4  -9  -2    0.00    0.90
  -4  -9  -2    0.90    1.20
  -4  -9  -2   -1.40    1.00
   4   9   2    0.50    1.40
  -5  -9  -2    0.70    1.20
   5   9   2    0.00    1.50
   8 -10  -2    1.60    1.40
  -8  10   2    1.60    2.20
  -8  10   2    2.20    1.50
  -8  10   2   -0.90    1.40
   7 -10  -2    3.00    1.40
   7 -10  -2    3.50    1.60
   7 -10  -2    3.70    1.30
  -7  10   2    1.30    2.10
  -7  10   2    3.70    1.90
  -7  10   2    3.20    1.70
   6 -10  -2    0.10    1.00
   6 -10  -2   -0.80    1.30
   6 -10  -2   -0.70    0.80
  -6  10   2    1.70    1.30
  -6  10   2   -0.20    1.60
  -6  10   2    4.20    2.10
  -6  10   2   -2.70    1.60
   5 -10  -2    2.60    1.40
   5 -10  -2    1.50    1.20
   5 -10  -2    2.80    1.30
  -5  10   2    2.60    1.70
  -5  10   2    0.60    1.30
  -5  10   2    0.40    1.60
   4 -10  -2   18.80    2.30
   4 -10  -2   22.50    2.40
   4 -10  -2   18.10    2.10
  -4  10   2   16.60    2.40
  -4  10   2   17.80    2.60
  -4  10   2   18.30    2.20
   3 -10  -2    2.70    1.20
   3 -10  -2    0.40    1.00
  -3  10   2    3.40    1.20
  -3  10   2    0.90    1.30
  -3  10   2    3.00    1.60
   2 -10  -2    1.20    1.00
   2 -10  -2    0.10    0.90
  -2  10   2   -0.20    1.30
  -2  10   2   -0.70    1.30
  -2  10   2    1.40    1.00
   1 -10  -2    1.10    1.10
   1 -10  -2    0.90    1.00
  -1  10   2    0.40    1.30
  -1  10   2    2.20    1.10
  -1  10   2    1.20    1.40
   0 -10  -2    1.50    1.00
   0 -10  -2    0.20    1.00
   0  10   2    0.10    1.20
   0  10   2    1.30    1.00
   0  10   2    0.80    1.20
  -1 -10  -2    0.00    0.90
  -1 -10  -2    0.30    1.00
  -1 -10  -2    0.70    1.10
   1  10   2   -1.10    1.10
   1  10   2    1.10    0.90
   1  10   2    1.10    1.40
  -2 -10  -2    2.10    1.10
  -2 -10  -2    0.70    1.20
  -2 -10  -2    0.10    0.90
   2  10   2    0.60    1.20
   2  10   2   -0.20    1.30
  -3 -10  -2    2.70    1.10
   3  10   2    2.40    1.60
   3  10   2    1.10    1.50
  -4 -10  -2    1.30    1.20
   4  10   2    0.00    1.50
   4  10   2    0.60    1.20
   7 -11  -2    1.40    1.30
   7 -11  -2   -1.30    1.40
   7 -11  -2    0.90    1.40
  -7  11   2    0.30    1.40
  -7  11   2   -3.50    2.00
   6 -11  -2    0.30    1.20
   6 -11  -2   -0.80    1.10
   6 -11  -2    0.60    1.40
  -6  11   2   -2.40    1.50
  -6  11   2   -1.60    1.90
  -6  11   2   -0.20    1.40
   5 -11  -2    4.50    1.50
   5 -11  -2    4.40    1.50
   5 -11  -2    6.20    1.80
  -5  11   2    3.10    1.80
  -5  11   2    3.90    2.00
  -5  11   2    3.60    1.60
   4 -11  -2   -1.00    1.00
   4 -11  -2    0.70    1.10
   4 -11  -2   -0.60    1.20
  -4  11   2   -0.90    1.40
  -4  11   2   -1.60    1.10
  -4  11   2   -1.10    1.40
   3 -11  -2   14.60    2.10
   3 -11  -2   16.30    2.30
  -3  11   2   17.70    2.70
  -3  11   2   13.20    2.30
  -3  11   2   16.70    2.20
   2 -11  -2    4.70    1.40
   2 -11  -2    4.60    1.30
  -2  11   2    3.20    1.90
  -2  11   2    2.70    1.80
  -2  11   2    4.00    1.40
   1 -11  -2    5.50    1.60
   1 -11  -2    5.00    1.40
  -1  11   2    5.00    2.00
  -1  11   2    3.60    1.80
  -1  11   2    5.20    1.50
   0 -11  -2   -0.30    1.00
   0 -11  -2   -1.10    1.00
   0  11   2    2.00    1.50
   0  11   2   -0.20    1.10
   0  11   2    1.20    1.70
  -1 -11  -2    0.90    1.20
  -1 -11  -2    0.10    1.00
   1  11   2   -0.20    1.30
   1  11   2    1.70    1.30
   1  11   2    2.00    1.70
  -2 -11  -2    1.70    1.10
   2  11   2    2.00    1.50
   2  11   2    0.40    1.40
   4 -12  -2   -0.40    1.30
   4 -12  -2   -1.20    1.10
   4 -12  -2    0.40    1.20
  -4  12   2   -4.40    1.40
  -4  12   2   -4.60    1.30
  -4  12   2   -1.90    1.20
   3 -12  -2    1.60    1.30
   3 -12  -2    2.20    1.40
  -3  12   2    1.30    1.90
  -3  12   2    2.00    1.40
  -3  12   2    2.00    1.80
   2 -12  -2    3.30    1.50
   2 -12  -2    2.90    1.40
  -2  12   2    5.40    2.20
  -2  12   2    2.00    1.90
  -2  12   2    0.40    1.30
   1 -12  -2    3.40    1.50
   1 -12  -2    7.00    1.90
  -1  12   2    5.20    2.20
  -1  12   2    4.70    2.00
  -1  12   2    5.40    1.60
   0  12  -3   -1.70    1.60
   0  12  -3    2.00    1.60
   0 -12   3   -1.60    1.50
  -1  12  -3   -3.60    1.50
  -1  12  -3   -0.20    1.60
   1 -12   3   -1.60    1.50
   3  11  -3    9.10    2.40
  -3 -11   3   15.20    2.90
  -3 -11   3    9.40    2.20
  -3 -11   3    5.70    2.10
   2  11  -3    5.90    2.10
  -2 -11   3    9.20    2.10
  -2 -11   3   11.90    2.60
  -2 -11   3   10.40    2.20
   1  11  -3    1.40    1.40
   1  11  -3    2.80    1.90
  -1 -11   3    1.80    1.90
  -1 -11   3   -2.20    1.20
   0  11  -3   -2.40    1.70
   0  11  -3   -1.30    1.20
   0 -11   3    1.00    1.40
  -1  11  -3    2.90    1.90
  -1  11  -3    4.70    1.70
   1 -11   3    3.30    1.80
  -2  11  -3   -2.00    1.70
  -2  11  -3    1.10    1.60
   2 -11   3    2.20    1.60
  -3  11  -3    2.80    2.00
  -3  11  -3    0.90    1.60
   3 -11   3    2.30    1.60
  -4  11  -3    0.10    3.20
  -4  11  -3    2.50    1.70
  -4  11  -3    0.70    2.00
   4 -11   3   -0.10    1.60
   4 -11   3    3.50    1.80
   5  10  -3    3.20    1.80
   5  10  -3    4.10    1.60
  -5 -10   3    3.50    1.80
  -5 -10   3    7.30    2.20
  -5 -10   3    3.00    1.60
   4  10  -3   -1.20    1.30
   4  10  -3    1.40    1.20
  -4 -10   3   -0.10    1.40
  -4 -10   3    1.50    1.60
  -4 -10   3    2.70    1.80
   3  10  -3   -0.20    1.50
   3  10  -3    3.20    1.30
  -3 -10   3    0.20    1.40
  -3 -10   3    3.40    1.60
  -3 -10   3    3.10    1.70
   2  10  -3    1.00    1.00
   2  10  -3   -0.50    1.20
  -2 -10   3    0.80    1.40
  -2 -10   3    1.30    1.50
  -2 -10   3    1.50    1.70
   1  10  -3    2.20    1.60
   1  10  -3    3.40    1.20
  -1 -10   3    6.00    1.80
  -1 -10   3    5.00    1.60
  -1 -10   3    2.60    1.70
   0  10  -3    1.30    1.00
   0  10  -3    2.00    1.60
   0  10  -3    1.20    1.30
   0 -10   3    0.20    1.30
   0 -10   3    3.10    1.60
  -1  10  -3    0.20    0.90
  -1  10  -3    2.20    1.40
  -1  10  -3   -1.80    1.10
  -1  10  -3   -2.20    1.30
   1 -10   3   -1.00    1.10
   1 -10   3    2.10    1.40
  -2  10  -3   -1.70    1.30
  -2  10  -3    1.00    1.40
  -2  10  -3    0.90    1.80
   2 -10   3    0.40    1.30
  -3  10  -3    3.20    1.60
  -3  10  -3    0.60    1.70
  -3  10  -3    1.90    1.60
   3 -10   3    4.10    1.80
  -4  10  -3    3.70    2.00
  -4  10  -3    2.00    1.40
  -4  10  -3    0.60    1.90
   4 -10   3    3.00    1.70
   4 -10   3    4.60    2.00
  -5  10  -3    4.30    2.10
  -5  10  -3    6.80    2.00
   5 -10   3    7.90    2.20
   5 -10   3    2.10    1.80
  -6  10  -3    1.30    1.90
  -6  10  -3   -0.40    1.80
   6 -10   3    1.70    1.70
   6 -10   3    0.70    1.50
   6   9  -3   -0.90    1.30
   6   9  -3    0.50    1.60
  -6  -9   3   -1.90    1.30
  -6  -9   3    2.90    1.70
  -6  -9   3   -0.90    1.20
   5   9  -3    0.70    1.30
  -5  -9   3    0.50    1.40
  -5  -9   3    0.00    1.40
  -5  -9   3    0.50    1.20
   4   9  -3    1.10    1.10
   4   9  -3   -3.00    1.00
  -4  -9   3    0.80    1.30
  -4  -9   3   -0.30    1.40
  -4  -9   3    0.10    1.20
   3   9  -3    6.50    1.30
   3   9  -3    3.10    1.40
  -3  -9   3    6.80    1.60
  -3  -9   3    7.20    1.90
  -3  -9   3    7.60    1.80
   2   9  -3   -1.30    1.00
   2   9  -3    0.10    0.90
  -2  -9   3    0.80    1.10
  -2  -9   3    0.10    1.00
  -2  -9   3    1.60    1.30
   1   9  -3    3.00    1.50
   1   9  -3    0.80    0.90
   1   9  -3    1.70    1.00
  -1  -9   3    0.50    1.20
  -1  -9   3    2.90    1.30
  -1  -9   3    0.60    1.30
   0   9  -3   13.30    1.60
   0   9  -3   10.10    1.60
   0   9  -3   14.40    2.00
   0   9  -3    9.20    1.90
   0  -9   3   13.80    1.90
   0  -9   3   11.80    2.10
  -1   9  -3   -0.50    1.00
  -1   9  -3   -0.80    0.70
  -1   9  -3    0.20    1.20
  -1   9  -3   -1.80    0.90
   1  -9   3    1.60    1.30
   1  -9   3    1.50    1.30
  -2   9  -3    7.70    1.30
  -2   9  -3    6.40    1.60
  -2   9  -3    2.70    1.60
  -2   9  -3    1.80    1.20
   2  -9   3    4.80    1.40
  -3   9  -3    1.10    0.80
  -3   9  -3    0.20    1.40
  -3   9  -3    1.00    1.30
  -3   9  -3    0.70    1.30
   3  -9   3   -1.10    1.10
  -4   9  -3   44.90    3.90
  -4   9  -3   55.69    3.70
  -4   9  -3   52.99    4.10
   4  -9   3   51.19    2.70
   4  -9   3   61.99    3.70
   4  -9   3   53.99    3.80
  -5   9  -3   26.60    3.10
  -5   9  -3   21.80    3.10
   5  -9   3   26.70    2.90
   5  -9   3   27.00    2.90
   5  -9   3   23.80    2.30
  -6   9  -3    3.50    2.10
  -6   9  -3    3.90    2.00
   6  -9   3    2.60    1.70
   6  -9   3    2.90    1.80
   6  -9   3    3.80    1.30
  -7   9  -3   -0.90    1.70
  -7   9  -3   -0.40    1.80
   7  -9   3    0.10    1.50
   7  -9   3   -0.60    1.30
   7  -9   3   -0.20    1.00
   7   8  -3    0.40    1.30
   7   8  -3   -0.70    1.50
  -7  -8   3    1.60    1.30
  -7  -8   3    3.60    1.70
   6   8  -3    2.60    1.70
   6   8  -3   -1.20    1.20
  -6  -8   3    2.70    1.50
  -6  -8   3    0.10    1.40
   5   8  -3    1.90    1.30
   5   8  -3    4.20    1.60
  -5  -8   3    5.30    1.80
  -5  -8   3    4.10    1.60
   4   8  -3   -0.70    1.00
   4   8  -3   -1.10    1.20
  -4  -8   3    0.60    1.20
  -4  -8   3   -1.20    1.00
  -4  -8   3    0.30    1.00
   3   8  -3    1.30    1.00
   3   8  -3    0.20    0.70
   3   8  -3    1.70    1.20
  -3  -8   3    1.00    1.00
  -3  -8   3    0.50    1.10
  -3  -8   3    0.80    1.20
   2   8  -3   15.10    1.60
   2   8  -3   16.10    2.10
   2   8  -3   14.10    1.70
  -2  -8   3   14.90    2.30
  -2  -8   3   13.60    1.80
  -2  -8   3   14.00    1.90
   1   8  -3   79.89    4.10
   1   8  -3   83.59    3.50
   1   8  -3   83.19    3.60
  -1  -8   3   80.29    3.80
  -1  -8   3   79.89    4.10
  -1  -8   3   86.39    4.00
   0   8  -3    2.50    1.00
   0   8  -3    0.60    1.10
   0   8  -3    0.20    0.90
   0   8  -3    2.50    1.20
   0  -8   3    1.10    1.20
   0  -8   3    1.90    0.60
   0  -8   3    1.40    1.00
   0  -8   3    3.80    1.20
  -1   8  -3   12.20    1.40
  -1   8  -3    8.90    1.40
  -1   8  -3   11.80    1.70
  -1   8  -3   12.90    1.90
   1  -8   3   10.80    1.80
   1  -8   3   10.20    1.70
   1  -8   3   15.00    1.30
  -2   8  -3    3.20    1.30
  -2   8  -3    4.80    1.00
  -2   8  -3    5.20    1.50
  -2   8  -3    3.30    1.30
   2  -8   3    3.20    0.80
   2  -8   3    3.90    1.30
   2  -8   3    2.50    1.20
  -3   8  -3    2.20    1.20
  -3   8  -3    0.60    1.20
  -3   8  -3    1.30    1.40
  -3   8  -3    0.90    0.80
   3  -8   3    2.50    0.80
   3  -8   3    0.90    1.10
  -4   8  -3    1.20    0.80
  -4   8  -3   -0.60    1.40
  -4   8  -3   -0.90    1.30
  -4   8  -3    0.20    1.10
   4  -8   3    0.40    1.30
   4  -8   3    0.10    0.80
   4  -8   3    1.40    1.20
  -5   8  -3    3.10    1.00
  -5   8  -3    2.30    1.50
  -5   8  -3    0.40    1.50
   5  -8   3    2.40    1.40
   5  -8   3    3.60    1.40
   5  -8   3    5.50    1.30
  -6   8  -3    4.90    2.00
  -6   8  -3    5.50    1.80
   6  -8   3    6.50    1.90
   6  -8   3    7.40    1.60
   6  -8   3    6.80    1.90
  -7   8  -3    1.80    1.70
  -7   8  -3    3.70    1.80
  -7   8  -3    3.90    2.00
   7  -8   3    3.10    1.80
   7  -8   3    4.90    2.00
   7  -8   3    3.90    1.30
  -8   8  -3    1.30    1.70
  -8   8  -3    1.50    1.80
   8  -8   3    0.00    1.20
   8  -8   3    0.40    1.60
   8   7  -3    5.70    2.00
  -8  -7   3    2.70    1.60
  -8  -7   3    5.90    1.60
   7   7  -3   -0.50    1.40
   7   7  -3    2.20    1.20
  -7  -7   3    2.30    1.30
  -7  -7   3    2.30    1.50
   6   7  -3    7.80    1.90
   6   7  -3    2.40    1.20
  -6  -7   3    7.10    1.70
  -6  -7   3    4.50    1.50
   5   7  -3   -0.80    1.00
   5   7  -3   -0.30    0.80
   5   7  -3   -1.30    0.80
  -5  -7   3    0.80    1.20
  -5  -7   3   -0.10    1.10
   4   7  -3   48.50    2.80
   4   7  -3   58.79    3.40
   4   7  -3   57.89    3.20
   4   7  -3   56.39    2.70
  -4  -7   3   56.79    3.20
  -4  -7   3   57.29    3.30
   3   7  -3   79.39    3.30
   3   7  -3   78.69    4.00
   3   7  -3   76.39    3.70
   3   7  -3   80.99    3.50
  -3  -7   3   79.89    3.70
  -3  -7   3   80.39    3.80
  -3  -7   3   87.79    4.10
   2   7  -3  190.68    6.90
   2   7  -3  196.88    6.20
   2   7  -3  185.78    6.30
  -2  -7   3  202.98    6.70
  -2  -7   3  189.48    6.90
  -2  -7   3  193.18    6.60
   1   7  -3   13.40    1.40
   1   7  -3   12.70    1.70
   1   7  -3   12.80    1.40
  -1  -7   3   15.20    2.00
  -1  -7   3   13.30    1.60
  -1  -7   3   16.40    1.10
  -1  -7   3   18.40    1.90
   0   7  -3    0.80    0.80
   0   7  -3    2.10    0.80
   0   7  -3    1.10    1.10
   0  -7   3    1.40    1.00
   0  -7   3    1.80    0.60
   0  -7   3    2.00    0.90
   0  -7   3    0.30    0.90
  -1   7  -3   74.59    3.50
  -1   7  -3   82.69    4.10
  -1   7  -3   75.99    3.60
  -1   7  -3   80.29    3.20
   1  -7   3   82.79    2.90
   1  -7   3   75.09    3.60
   1  -7   3   83.99    3.70
  -2   7  -3  181.38    5.90
  -2   7  -3  181.68    6.30
  -2   7  -3  185.88    6.40
  -2   7  -3  178.38    6.80
   2  -7   3  184.78    6.40
   2  -7   3  180.18    5.70
   2  -7   3  171.18    6.20
  -3   7  -3   23.30    2.50
  -3   7  -3   24.00    1.70
  -3   7  -3   22.00    2.20
  -3   7  -3   20.50    2.30
   3  -7   3   20.40    1.60
   3  -7   3   20.40    2.10
  -4   7  -3    7.10    1.70
  -4   7  -3    8.20    1.20
  -4   7  -3    8.30    1.70
  -4   7  -3    6.90    1.50
   4  -7   3    7.00    1.50
   4  -7   3    6.40    1.10
   4  -7   3    8.80    1.50
  -5   7  -3    3.00    1.60
  -5   7  -3    1.60    1.20
  -5   7  -3    0.50    0.80
   5  -7   3    0.40    0.90
   5  -7   3   -1.60    1.10
   5  -7   3   -0.70    1.00
   5  -7   3    1.50    0.70
  -6   7  -3    8.50    2.10
  -6   7  -3    8.50    1.80
   6  -7   3    8.70    1.60
   6  -7   3    8.70    1.80
   6  -7   3    7.10    1.80
  -7   7  -3   26.10    2.90
  -7   7  -3   18.40    2.60
  -7   7  -3   13.60    2.60
   7  -7   3   18.90    2.50
   7  -7   3   20.30    2.30
  -8   7  -3   10.60    2.20
  -8   7  -3   12.40    2.60
  -8   7  -3   16.10    2.70
   8  -7   3   13.90    2.30
   8  -7   3   13.50    2.10
   9   6  -3   -3.60    1.40
  -9  -6   3   -1.00    1.30
   8   6  -3   -1.00    1.30
  -8  -6   3    2.90    1.50
  -8  -6   3    3.40    1.30
   7   6  -3   19.40    2.20
   7   6  -3   22.90    2.80
  -7  -6   3   21.70    2.50
  -7  -6   3   25.90    2.80
   6   6  -3    0.20    0.80
   6   6  -3   -0.40    0.80
   6   6  -3    1.20    1.20
  -6  -6   3    2.40    1.20
  -6  -6   3   -2.40    0.80
  -6  -6   3   -0.20    1.00
   5   6  -3   88.49    4.10
   5   6  -3   92.09    4.10
   5   6  -3   93.79    4.10
  -5  -6   3   91.49    4.30
  -5  -6   3   95.19    4.50
  -5  -6   3   90.89    4.10
   4   6  -3   43.90    2.50
   4   6  -3   45.60    2.80
   4   6  -3   44.30    2.60
  -4  -6   3   46.40    2.80
  -4  -6   3   46.80    2.80
  -4  -6   3   48.50    3.00
   3   6  -3    3.40    1.20
   3   6  -3    4.20    0.80
   3   6  -3    3.50    1.00
  -3  -6   3    4.30    0.70
  -3  -6   3    4.10    1.10
  -3  -6   3    3.60    1.20
   2   6  -3   62.49    3.10
   2   6  -3   56.59    2.70
   2   6  -3   63.29    2.50
  -2  -6   3   62.29    2.00
  -2  -6   3   58.89    2.90
  -2  -6   3   59.09    2.90
   1   6  -3   10.60    1.50
   1   6  -3    9.90    1.10
   1   6  -3    9.00    1.20
  -1  -6   3    7.20    1.40
  -1  -6   3    7.60    1.20
  -1  -6   3    7.50    1.20
   0   6  -3   32.70    1.80
   0   6  -3   30.10    2.20
   0  -6   3   25.10    1.90
   0  -6   3   26.50    1.90
   0  -6   3   31.00    2.00
   0  -6   3   27.50    1.50
  -1   6  -3  215.38    6.60
  -1   6  -3  207.18    6.40
  -1   6  -3  201.38    6.30
  -1   6  -3  209.38    6.80
  -1   6  -3  205.58    7.10
   1  -6   3  196.38    6.70
   1  -6   3  204.48    6.70
   1  -6   3  201.78    6.10
  -2   6  -3  117.99    4.50
  -2   6  -3  118.49    4.20
  -2   6  -3  119.09    4.90
  -2   6  -3  116.49    4.50
  -2   6  -3  122.79    4.00
   2  -6   3  120.69    4.40
   2  -6   3  117.69    4.10
   2  -6   3  115.99    4.50
  -3   6  -3   -0.70    0.60
  -3   6  -3   -1.00    1.10
  -3   6  -3    0.40    1.00
  -3   6  -3   -0.20    0.80
   3  -6   3    1.30    0.70
   3  -6   3   -0.60    0.80
  -4   6  -3    2.00    1.10
  -4   6  -3    2.20    0.90
  -4   6  -3    1.70    1.30
   4  -6   3   -0.10    0.70
   4  -6   3    2.60    1.10
   4  -6   3    1.20    1.00
   4  -6   3    1.40    0.70
  -5   6  -3   30.20    2.50
  -5   6  -3   37.70    2.20
  -5   6  -3   34.40    3.10
   5  -6   3   34.20    2.10
   5  -6   3   36.30    2.30
   5  -6   3   34.40    2.70
   5  -6   3   38.30    2.50
  -6   6  -3   -1.30    1.10
  -6   6  -3    2.10    1.50
   6  -6   3   -0.30    1.00
   6  -6   3    0.20    0.70
   6  -6   3    0.10    1.10
   6  -6   3   -0.10    0.90
  -7   6  -3   15.70    2.40
  -7   6  -3    9.70    2.30
  -7   6  -3   11.60    2.20
   7  -6   3   15.20    2.00
   7  -6   3   12.90    2.10
  -8   6  -3    2.40    1.80
  -8   6  -3   -0.50    1.50
  -8   6  -3    4.30    1.80
   8  -6   3    3.40    1.60
   8  -6   3    3.10    1.40
  10   5  -3   12.10    2.70
 -10  -5   3   18.30    2.80
 -10  -5   3   13.40    2.50
   9   5  -3    2.70    1.80
  -9  -5   3    7.40    2.00
  -9  -5   3    6.10    2.00
   8   5  -3    7.00    1.80
   8   5  -3    8.30    2.00
  -8  -5   3    9.70    2.00
  -8  -5   3    6.10    1.70
  -8  -5   3   11.60    1.90
   7   5  -3   15.00    1.90
   7   5  -3   10.00    1.50
   7   5  -3   10.50    1.90
  -7  -5   3    9.60    1.80
  -7  -5   3   16.00    2.10
  -7  -5   3   10.30    1.90
   6   5  -3    0.60    0.70
   6   5  -3    0.30    0.90
   6   5  -3    0.20    1.00
  -6  -5   3    0.80    1.10
  -6  -5   3    1.10    1.10
  -6  -5   3    1.20    1.20
   5   5  -3   26.50    1.90
   5   5  -3   24.60    2.00
   5   5  -3   24.00    1.90
  -5  -5   3   23.00    2.20
  -5  -5   3   25.40    2.30
  -5  -5   3   22.50    2.50
   4   5  -3   93.39    3.80
   4   5  -3   96.69    3.80
   4   5  -3   96.89    3.90
  -4  -5   3  101.49    4.30
  -4  -5   3  100.39    4.00
  -4  -5   3   94.99    4.20
   3   5  -3   19.40    1.80
   3   5  -3   21.40    1.70
   3   5  -3   19.10    1.70
   3   5  -3   20.70    1.30
  -3  -5   3   19.50    1.80
  -3  -5   3   21.60    1.70
  -3  -5   3   18.80    2.00
   2   5  -3   13.60    1.30
   2   5  -3   13.80    1.00
   2   5  -3   16.20    1.60
   2   5  -3   13.90    1.50
  -2  -5   3   15.20    1.50
  -2  -5   3   14.50    1.50
  -2  -5   3   12.90    1.50
  -2  -5   3   14.30    0.80
  -2  -5   3   14.30    1.80
   1   5  -3   70.59    2.50
   1   5  -3   64.69    2.70
  -1  -5   3   70.69    3.00
  -1  -5   3   68.59    3.00
  -1  -5   3   71.09    3.00
   0   5  -3   -0.20    0.50
   0   5  -3   -0.10    0.80
   0   5  -3   -0.10    0.70
   0   5  -3    0.10    0.50
   0  -5   3   -1.00    0.60
   0  -5   3   -0.60    0.70
   0  -5   3   -0.60    0.40
   0  -5   3    0.20    0.60
  -1   5  -3   21.80    1.50
  -1   5  -3   22.70    1.60
  -1   5  -3   25.10    1.50
  -1   5  -3   23.50    1.70
  -1   5  -3   24.30    0.80
  -1   5  -3   22.80    2.00
   1  -5   3   22.10    1.30
   1  -5   3   23.30    1.70
   1  -5   3   24.10    1.60
  -2   5  -3   15.90    1.70
  -2   5  -3   14.40    1.30
  -2   5  -3   13.40    1.70
  -2   5  -3   16.70    1.50
  -2   5  -3   15.10    1.10
  -2   5  -3   16.30    0.70
   2  -5   3   16.40    1.20
   2  -5   3   15.70    1.40
   2  -5   3   13.30    1.40
  -3   5  -3   22.80    1.00
  -3   5  -3   22.20    1.80
  -3   5  -3   19.60    1.00
  -3   5  -3   21.30    1.10
  -3   5  -3   14.00    1.70
  -3   5  -3   20.50    1.50
   3  -5   3   17.30    1.60
   3  -5   3   17.40    1.70
   3  -5   3   22.90    1.50
   3  -5   3   20.20    1.40
  -4   5  -3    0.80    0.80
  -4   5  -3    1.40    0.80
  -4   5  -3    1.30    1.10
   4  -5   3    1.60    0.90
   4  -5   3    1.90    1.00
   4  -5   3    1.30    0.80
   4  -5   3    0.90    0.70
  -5   5  -3  135.29    5.80
  -5   5  -3  134.39    5.00
  -5   5  -3  139.19    5.30
   5  -5   3  139.29    5.10
   5  -5   3  144.29    5.30
   5  -5   3  137.99    4.90
   5  -5   3  141.89    5.40
  -6   5  -3    0.60    1.20
  -6   5  -3   -0.40    1.00
  -6   5  -3    0.60    1.10
   6  -5   3    0.80    1.00
   6  -5   3   -0.70    0.70
   6  -5   3    0.00    1.00
  -7   5  -3   -0.90    1.30
  -7   5  -3    1.60    1.40
  -7   5  -3   -1.00    1.10
   7  -5   3   -0.50    1.10
   7  -5   3    0.40    1.10
   7  -5   3    2.40    1.00
  -8   5  -3    4.70    1.80
  -8   5  -3    3.10    1.50
   8  -5   3    1.30    1.50
   8  -5   3    2.90    1.30
  -9   5  -3   -0.70    1.50
  -9   5  -3    2.60    1.80
   9  -5   3    2.40    1.60
   9  -5   3    1.70    1.40
  10   4  -3    3.70    2.10
 -10  -4   3    7.60    2.20
 -10  -4   3    5.50    2.00
   9   4  -3   -0.70    1.40
  -9  -4   3    2.10    1.60
  -9  -4   3    2.60    1.60
   8   4  -3   52.69    3.00
   8   4  -3   52.29    3.10
   8   4  -3   57.09    3.60
  -8  -4   3   61.09    3.70
  -8  -4   3   53.59    3.40
  -8  -4   3   52.99    3.50
  -8  -4   3   57.99    3.20
   7   4  -3   14.00    1.60
   7   4  -3   14.60    1.80
   7   4  -3   14.80    2.00
  -7  -4   3   16.00    2.00
  -7  -4   3   13.00    1.90
  -7  -4   3   14.50    2.10
  -7  -4   3   16.60    2.10
   6   4  -3    4.00    1.30
   6   4  -3    3.20    0.80
   6   4  -3    4.70    1.10
  -6  -4   3    3.50    1.10
  -6  -4   3    4.20    1.20
  -6  -4   3    3.40    1.10
  -6  -4   3    3.90    1.40
   5   4  -3   58.69    2.60
   5   4  -3   56.79    2.80
   5   4  -3   63.39    2.90
  -5  -4   3   57.29    2.80
  -5  -4   3   53.89    2.80
  -5  -4   3   54.99    2.90
  -5  -4   3   56.29    3.10
   4   4  -3   77.29    3.20
   4   4  -3   83.59    3.20
   4   4  -3   81.29    3.30
  -4  -4   3   80.39    3.30
  -4  -4   3   73.79    3.40
  -4  -4   3   80.89    3.60
   3   4  -3    0.20    0.50
   3   4  -3    0.50    0.50
   3   4  -3    0.60    0.70
  -3  -4   3   -0.30    0.80
  -3  -4   3    0.10    0.70
  -3  -4   3    0.10    0.80
   2   4  -3  367.16   10.40
   2   4  -3  379.86    9.90
   2   4  -3  371.56   10.50
   2   4  -3  382.86   10.60
  -2  -4   3  363.16   10.70
  -2  -4   3  358.26   10.40
  -2  -4   3  365.76   10.60
   1   4  -3   32.50    1.80
   1   4  -3   31.90    1.30
   1   4  -3   32.20    1.60
   1   4  -3   32.70    1.80
  -1  -4   3   29.70    1.60
  -1  -4   3   28.70    1.70
  -1  -4   3   29.20    1.60
  -1  -4   3   32.30    1.90
   0   4  -3  131.89    4.10
   0   4  -3  120.19    4.00
   0   4  -3  123.39    3.90
   0   4  -3  127.69    4.40
   0  -4   3  125.29    4.20
   0  -4   3  119.19    4.20
   0  -4   3  124.09    4.10
  -1   4  -3    9.90    0.90
  -1   4  -3    6.80    1.10
  -1   4  -3    7.70    0.40
  -1   4  -3    7.40    0.90
  -1   4  -3    6.90    0.90
  -1   4  -3    6.60    1.00
   1  -4   3    8.20    1.00
   1  -4   3    7.10    1.00
   1  -4   3    8.40    0.90
  -2   4  -3    4.70    1.00
  -2   4  -3    7.20    0.60
  -2   4  -3    6.40    0.60
  -2   4  -3    6.10    1.20
  -2   4  -3    6.00    0.90
  -2   4  -3    5.70    0.90
   2  -4   3    5.50    0.80
   2  -4   3    5.80    0.90
   2  -4   3    5.80    0.90
  -3   4  -3    1.00    0.70
  -3   4  -3    2.20    0.70
  -3   4  -3    1.10    1.00
   3  -4   3    3.20    0.90
   3  -4   3    1.90    0.80
   3  -4   3    1.50    0.60
   3  -4   3    0.90    0.60
  -4   4  -3   69.29    3.50
  -4   4  -3   74.09    3.30
  -4   4  -3   80.79    3.20
   4  -4   3   74.19    3.10
   4  -4   3   79.49    3.10
   4  -4   3   78.29    3.40
   4  -4   3   76.39    3.20
  -5   4  -3   23.10    2.10
  -5   4  -3   17.40    2.00
   5  -4   3   20.90    1.60
   5  -4   3   19.80    1.80
   5  -4   3   21.70    2.00
   5  -4   3   22.30    1.80
  -6   4  -3    3.20    1.20
  -6   4  -3    4.10    1.50
  -6   4  -3    4.70    1.30
   6  -4   3    2.80    1.20
   6  -4   3    5.70    1.10
   6  -4   3    4.60    1.20
  -7   4  -3    1.50    1.30
  -7   4  -3   -1.00    1.10
  -7   4  -3   -1.30    1.20
   7  -4   3    0.10    1.00
   7  -4   3   -1.00    0.70
   7  -4   3    1.20    1.10
  -8   4  -3    0.20    1.30
  -8   4  -3    3.20    1.50
   8  -4   3    1.30    1.00
   8  -4   3    4.00    1.50
   8  -4   3    0.60    1.20
  -9   4  -3   -0.40    1.20
  -9   4  -3   -1.90    1.30
  -9   4  -3   -0.80    1.30
   9  -4   3   -0.20    1.20
   9  -4   3   -0.40    1.40
  11   3  -3    0.30    1.60
 -11  -3   3    0.40    1.60
 -11  -3   3   -0.10    1.50
  10   3  -3    1.80    1.50
  10   3  -3    1.30    1.30
 -10  -3   3    2.50    1.70
 -10  -3   3    1.90    1.70
   9   3  -3   15.20    2.40
   9   3  -3   10.30    1.70
  -9  -3   3    8.60    1.80
  -9  -3   3    9.30    1.90
  -9  -3   3    8.40    1.70
  -9  -3   3   10.50    1.80
   8   3  -3   22.30    2.10
   8   3  -3   24.30    2.20
   8   3  -3   20.80    2.40
   8   3  -3   26.20    1.90
  -8  -3   3   20.60    2.40
  -8  -3   3   26.90    2.60
  -8  -3   3   23.00    2.10
  -8  -3   3   23.60    2.50
   7   3  -3   -0.80    0.70
   7   3  -3   -0.50    0.70
   7   3  -3    1.90    1.20
   7   3  -3    0.60    0.60
  -7  -3   3   -0.50    0.80
  -7  -3   3    0.70    0.90
  -7  -3   3    0.30    1.10
  -7  -3   3   -0.40    1.00
   6   3  -3   17.50    1.90
   6   3  -3   18.30    1.40
   6   3  -3   16.70    1.60
  -6  -3   3   19.00    1.90
  -6  -3   3   18.10    2.10
  -6  -3   3   14.20    1.70
  -6  -3   3   19.60    2.10
   5   3  -3   59.09    2.40
   5   3  -3   54.49    2.50
   5   3  -3   50.99    2.60
  -5  -3   3   53.99    3.00
  -5  -3   3   55.49    2.70
  -5  -3   3   52.19    2.70
  -5  -3   3   53.59    2.60
   4   3  -3    0.80    0.60
   4   3  -3    0.80    0.70
   4   3  -3    0.90    0.50
  -4  -3   3    0.20    0.90
  -4  -3   3    0.40    0.70
  -4  -3   3    1.20    0.80
  -4  -3   3    2.20    1.00
   3   3  -3   17.80    1.20
   3   3  -3   17.40    1.20
   3   3  -3   17.20    1.20
  -3  -3   3   16.50    1.60
  -3  -3   3   16.30    1.20
  -3  -3   3   17.00    1.50
   2   3  -3    1.70    0.60
   2   3  -3    1.30    0.30
   2   3  -3    1.20    0.50
   2   3  -3    1.20    0.60
   2   3  -3    1.50    0.80
  -2  -3   3    1.10    0.60
  -2  -3   3    0.70    0.70
  -2  -3   3    0.50    0.40
  -2  -3   3    1.70    0.80
   1   3  -3  366.86    9.90
   1   3  -3  357.76    9.90
   1   3  -3  353.76    9.20
   1   3  -3  335.67    9.70
  -1  -3   3  368.96    9.70
  -1  -3   3  339.17    9.70
  -1  -3   3  363.16    9.10
  -1  -3   3  338.97    9.70
  -1  -3   3  341.77    9.70
  -1  -3   3  342.37    9.90
   0   3  -3   52.79    2.30
   0   3  -3   56.19    2.00
   0   3  -3   57.89    2.10
   0   3  -3   55.09    2.10
   0  -3   3   50.79    2.10
   0  -3   3   54.99    2.00
   0  -3   3   52.19    2.10
   0  -3   3   53.29    2.20
  -1   3  -3   62.49    2.40
  -1   3  -3   60.69    2.70
  -1   3  -3   59.89    2.30
  -1   3  -3   58.39    2.30
  -1   3  -3   62.69    1.90
  -1   3  -3   62.99    2.00
   1  -3   3   61.49    2.30
   1  -3   3   61.99    2.30
   1  -3   3   56.49    2.30
  -2   3  -3  551.74   14.50
  -2   3  -3  555.94   14.90
  -2   3  -3  557.34   15.10
  -2   3  -3  536.65   14.90
   2  -3   3  552.94   14.90
   2  -3   3  549.15   14.60
   2  -3   3  551.54   14.90
  -3   3  -3  195.28    6.10
  -3   3  -3  202.98    6.20
  -3   3  -3  199.98    6.50
   3  -3   3  188.28    6.00
   3  -3   3  190.58    6.10
   3  -3   3  201.18    6.00
   3  -3   3  198.68    6.10
  -4   3  -3   66.99    3.00
  -4   3  -3   68.89    3.40
  -4   3  -3   74.09    3.00
   4  -3   3   70.49    3.00
   4  -3   3   75.19    3.00
   4  -3   3   69.99    3.00
   4  -3   3   68.69    3.00
  -5   3  -3    1.40    1.10
  -5   3  -3    1.00    0.80
  -5   3  -3    1.30    0.80
   5  -3   3   -0.10    0.60
   5  -3   3   -1.60    0.70
   5  -3   3   -0.30    0.60
  -6   3  -3    1.50    0.90
  -6   3  -3    3.70    1.10
   6  -3   3    2.00    1.10
   6  -3   3    3.10    1.20
   6  -3   3    3.90    1.00
  -7   3  -3   14.10    1.90
  -7   3  -3   13.00    1.90
   7  -3   3   14.20    1.90
   7  -3   3   12.80    1.90
   7  -3   3   14.20    1.70
  -8   3  -3   13.80    2.10
  -8   3  -3   12.90    2.10
   8  -3   3   15.00    2.20
   8  -3   3   15.70    2.10
   8  -3   3   11.00    1.80
  -9   3  -3   -0.50    1.10
  -9   3  -3    0.00    1.40
   9  -3   3   -0.20    1.40
   9  -3   3    2.50    1.60
   9  -3   3    1.20    1.60
  11   2  -3   -0.50    1.00
  11   2  -3   -1.10    1.40
 -11  -2   3    2.50    1.90
 -11  -2   3   -2.40    1.60
  10   2  -3    1.90    1.40
  10   2  -3    0.10    1.40
 -10  -2   3    2.70    1.50
 -10  -2   3   -0.40    1.40
   9   2  -3   11.60    1.80
   9   2  -3   11.10    2.00
   9   2  -3   11.00    1.70
  -9  -2   3   13.00    1.80
  -9  -2   3   11.00    2.00
  -9  -2   3    9.40    1.80
  -9  -2   3    9.50    1.90
   8   2  -3    2.90    1.10
   8   2  -3    4.10    1.10
   8   2  -3    4.80    1.00
   8   2  -3    5.40    1.40
  -8  -2   3    2.90    1.20
  -8  -2   3    3.40    1.30
  -8  -2   3    4.80    1.50
  -8  -2   3    3.10    1.30
   7   2  -3   -0.70    0.60
   7   2  -3    0.90    1.00
   7   2  -3   -0.50    0.60
   7   2  -3    1.10    0.50
  -7  -2   3   -0.50    0.90
  -7  -2   3    0.00    0.80
  -7  -2   3    0.90    1.10
  -7  -2   3   -0.70    0.80
   6   2  -3   32.80    2.10
   6   2  -3   39.00    2.00
   6   2  -3   34.00    1.70
   6   2  -3   36.50    2.00
  -6  -2   3   30.10    2.50
  -6  -2   3   30.70    2.10
  -6  -2   3   31.60    2.20
  -6  -2   3   32.80    2.20
   5   2  -3   73.59    2.60
   5   2  -3   76.99    3.10
   5   2  -3   69.99    2.80
  -5  -2   3   73.49    3.00
  -5  -2   3   73.39    3.50
  -5  -2   3   75.19    3.10
  -5  -2   3   70.39    3.10
   4   2  -3   16.90    1.20
   4   2  -3   17.90    1.50
   4   2  -3   15.60    1.00
  -4  -2   3   16.80    1.70
  -4  -2   3   16.40    1.30
  -4  -2   3   17.50    1.30
  -4  -2   3   15.50    1.50
   3   2  -3    1.70    0.90
   3   2  -3    1.20    0.50
   3   2  -3    1.70    0.60
   3   2  -3    2.20    0.40
   3   2  -3    1.90    0.40
  -3  -2   3    1.00    0.60
  -3  -2   3    1.00    0.70
  -3  -2   3    2.00    0.50
  -3  -2   3    2.60    0.60
  -3  -2   3    2.10    0.80
   2   2  -3  169.98    5.00
   2   2  -3  169.38    5.00
   2   2  -3  165.58    4.90
   2   2  -3  180.68    5.40
  -2  -2   3  164.48    5.20
  -2  -2   3  173.78    5.00
  -2  -2   3  164.78    5.00
  -2  -2   3  164.38    5.20
   1   2  -3  682.33   17.60
   1   2  -3  672.63   17.70
   1   2  -3  683.43   17.50
   1   2  -3  646.24   17.50
  -1  -2   3  652.63   17.70
  -1  -2   3  685.33   17.00
  -1  -2   3  663.53   17.50
  -1  -2   3  665.73   17.60
  -1  -2   3  652.83   17.50
   0   2  -3   11.10    0.60
   0   2  -3   12.30    0.90
   0   2  -3   11.20    0.60
   0   2  -3   12.60    0.80
   0   2  -3   11.00    0.80
   0   2  -3   11.90    1.00
   0  -2   3   11.40    0.80
   0  -2   3   11.50    0.80
   0  -2   3   10.90    0.90
   0  -2   3   12.10    0.80
   0  -2   3   15.50    0.90
  -1   2  -3    5.90    0.70
  -1   2  -3    4.70    0.40
  -1   2  -3    5.00    0.70
  -1   2  -3    4.60    0.60
  -1   2  -3    5.40    0.60
   1  -2   3    3.90    0.60
   1  -2   3    3.70    0.60
   1  -2   3    4.40    0.40
   1  -2   3    5.10    0.70
  -2   2  -3    5.20    0.70
  -2   2  -3    4.10    0.80
  -2   2  -3    3.60    0.60
  -2   2  -3    4.80    0.80
   2  -2   3    4.50    0.70
   2  -2   3    3.00    0.60
   2  -2   3    2.80    0.60
   2  -2   3    4.70    0.40
   2  -2   3    4.00    0.50
  -3   2  -3   74.39    2.90
  -3   2  -3   76.49    2.90
  -3   2  -3   77.49    2.90
  -3   2  -3   82.29    3.40
   3  -2   3   82.29    3.00
   3  -2   3   75.29    2.90
   3  -2   3   69.99    2.80
   3  -2   3   81.49    3.00
  -4   2  -3   43.10    2.20
  -4   2  -3   40.30    2.10
   4  -2   3   42.50    2.20
   4  -2   3   45.50    2.20
   4  -2   3   39.40    2.20
  -5   2  -3   50.39    2.60
  -5   2  -3   44.80    2.50
   5  -2   3   47.80    2.60
   5  -2   3   47.50    2.40
   5  -2   3   47.40    2.40
  -6   2  -3    3.70    1.10
  -6   2  -3    4.60    1.20
   6  -2   3    3.70    1.00
   6  -2   3    2.00    1.00
   6  -2   3    4.30    1.10
  -7   2  -3   -1.90    0.90
  -7   2  -3    1.00    1.10
   7  -2   3    0.30    1.00
   7  -2   3    1.50    1.00
   7  -2   3    1.10    0.80
  -8   2  -3   -0.40    1.00
  -8   2  -3   -0.90    1.10
   8  -2   3    0.40    1.10
   8  -2   3   -1.20    1.10
   8  -2   3   -0.90    0.90
  -9   2  -3    3.70    1.60
  -9   2  -3    0.00    1.20
   9  -2   3    1.90    1.60
   9  -2   3   -0.10    1.30
   9  -2   3    1.30    1.60
  11   1  -3    1.10    1.60
  11   1  -3    2.70    1.60
 -11  -1   3    2.80    2.00
 -11  -1   3    2.80    1.90
  10   1  -3   -0.10    0.90
  10   1  -3   -0.40    1.50
  10   1  -3    1.20    1.20
 -10  -1   3   -2.10    1.10
 -10  -1   3    3.20    1.40
 -10  -1   3   -1.60    1.20
   9   1  -3    1.00    0.90
   9   1  -3    2.30    1.20
   9   1  -3    2.20    1.40
   9   1  -3    0.30    1.10
  -9  -1   3    4.90    1.60
  -9  -1   3    3.20    1.30
  -9  -1   3    4.80    1.50
  -9  -1   3   -0.10    1.10
   8   1  -3   -0.20    0.90
   8   1  -3   -0.20    0.80
   8   1  -3   -0.20    0.70
   8   1  -3    0.00    0.90
  -8  -1   3   -0.20    0.90
  -8  -1   3    0.20    1.00
  -8  -1   3   -1.30    0.90
  -8  -1   3    0.40    1.20
   7   1  -3   21.50    1.30
   7   1  -3   20.90    1.90
   7   1  -3   20.70    1.70
   7   1  -3   20.60    1.60
   7   1  -3   16.70    1.90
  -7  -1   3   21.90    2.30
  -7  -1   3   25.50    2.00
  -7  -1   3   22.50    1.90
  -7  -1   3   24.20    2.20
   6   1  -3   22.30    1.80
   6   1  -3   24.50    1.70
   6   1  -3   25.50    1.30
   6   1  -3   24.10    1.60
   6   1  -3   24.10    1.80
  -6  -1   3   23.90    2.20
  -6  -1   3   26.00    1.90
  -6  -1   3   21.50    1.90
   5   1  -3  134.99    4.40
   5   1  -3  132.69    4.50
   5   1  -3  128.59    4.30
   5   1  -3  134.49    3.90
  -5  -1   3  131.99    4.90
  -5  -1   3  134.49    4.50
  -5  -1   3  129.19    4.60
   4   1  -3    6.60    1.00
   4   1  -3    5.20    1.10
   4   1  -3    5.50    0.70
   4   1  -3    5.30    0.50
  -4  -1   3    5.60    0.80
  -4  -1   3    6.90    0.80
  -4  -1   3    5.80    1.00
  -4  -1   3    5.20    0.80
  -4  -1   3    4.50    1.00
  -4  -1   3    5.50    0.70
   3   1  -3   44.50    1.80
   3   1  -3   41.80    1.70
   3   1  -3   45.00    1.50
   3   1  -3   44.10    1.50
   3   1  -3   49.30    2.20
  -3  -1   3   41.90    1.80
  -3  -1   3   46.30    1.80
  -3  -1   3   43.00    2.20
  -3  -1   3   48.20    1.50
  -3  -1   3   43.90    1.80
  -3  -1   3   45.30    2.10
  -3  -1   3   44.60    1.50
   2   1  -3  675.43   17.50
   2   1  -3  672.53   17.60
   2   1  -3  681.53   17.80
   2   1  -3  663.53   17.40
  -2  -1   3  671.53   17.40
  -2  -1   3  629.14   17.80
  -2  -1   3  692.73   17.00
  -2  -1   3  666.83   17.80
  -2  -1   3  656.43   17.50
  -2  -1   3  690.83   17.60
  -2  -1   3  667.73   17.50
   1   1  -3 1419.36   35.90
   1   1  -3 1412.86   36.00
   1   1  -3 1415.16   36.00
   1   1  -3 1360.66   36.10
  -1  -1   3 1440.86   36.00
  -1  -1   3 1397.36   35.90
  -1  -1   3 1391.76   36.10
  -1  -1   3 1382.46   36.20
   0   1  -3  523.85   13.40
   0   1  -3  495.55   13.40
   0   1  -3  517.45   13.20
   0   1  -3  521.95   13.20
   0   1  -3  504.95   13.20
   0  -1   3  487.45   13.30
   0  -1   3  507.85   13.20
   0  -1   3  495.95   13.40
  -1   1  -3    0.40    0.30
  -1   1  -3    0.30    0.40
  -1   1  -3    1.50    0.50
   1  -1   3    1.20    0.40
   1  -1   3    0.60    0.30
   1  -1   3    0.40    0.30
   1  -1   3    1.00    0.40
   1  -1   3    1.90    0.30
  -2   1  -3  569.74   15.30
  -2   1  -3  563.34   15.10
  -2   1  -3  578.54   15.20
   2  -1   3  582.84   15.30
   2  -1   3  549.95   15.20
   2  -1   3  581.74   14.70
   2  -1   3  556.24   15.00
   2  -1   3  567.94   15.10
  -3   1  -3   11.80    1.20
  -3   1  -3   11.10    1.20
  -3   1  -3   13.20    1.20
  -3   1  -3   13.70    1.20
   3  -1   3   11.80    1.10
   3  -1   3   12.00    1.20
   3  -1   3   10.30    1.10
  -4   1  -3   71.09    2.80
  -4   1  -3   67.79    2.80
  -4   1  -3   63.89    2.90
   4  -1   3   65.59    2.80
   4  -1   3   70.39    2.80
   4  -1   3   67.29    2.00
   4  -1   3   67.29    2.80
  -5   1  -3  144.79    5.10
  -5   1  -3  149.19    5.10
   5  -1   3  138.19    5.10
   5  -1   3  149.19    5.00
   5  -1   3  147.69    5.20
  -6   1  -3   30.30    2.00
   6  -1   3   28.30    2.10
   6  -1   3   30.50    2.10
   6  -1   3   29.70    2.20
   6  -1   3   31.00    2.10
  -7   1  -3    3.60    1.20
  -7   1  -3    6.10    1.50
   7  -1   3    1.00    1.00
   7  -1   3    2.40    1.20
   7  -1   3    3.90    1.20
   7  -1   3    7.00    1.50
  -8   1  -3    2.10    1.20
  -8   1  -3   -0.70    1.00
   8  -1   3    0.60    1.30
   8  -1   3    2.30    1.30
   8  -1   3    0.10    1.20
  -9   1  -3    0.50    1.20
  -9   1  -3    0.80    1.30
   9  -1   3    3.20    1.60
   9  -1   3    2.00    1.40
   9  -1   3    3.10    1.70
  11   0  -3   11.80    2.30
  11   0  -3   12.80    2.50
  11   0  -3   13.20    2.30
 -11   0   3   13.50    2.50
 -11   0   3   16.30    2.70
  10   0  -3    5.80    1.60
  10   0  -3    4.80    1.80
  10   0  -3    2.00    1.50
  10   0  -3    3.50    1.20
 -10   0   3    5.90    1.70
 -10   0   3    2.30    1.50
   9   0  -3   -1.10    1.00
   9   0  -3   -1.10    1.00
   9   0  -3    0.90    1.00
   9   0  -3    1.40    0.80
  -9   0   3    0.30    1.20
  -9   0   3    0.50    1.10
  -9   0   3   -0.20    1.00
   8   0  -3   33.40    2.40
   8   0  -3   33.70    2.00
   8   0  -3   30.80    2.40
   8   0  -3   29.60    2.10
  -8   0   3   31.70    2.20
  -8   0   3   36.10    2.60
  -8   0   3   31.10    2.60
   7   0  -3   55.89    2.70
   7   0  -3   55.09    2.10
   7   0  -3   50.89    2.70
   7   0  -3   55.59    2.50
   7   0  -3   49.70    2.80
  -7   0   3   56.59    2.80
  -7   0   3   57.79    3.30
  -7   0   3   53.09    2.80
  -7   0   3   54.69    3.00
   6   0  -3   14.10    1.60
   6   0  -3   11.00    1.10
   6   0  -3   12.30    1.30
   6   0  -3   11.60    0.80
   6   0  -3    9.40    1.20
  -6   0   3   11.70    1.60
  -6   0   3    9.20    1.30
  -6   0   3    7.90    1.20
  -6   0   3   11.60    1.70
   5   0  -3  152.48    5.10
   5   0  -3  165.98    4.50
   5   0  -3  168.68    5.30
   5   0  -3  170.38    5.00
   5   0  -3  165.58    5.20
  -5   0   3  165.58    5.40
  -5   0   3  171.98    5.00
  -5   0   3  169.58    5.80
  -5   0   3  162.18    5.30
  -5   0   3  163.98    5.20
   4   0  -3  145.09    4.50
   4   0  -3  150.88    4.90
   4   0  -3  147.49    4.50
   4   0  -3  146.99    4.50
   4   0  -3  145.29    4.30
  -4   0   3  144.29    4.30
  -4   0   3  145.59    4.50
  -4   0   3  142.19    4.90
  -4   0   3  140.09    4.50
  -4   0   3  142.79    4.70
   3   0  -3  533.35   14.30
   3   0  -3  522.75   13.90
   3   0  -3  526.15   13.90
  -3   0   3  524.75   13.90
  -3   0   3  545.95   14.40
  -3   0   3  535.45   13.90
  -3   0   3  524.95   13.90
  -3   0   3  502.35   14.40
   2   0  -3 1152.38   29.80
   2   0  -3 1134.89   29.80
   2   0  -3 1167.58   29.50
   2   0  -3 1156.38   29.60
  -2   0   3 1113.29   29.90
  -2   0   3 1219.98   29.40
  -2   0   3 1152.38   29.50
  -2   0   3 1122.59   29.90
  -2   0   3 1134.09   29.40
  -2   0   3 1150.28   29.50
   1   0  -3  738.73   18.40
   1   0  -3  712.43   18.70
   1   0  -3  710.73   18.90
   1   0  -3  743.83   18.40
   1   0  -3  720.03   18.40
   1   0  -3  713.33   18.80
   1   0  -3  711.13   18.80
   1   0  -3  704.43   18.80
  -1   0   3  707.73   18.80
  -1   0   3  739.13   18.40
  -1   0   3  706.83   18.90
  -1   0   3  718.73   18.40
   0   0  -3   59.39    1.70
   0   0  -3   58.29    1.70
   0   0  -3   56.69    1.70
   0   0  -3   59.49    2.10
   0   0  -3   53.79    2.00
   0   0  -3   55.89    2.00
   0   0  -3   56.49    2.00
   0   0   3   55.29    1.90
   0   0   3   56.29    2.00
   0   0   3   56.59    1.60
   0   0   3   56.89    1.70
  -1   0  -3   51.09    1.70
  -1   0  -3   50.59    2.00
  -1   0  -3   51.89    1.70
  -1   0  -3   52.19    1.90
  -1   0  -3   50.79    1.90
   1   0   3   49.70    1.90
   1   0   3   49.99    1.70
   1   0   3   50.69    1.80
   1   0   3   49.50    2.00
   1   0   3   55.49    1.80
  -2   0  -3  341.07    9.30
  -2   0  -3  334.07    9.00
  -2   0  -3  327.87    9.00
  -2   0  -3  328.17    9.30
   2   0   3  321.47    9.30
   2   0   3  324.77    9.20
   2   0   3  325.97    8.90
   2   0   3  332.17    8.60
   2   0   3  344.97    8.90
  -3   0  -3  131.49    4.10
  -3   0  -3  131.79    4.10
  -3   0  -3  133.59    4.40
   3   0   3  126.89    4.10
   3   0   3  131.79    3.90
   3   0   3  126.19    4.20
   3   0   3  129.29    4.40
  -4   0  -3  122.59    4.00
  -4   0  -3  110.99    4.30
   4   0   3  117.29    3.80
   4   0   3  123.79    4.30
   4   0   3  120.49    4.10
   4   0   3  114.19    4.10
   4   0   3  118.59    4.00
  -5   0  -3  102.09    4.20
  -5   0  -3   98.09    3.70
   5   0   3  103.79    4.00
   5   0   3  100.59    4.00
   5   0   3  101.79    3.90
   5   0   3  105.69    4.00
  -6   0  -3    5.10    1.30
  -6   0  -3    5.80    1.20
   6   0   3    3.50    1.00
   6   0   3    5.80    1.40
   6   0   3    4.60    1.20
   6   0   3    6.60    1.30
  -7   0  -3    3.40    1.30
  -7   0  -3    2.80    1.20
   7   0   3    4.20    1.50
   7   0   3    5.90    1.40
   7   0   3    4.30    1.20
   7   0   3    5.90    1.30
  -8   0  -3    0.80    1.10
  -8   0  -3    0.40    1.20
   8   0   3   -0.80    1.20
   8   0   3   -1.20    1.30
   8   0   3    1.70    1.20
  -9   0  -3    7.00    1.80
  -9   0  -3   10.20    2.00
   9   0   3    4.70    1.70
   9   0   3   11.00    2.10
   9   0   3    6.10    2.00
  11  -1  -3   14.50    2.40
  11  -1  -3   16.50    2.60
  11  -1  -3   14.40    2.50
 -11   1   3   16.80    2.80
  10  -1  -3    0.20    0.70
  10  -1  -3   -2.60    1.20
  10  -1  -3   -0.20    1.10
  10  -1  -3    0.10    1.30
 -10   1   3   -0.70    1.30
 -10   1   3   -0.60    1.10
   9  -1  -3    1.70    1.30
   9  -1  -3    1.80    1.00
   9  -1  -3    0.60    1.10
   9  -1  -3    3.10    0.80
  -9   1   3    2.90    1.40
  -9   1   3    4.30    1.60
  -9   1   3    4.50    1.40
  -9   1   3    1.70    1.10
   8  -1  -3    3.20    1.10
   8  -1  -3    4.00    0.80
   8  -1  -3    5.50    1.20
   8  -1  -3    2.50    1.30
  -8   1   3    2.70    1.30
  -8   1   3    2.00    1.00
  -8   1   3    3.10    1.40
  -8   1   3    3.50    1.20
   7  -1  -3  118.09    3.90
   7  -1  -3  118.99    4.50
   7  -1  -3  117.89    4.40
   7  -1  -3  111.29    4.20
  -7   1   3  111.89    4.80
  -7   1   3  113.89    4.40
  -7   1   3  115.09    4.40
  -7   1   3  116.49    4.80
   6  -1  -3    5.60    0.70
   6  -1  -3    5.30    1.00
   6  -1  -3    5.30    0.90
   6  -1  -3    5.00    1.10
  -6   1   3    3.90    1.10
  -6   1   3    6.00    1.40
  -6   1   3    5.10    1.00
  -6   1   3    6.40    0.80
  -6   1   3    8.80    1.40
   5  -1  -3   34.10    1.80
   5  -1  -3   34.10    1.70
   5  -1  -3   36.60    1.10
   5  -1  -3   35.10    1.80
   5  -1  -3   37.00    1.70
   5  -1  -3   33.60    1.50
  -5   1   3   36.80    1.50
  -5   1   3   39.00    2.10
  -5   1   3   37.30    1.80
  -5   1   3   36.80    2.10
  -5   1   3   35.30    2.30
   4  -1  -3  143.69    4.20
   4  -1  -3  138.09    4.40
   4  -1  -3  137.09    4.60
   4  -1  -3  140.59    4.20
   4  -1  -3  130.49    3.90
   4  -1  -3  130.89    4.20
   4  -1  -3  137.59    4.20
  -4   1   3  138.09    4.40
  -4   1   3  132.79    4.20
  -4   1   3  139.59    4.00
  -4   1   3  130.09    4.60
   3  -1  -3   38.70    1.50
   3  -1  -3   36.50    1.70
   3  -1  -3   37.10    1.70
   3  -1  -3   39.80    1.50
   3  -1  -3   37.10    1.80
  -3   1   3   38.90    1.40
  -3   1   3   39.40    2.00
  -3   1   3   41.50    1.50
  -3   1   3   39.10    1.60
   2  -1  -3   86.59    2.40
   2  -1  -3   78.69    2.80
   2  -1  -3   83.19    2.40
   2  -1  -3   80.99    2.90
   2  -1  -3   85.09    2.40
   2  -1  -3   79.59    2.40
   2  -1  -3   82.09    2.40
   2  -1  -3   75.79    2.70
  -2   1   3   81.79    2.90
  -2   1   3   80.89    2.60
  -2   1   3   81.39    2.40
  -2   1   3   81.69    2.40
   1  -1  -3  164.28    4.50
   1  -1  -3  163.58    4.80
   1  -1  -3  168.08    4.20
   1  -1  -3  167.48    4.90
   1  -1  -3  158.28    4.80
  -1   1   3  156.88    4.90
  -1   1   3  165.38    4.20
   0  -1  -3  114.29    3.40
   0  -1  -3  111.69    3.60
   0  -1  -3  112.59    3.60
   0  -1  -3  119.69    3.60
   0   1   3  110.39    3.40
  -1  -1  -3   17.80    0.80
  -1  -1  -3   16.90    0.70
  -1  -1  -3   18.80    1.10
  -1  -1  -3   17.00    1.00
  -1  -1  -3   16.90    0.80
  -1  -1  -3   17.30    1.10
   1   1   3   16.20    0.80
   1   1   3   17.30    0.80
   1   1   3   16.80    1.10
   1   1   3   15.20    0.90
   1   1   3   16.60    0.80
  -2  -1  -3   65.89    2.20
  -2  -1  -3   65.49    2.30
  -2  -1  -3   62.09    2.60
   2   1   3   62.89    2.40
   2   1   3   67.69    2.60
   2   1   3   63.89    2.20
   2   1   3   61.79    2.20
   2   1   3   71.99    2.30
   2   1   3   66.79    2.40
  -3  -1  -3    2.50    0.50
  -3  -1  -3    1.50    0.60
  -3  -1  -3    0.90    0.70
   3   1   3    2.30    0.70
   3   1   3    0.90    0.30
   3   1   3    0.80    0.50
   3   1   3    0.40    0.60
   3   1   3    1.30    0.70
   3   1   3    1.80    0.60
  -4  -1  -3    0.00    0.70
  -4  -1  -3   -0.30    0.60
   4   1   3   -1.10    0.60
   4   1   3    0.00    0.60
   4   1   3   -0.50    0.60
   4   1   3   -0.30    0.60
   4   1   3    0.70    0.70
  -5  -1  -3   20.40    1.80
  -5  -1  -3   13.70    1.70
   5   1   3   20.20    1.80
   5   1   3   19.90    1.70
   5   1   3   19.50    1.90
   5   1   3   20.60    1.90
  -6  -1  -3    3.00    1.10
  -6  -1  -3    2.30    1.20
   6   1   3    2.50    1.00
   6   1   3    2.10    1.00
   6   1   3    2.90    1.00
   6   1   3    2.20    1.10
  -7  -1  -3    0.50    0.90
  -7  -1  -3   -1.30    0.90
   7   1   3    1.40    1.20
   7   1   3   -1.00    0.70
   7   1   3    0.00    1.00
   7   1   3    0.10    0.90
  -8  -1  -3    0.70    1.20
  -8  -1  -3   -0.70    1.10
  -8  -1  -3   -2.40    1.10
   8   1   3    1.50    1.20
   8   1   3    0.00    1.40
   8   1   3    1.80    1.30
  -9  -1  -3    7.50    1.80
  -9  -1  -3   12.10    2.10
  -9  -1  -3   12.50    2.30
   9   1   3   14.10    2.20
   9   1   3   15.50    2.50
  11  -2  -3    3.30    1.90
  11  -2  -3    6.10    1.90
  11  -2  -3    3.70    1.80
  11  -2  -3    5.60    1.80
 -11   2   3    5.10    1.80
  10  -2  -3   -0.70    1.20
  10  -2  -3   -1.40    1.00
  10  -2  -3   -1.10    1.20
  10  -2  -3    1.00    1.40
 -10   2   3    0.30    1.40
 -10   2   3    0.70    1.40
 -10   2   3    0.10    1.10
   9  -2  -3    2.10    1.20
   9  -2  -3    0.40    0.60
   9  -2  -3   -1.50    0.70
   9  -2  -3    0.40    1.10
   9  -2  -3    0.60    1.20
  -9   2   3   -0.60    1.00
  -9   2   3   -1.10    1.30
  -9   2   3    0.10    1.00
  -9   2   3   -0.50    1.20
   8  -2  -3   -0.30    1.00
   8  -2  -3    1.00    1.10
   8  -2  -3    0.90    0.90
   8  -2  -3    0.00    0.40
   8  -2  -3    1.10    0.90
  -8   2   3    0.10    1.20
  -8   2   3    1.30    1.30
  -8   2   3   -0.80    0.90
  -8   2   3   -1.30    0.90
   7  -2  -3    3.40    1.10
   7  -2  -3    4.00    1.10
   7  -2  -3    3.90    1.00
   7  -2  -3    2.60    0.90
   7  -2  -3    2.50    0.60
  -7   2   3    3.30    1.20
  -7   2   3    3.40    0.70
  -7   2   3    1.90    1.30
  -7   2   3    2.20    1.00
  -7   2   3    3.40    1.20
   6  -2  -3    7.80    0.90
   6  -2  -3    8.70    1.30
   6  -2  -3    8.20    1.10
   6  -2  -3    9.00    1.20
   6  -2  -3    4.90    0.60
  -6   2   3    8.20    0.80
  -6   2   3    8.30    1.20
  -6   2   3    6.40    1.40
  -6   2   3    7.20    1.10
  -6   2   3    8.70    1.40
  -6   2   3    7.60    1.50
   5  -2  -3  106.99    4.00
   5  -2  -3  115.99    3.80
   5  -2  -3  111.49    3.40
   5  -2  -3  117.79    3.30
   5  -2  -3  113.29    3.80
   5  -2  -3  113.79    3.80
  -5   2   3  114.59    3.40
  -5   2   3  114.79    4.20
  -5   2   3  112.89    4.30
  -5   2   3  114.69    3.90
  -5   2   3  112.89    4.00
   4  -2  -3  292.87    8.10
   4  -2  -3  301.07    7.60
   4  -2  -3  303.17    8.60
   4  -2  -3  282.47    8.40
   4  -2  -3  288.57    8.10
   4  -2  -3  289.47    8.20
  -4   2   3  273.47    8.50
  -4   2   3  296.27    7.70
  -4   2   3  284.67    7.70
  -4   2   3  285.27    8.10
  -4   2   3  289.37    8.40
  -4   2   3  283.37    8.20
   3  -2  -3   93.19    3.30
   3  -2  -3   94.19    2.90
   3  -2  -3   91.99    3.10
   3  -2  -3   94.29    2.70
  -3   2   3   91.29    2.60
  -3   2   3   92.79    2.70
  -3   2   3   93.49    2.90
  -3   2   3   92.79    3.40
  -3   2   3   94.19    3.00
  -3   2   3   93.39    3.20
   2  -2  -3    2.30    0.60
   2  -2  -3    2.80    0.40
   2  -2  -3    2.50    0.30
   2  -2  -3    2.00    0.30
   2  -2  -3    1.80    0.50
  -2   2   3    1.90    0.30
  -2   2   3    1.30    0.60
  -2   2   3    2.50    0.40
  -2   2   3    2.70    0.40
  -2   2   3    2.30    0.50
  -2   2   3    2.20    0.40
   1  -2  -3    2.40    0.60
   1  -2  -3    3.20    0.30
   1  -2  -3    2.60    0.30
   1  -2  -3    3.40    0.40
   1  -2  -3    2.90    0.30
   1  -2  -3    2.90    0.60
   1  -2  -3    2.50    0.50
  -1   2   3    2.70    0.30
  -1   2   3    2.70    0.50
  -1   2   3    2.20    0.40
  -1   2   3    2.70    0.30
   0  -2  -3   33.20    1.00
   0  -2  -3   33.40    1.60
   0  -2  -3   33.50    1.00
   0  -2  -3   34.30    1.10
   0  -2  -3   31.90    1.60
   0  -2  -3   33.80    1.60
   0  -2  -3   35.10    1.00
   0   2   3   33.40    1.00
   0   2   3   33.90    1.40
  -1  -2  -3 1104.59   28.60
  -1  -2  -3 1083.49   28.20
  -1  -2  -3 1147.89   28.70
  -1  -2  -3 1086.59   28.20
  -1  -2  -3 1049.99   28.80
   1   2   3 1146.69   28.30
   1   2   3 1149.89   28.50
   1   2   3 1066.89   28.60
   1   2   3 1078.59   28.20
   1   2   3 1086.19   28.40
  -2  -2  -3   -0.30    0.50
  -2  -2  -3   -0.40    0.30
  -2  -2  -3    0.20    0.40
  -2  -2  -3    0.20    0.30
   2   2   3    0.40    0.40
   2   2   3   -0.80    0.40
   2   2   3    0.70    0.40
   2   2   3   -0.20    0.50
  -3  -2  -3   10.00    0.90
  -3  -2  -3   11.90    1.10
  -3  -2  -3   11.70    1.10
  -3  -2  -3    7.20    1.10
   3   2   3   10.00    1.00
   3   2   3   10.70    1.20
   3   2   3   12.50    1.20
   3   2   3   10.50    1.20
  -4  -2  -3    1.50    0.80
  -4  -2  -3    2.80    0.80
  -4  -2  -3    3.30    0.60
  -4  -2  -3    1.80    0.90
   4   2   3    2.90    0.80
   4   2   3    2.60    0.90
   4   2   3    2.30    0.80
   4   2   3    3.20    1.00
  -5  -2  -3    3.20    1.00
  -5  -2  -3    2.80    1.00
  -5  -2  -3    5.20    1.10
   5   2   3    4.10    1.10
   5   2   3    2.90    1.00
   5   2   3    2.40    0.90
   5   2   3    2.70    0.90
  -6  -2  -3   -0.70    0.80
  -6  -2  -3    0.10    0.80
  -6  -2  -3   -0.30    0.80
   6   2   3    1.20    0.90
   6   2   3   -0.60    0.90
   6   2   3    1.20    0.90
  -7  -2  -3   13.50    1.90
  -7  -2  -3    7.50    1.60
  -7  -2  -3   15.90    1.90
   7   2   3   16.20    2.10
   7   2   3   17.10    2.00
  -8  -2  -3    0.90    1.30
  -8  -2  -3   -0.30    1.20
  -8  -2  -3    0.40    1.20
   8   2   3    1.60    1.30
   8   2   3   -1.10    1.00
  -9  -2  -3    5.70    1.70
   9   2   3    8.70    2.30
   9   2   3    8.70    1.90
  11  -3  -3    3.80    1.50
  11  -3  -3    2.70    1.80
  11  -3  -3   -2.00    1.20
  11  -3  -3    1.20    1.50
 -11   3   3    1.70    1.80
 -11   3   3    0.70    1.50
  10  -3  -3    4.50    1.60
  10  -3  -3    7.60    1.90
  10  -3  -3    5.20    1.60
  10  -3  -3    4.90    1.50
 -10   3   3    4.80    1.70
 -10   3   3    2.20    1.90
 -10   3   3    2.80    1.90
   9  -3  -3    3.70    1.40
   9  -3  -3    0.00    1.00
   9  -3  -3   -2.20    0.90
   9  -3  -3    0.50    1.00
  -9   3   3   -0.10    1.30
  -9   3   3    1.50    1.60
  -9   3   3    0.50    1.00
  -9   3   3   -0.80    1.10
   8  -3  -3    0.40    0.80
   8  -3  -3   -0.10    0.80
   8  -3  -3   -0.60    0.80
   8  -3  -3    0.00    0.40
  -8   3   3    0.30    1.10
  -8   3   3   -0.80    1.20
  -8   3   3    1.30    1.10
  -8   3   3    1.10    1.00
  -8   3   3   -1.60    1.20
   7  -3  -3   41.50    1.70
   7  -3  -3   43.20    2.50
   7  -3  -3   44.10    2.30
   7  -3  -3   42.00    2.40
   7  -3  -3   43.00    2.00
  -7   3   3   40.30    2.40
  -7   3   3   43.50    3.10
  -7   3   3   40.70    2.50
  -7   3   3   40.10    2.80
   6  -3  -3    0.00    0.60
   6  -3  -3   -0.30    0.20
   6  -3  -3    1.20    0.90
   6  -3  -3   -0.30    0.70
   6  -3  -3    0.30    0.60
  -6   3   3    0.30    0.70
  -6   3   3    0.10    1.00
  -6   3   3    0.20    0.30
  -6   3   3    0.70    0.80
  -6   3   3    0.60    1.10
   5  -3  -3   20.10    1.40
   5  -3  -3   18.10    1.30
   5  -3  -3   18.70    1.40
   5  -3  -3   18.80    0.80
   5  -3  -3   18.90    1.60
  -5   3   3   20.80    1.20
  -5   3   3   18.60    1.70
  -5   3   3   17.00    1.40
  -5   3   3   19.00    1.70
  -5   3   3   17.30    1.40
  -5   3   3   19.50    0.80
   4  -3  -3  202.88    6.00
   4  -3  -3  193.88    6.10
   4  -3  -3  199.18    5.80
   4  -3  -3  199.48    5.80
  -4   3   3  200.38    5.20
  -4   3   3  195.08    5.90
  -4   3   3  198.08    6.40
  -4   3   3  201.58    5.90
  -4   3   3  200.78    6.30
  -4   3   3  200.58    5.70
   3  -3  -3   54.09    1.90
   3  -3  -3   55.99    2.00
   3  -3  -3   52.79    2.30
   3  -3  -3   49.30    2.20
  -3   3   3   50.49    1.90
  -3   3   3   52.99    2.00
  -3   3   3   55.09    2.40
  -3   3   3   51.69    1.40
  -3   3   3   51.89    1.40
  -3   3   3   51.39    2.40
   2  -3  -3   19.00    1.20
   2  -3  -3   18.80    0.90
   2  -3  -3   18.40    1.20
   2  -3  -3   18.80    0.90
   2  -3  -3   17.20    1.20
  -2   3   3   17.10    0.70
  -2   3   3   19.50    1.10
  -2   3   3   18.40    0.90
  -2   3   3   16.60    1.20
   1  -3  -3   14.80    1.10
   1  -3  -3   14.80    0.70
   1  -3  -3   13.90    1.10
   1  -3  -3   12.80    1.10
  -1   3   3   13.70    0.80
  -1   3   3   14.70    0.70
  -1   3   3   13.40    1.10
  -1   3   3   12.70    1.10
  -1   3   3   14.10    0.70
   0  -3  -3    8.40    1.00
   0  -3  -3   10.40    0.60
   0  -3  -3   10.00    1.00
   0  -3  -3   10.60    1.10
   0  -3  -3    9.90    0.60
   0  -3  -3   11.00    0.80
   0   3   3    9.20    1.10
   0   3   3   10.00    0.60
   0   3   3    8.70    0.80
  -1  -3  -3   34.70    1.90
  -1  -3  -3   39.00    1.80
  -1  -3  -3   39.80    1.70
  -1  -3  -3   37.50    1.40
   1   3   3   38.50    2.10
   1   3   3   36.70    1.50
   1   3   3   36.50    1.70
   1   3   3   36.40    1.40
  -2  -3  -3    0.80    0.40
  -2  -3  -3    0.40    0.70
  -2  -3  -3   -0.30    0.40
  -2  -3  -3    0.30    0.50
   2   3   3    0.00    0.50
   2   3   3    0.20    0.40
   2   3   3   -0.70    0.50
  -3  -3  -3  117.39    3.90
  -3  -3  -3  118.39    3.90
  -3  -3  -3  124.39    4.00
  -3  -3  -3  116.69    4.50
   3   3   3  122.09    4.00
   3   3   3  119.89    3.90
   3   3   3  121.99    4.30
  -4  -3  -3    3.50    0.80
  -4  -3  -3    3.50    0.90
  -4  -3  -3    3.30    0.70
  -4  -3  -3    3.90    1.10
   4   3   3    3.00    1.00
   4   3   3    3.70    0.90
   4   3   3    2.70    0.80
  -5  -3  -3   20.00    1.80
  -5  -3  -3   21.20    1.80
  -5  -3  -3   13.50    1.80
   5   3   3   18.10    1.70
   5   3   3   18.30    1.90
   5   3   3   21.80    2.00
  -6  -3  -3   -0.40    0.80
  -6  -3  -3   -0.10    0.90
  -6  -3  -3   -1.40    0.80
   6   3   3    0.20    1.20
   6   3   3   -0.10    0.90
   6   3   3    0.90    0.80
   6   3   3    0.80    1.00
  -7  -3  -3    4.20    1.30
  -7  -3  -3    2.80    1.20
  -7  -3  -3    3.60    1.40
   7   3   3    4.10    1.50
   7   3   3    5.20    1.70
   7   3   3    1.70    1.10
  -8  -3  -3    8.70    1.90
  -8  -3  -3    8.00    1.90
   8   3   3   13.20    1.90
   8   3   3    7.10    2.10
  11  -4  -3    1.30    1.60
  11  -4  -3    1.60    1.40
  11  -4  -3    4.00    1.70
  11  -4  -3    0.90    1.40
 -11   4   3    1.30    1.90
 -11   4   3    3.10    1.60
  10  -4  -3   -0.20    1.10
  10  -4  -3    2.60    1.30
  10  -4  -3    3.20    1.50
  10  -4  -3    2.00    1.50
 -10   4   3    3.60    2.00
 -10   4   3    1.50    1.50
   9  -4  -3    1.70    1.20
   9  -4  -3    1.10    1.00
   9  -4  -3    1.00    1.10
  -9   4   3    0.20    1.50
  -9   4   3   -0.50    1.40
  -9   4   3    0.50    1.10
  -9   4   3    0.90    1.10
  -9   4   3    1.60    1.20
   8  -4  -3    1.20    1.00
   8  -4  -3   -0.20    0.70
   8  -4  -3   -1.40    0.80
  -8   4   3   -1.50    0.80
  -8   4   3    0.80    1.00
  -8   4   3   -0.80    1.20
  -8   4   3   -0.60    1.40
   7  -4  -3    2.20    0.90
   7  -4  -3    4.40    0.50
   7  -4  -3    3.60    1.00
   7  -4  -3    2.30    0.80
   7  -4  -3    4.40    1.00
  -7   4   3    2.80    1.00
  -7   4   3    2.80    1.30
  -7   4   3    4.40    1.20
  -7   4   3    3.30    1.40
   6  -4  -3   18.60    1.40
   6  -4  -3   19.60    1.60
   6  -4  -3   15.50    1.60
   6  -4  -3   18.70    1.50
  -6   4   3   21.60    1.90
  -6   4   3   17.90    1.70
  -6   4   3   20.70    2.10
  -6   4   3   17.70    2.00
   5  -4  -3  218.28    6.80
   5  -4  -3  231.28    6.80
   5  -4  -3  231.88    7.00
   5  -4  -3  220.28    6.60
  -5   4   3  219.28    6.80
  -5   4   3  216.58    7.20
  -5   4   3  227.18    6.60
  -5   4   3  218.38    7.30
  -5   4   3  220.78    6.90
   4  -4  -3    0.40    0.60
   4  -4  -3   -0.20    0.50
   4  -4  -3    0.20    0.50
   4  -4  -3    0.60    0.60
   4  -4  -3    0.50    0.40
  -4   4   3   -0.20    0.80
  -4   4   3   -0.20    0.50
  -4   4   3    0.40    0.50
  -4   4   3    0.70    0.70
   3  -4  -3  162.18    5.20
   3  -4  -3  160.38    4.80
   3  -4  -3  166.98    4.90
   3  -4  -3  162.08    5.20
  -3   4   3  154.68    4.80
  -3   4   3  157.48    5.40
  -3   4   3  160.58    5.00
   2  -4  -3    2.30    0.70
   2  -4  -3    1.30    0.60
   2  -4  -3    2.20    0.80
   2  -4  -3    1.10    0.40
  -2   4   3    1.60    0.40
  -2   4   3    1.40    0.60
  -2   4   3    0.60    0.50
  -2   4   3    1.70    0.30
   1  -4  -3   38.70    1.50
   1  -4  -3   36.00    1.80
   1  -4  -3   36.90    2.00
   1  -4  -3   32.50    1.80
   1  -4  -3   38.70    1.40
  -1   4   3   38.80    2.10
  -1   4   3   34.20    1.90
  -1   4   3   37.50    1.40
  -1   4   3   36.50    1.50
  -1   4   3   39.40    1.40
   0  -4  -3  201.78    5.50
   0  -4  -3  192.08    6.00
   0  -4  -3  201.38    6.10
   0  -4  -3  190.98    5.40
   0  -4  -3  195.48    5.60
   0   4   3  190.58    6.20
   0   4   3  191.08    5.20
   0   4   3  185.38    5.60
  -1  -4  -3    3.50    0.80
  -1  -4  -3    3.80    0.90
  -1  -4  -3    3.30    0.60
   1   4   3    3.60    0.50
   1   4   3    2.90    0.90
   1   4   3    3.80    0.70
   1   4   3    3.90    0.70
  -2  -4  -3    1.80    0.70
  -2  -4  -3    0.90    0.60
  -2  -4  -3    0.20    0.70
   2   4   3    0.90    0.60
   2   4   3    2.30    0.90
   2   4   3    0.30    0.60
   2   4   3    1.00    0.50
  -3  -4  -3   87.99    3.80
  -3  -4  -3   86.49    3.20
  -3  -4  -3   91.09    3.40
   3   4   3   91.39    3.60
   3   4   3   87.69    3.20
   3   4   3   86.39    4.00
   3   4   3   91.69    3.10
  -4  -4  -3    0.70    0.60
  -4  -4  -3    0.40    0.70
  -4  -4  -3    1.80    0.80
  -4  -4  -3    0.10    0.80
   4   4   3   -0.40    0.80
   4   4   3    0.60    0.80
   4   4   3    2.30    0.90
   4   4   3    2.30    0.70
  -5  -4  -3    4.30    1.10
  -5  -4  -3    4.80    1.30
  -5  -4  -3    5.00    1.10
   5   4   3    4.40    1.20
   5   4   3    3.80    0.90
   5   4   3    5.20    1.20
   5   4   3    3.00    1.30
  -6  -4  -3    0.70    0.90
  -6  -4  -3   -0.30    0.90
  -6  -4  -3    0.90    0.90
   6   4   3   -0.30    1.20
   6   4   3    0.20    0.80
   6   4   3    0.70    1.00
  -7  -4  -3    5.90    1.50
  -7  -4  -3    5.00    1.50
  -7  -4  -3    7.20    1.60
   7   4   3    5.90    1.80
   7   4   3    5.50    1.70
  -8  -4  -3    3.40    1.50
   8   4   3    5.70    2.10
  11  -5  -3    0.90    1.30
  11  -5  -3   -1.10    1.30
  11  -5  -3    1.80    1.70
 -11   5   3   -0.50    1.40
 -11   5   3    0.70    2.20
  10  -5  -3   15.90    2.10
  10  -5  -3   16.40    2.30
  10  -5  -3   17.70    2.30
 -10   5   3   18.70    3.20
 -10   5   3   19.90    2.70
 -10   5   3   18.10    2.50
   9  -5  -3    4.00    1.30
   9  -5  -3    2.80    1.20
   9  -5  -3    2.50    1.20
  -9   5   3    1.40    1.20
  -9   5   3    1.50    1.90
  -9   5   3    3.40    1.70
  -9   5   3    3.10    1.50
  -9   5   3    6.30    1.50
   8  -5  -3    4.50    1.30
   8  -5  -3    2.20    0.90
   8  -5  -3    1.60    1.00
  -8   5   3    0.30    1.40
  -8   5   3    2.70    1.50
  -8   5   3    1.80    1.10
  -8   5   3    3.20    1.20
   7  -5  -3   20.40    2.00
   7  -5  -3   22.70    1.90
   7  -5  -3   23.10    1.70
   7  -5  -3   18.00    1.80
  -7   5   3   23.90    2.50
  -7   5   3   20.70    2.00
  -7   5   3   19.70    2.40
  -7   5   3   22.90    2.20
   6  -5  -3   42.00    2.40
   6  -5  -3   40.30    2.00
   6  -5  -3   42.40    2.30
   6  -5  -3   41.60    2.20
  -6   5   3   40.30    2.40
  -6   5   3   44.20    2.30
  -6   5   3   41.30    2.40
  -6   5   3   38.10    2.90
  -6   5   3   39.80    2.60
   5  -5  -3    2.80    0.70
   5  -5  -3    5.10    1.00
   5  -5  -3    4.20    1.00
   5  -5  -3    3.40    0.90
   5  -5  -3    3.50    0.90
  -5   5   3    4.30    1.00
  -5   5   3    4.50    1.20
  -5   5   3    6.30    1.40
  -5   5   3    3.10    0.90
   4  -5  -3  156.18    5.40
   4  -5  -3  158.68    4.80
   4  -5  -3  162.58    5.40
   4  -5  -3  155.48    5.10
   4  -5  -3  162.98    5.10
  -4   5   3  160.08    5.20
  -4   5   3  160.88    5.70
  -4   5   3  162.88    5.80
  -4   5   3  159.78    5.20
   3  -5  -3   49.20    2.40
   3  -5  -3   50.09    2.10
   3  -5  -3   50.49    2.50
   3  -5  -3   48.50    2.10
  -3   5   3   44.70    2.10
  -3   5   3   49.80    2.30
  -3   5   3   49.20    2.60
   2  -5  -3   38.60    1.80
   2  -5  -3   44.70    2.20
   2  -5  -3   41.00    2.10
  -2   5   3   38.90    1.80
  -2   5   3   38.90    2.40
  -2   5   3   39.10    2.10
  -2   5   3   42.40    1.40
   1  -5  -3    1.80    0.80
   1  -5  -3    2.10    0.40
   1  -5  -3    1.40    0.70
   1  -5  -3    2.00    0.80
   1  -5  -3    3.00    0.60
  -1   5   3    2.00    0.80
  -1   5   3    1.10    0.80
  -1   5   3    1.70    0.40
  -1   5   3    2.50    0.20
  -1   5   3    2.40    0.30
  -1   5   3    2.00    0.50
   0  -5  -3    4.20    0.70
   0  -5  -3    3.10    0.90
   0  -5  -3    3.60    0.90
   0  -5  -3    5.40    0.70
   0  -5  -3    4.50    0.70
   0   5   3    4.40    0.30
   0   5   3    3.90    0.30
   0   5   3    2.50    0.90
   0   5   3    4.00    0.70
  -1  -5  -3   18.40    1.60
  -1  -5  -3   15.30    1.10
  -1  -5  -3   16.60    1.20
  -1  -5  -3   13.70    1.50
   1   5   3   16.90    0.80
   1   5   3   15.70    1.70
   1   5   3   19.30    1.40
  -2  -5  -3  424.76   12.00
  -2  -5  -3  396.56   12.20
  -2  -5  -3  417.66   11.60
   2   5   3  415.36   11.90
   2   5   3  429.86   11.60
   2   5   3  418.46   11.20
   2   5   3  423.06   12.70
  -3  -5  -3   63.39    2.70
  -3  -5  -3   65.39    2.90
  -3  -5  -3   58.09    3.10
   3   5   3   65.09    3.50
   3   5   3   69.99    2.80
   3   5   3   65.19    2.40
   3   5   3   70.99    3.20
  -4  -5  -3    3.90    1.30
  -4  -5  -3    4.30    0.90
  -4  -5  -3    4.80    1.00
   4   5   3    5.50    1.10
   4   5   3    4.30    1.30
   4   5   3    3.20    1.00
  -5  -5  -3    2.80    1.20
  -5  -5  -3    2.00    0.90
   5   5   3    2.30    1.00
   5   5   3    2.00    1.30
   5   5   3    2.80    1.10
  -6  -5  -3    0.20    1.10
  -6  -5  -3    0.40    0.90
   6   5   3    0.10    1.20
   6   5   3    0.90    1.00
  -7  -5  -3    2.90    1.60
   7   5   3    2.80    1.60
  11  -6  -3    8.80    1.90
  11  -6  -3   15.50    2.50
  11  -6  -3   11.50    2.50
 -11   6   3    9.30    2.20
 -11   6   3    8.70    2.90
 -11   6   3    7.30    2.20
  10  -6  -3    3.10    1.40
  10  -6  -3    3.60    1.60
 -10   6   3    1.60    2.20
 -10   6   3    2.20    1.50
 -10   6   3    5.50    1.90
   9  -6  -3    7.90    1.50
   9  -6  -3    3.20    1.20
   9  -6  -3    4.80    1.60
  -9   6   3    2.00    2.30
  -9   6   3    4.70    1.60
  -9   6   3    3.80    1.70
  -9   6   3    4.30    2.20
   8  -6  -3    2.00    1.00
   8  -6  -3    1.80    1.20
   8  -6  -3    2.80    1.00
   8  -6  -3    3.10    1.00
  -8   6   3    2.00    1.60
  -8   6   3    3.60    1.30
  -8   6   3    1.80    1.30
  -8   6   3    1.40    1.40
   7  -6  -3    1.20    1.00
   7  -6  -3   -0.10    0.80
   7  -6  -3    0.20    0.60
   7  -6  -3   -0.30    0.70
  -7   6   3   -1.80    1.30
  -7   6   3    0.90    1.00
  -7   6   3    0.30    1.00
  -7   6   3    0.90    1.20
   6  -6  -3   10.70    1.20
   6  -6  -3   12.00    1.50
   6  -6  -3   10.40    1.40
   6  -6  -3   10.00    1.40
  -6   6   3   13.10    1.60
  -6   6   3   10.80    1.80
  -6   6   3   10.00    1.40
  -6   6   3   13.60    1.90
  -6   6   3   15.60    1.60
   5  -6  -3   48.10    2.60
   5  -6  -3   48.20    2.50
   5  -6  -3   47.00    2.40
   5  -6  -3   48.50    2.40
   5  -6  -3   50.49    2.10
  -5   6   3   50.39    2.60
  -5   6   3   47.60    2.60
  -5   6   3   48.70    3.00
  -5   6   3   44.20    2.90
   4  -6  -3   59.39    2.80
   4  -6  -3   63.09    2.70
   4  -6  -3   59.19    2.80
   4  -6  -3   58.69    2.60
  -4   6   3   61.69    2.90
  -4   6   3   56.39    3.20
  -4   6   3   64.29    2.80
   3  -6  -3   99.19    3.50
   3  -6  -3   97.79    3.50
   3  -6  -3   95.09    3.80
   3  -6  -3   96.69    3.90
  -3   6   3   94.89    3.50
  -3   6   3   91.59    4.10
  -3   6   3   99.19    3.90
   2  -6  -3   68.69    2.60
   2  -6  -3   62.89    3.00
   2  -6  -3   64.39    2.90
   2  -6  -3   65.19    2.10
  -2   6   3   68.79    3.10
  -2   6   3   61.39    3.20
  -2   6   3   65.99    2.10
  -2   6   3   66.09    2.60
   1  -6  -3    3.50    1.00
   1  -6  -3    2.80    0.70
   1  -6  -3    3.30    0.90
   1  -6  -3    2.50    0.50
  -1   6   3    2.70    0.70
  -1   6   3    2.30    0.50
  -1   6   3    1.90    0.80
  -1   6   3    1.80    1.00
   0  -6  -3   23.90    1.80
   0  -6  -3   24.00    1.70
   0  -6  -3   23.20    1.40
   0  -6  -3   23.00    1.40
   0   6   3   19.00    1.90
   0   6   3   23.40    1.40
   0   6   3   22.20    2.00
  -1  -6  -3   79.99    3.40
  -1  -6  -3   79.39    3.00
  -1  -6  -3   75.79    3.40
  -1  -6  -3   77.09    3.00
   1   6   3   80.69    3.10
   1   6   3   76.29    3.80
  -2  -6  -3   90.29    3.40
  -2  -6  -3   89.09    3.40
  -2  -6  -3   94.49    4.10
  -2  -6  -3   96.99    3.80
   2   6   3   94.39    3.70
   2   6   3   94.89    4.40
   2   6   3   90.79    3.50
  -3  -6  -3    9.80    1.40
  -3  -6  -3   10.50    1.70
  -3  -6  -3   10.00    1.30
   3   6   3   11.20    1.40
   3   6   3    9.00    1.70
   3   6   3    9.80    1.40
  -4  -6  -3   -0.20    0.70
  -4  -6  -3    0.80    1.00
  -4  -6  -3   -0.80    0.70
   4   6   3    0.00    0.80
   4   6   3   -0.50    0.70
   4   6   3   -0.30    1.00
  -5  -6  -3    1.50    0.90
  -5  -6  -3    0.40    1.10
   5   6   3    2.30    1.10
   5   6   3    0.60    1.30
  -6  -6  -3    1.60    1.30
   6   6   3    2.30    1.50
  -7  -6  -3    2.10    1.60
   7   6   3   -0.60    1.40
  10  -7  -3    8.10    1.70
  10  -7  -3    7.60    1.90
 -10   7   3    8.50    2.00
 -10   7   3   11.20    2.30
 -10   7   3    9.00    2.70
   9  -7  -3   23.50    2.30
   9  -7  -3   26.70    2.70
  -9   7   3   25.30    2.80
  -9   7   3   22.60    2.80
  -9   7   3   23.80    3.50
   8  -7  -3   -0.10    1.00
   8  -7  -3    1.80    1.30
   8  -7  -3   -0.60    0.70
   8  -7  -3    1.50    1.00
  -8   7   3    0.80    1.20
  -8   7   3    0.70    1.60
  -8   7   3    1.70    1.30
  -8   7   3    2.20    1.60
   7  -7  -3    4.20    1.10
   7  -7  -3    6.30    1.30
   7  -7  -3    5.60    1.00
   7  -7  -3    4.50    1.30
  -7   7   3    4.50    1.30
  -7   7   3    4.00    1.30
  -7   7   3    3.60    1.70
  -7   7   3    3.20    1.30
  -7   7   3    5.70    1.60
   6  -7  -3   24.90    2.00
   6  -7  -3   29.50    1.70
   6  -7  -3   24.60    1.90
   6  -7  -3   26.00    2.20
   6  -7  -3   28.00    2.10
  -6   7   3   26.40    2.20
  -6   7   3   27.80    2.50
  -6   7   3   27.10    2.40
  -6   7   3   21.80    2.60
   5  -7  -3   58.59    3.00
   5  -7  -3   66.49    3.00
   5  -7  -3   61.19    2.40
   5  -7  -3   63.49    3.00
   5  -7  -3   65.79    3.20
  -5   7   3   65.89    3.60
  -5   7   3   59.09    3.00
  -5   7   3   60.99    3.20
  -5   7   3   55.89    3.50
   4  -7  -3  223.88    7.20
   4  -7  -3  216.68    7.30
   4  -7  -3  221.58    7.00
   4  -7  -3  221.18    6.90
  -4   7   3  218.68    7.80
  -4   7   3  220.18    7.10
  -4   7   3  220.78    7.40
   3  -7  -3   55.29    2.90
   3  -7  -3   57.99    2.70
   3  -7  -3   61.49    3.00
  -3   7   3   65.99    2.80
  -3   7   3   62.19    3.10
  -3   7   3   62.19    3.50
   2  -7  -3    0.10    0.60
   2  -7  -3    0.70    0.70
  -2   7   3   -0.30    0.60
  -2   7   3   -0.90    0.60
  -2   7   3   -0.60    0.80
  -2   7   3    0.30    0.30
   1  -7  -3   -0.50    0.70
   1  -7  -3   -0.80    0.50
   1  -7  -3    0.30    0.80
  -1   7   3   -0.30    0.70
  -1   7   3   -0.80    0.50
  -1   7   3   -0.20    0.90
  -1   7   3    0.90    0.50
   0  -7  -3   22.10    1.70
   0  -7  -3   20.80    1.50
   0  -7  -3   20.90    1.50
   0  -7  -3   22.50    1.90
   0   7   3   22.10    2.20
   0   7   3   22.70    1.40
   0   7   3   18.90    2.10
  -1  -7  -3   -0.50    0.80
  -1  -7  -3    0.30    0.80
  -1  -7  -3    1.30    0.70
  -1  -7  -3    0.70    0.60
   1   7   3    1.30    0.70
   1   7   3    0.80    0.90
   1   7   3    0.50    0.90
  -2  -7  -3    0.90    0.60
  -2  -7  -3   -0.40    0.60
  -2  -7  -3    0.50    1.00
  -2  -7  -3    0.70    0.80
   2   7   3   -0.60    0.60
   2   7   3    1.10    1.10
  -3  -7  -3   -0.30    0.80
  -3  -7  -3    0.80    0.70
  -3  -7  -3   -0.10    0.90
  -3  -7  -3   -1.40    0.60
   3   7   3   -0.90    1.00
   3   7   3    1.80    0.90
   3   7   3    0.80    0.90
  -4  -7  -3    3.50    1.20
  -4  -7  -3    0.50    1.10
  -4  -7  -3    4.00    1.10
   4   7   3    5.00    1.30
   4   7   3    0.90    1.30
   4   7   3    2.80    1.50
  -5  -7  -3   -1.40    0.90
   5   7   3    0.10    1.20
  -6  -7  -3   -0.20    1.30
   6   7   3   -0.70    1.40
  10  -8  -3    4.30    1.40
  10  -8  -3    3.60    1.70
 -10   8   3    0.20    2.10
 -10   8   3    0.80    1.40
 -10   8   3    1.80    1.70
   9  -8  -3    2.50    1.10
   9  -8  -3    0.30    1.30
  -9   8   3    0.50    2.30
  -9   8   3   -1.10    1.40
  -9   8   3    2.60    1.50
   8  -8  -3    5.20    1.20
   8  -8  -3    3.10    1.40
   8  -8  -3    4.70    1.40
  -8   8   3    5.70    1.60
  -8   8   3    4.20    2.20
  -8   8   3    2.30    1.40
  -8   8   3    4.60    1.90
   7  -8  -3   14.40    1.90
   7  -8  -3   12.00    1.90
   7  -8  -3   15.20    1.80
  -7   8   3   19.90    2.30
  -7   8   3   16.80    2.60
  -7   8   3   13.00    2.00
  -7   8   3   16.70    2.50
  -7   8   3   15.20    2.10
   6  -8  -3    3.80    1.20
   6  -8  -3    6.10    1.30
   6  -8  -3    6.60    1.40
   6  -8  -3    5.90    1.20
  -6   8   3    6.80    1.60
  -6   8   3    8.10    1.50
  -6   8   3    7.30    1.80
  -6   8   3    4.40    1.50
   5  -8  -3    0.50    0.90
   5  -8  -3    1.80    1.00
   5  -8  -3    1.00    0.90
   5  -8  -3    0.10    0.80
  -5   8   3    1.10    1.00
  -5   8   3    1.10    1.20
  -5   8   3    0.90    1.10
  -5   8   3    4.70    1.40
   4  -8  -3   36.90    2.30
   4  -8  -3   39.70    2.60
   4  -8  -3   37.50    2.50
   4  -8  -3   38.40    2.30
  -4   8   3   35.70    2.90
  -4   8   3   46.10    3.00
  -4   8   3   42.70    2.50
   3  -8  -3   25.10    1.90
   3  -8  -3   26.20    2.10
  -3   8   3   25.80    1.90
  -3   8   3   23.60    2.50
  -3   8   3   25.40    2.40
   2  -8  -3   34.40    2.30
   2  -8  -3   34.40    2.10
  -2   8   3   32.20    2.60
  -2   8   3   34.10    2.10
  -2   8   3   32.00    2.70
   1  -8  -3    6.10    1.10
   1  -8  -3    3.50    1.00
   1  -8  -3    6.10    1.30
  -1   8   3    2.30    1.10
  -1   8   3    4.50    1.00
  -1   8   3    5.10    1.40
   0  -8  -3   -0.40    0.80
   0  -8  -3    0.80    0.70
   0  -8  -3    0.60    0.80
   0   8   3    1.40    1.10
   0   8   3   -0.30    0.90
   0   8   3    1.30    0.70
   0   8   3    1.60    0.80
  -1  -8  -3   20.30    2.10
  -1  -8  -3   19.20    1.80
  -1  -8  -3   18.50    2.00
  -1  -8  -3   23.50    1.80
   1   8   3   20.80    2.40
   1   8   3   19.70    2.40
   1   8   3   24.00    1.70
  -2  -8  -3    0.40    1.00
  -2  -8  -3   -0.10    0.80
  -2  -8  -3    0.90    0.80
  -2  -8  -3    0.30    0.70
   2   8   3    1.80    1.10
   2   8   3    0.20    0.70
   2   8   3    0.00    1.10
  -3  -8  -3    1.40    1.20
  -3  -8  -3    1.30    1.00
  -3  -8  -3    1.20    1.10
   3   8   3    2.20    1.40
   3   8   3    1.40    1.00
  -4  -8  -3   -0.10    0.90
  -4  -8  -3    1.50    1.40
   4   8   3    2.00    1.50
  -5  -8  -3    3.00    1.50
   5   8   3    3.20    1.70
   9  -9  -3   -1.80    1.10
  -9   9   3   -0.20    1.50
  -9   9   3    0.00    1.40
  -9   9   3   -0.90    2.20
   8  -9  -3    0.30    1.20
  -8   9   3   -1.00    1.90
  -8   9   3    1.40    1.30
  -8   9   3    2.10    1.50
   7  -9  -3    0.70    1.10
   7  -9  -3    1.90    1.20
   7  -9  -3    2.10    1.30
  -7   9   3   -0.80    1.60
  -7   9   3   -0.20    1.60
  -7   9   3    2.30    1.30
  -7   9   3    1.20    1.40
   6  -9  -3    1.20    1.10
   6  -9  -3    0.80    0.90
   6  -9  -3   -1.10    0.90
   6  -9  -3    1.10    1.20
  -6   9   3    1.80    1.30
  -6   9   3   -0.40    1.00
  -6   9   3    1.10    1.60
  -6   9   3    0.20    1.30
   5  -9  -3   -0.60    0.90
   5  -9  -3    1.30    1.00
   5  -9  -3    1.30    1.10
   5  -9  -3    0.50    0.90
  -5   9   3    3.50    1.20
  -5   9   3    0.60    1.10
  -5   9   3   -1.40    1.10
  -5   9   3    0.00    1.20
   4  -9  -3    0.80    0.90
   4  -9  -3    2.20    1.10
   4  -9  -3    2.00    1.00
  -4   9   3   -0.70    0.80
  -4   9   3    0.60    1.20
  -4   9   3   -0.10    1.20
   3  -9  -3    1.20    0.90
   3  -9  -3   -0.10    0.80
  -3   9   3    0.60    1.20
  -3   9   3    0.30    1.20
  -3   9   3    2.10    1.00
   2  -9  -3    7.20    1.30
   2  -9  -3    4.60    1.30
  -2   9   3    8.90    1.40
  -2   9   3    5.20    1.50
  -2   9   3    4.30    1.50
   1  -9  -3    1.20    1.00
   1  -9  -3    0.90    0.90
   1  -9  -3    3.00    1.00
  -1   9   3    4.20    1.50
  -1   9   3    0.10    0.80
  -1   9   3    3.40    1.30
   0  -9  -3   -0.30    0.70
   0  -9  -3    1.20    0.90
   0  -9  -3    0.00    0.90
   0   9   3    2.00    0.90
   0   9   3    1.00    1.00
   0   9   3   -0.50    1.10
  -1  -9  -3    3.50    1.10
  -1  -9  -3    3.20    1.20
  -1  -9  -3    5.40    1.40
  -1  -9  -3    3.00    0.90
   1   9   3    3.40    1.50
   1   9   3    5.20    1.60
  -2  -9  -3    9.70    1.70
  -2  -9  -3   10.80    1.80
   2   9   3    8.50    1.90
   2   9   3    5.40    1.60
  -3  -9  -3   13.20    2.00
  -3  -9  -3   18.40    2.40
   3   9   3   14.20    2.40
   3   9   3   14.90    2.40
  -4  -9  -3    6.90    1.80
   4   9   3    7.20    2.20
   8 -10  -3    2.30    1.40
  -8  10   3    2.40    2.40
  -8  10   3    4.80    1.70
  -8  10   3    2.80    1.70
   7 -10  -3    1.70    1.30
   7 -10  -3    1.30    1.30
   7 -10  -3    0.70    1.10
  -7  10   3    0.80    1.40
  -7  10   3   -1.60    1.70
   6 -10  -3   -0.50    1.00
   6 -10  -3    0.90    1.30
   6 -10  -3    0.50    1.10
  -6  10   3   -1.60    1.40
  -6  10   3    1.30    1.30
  -6  10   3   -3.70    1.30
   5 -10  -3    0.40    1.10
   5 -10  -3    1.20    1.10
   5 -10  -3    2.40    1.20
  -5  10   3    1.50    1.20
  -5  10   3   -1.70    1.40
  -5  10   3    2.50    1.60
   4 -10  -3    2.10    1.30
   4 -10  -3    2.90    1.10
   4 -10  -3    1.40    1.10
  -4  10   3    1.70    1.50
  -4  10   3    3.50    1.30
  -4  10   3    2.30    1.50
   3 -10  -3    0.80    1.00
   3 -10  -3    1.00    1.00
  -3  10   3    0.00    1.30
  -3  10   3   -1.30    0.80
  -3  10   3    0.30    1.40
   2 -10  -3    3.20    1.10
   2 -10  -3    0.70    1.10
  -2  10   3    0.40    1.30
  -2  10   3    2.50    1.10
  -2  10   3    2.80    1.50
   1 -10  -3    1.20    1.00
   1 -10  -3    0.20    1.10
  -1  10   3   -0.50    0.80
  -1  10   3    2.80    1.60
  -1  10   3    2.00    1.30
   0 -10  -3   -0.30    0.90
   0 -10  -3   -1.10    1.00
   0  10   3    0.40    1.30
   0  10   3    0.80    1.30
  -1 -10  -3    0.10    1.10
   1  10   3   -0.60    1.10
   1  10   3   -0.70    1.30
  -2 -10  -3   -1.10    1.00
   2  10   3   -0.40    1.20
   2  10   3    1.40    1.70
  -3 -10  -3    1.00    1.10
   3  10   3    2.00    1.50
   3  10   3    2.20    1.80
   7 -11  -3    2.70    1.40
   7 -11  -3   -1.40    1.00
   7 -11  -3    2.60    1.50
  -7  11   3   -4.50    1.90
  -7  11   3    1.20    1.50
   6 -11  -3    0.30    1.20
   6 -11  -3   -0.80    1.20
   6 -11  -3    0.70    1.30
  -6  11   3   -1.00    1.20
  -6  11   3   -3.10    1.60
  -6  11   3   -2.10    1.80
   5 -11  -3    1.60    1.20
   5 -11  -3    1.00    1.20
   5 -11  -3    1.10    1.20
  -5  11   3   -0.60    1.70
  -5  11   3    2.50    1.40
  -5  11   3   -1.20    1.80
   4 -11  -3    7.30    1.80
   4 -11  -3    7.30    1.60
   4 -11  -3    3.30    1.40
  -4  11   3    2.60    1.70
  -4  11   3    4.60    2.00
  -4  11   3    5.90    1.60
   3 -11  -3    2.10    1.30
   3 -11  -3    4.50    1.50
  -3  11   3    4.20    1.90
  -3  11   3    1.20    1.80
  -3  11   3    1.80    1.30
   2 -11  -3    6.20    1.60
   2 -11  -3   11.60    2.00
  -2  11   3   13.40    2.60
  -2  11   3   10.00    1.90
  -2  11   3    9.20    2.30
   1 -11  -3   33.70    3.00
  -1  11   3   29.90    3.40
  -1  11   3   27.30    3.30
   0 -11  -3    9.10    1.90
   0  11   3    5.20    1.90
   0  11   3    6.10    2.10
  -1 -11  -3    3.90    1.40
   1  11   3    2.10    1.60
   1  11   3    3.90    1.70
   3 -12  -3    7.30    1.90
  -3  12   3    3.10    2.00
  -3  12   3    2.00    2.00
   3  11  -4    0.00    1.90
   3  11  -4    2.80    1.40
  -3 -11   4    3.00    1.70
  -3 -11   4    1.40    1.80
  -3 -11   4    3.60    2.00
   2  11  -4    1.30    1.20
   2  11  -4    1.00    1.70
  -2 -11   4    1.00    1.70
  -2 -11   4    0.10    1.60
  -2 -11   4   -0.40    1.40
   1  11  -4   -2.60    1.40
   1  11  -4    3.20    1.80
   1  11  -4    3.20    1.60
  -1 -11   4    1.80    1.90
  -1 -11   4    0.80    1.60
   0  11  -4    0.40    1.40
   0  11  -4   -0.80    1.60
   0 -11   4    1.80    1.60
   0 -11   4    0.00    1.50
  -1  11  -4   10.40    2.70
  -1  11  -4    6.00    1.90
   1 -11   4   10.50    2.40
  -2  11  -4   -1.70    1.70
  -2  11  -4    0.40    1.50
   2 -11   4   -0.70    1.60
  -3  11  -4   -0.20    1.90
  -3  11  -4   -1.50    1.40
   3 -11   4    1.40    1.80
   5  10  -4    3.90    1.90
   5  10  -4    3.80    1.50
  -5 -10   4    7.10    2.40
  -5 -10   4    6.30    2.00
  -5 -10   4    6.00    1.90
   4  10  -4    0.00    1.40
   4  10  -4    2.30    1.30
  -4 -10   4    4.60    1.80
  -4 -10   4    2.10    1.50
  -4 -10   4    3.90    2.00
   3  10  -4   -0.10    1.10
   3  10  -4   -0.70    1.50
  -3 -10   4    2.30    1.70
  -3 -10   4    0.50    1.40
  -3 -10   4   -0.90    1.10
   2  10  -4    2.90    1.20
   2  10  -4    3.60    1.90
  -2 -10   4    3.60    1.60
  -2 -10   4    3.20    1.70
  -2 -10   4   -0.60    1.30
   1  10  -4   12.80    1.80
   1  10  -4   12.70    2.20
   1  10  -4    7.50    2.00
  -1 -10   4   12.50    2.20
  -1 -10   4   13.40    2.50
  -1 -10   4   12.50    2.10
   0  10  -4    2.50    1.40
   0  10  -4    2.00    1.60
   0  10  -4    1.90    1.10
   0 -10   4    2.60    1.60
   0 -10   4    2.40    1.50
  -1  10  -4    5.80    1.40
  -1  10  -4    5.10    1.90
  -1  10  -4    6.60    1.90
   1 -10   4    3.30    1.70
   1 -10   4    7.10    2.00
  -2  10  -4    1.30    1.00
  -2  10  -4   -1.70    1.60
  -2  10  -4    0.00    1.30
   2 -10   4   -0.50    1.40
  -3  10  -4    0.70    1.90
  -3  10  -4    3.20    1.70
   3 -10   4    4.00    1.90
  -4  10  -4    1.50    1.80
   4 -10   4    0.60    1.60
   4 -10   4    3.40    1.80
  -5  10  -4    0.10    1.70
   5 -10   4   -1.50    1.30
   5 -10   4    0.80    1.60
   6   9  -4    0.40    1.40
   6   9  -4    2.00    1.80
   6   9  -4    0.70    1.20
  -6  -9   4    1.00    1.30
  -6  -9   4    0.70    1.50
  -6  -9   4   -0.60    1.40
   5   9  -4   -0.80    1.10
   5   9  -4   -0.20    1.20
  -5  -9   4    0.50    1.40
  -5  -9   4    0.80    1.50
  -5  -9   4    5.00    1.80
   4   9  -4   -1.50    1.20
   4   9  -4    1.80    1.20
  -4  -9   4   -0.30    1.30
  -4  -9   4    0.50    1.40
  -4  -9   4    1.80    1.40
   3   9  -4    3.70    1.40
   3   9  -4    3.30    1.70
  -3  -9   4    7.30    1.80
  -3  -9   4    2.00    1.60
  -3  -9   4    4.00    1.60
   2   9  -4   19.30    2.60
   2   9  -4   20.40    2.20
  -2  -9   4   26.10    2.70
  -2  -9   4   21.00    2.80
  -2  -9   4   25.00    2.60
   1   9  -4    6.70    1.70
   1   9  -4    9.00    1.60
  -1  -9   4    7.10    1.90
  -1  -9   4    8.30    1.80
  -1  -9   4    8.20    1.80
   0   9  -4    2.00    1.20
   0   9  -4   -1.30    0.80
   0   9  -4    0.30    1.30
   0  -9   4    0.70    1.30
   0  -9   4   -0.50    1.10
  -1   9  -4    1.40    1.00
  -1   9  -4    0.10    1.30
  -1   9  -4    0.90    1.20
   1  -9   4    0.50    1.20
   1  -9   4   -0.10    1.20
  -2   9  -4    2.20    1.10
  -2   9  -4    0.30    1.20
  -2   9  -4    3.30    1.70
  -2   9  -4    3.50    1.40
   2  -9   4    4.30    1.50
   2  -9   4    5.10    1.60
  -3   9  -4    7.50    1.40
  -3   9  -4    4.90    1.70
  -3   9  -4    5.20    2.00
  -3   9  -4    7.90    1.90
   3  -9   4    3.60    1.50
   3  -9   4    4.40    1.10
  -4   9  -4   -0.30    0.90
  -4   9  -4   -1.00    1.50
  -4   9  -4    0.10    1.40
   4  -9   4    0.70    1.10
   4  -9   4    1.70    1.50
   4  -9   4    0.60    1.40
  -5   9  -4   -2.30    1.40
  -5   9  -4    0.50    1.70
   5  -9   4   -1.90    1.20
   5  -9   4   -0.20    1.40
   5  -9   4   -0.60    1.00
  -6   9  -4    2.60    1.80
  -6   9  -4    3.90    2.00
   6  -9   4    2.60    1.60
   6  -9   4    2.10    1.70
   6  -9   4    2.10    1.20
   8   8  -4    2.10    1.70
  -8  -8   4    4.40    1.50
  -8  -8   4   -0.50    1.80
   7   8  -4   -2.00    1.90
   7   8  -4   -2.30    1.50
  -7  -8   4    1.40    1.40
  -7  -8   4    0.10    1.40
   6   8  -4    1.20    1.20
   6   8  -4    3.90    1.80
  -6  -8   4    1.70    1.60
  -6  -8   4    3.50    1.80
   5   8  -4   -1.30    1.10
   5   8  -4    0.50    1.40
   5   8  -4    1.70    1.20
  -5  -8   4    1.10    1.40
  -5  -8   4    1.10    1.40
  -5  -8   4    0.30    1.30
   4   8  -4    1.80    1.20
   4   8  -4    1.80    1.20
  -4  -8   4    0.30    1.20
  -4  -8   4    0.10    1.20
  -4  -8   4    1.70    1.30
   3   8  -4    0.60    1.00
   3   8  -4    1.00    1.20
  -3  -8   4    0.80    1.20
  -3  -8   4    0.40    1.10
  -3  -8   4    1.20    1.10
   2   8  -4   -0.10    0.90
   2   8  -4   -1.40    1.00
  -2  -8   4    0.60    1.10
  -2  -8   4   -1.30    0.90
  -2  -8   4    0.60    1.10
   1   8  -4    0.70    0.90
   1   8  -4   -0.60    1.20
  -1  -8   4    1.00    1.10
  -1  -8   4    0.80    1.10
  -1  -8   4    0.20    1.10
  -1  -8   4    0.30    0.50
   0   8  -4    3.60    1.20
   0   8  -4    4.30    1.10
   0   8  -4    2.20    1.40
   0   8  -4    4.10    1.10
   0  -8   4    5.80    1.50
   0  -8   4    4.60    0.90
   0  -8   4    3.50    1.30
  -1   8  -4    3.20    1.20
  -1   8  -4    2.00    1.00
  -1   8  -4    2.70    1.40
  -1   8  -4    4.20    1.20
   1  -8   4    4.20    0.90
   1  -8   4    1.90    1.10
   1  -8   4    2.60    1.20
  -2   8  -4    5.80    1.50
  -2   8  -4    4.90    1.60
  -2   8  -4    4.80    1.40
  -2   8  -4    7.20    1.30
   2  -8   4    6.60    1.10
   2  -8   4    8.00    1.60
   2  -8   4    5.50    1.40
  -3   8  -4    3.30    1.10
  -3   8  -4    3.60    1.70
  -3   8  -4    3.70    1.40
  -3   8  -4    4.00    1.40
   3  -8   4    4.30    1.00
   3  -8   4    3.50    1.50
  -4   8  -4   22.70    2.10
  -4   8  -4   17.10    2.40
  -4   8  -4   17.90    2.40
   4  -8   4   19.90    2.40
   4  -8   4   20.50    2.00
   4  -8   4   16.00    2.20
  -5   8  -4    4.30    1.30
  -5   8  -4    2.80    1.70
  -5   8  -4    2.20    1.70
   5  -8   4    6.60    1.50
   5  -8   4    7.60    1.70
   5  -8   4    4.30    1.70
  -6   8  -4    2.80    1.80
  -6   8  -4    4.00    1.70
   6  -8   4    2.70    1.30
   6  -8   4    2.40    1.60
   6  -8   4    0.70    1.60
  -7   8  -4    1.50    1.80
  -7   8  -4    1.80    1.70
  -7   8  -4   -0.50    1.50
   7  -8   4    4.70    1.70
   7  -8   4    1.60    1.30
   8   7  -4    0.80    1.50
  -8  -7   4    2.40    1.40
  -8  -7   4    1.40    1.50
   7   7  -4   14.50    2.40
   7   7  -4   12.30    1.90
  -7  -7   4   12.90    2.40
  -7  -7   4   10.80    2.20
   6   7  -4    2.20    1.40
   6   7  -4    0.10    1.00
  -6  -7   4    0.80    1.30
  -6  -7   4   -0.40    1.30
   5   7  -4   14.80    2.10
   5   7  -4   10.10    1.70
  -5  -7   4   12.40    2.00
  -5  -7   4   15.50    2.40
   4   7  -4   11.10    1.80
   4   7  -4    9.80    1.70
   4   7  -4   10.20    1.60
  -4  -7   4   11.10    2.00
  -4  -7   4   11.40    1.70
  -4  -7   4    7.70    1.60
   3   7  -4    2.50    1.10
   3   7  -4    5.00    1.20
  -3  -7   4    3.10    1.20
  -3  -7   4    3.60    1.20
  -3  -7   4    5.70    1.60
   2   7  -4   59.19    2.60
   2   7  -4   61.29    3.50
   2   7  -4   60.99    3.00
  -2  -7   4   58.79    3.20
  -2  -7   4   61.99    3.40
  -2  -7   4   61.09    3.20
   1   7  -4   40.00    2.10
   1   7  -4   37.70    2.30
   1   7  -4   37.90    2.70
  -1  -7   4   39.90    2.50
  -1  -7   4   39.40    1.90
  -1  -7   4   37.30    2.60
  -1  -7   4   40.70    2.60
   0   7  -4    2.90    1.00
   0   7  -4    4.30    1.00
   0   7  -4    5.00    1.20
   0   7  -4    3.90    1.30
   0  -7   4    3.30    1.10
   0  -7   4    4.50    1.30
   0  -7   4    3.20    0.80
   0  -7   4    5.40    1.20
  -1   7  -4   73.39    3.40
  -1   7  -4   69.59    3.50
  -1   7  -4   74.89    3.30
  -1   7  -4   76.69    4.00
   1  -7   4   78.79    3.10
   1  -7   4   73.49    3.50
   1  -7   4   80.69    3.70
  -2   7  -4   -0.40    0.90
  -2   7  -4    1.30    0.80
  -2   7  -4    0.00    1.10
  -2   7  -4    1.10    1.10
   2  -7   4    1.10    0.90
   2  -7   4    0.50    1.00
   2  -7   4    1.00    0.80
  -3   7  -4   -0.70    0.80
  -3   7  -4    0.80    1.10
  -3   7  -4    2.10    1.10
  -3   7  -4   -0.10    1.30
   3  -7   4   -0.40    0.70
   3  -7   4   -0.70    0.90
  -4   7  -4    9.50    1.80
  -4   7  -4    7.60    1.40
  -4   7  -4    6.10    1.60
   4  -7   4    7.40    1.30
   4  -7   4    6.30    1.50
   4  -7   4    7.00    1.20
   4  -7   4    7.10    1.50
  -5   7  -4   12.40    1.70
  -5   7  -4    8.60    2.00
  -5   7  -4   10.10    1.90
   5  -7   4    9.20    1.70
   5  -7   4    8.70    1.50
   5  -7   4    9.60    1.40
   5  -7   4    9.90    1.90
  -6   7  -4   24.60    3.00
  -6   7  -4   29.80    3.10
   6  -7   4   29.40    2.80
   6  -7   4   30.20    3.00
   6  -7   4   33.40    2.90
  -7   7  -4   16.70    2.50
  -7   7  -4   12.80    2.30
  -7   7  -4   12.80    2.30
   7  -7   4   14.20    2.20
   7  -7   4   10.50    2.10
   9   6  -4   -0.90    1.60
  -9  -6   4    2.60    1.60
  -9  -6   4    1.60    1.30
   8   6  -4    7.20    2.10
  -8  -6   4    8.00    2.00
  -8  -6   4    6.70    1.80
   7   6  -4    6.20    1.40
   7   6  -4    5.40    1.70
  -7  -6   4   10.40    2.10
  -7  -6   4    9.00    1.90
   6   6  -4    2.40    1.40
   6   6  -4    0.10    0.80
   6   6  -4    1.90    1.00
  -6  -6   4    3.20    1.20
  -6  -6   4    0.20    1.20
  -6  -6   4    1.30    1.30
   5   6  -4    3.30    1.30
   5   6  -4    1.70    1.00
   5   6  -4    1.40    1.00
  -5  -6   4    2.20    1.20
  -5  -6   4    3.30    1.50
  -5  -6   4    3.10    1.30
   4   6  -4    8.60    1.40
   4   6  -4    8.20    1.00
   4   6  -4    8.00    1.50
  -4  -6   4   10.50    1.80
  -4  -6   4    6.20    1.60
  -4  -6   4    7.80    1.40
   3   6  -4    0.30    1.00
   3   6  -4   -0.20    0.70
   3   6  -4    1.50    0.50
   3   6  -4    0.60    0.90
  -3  -6   4    0.50    1.10
  -3  -6   4    1.00    0.80
  -3  -6   4    0.80    0.90
  -3  -6   4    2.50    1.00
   2   6  -4   31.40    2.20
   2   6  -4   30.60    1.50
   2   6  -4   29.00    1.90
  -2  -6   4   31.50    2.10
  -2  -6   4   29.10    2.30
  -2  -6   4   30.40    2.10
   1   6  -4    7.10    1.10
   1   6  -4    5.20    0.80
   1   6  -4    4.60    1.20
  -1  -6   4    4.50    1.20
  -1  -6   4    3.50    1.00
  -1  -6   4    4.60    1.10
   0   6  -4   18.00    1.90
   0   6  -4   18.30    1.50
   0   6  -4   20.80    1.70
   0  -6   4   19.10    1.70
   0  -6   4   18.90    1.30
   0  -6   4   18.60    1.80
   0  -6   4   19.30    1.80
  -1   6  -4   76.79    3.10
  -1   6  -4   73.49    3.40
  -1   6  -4   78.99    3.80
  -1   6  -4   79.09    3.30
  -1   6  -4   79.39    3.30
   1  -6   4   80.19    3.50
   1  -6   4   74.59    3.40
   1  -6   4   75.59    3.00
  -2   6  -4    4.20    1.10
  -2   6  -4    4.50    1.00
  -2   6  -4    2.10    1.20
  -2   6  -4    3.80    1.10
   2  -6   4    2.70    0.90
   2  -6   4    4.60    1.20
   2  -6   4    3.70    1.10
  -3   6  -4   28.50    2.20
  -3   6  -4   25.90    2.40
  -3   6  -4   27.80    2.00
   3  -6   4   25.00    2.20
   3  -6   4   27.50    2.30
   3  -6   4   27.90    1.90
   3  -6   4   26.80    1.90
  -4   6  -4    6.00    1.40
  -4   6  -4    6.60    1.60
  -4   6  -4    8.00    1.40
   4  -6   4    7.00    1.30
   4  -6   4    7.00    1.20
   4  -6   4    7.10    1.50
   4  -6   4    6.30    1.30
  -5   6  -4    1.30    1.10
  -5   6  -4    1.40    1.30
  -5   6  -4    1.20    1.30
   5  -6   4    1.30    1.10
   5  -6   4    4.20    1.20
   5  -6   4    1.40    0.90
   5  -6   4    2.00    1.10
  -6   6  -4   -0.20    1.10
  -6   6  -4    0.10    1.20
  -6   6  -4    0.50    1.40
   6  -6   4   -0.90    1.10
   6  -6   4    1.20    0.90
   6  -6   4   -1.20    1.10
  -7   6  -4   -0.50    1.40
  -7   6  -4   -0.40    1.40
  -7   6  -4   -0.70    1.20
   7  -6   4   -1.20    1.10
   7  -6   4    0.40    1.30
  -8   6  -4   -1.00    1.40
  -8   6  -4    0.40    1.60
   8  -6   4    3.00    1.40
   8  -6   4    1.50    1.40
  10   5  -4    4.50    2.20
 -10  -5   4    4.00    1.80
   9   5  -4    2.60    1.70
  -9  -5   4    1.20    1.50
  -9  -5   4    4.30    1.50
   8   5  -4    1.30    1.40
  -8  -5   4    0.90    1.20
  -8  -5   4    1.30    1.40
   7   5  -4    1.70    1.20
   7   5  -4    0.50    0.80
   7   5  -4    1.40    1.00
  -7  -5   4    3.60    1.40
  -7  -5   4    2.50    1.30
  -7  -5   4    3.90    1.40
   6   5  -4    7.90    1.30
   6   5  -4    8.70    1.50
   6   5  -4   10.60    1.70
  -6  -5   4    6.60    1.50
  -6  -5   4    9.60    1.80
  -6  -5   4    9.40    1.80
   5   5  -4   -0.60    0.70
   5   5  -4    0.40    0.80
   5   5  -4    0.00    0.60
  -5  -5   4    0.40    0.90
  -5  -5   4    0.60    1.10
  -5  -5   4    0.20    1.10
   4   5  -4  198.68    6.80
   4   5  -4  212.78    6.00
   4   5  -4  207.38    6.80
  -4  -5   4  202.18    6.80
  -4  -5   4  210.48    7.30
  -4  -5   4  210.48    7.20
   3   5  -4    0.70    0.80
   3   5  -4    0.90    0.80
   3   5  -4    1.10    0.80
   3   5  -4    0.60    0.40
  -3  -5   4    0.30    1.00
  -3  -5   4    0.00    0.80
  -3  -5   4    1.20    1.10
   2   5  -4  194.78    5.30
   2   5  -4  178.78    6.00
   2   5  -4  189.58    6.30
  -2  -5   4  175.88    6.30
  -2  -5   4  194.48    6.10
  -2  -5   4  184.98    6.20
  -2  -5   4  187.28    6.10
   1   5  -4  133.29    4.90
   1   5  -4  128.59    4.50
   1   5  -4  137.39    4.10
  -1  -5   4  132.69    4.90
  -1  -5   4  133.49    4.60
  -1  -5   4  131.09    4.70
  -1  -5   4  130.29    4.60
   0   5  -4   11.80    1.30
   0   5  -4    7.70    1.00
   0   5  -4    8.90    1.10
   0   5  -4    8.90    1.40
   0  -5   4    6.50    1.10
   0  -5   4    8.40    1.00
   0  -5   4    7.60    1.10
   0  -5   4   10.00    1.50
  -1   5  -4    5.80    0.90
  -1   5  -4    4.40    1.00
  -1   5  -4    4.20    0.90
  -1   5  -4    4.10    1.00
  -1   5  -4    5.40    1.30
   1  -5   4    4.40    1.00
   1  -5   4    5.50    1.00
   1  -5   4    4.10    1.00
  -2   5  -4    0.70    0.30
  -2   5  -4    0.50    0.70
  -2   5  -4    1.80    0.50
  -2   5  -4    0.70    0.80
  -2   5  -4    1.40    0.80
   2  -5   4    1.70    0.80
   2  -5   4    0.70    0.70
   2  -5   4    1.80    0.80
  -3   5  -4   83.79    3.80
  -3   5  -4   85.89    2.90
  -3   5  -4   88.29    3.70
  -3   5  -4   79.59    3.40
   3  -5   4   86.99    3.30
   3  -5   4   88.99    3.60
   3  -5   4   82.29    3.60
   3  -5   4   86.69    3.50
  -4   5  -4   32.50    2.10
  -4   5  -4   30.30    2.30
  -4   5  -4   30.40    2.60
  -4   5  -4   30.80    1.70
   4  -5   4   31.20    2.20
   4  -5   4   33.20    2.00
   4  -5   4   26.90    2.10
   4  -5   4   29.90    2.20
  -5   5  -4    5.70    1.10
  -5   5  -4    6.20    1.60
  -5   5  -4    7.90    1.50
  -5   5  -4    6.90    1.40
   5  -5   4    7.50    1.30
   5  -5   4    7.30    1.40
   5  -5   4    9.60    1.60
   5  -5   4    8.30    1.40
  -6   5  -4   -1.00    1.20
  -6   5  -4   -0.60    1.00
  -6   5  -4   -0.10    0.80
  -6   5  -4   -1.90    0.80
   6  -5   4   -1.40    1.00
   6  -5   4    0.60    0.80
   6  -5   4   -0.10    1.00
  -7   5  -4   -1.40    1.10
  -7   5  -4   -1.10    1.10
   7  -5   4   -0.40    1.10
   7  -5   4   -0.10    1.10
   7  -5   4   -1.00    0.80
  -8   5  -4    3.20    1.70
  -8   5  -4    3.20    1.80
   8  -5   4    0.50    1.40
   8  -5   4   -0.60    1.30
  10   4  -4   12.80    2.70
 -10  -4   4    5.60    2.00
 -10  -4   4    8.30    2.20
   9   4  -4    0.80    1.60
  -9  -4   4    1.80    1.30
  -9  -4   4   -1.80    1.20
  -9  -4   4    0.30    1.30
   8   4  -4    0.90    1.00
   8   4  -4    1.70    1.30
  -8  -4   4    0.30    1.10
  -8  -4   4    0.80    1.20
  -8  -4   4    0.40    1.20
  -8  -4   4    1.10    1.30
   7   4  -4    1.60    0.70
   7   4  -4    1.70    1.20
   7   4  -4    0.40    0.90
  -7  -4   4    2.10    1.20
  -7  -4   4    0.00    1.20
  -7  -4   4    1.80    1.10
  -7  -4   4    3.50    1.30
   6   4  -4   10.10    1.60
   6   4  -4   10.00    1.20
   6   4  -4   10.30    1.50
  -6  -4   4   13.80    1.70
  -6  -4   4   11.00    1.80
  -6  -4   4    9.80    1.50
  -6  -4   4   14.20    1.90
   5   4  -4  229.48    7.20
   5   4  -4  227.18    6.90
   5   4  -4  217.98    7.20
  -5  -4   4  222.38    7.70
  -5  -4   4  217.68    7.50
  -5  -4   4  223.78    7.20
   4   4  -4   91.29    3.40
   4   4  -4   82.19    3.50
  -4  -4   4   90.39    3.60
  -4  -4   4   89.29    3.90
  -4  -4   4   94.69    4.10
   3   4  -4  172.88    5.70
   3   4  -4  177.08    4.80
   3   4  -4  171.08    5.60
   3   4  -4  185.58    4.80
   3   4  -4  177.38    5.70
  -3  -4   4  175.48    5.70
  -3  -4   4  163.28    5.90
  -3  -4   4  173.28    6.00
   2   4  -4   21.50    1.60
   2   4  -4   20.80    1.40
   2   4  -4   18.40    1.40
   2   4  -4   19.30    0.80
  -2  -4   4   20.20    1.70
  -2  -4   4   18.90    1.40
  -2  -4   4   17.60    1.70
  -2  -4   4   18.60    1.40
   1   4  -4   28.10    1.30
   1   4  -4   29.80    1.90
   1   4  -4   32.60    1.90
   1   4  -4   28.30    1.70
  -1  -4   4   28.90    1.70
  -1  -4   4   29.40    0.90
  -1  -4   4   28.60    1.90
  -1  -4   4   26.00    1.70
  -1  -4   4   26.90    1.70
   0   4  -4   11.20    0.70
   0   4  -4   10.50    1.20
   0   4  -4   13.40    1.30
   0   4  -4   11.10    1.40
   0   4  -4   11.80    1.00
   0  -4   4   10.90    1.00
   0  -4   4   12.50    1.40
   0  -4   4   11.80    1.20
   0  -4   4   11.40    1.20
  -1   4  -4   30.30    1.80
  -1   4  -4   30.80    1.80
  -1   4  -4   28.30    1.10
  -1   4  -4   29.90    1.40
  -1   4  -4   25.90    2.00
  -1   4  -4   26.70    1.70
   1  -4   4   26.40    1.70
   1  -4   4   28.70    1.80
   1  -4   4   30.00    1.60
  -2   4  -4   27.70    1.80
  -2   4  -4   26.00    1.70
  -2   4  -4   26.00    1.30
  -2   4  -4   23.50    1.90
   2  -4   4   26.20    1.80
   2  -4   4   25.40    1.50
   2  -4   4   23.90    1.60
  -3   4  -4  266.67    7.50
  -3   4  -4  259.97    8.00
  -3   4  -4  247.78    8.20
  -3   4  -4  264.47    8.00
   3  -4   4  263.67    7.40
   3  -4   4  244.88    7.80
   3  -4   4  264.37    8.00
   3  -4   4  253.57    7.90
  -4   4  -4   23.60    1.90
  -4   4  -4   20.60    2.10
  -4   4  -4   27.40    1.60
  -4   4  -4   27.70    2.00
   4  -4   4   29.60    2.10
   4  -4   4   26.20    1.90
   4  -4   4   25.00    1.80
   4  -4   4   26.70    2.00
  -5   4  -4    1.70    1.00
  -5   4  -4    2.00    0.80
  -5   4  -4    0.60    0.90
  -5   4  -4   -0.50    1.00
   5  -4   4    0.10    0.80
   5  -4   4    1.30    0.90
   5  -4   4    1.60    1.00
  -6   4  -4    0.70    0.80
  -6   4  -4    2.20    1.20
  -6   4  -4    0.00    1.00
   6  -4   4    1.70    0.90
   6  -4   4   -1.00    1.00
   6  -4   4   -1.10    0.90
  -7   4  -4   13.20    1.80
  -7   4  -4   15.00    2.10
  -7   4  -4   11.10    1.90
   7  -4   4   14.00    1.80
   7  -4   4   13.30    1.90
   7  -4   4   10.90    1.90
  -8   4  -4    6.70    1.60
  -8   4  -4   11.00    2.00
  -8   4  -4   12.30    2.20
   8  -4   4    9.60    2.00
   8  -4   4    9.20    2.00
  11   3  -4    3.50    1.80
 -11  -3   4    3.80    2.00
 -11  -3   4    2.70    1.80
  10   3  -4    0.10    1.40
 -10  -3   4    0.70    1.40
 -10  -3   4    0.30    1.40
   9   3  -4    2.20    1.30
   9   3  -4    2.80    1.30
  -9  -3   4    3.60    1.50
  -9  -3   4    6.10    1.70
  -9  -3   4    4.90    1.60
   8   3  -4   13.50    2.00
   8   3  -4   11.90    1.70
  -8  -3   4   16.30    2.10
  -8  -3   4    9.70    1.90
  -8  -3   4   15.00    2.00
  -8  -3   4   12.60    1.90
   7   3  -4    4.40    1.20
   7   3  -4    4.40    0.80
   7   3  -4    3.10    1.00
  -7  -3   4    2.90    1.10
  -7  -3   4    5.30    1.50
  -7  -3   4    1.70    1.10
  -7  -3   4    4.00    1.60
   6   3  -4    6.40    1.30
   6   3  -4    5.50    0.80
   6   3  -4    6.70    1.20
  -6  -3   4    4.40    1.20
  -6  -3   4    5.50    1.50
  -6  -3   4    6.00    1.50
  -6  -3   4    6.40    1.30
   5   3  -4  187.68    6.30
   5   3  -4  195.68    5.90
   5   3  -4  189.58    6.20
  -5  -3   4  193.18    6.30
  -5  -3   4  194.38    6.30
  -5  -3   4  199.88    6.70
  -5  -3   4  191.48    6.70
   4   3  -4   18.00    1.30
   4   3  -4   18.90    1.40
   4   3  -4   15.70    1.30
  -4  -3   4   19.20    1.70
  -4  -3   4   19.00    2.00
  -4  -3   4   18.60    1.50
   3   3  -4   25.60    1.50
   3   3  -4   26.80    1.50
   3   3  -4   29.70    1.60
  -3  -3   4   25.40    1.90
  -3  -3   4   27.00    1.60
  -3  -3   4   24.00    1.80
   2   3  -4   24.40    1.50
   2   3  -4   26.70    1.80
   2   3  -4   25.10    1.50
   2   3  -4   26.10    1.50
  -2  -3   4   26.20    1.80
  -2  -3   4   27.10    1.50
  -2  -3   4   25.40    1.70
   1   3  -4  126.09    3.50
   1   3  -4  125.29    4.20
   1   3  -4  128.79    4.20
   1   3  -4  117.39    4.10
  -1  -3   4  122.99    4.00
  -1  -3   4  121.39    4.30
  -1  -3   4  122.69    4.00
  -1  -3   4  126.39    4.00
  -1  -3   4  126.39    3.50
   0   3  -4    0.20    0.30
   0   3  -4   -0.20    0.70
   0   3  -4    0.10    0.50
   0   3  -4    0.30    0.40
   0   3  -4   -0.10    0.50
   0   3  -4   -0.10    0.30
   0   3  -4   -0.20    0.50
   0  -3   4   -0.20    0.50
   0  -3   4    0.30    0.50
   0  -3   4   -0.10    0.60
   0  -3   4    0.80    0.50
  -1   3  -4   23.50    1.40
  -1   3  -4   24.80    1.20
  -1   3  -4   24.00    1.00
  -1   3  -4   23.70    1.50
  -1   3  -4   26.40    1.60
   1  -3   4   23.70    1.40
   1  -3   4   23.00    1.40
   1  -3   4   24.00    1.50
  -2   3  -4  173.38    5.30
  -2   3  -4  161.18    5.30
  -2   3  -4  168.98    5.00
  -2   3  -4  167.08    5.50
   2  -3   4  168.18    5.00
   2  -3   4  162.38    5.20
   2  -3   4  160.38    5.10
  -3   3  -4  201.48    6.00
  -3   3  -4  200.88    6.30
  -3   3  -4  195.38    6.20
  -3   3  -4  186.18    6.50
   3  -3   4  187.68    6.00
   3  -3   4  198.58    5.50
   3  -3   4  193.98    6.20
   3  -3   4  202.48    6.30
   3  -3   4  189.28    6.20
  -4   3  -4   -0.70    0.60
  -4   3  -4   -0.10    0.70
  -4   3  -4    0.30    0.60
  -4   3  -4   -0.30    0.70
   4  -3   4    0.70    0.80
   4  -3   4    0.20    0.80
   4  -3   4   -0.30    0.60
   4  -3   4    0.70    0.80
  -5   3  -4    2.50    0.90
  -5   3  -4    1.90    1.00
  -5   3  -4    1.70    1.00
   5  -3   4    5.60    1.20
   5  -3   4    2.90    1.00
   5  -3   4    4.00    1.10
  -6   3  -4    0.50    1.00
  -6   3  -4    0.20    1.00
  -6   3  -4    1.40    0.90
   6  -3   4    0.40    0.80
   6  -3   4   -0.30    0.90
   6  -3   4   -0.20    1.00
  -7   3  -4    1.50    1.20
  -7   3  -4   -0.40    1.10
  -7   3  -4   -0.60    0.90
   7  -3   4    0.60    1.30
   7  -3   4    0.90    1.00
   7  -3   4   -0.20    1.10
  -8   3  -4   -1.30    1.20
  -8   3  -4    0.50    1.00
   8  -3   4   -0.80    1.20
   8  -3   4    0.60    1.50
   8  -3   4    0.30    1.40
  11   2  -4    2.50    1.70
 -11  -2   4   -1.10    1.50
 -11  -2   4    4.30    2.00
  10   2  -4    3.30    1.70
 -10  -2   4    2.80    1.70
 -10  -2   4    3.30    1.70
   9   2  -4   11.60    2.00
   9   2  -4    8.90    1.50
  -9  -2   4   11.00    1.90
  -9  -2   4    8.60    1.80
  -9  -2   4    9.60    1.90
  -9  -2   4   12.00    2.00
   8   2  -4   -0.30    0.70
   8   2  -4    1.30    1.10
  -8  -2   4   -1.30    1.00
  -8  -2   4   -0.50    1.20
  -8  -2   4   -0.10    0.90
  -8  -2   4   -1.30    1.10
   7   2  -4   12.20    1.50
   7   2  -4   13.80    1.10
   7   2  -4   12.00    1.70
  -7  -2   4   15.50    1.80
  -7  -2   4   18.10    1.90
  -7  -2   4   14.60    2.10
  -7  -2   4   13.00    1.80
   6   2  -4   -0.70    0.80
   6   2  -4    0.30    0.40
   6   2  -4    0.10    0.60
  -6  -2   4    1.80    0.90
  -6  -2   4    0.30    1.20
  -6  -2   4   -0.10    0.90
  -6  -2   4    0.20    1.00
   5   2  -4    2.50    0.50
   5   2  -4    1.90    0.70
   5   2  -4    3.50    1.00
  -5  -2   4    3.10    1.20
  -5  -2   4    2.00    0.80
  -5  -2   4    1.50    0.80
  -5  -2   4    1.80    1.10
   4   2  -4  129.49    3.90
   4   2  -4  131.79    4.40
   4   2  -4  143.99    3.90
  -4  -2   4  129.89    4.40
  -4  -2   4  128.09    4.30
  -4  -2   4  125.59    4.70
  -4  -2   4  127.89    4.80
   3   2  -4  170.38    5.10
   3   2  -4  173.48    5.60
   3   2  -4  164.78    4.90
   3   2  -4  167.58    5.10
  -3  -2   4  171.18    5.30
  -3  -2   4  157.28    5.00
  -3  -2   4  157.28    5.40
   2   2  -4    5.70    0.70
   2   2  -4    5.70    0.80
   2   2  -4    6.30    0.80
   2   2  -4    6.90    1.00
  -2  -2   4    4.60    0.70
  -2  -2   4    4.90    0.90
  -2  -2   4    6.90    0.80
  -2  -2   4    6.10    1.00
   1   2  -4  273.07    7.80
   1   2  -4  275.27    7.50
   1   2  -4  277.17    7.80
  -1  -2   4  280.87    7.20
  -1  -2   4  272.87    7.80
  -1  -2   4  270.07    7.60
  -1  -2   4  263.17    7.90
  -1  -2   4  270.47    7.60
   0   2  -4  166.68    4.50
   0   2  -4  153.98    4.90
   0   2  -4  159.58    4.60
   0   2  -4  163.58    4.70
   0   2  -4  159.48    4.60
   0  -2   4  153.38    4.90
   0  -2   4  164.38    4.80
   0  -2   4  160.28    4.70
  -1   2  -4  117.49    3.70
  -1   2  -4  111.39    3.90
  -1   2  -4  118.19    3.70
   1  -2   4  114.59    3.70
   1  -2   4  117.49    3.70
   1  -2   4  116.09    3.20
   1  -2   4  116.19    3.90
  -2   2  -4  553.64   14.60
  -2   2  -4  526.65   14.80
  -2   2  -4  556.24   14.60
   2  -2   4  549.15   14.20
   2  -2   4  530.65   14.40
   2  -2   4  522.75   14.70
   2  -2   4  533.05   14.50
  -3   2  -4   26.40    1.60
  -3   2  -4   33.00    1.90
  -3   2  -4   27.20    1.70
   3  -2   4   25.30    1.60
   3  -2   4   29.60    1.90
   3  -2   4   28.50    1.80
   3  -2   4   24.50    1.60
  -4   2  -4   10.00    1.30
  -4   2  -4    8.40    1.20
  -4   2  -4    8.40    1.20
   4  -2   4    8.90    1.30
   4  -2   4    9.00    1.20
   4  -2   4    7.70    1.20
  -5   2  -4   25.90    2.00
  -5   2  -4   28.50    2.00
  -5   2  -4   29.30    2.00
   5  -2   4   29.50    2.00
   5  -2   4   29.70    2.20
   5  -2   4   33.10    2.10
  -6   2  -4    3.10    1.10
  -6   2  -4    3.90    1.20
  -6   2  -4    3.50    1.10
   6  -2   4    3.80    1.10
   6  -2   4    2.90    1.20
   6  -2   4    4.70    1.30
  -7   2  -4    4.10    1.40
  -7   2  -4    1.50    1.10
   7  -2   4    2.70    1.30
   7  -2   4    2.00    1.20
   7  -2   4    1.20    1.20
   7  -2   4    0.80    1.30
  -8   2  -4    1.50    1.30
  -8   2  -4    2.10    1.20
   8  -2   4    5.30    1.80
   8  -2   4    2.50    1.30
   8  -2   4    2.70    1.40
  -9   2  -4   -0.40    1.10
  -9   2  -4    3.20    1.60
   9  -2   4    0.20    1.50
   9  -2   4    0.70    1.40
   9  -2   4   -0.50    1.20
  11   1  -4    6.20    1.90
  11   1  -4    7.70    1.90
 -11  -1   4    4.00    1.90
 -11  -1   4    3.10    2.00
  10   1  -4    2.50    1.50
  10   1  -4    6.10    1.60
  10   1  -4    4.10    1.20
 -10  -1   4    5.20    1.70
 -10  -1   4    7.80    2.00
   9   1  -4   14.40    2.10
   9   1  -4   15.30    2.00
   9   1  -4   12.30    1.60
  -9  -1   4   10.10    1.90
  -9  -1   4   11.60    2.10
  -9  -1   4   14.30    2.10
  -9  -1   4   12.80    2.00
   8   1  -4   18.50    1.80
   8   1  -4   15.30    1.80
   8   1  -4   20.00    2.30
  -8  -1   4   17.20    2.30
  -8  -1   4   19.00    2.20
  -8  -1   4   16.40    1.90
  -8  -1   4   20.90    2.30
   7   1  -4   73.09    3.00
   7   1  -4   80.89    3.20
   7   1  -4   78.09    3.30
   7   1  -4   72.69    3.40
  -7  -1   4   77.49    3.50
  -7  -1   4   77.19    3.40
  -7  -1   4   75.99    4.00
  -7  -1   4   76.89    3.60
   6   1  -4    7.30    1.00
   6   1  -4    8.20    0.60
   6   1  -4    9.80    1.50
  -6  -1   4    8.70    1.20
  -6  -1   4   11.10    1.40
  -6  -1   4    9.10    1.70
  -6  -1   4    7.40    1.40
   5   1  -4  187.68    5.10
   5   1  -4  192.38    6.00
   5   1  -4  183.78    5.70
  -5  -1   4  195.68    6.30
  -5  -1   4  185.98    5.90
  -5  -1   4  191.78    6.50
  -5  -1   4  193.38    5.70
  -5  -1   4  182.68    5.90
   4   1  -4  434.16   11.90
   4   1  -4  437.96   11.30
  -4  -1   4  437.36   11.50
  -4  -1   4  423.36   11.90
  -4  -1   4  420.56   12.50
  -4  -1   4  434.26   12.40
  -4  -1   4  442.96   11.90
  -4  -1   4  429.86   11.90
  -4  -1   4  444.66   11.30
   3   1  -4  126.19    4.40
   3   1  -4  130.69    4.10
   3   1  -4  126.69    4.00
  -3  -1   4  129.39    4.00
  -3  -1   4  131.19    4.00
  -3  -1   4  128.59    4.60
  -3  -1   4  143.89    3.90
  -3  -1   4  124.59    4.50
  -3  -1   4  127.09    3.60
   2   1  -4  789.72   20.80
   2   1  -4  800.62   20.60
   2   1  -4  820.22   21.00
   2   1  -4  764.22   20.70
  -2  -1   4  794.52   20.60
  -2  -1   4  803.12   20.10
  -2  -1   4  762.72   21.00
  -2  -1   4  788.62   21.10
   1   1  -4  197.18    5.70
   1   1  -4  196.78    5.80
   1   1  -4  201.08    5.70
   1   1  -4  203.58    5.70
  -1  -1   4  192.98    5.50
  -1  -1   4  202.08    5.40
  -1  -1   4  192.18    5.80
  -1  -1   4  196.98    5.90
  -1  -1   4  194.18    5.50
   0   1  -4   15.20    0.80
   0   1  -4   16.20    0.90
   0   1  -4   15.10    1.00
   0   1  -4   16.70    1.10
   0  -1   4   15.30    0.90
   0  -1   4   16.00    1.10
   0  -1   4   17.10    1.10
  -1   1  -4  168.78    5.20
  -1   1  -4  172.18    4.90
  -1   1  -4  172.48    5.20
   1  -1   4  173.38    4.70
   1  -1   4  167.08    4.90
   1  -1   4  167.48    5.20
   1  -1   4  169.28    4.80
   1  -1   4  169.08    4.90
  -2   1  -4   27.30    1.70
  -2   1  -4   31.90    1.50
  -2   1  -4   30.00    1.50
  -2   1  -4   26.20    1.60
   2  -1   4   30.70    1.20
   2  -1   4   31.20    1.00
   2  -1   4   29.10    1.70
   2  -1   4   29.30    1.40
   2  -1   4   29.70    1.70
   2  -1   4   31.50    1.00
  -3   1  -4   69.79    2.90
  -3   1  -4   71.59    2.70
  -3   1  -4   67.09    2.90
  -3   1  -4   65.79    2.60
   3  -1   4   72.69    3.00
   3  -1   4   70.39    2.70
   3  -1   4   67.69    2.90
  -4   1  -4  243.08    7.30
  -4   1  -4  242.98    7.30
  -4   1  -4  237.58    7.60
   4  -1   4  240.18    7.60
   4  -1   4  245.08    7.30
   4  -1   4  244.78    7.60
  -5   1  -4    8.70    1.40
  -5   1  -4    8.70    1.30
  -5   1  -4    8.20    1.30
   5  -1   4   10.70    1.30
   5  -1   4   10.90    1.50
   5  -1   4   10.90    1.50
  -6   1  -4    0.00    0.90
  -6   1  -4   -0.70    0.80
   6  -1   4    0.50    0.80
   6  -1   4   -0.70    0.90
   6  -1   4   -0.60    0.90
   6  -1   4   -0.30    0.80
  -7   1  -4    0.80    1.00
  -7   1  -4    0.50    1.00
   7  -1   4   -0.20    1.10
   7  -1   4    0.40    1.20
   7  -1   4   -1.50    0.90
  -8   1  -4    1.10    1.30
  -8   1  -4    0.40    1.10
   8  -1   4    4.30    1.60
   8  -1   4    4.40    1.70
   8  -1   4    2.80    1.50
  11   0  -4   -0.40    1.10
  11   0  -4    1.30    1.50
  11   0  -4   -0.90    1.50
 -11   0   4    3.10    1.80
 -11   0   4    0.00    1.60
  10   0  -4   19.70    2.00
  10   0  -4   22.40    2.50
  10   0  -4   22.30    2.80
  10   0  -4   21.10    2.50
 -10   0   4   18.10    2.50
 -10   0   4   21.50    2.90
 -10   0   4   22.40    2.80
   9   0  -4    2.70    1.20
   9   0  -4    2.20    0.80
   9   0  -4    2.90    1.40
   9   0  -4    2.50    1.20
  -9   0   4    1.90    1.30
  -9   0   4    1.80    1.20
  -9   0   4    1.70    1.60
   8   0  -4    4.70    1.20
   8   0  -4    4.30    0.90
   8   0  -4    4.40    1.30
   8   0  -4    4.00    1.10
  -8   0   4    4.40    1.40
  -8   0   4    4.50    1.20
  -8   0   4    4.40    1.30
  -8   0   4    4.40    1.60
   7   0  -4    4.20    1.10
   7   0  -4    4.50    1.10
   7   0  -4    4.60    1.10
   7   0  -4    3.70    0.80
  -7   0   4    3.60    1.60
  -7   0   4    3.70    1.10
  -7   0   4    5.00    1.40
  -7   0   4    3.40    1.00
   6   0  -4   97.29    3.80
   6   0  -4   96.19    3.70
   6   0  -4   95.59    3.60
   6   0  -4   97.39    3.40
  -6   0   4   98.09    3.70
  -6   0   4   99.29    3.80
  -6   0   4   94.59    4.30
  -6   0   4   95.89    4.00
   5   0  -4  203.08    6.30
   5   0  -4  231.38    6.70
  -5   0   4  217.18    7.00
  -5   0   4  215.08    7.20
  -5   0   4  222.88    6.60
  -5   0   4  226.38    6.40
   4   0  -4 1567.74   40.70
   4   0  -4 1596.94   40.30
   4   0  -4 1559.34   40.40
  -4   0   4 1601.34   40.30
  -4   0   4 1549.74   40.20
  -4   0   4 1589.34   40.40
  -4   0   4 1554.04   40.30
  -4   0   4 1531.65   40.90
  -4   0   4 1517.75   41.00
   3   0  -4  468.55   13.10
   3   0  -4  475.75   12.70
   3   0  -4  488.65   12.80
   3   0  -4  496.05   13.30
  -3   0   4  500.65   12.40
  -3   0   4  482.85   12.70
  -3   0   4  496.45   12.80
  -3   0   4  458.35   13.30
  -3   0   4  461.45   13.30
  -3   0   4  476.95   12.70
  -3   0   4  468.85   12.60
   2   0  -4   93.09    2.90
   2   0  -4   89.49    3.20
   2   0  -4   90.39    2.70
   2   0  -4   89.59    3.10
  -2   0   4   91.09    3.30
  -2   0   4   91.29    2.70
  -2   0   4   89.69    3.30
  -2   0   4   92.09    2.80
   1   0  -4  187.18    4.90
   1   0  -4  193.78    5.60
   1   0  -4  183.88    5.50
   1   0  -4  184.88    5.40
   1   0  -4  179.98    5.40
   1   0  -4  187.88    4.90
  -1   0   4  182.28    5.50
  -1   0   4  178.08    5.60
  -1   0   4  188.08    5.00
  -1   0   4  183.48    4.90
  -1   0   4  188.58    4.90
   0   0  -4  225.58    5.80
   0   0  -4  218.18    5.70
   0   0  -4  216.88    6.20
   0   0  -4  204.98    6.30
   0   0  -4  221.68    6.20
   0   0   4  217.58    6.30
   0   0   4  223.58    5.80
   0   0   4  211.28    5.70
   0   0   4  213.08    5.80
   0   0   4  213.18    6.20
  -1   0  -4    5.00    0.80
  -1   0  -4    4.30    0.80
  -1   0  -4    5.10    0.50
  -1   0  -4    3.90    0.50
   1   0   4    4.20    0.60
   1   0   4    3.80    0.70
   1   0   4    4.00    0.50
   1   0   4    3.50    0.70
   1   0   4    3.20    0.70
  -2   0  -4   12.90    0.90
  -2   0  -4   11.30    1.20
  -2   0  -4   14.00    1.40
  -2   0  -4   11.80    0.90
   2   0   4   12.40    0.80
   2   0   4   11.50    1.20
   2   0   4   11.70    1.20
   2   0   4   13.00    0.90
   2   0   4   12.20    0.80
  -3   0  -4   20.50    1.30
  -3   0  -4   17.50    1.20
  -3   0  -4   17.70    1.70
   3   0   4   18.60    1.20
   3   0   4   19.40    1.30
   3   0   4   18.60    1.60
   3   0   4   20.50    1.60
  -4   0  -4    1.40    0.70
  -4   0  -4    1.00    0.80
   4   0   4    0.80    0.80
   4   0   4   -0.30    0.80
   4   0   4    2.30    0.80
   4   0   4    1.60    0.70
  -5   0  -4   -0.80    0.60
  -5   0  -4   -0.30    0.70
   5   0   4   -1.00    0.60
   5   0   4    0.20    0.80
   5   0   4   -0.60    0.70
   5   0   4    0.10    0.80
  -6   0  -4   11.10    1.50
  -6   0  -4    8.40    1.50
   6   0   4   13.20    1.60
   6   0   4   13.50    1.80
   6   0   4   11.00    1.60
   6   0   4    7.60    1.40
  -7   0  -4    0.50    1.00
  -7   0  -4    1.10    1.00
   7   0   4    0.60    1.20
   7   0   4    0.30    1.00
   7   0   4    0.50    1.10
  -8   0  -4    1.80    1.30
  -8   0  -4    0.00    1.20
   8   0   4    0.50    1.30
   8   0   4    0.90    1.20
   8   0   4   -0.10    1.10
  12  -1  -4   -0.20    1.60
  12  -1  -4    3.10    1.70
  12  -1  -4    3.60    1.90
  12  -1  -4    6.90    2.30
 -12   1   4    1.90    2.00
 -12   1   4    5.60    2.10
  11  -1  -4   -2.10    1.50
  11  -1  -4   -2.00    1.10
  11  -1  -4    0.20    1.40
  11  -1  -4    2.00    1.70
 -11   1   4   -1.70    1.30
  10  -1  -4   11.00    2.00
  10  -1  -4   14.60    2.20
  10  -1  -4   13.10    2.00
  10  -1  -4   13.00    2.20
 -10   1   4   11.10    2.10
 -10   1   4   12.30    2.30
   9  -1  -4    9.70    1.70
   9  -1  -4   14.50    2.20
   9  -1  -4   13.20    1.40
   9  -1  -4   14.10    1.90
  -9   1   4   14.10    2.20
  -9   1   4   13.20    2.00
  -9   1   4   13.50    2.00
  -9   1   4   11.90    1.80
   8  -1  -4    0.00    0.90
   8  -1  -4    0.60    0.60
   8  -1  -4    0.50    0.80
   8  -1  -4    0.30    0.90
  -8   1   4    1.00    1.20
  -8   1   4    1.10    1.20
  -8   1   4   -0.30    0.90
  -8   1   4    1.80    1.40
   7  -1  -4    0.60    0.80
   7  -1  -4    1.40    0.90
   7  -1  -4    0.90    0.50
   7  -1  -4    0.10    0.70
   7  -1  -4    0.50    0.80
  -7   1   4   -0.10    0.90
  -7   1   4    1.60    1.40
  -7   1   4    0.70    0.80
  -7   1   4    0.20    1.00
   6  -1  -4   64.49    2.90
   6  -1  -4   61.79    2.70
   6  -1  -4   66.09    2.40
   6  -1  -4   64.49    3.00
   6  -1  -4   65.19    2.80
  -6   1   4   67.79    2.40
  -6   1   4   63.99    3.10
  -6   1   4   64.99    3.10
  -6   1   4   61.49    3.50
   5  -1  -4  305.97    9.20
   5  -1  -4  316.97    8.90
   5  -1  -4  313.27    8.80
   5  -1  -4  310.77    8.90
  -5   1   4  298.57    9.40
  -5   1   4  308.87    9.30
  -5   1   4  309.37    8.80
  -5   1   4  294.87    8.90
  -5   1   4  315.17    8.50
   4  -1  -4 1171.08   31.40
   4  -1  -4 1230.38   30.90
   4  -1  -4 1209.98   31.00
   4  -1  -4 1176.38   31.20
  -4   1   4 1196.88   31.10
  -4   1   4 1192.98   31.00
  -4   1   4 1217.18   31.60
  -4   1   4 1150.48   31.60
  -4   1   4 1201.48   30.80
   3  -1  -4  419.66   11.00
   3  -1  -4  401.86   11.40
   3  -1  -4  415.36   11.00
   3  -1  -4  423.16   11.60
   3  -1  -4  421.56   11.00
   3  -1  -4  406.86   11.50
  -3   1   4  422.06   11.00
  -3   1   4  415.26   11.00
  -3   1   4  410.56   11.20
  -3   1   4  401.76   11.70
  -3   1   4  413.56   10.80
   2  -1  -4   31.50    1.70
   2  -1  -4   33.30    1.30
   2  -1  -4   32.40    1.10
   2  -1  -4   31.40    1.60
   2  -1  -4   29.70    1.10
   2  -1  -4   31.00    1.10
  -2   1   4   31.60    1.10
  -2   1   4   30.70    1.10
  -2   1   4   30.90    1.80
  -2   1   4   30.80    1.10
  -2   1   4   30.50    1.40
   1  -1  -4  100.69    3.30
   1  -1  -4  100.19    3.40
   1  -1  -4   96.79    3.00
   1  -1  -4   93.49    3.30
  -1   1   4   92.99    3.30
   0  -1  -4  793.82   21.60
   0  -1  -4  835.32   21.80
   0  -1  -4  832.22   21.50
   0  -1  -4  840.62   21.70
   0   1   4  799.62   21.50
  -1  -1  -4  334.57    8.70
  -1  -1  -4  350.06    8.80
  -1  -1  -4  331.07    9.50
  -1  -1  -4  325.07    9.30
  -1  -1  -4  333.97    9.30
   1   1   4  329.57    8.70
   1   1   4  316.77    9.30
   1   1   4  325.57    9.20
   1   1   4  331.47    8.70
   1   1   4  337.67    8.70
  -2  -1  -4   69.79    2.30
  -2  -1  -4   66.59    2.90
  -2  -1  -4   71.19    2.60
   2   1   4   68.89    2.40
   2   1   4   70.89    2.70
   2   1   4   67.89    2.30
   2   1   4   72.29    2.90
  -3  -1  -4   91.39    3.00
  -3  -1  -4   87.29    3.00
  -3  -1  -4   82.19    3.50
   3   1   4   89.69    2.60
   3   1   4   86.19    3.30
   3   1   4   85.79    3.10
   3   1   4   81.29    3.40
   3   1   4   90.99    3.20
   3   1   4   85.19    3.00
  -4  -1  -4   36.60    2.40
  -4  -1  -4   37.40    1.90
   4   1   4   36.80    2.00
   4   1   4   36.10    2.00
   4   1   4   38.90    2.10
   4   1   4   37.30    2.30
  -5  -1  -4    9.60    1.50
  -5  -1  -4   10.70    1.40
   5   1   4    8.80    1.30
   5   1   4    8.50    1.40
   5   1   4   11.40    1.40
   5   1   4    9.20    1.40
  -6  -1  -4    2.30    1.20
  -6  -1  -4    4.00    1.10
   6   1   4    2.50    1.20
   6   1   4    5.20    1.30
   6   1   4    4.80    1.20
   6   1   4    2.30    1.00
  -7  -1  -4   -0.90    0.80
  -7  -1  -4   -0.60    0.90
   7   1   4   -0.20    0.90
   7   1   4   -0.60    0.90
   7   1   4   -1.10    1.00
  -8  -1  -4    0.10    1.20
   8   1   4   -1.40    1.20
  12  -2  -4   -0.20    1.70
  12  -2  -4    3.70    1.80
  12  -2  -4   -0.20    1.50
  12  -2  -4   -2.90    1.30
 -12   2   4   -0.10    1.80
  11  -2  -4   -1.60    1.20
  11  -2  -4    0.90    1.50
  11  -2  -4    1.00    1.60
  11  -2  -4   -2.20    1.30
 -11   2   4    0.90    1.60
 -11   2   4   -1.90    1.30
  10  -2  -4    3.00    1.50
  10  -2  -4    2.40    1.50
  10  -2  -4    2.60    1.40
  10  -2  -4   -0.40    1.00
 -10   2   4    2.40    1.30
 -10   2   4   -0.10    1.50
 -10   2   4    4.00    2.20
 -10   2   4    1.60    1.60
   9  -2  -4    2.40    1.20
   9  -2  -4    4.00    1.50
   9  -2  -4    3.70    0.80
   9  -2  -4    3.90    1.30
   9  -2  -4    1.50    1.20
  -9   2   4    2.40    1.60
  -9   2   4    3.60    1.30
  -9   2   4    2.80    1.60
  -9   2   4    4.50    1.50
   8  -2  -4   87.69    3.80
   8  -2  -4   86.29    3.20
   8  -2  -4   89.49    3.80
   8  -2  -4   82.29    3.80
   8  -2  -4   94.69    4.20
  -8   2   4   88.99    3.90
  -8   2   4   90.49    4.10
  -8   2   4   97.09    4.50
  -8   2   4   86.29    4.50
   7  -2  -4   26.70    1.90
   7  -2  -4   28.20    2.10
   7  -2  -4   27.80    1.40
   7  -2  -4   23.40    1.70
   7  -2  -4   27.00    1.90
  -7   2   4   32.00    2.60
  -7   2   4   31.10    2.80
  -7   2   4   30.30    1.50
  -7   2   4   28.80    2.30
  -7   2   4   27.40    1.90
   6  -2  -4   36.00    2.30
   6  -2  -4   38.30    2.00
   6  -2  -4   35.20    2.00
   6  -2  -4   33.80    1.50
   6  -2  -4   34.40    1.90
   6  -2  -4   34.90    1.90
  -6   2   4   33.60    2.30
  -6   2   4   34.60    2.00
  -6   2   4   35.20    2.40
  -6   2   4   36.80    2.70
  -6   2   4   37.30    1.50
   5  -2  -4  317.27    9.40
   5  -2  -4  319.97    9.20
   5  -2  -4  318.67    9.10
   5  -2  -4  317.97    9.00
  -5   2   4  323.87    8.60
  -5   2   4  315.17    9.70
  -5   2   4  309.67    9.00
  -5   2   4  321.47    9.40
   4  -2  -4   54.39    2.50
   4  -2  -4   57.59    1.90
   4  -2  -4   55.89    2.40
   4  -2  -4   55.59    2.10
  -4   2   4   53.59    2.10
  -4   2   4   54.19    2.40
  -4   2   4   54.79    2.10
  -4   2   4   57.19    1.70
  -4   2   4   56.19    2.70
  -4   2   4   56.59    1.80
   3  -2  -4  270.47    8.00
   3  -2  -4  277.57    7.40
   3  -2  -4  263.27    7.90
   3  -2  -4  285.27    7.30
  -3   2   4  270.37    7.50
  -3   2   4  272.87    7.90
  -3   2   4  271.27    7.40
  -3   2   4  271.37    8.20
  -3   2   4  277.17    7.40
   2  -2  -4  389.06   10.90
   2  -2  -4  407.66   10.10
   2  -2  -4  378.06   10.90
   2  -2  -4  392.76   10.10
   2  -2  -4  391.36   10.10
   2  -2  -4  392.46   10.30
   2  -2  -4  373.56   10.90
  -2   2   4  393.16   10.60
  -2   2   4  379.16   11.00
  -2   2   4  381.86   10.10
  -2   2   4  389.66   10.80
  -2   2   4  408.16   10.10
   1  -2  -4    4.60    0.80
   1  -2  -4    4.60    0.60
   1  -2  -4    3.70    0.80
   1  -2  -4    4.40    0.80
  -1   2   4    4.40    0.60
   0  -2  -4  365.36    9.70
   0  -2  -4  359.26   10.00
   0  -2  -4  352.36   10.10
   0  -2  -4  358.36   10.10
   0   2   4  351.36    9.80
   0   2   4  346.47    9.60
  -1  -2  -4    4.60    0.90
  -1  -2  -4    5.00    0.40
  -1  -2  -4    4.50    0.40
  -1  -2  -4    4.70    0.50
  -1  -2  -4    4.20    0.70
  -1  -2  -4    5.60    0.50
   1   2   4    5.10    0.50
   1   2   4    5.30    0.50
   1   2   4    4.30    0.80
   1   2   4    4.40    0.70
  -2  -2  -4    1.80    0.80
  -2  -2  -4    2.90    0.50
  -2  -2  -4    2.60    0.50
  -2  -2  -4    3.50    0.70
   2   2   4    2.60    0.70
   2   2   4    2.90    0.60
   2   2   4    2.40    0.80
  -3  -2  -4  168.98    5.90
  -3  -2  -4  169.28    5.20
  -3  -2  -4  163.98    5.00
  -3  -2  -4  165.98    5.00
   3   2   4  160.58    5.60
   3   2   4  172.08    5.50
   3   2   4  163.58    5.30
   3   2   4  164.48    5.10
  -4  -2  -4   90.09    3.30
  -4  -2  -4   93.09    3.30
  -4  -2  -4   89.09    3.10
  -4  -2  -4   83.39    3.90
   4   2   4   89.09    3.50
   4   2   4   93.09    3.40
   4   2   4   88.19    3.80
  -5  -2  -4   22.20    2.30
  -5  -2  -4   26.30    1.90
  -5  -2  -4   23.60    1.70
   5   2   4   25.50    2.10
   5   2   4   21.30    1.80
   5   2   4   23.40    1.80
  -6  -2  -4    4.40    1.10
  -6  -2  -4    2.60    1.10
  -6  -2  -4    2.50    1.20
   6   2   4    2.30    1.00
   6   2   4    3.60    1.30
   6   2   4    3.40    1.20
  -7  -2  -4    2.30    1.30
   7   2   4    3.80    1.40
  -8  -2  -4   -1.10    0.90
   8   2   4    1.60    1.30
  12  -3  -4    3.40    1.70
  12  -3  -4    8.70    2.10
  12  -3  -4   11.50    2.60
  12  -3  -4    9.40    2.20
 -12   3   4    8.00    2.10
 -12   3   4   13.60    2.70
  11  -3  -4    3.50    1.60
  11  -3  -4    3.40    1.80
  11  -3  -4    4.70    1.70
  11  -3  -4    5.10    1.80
 -11   3   4    5.60    1.80
 -11   3   4    4.00    1.90
  10  -3  -4    4.00    1.40
  10  -3  -4    3.20    1.50
  10  -3  -4    3.80    1.60
  10  -3  -4    5.40    1.60
 -10   3   4    3.60    1.60
 -10   3   4    6.40    2.10
 -10   3   4    3.30    1.90
 -10   3   4    2.80    1.70
   9  -3  -4   10.00    1.70
   9  -3  -4   12.20    1.90
   9  -3  -4   13.90    1.80
   9  -3  -4   12.30    1.90
  -9   3   4   15.50    2.10
  -9   3   4   10.00    2.10
  -9   3   4   11.60    2.10
  -9   3   4   12.70    1.80
   8  -3  -4   31.80    1.90
   8  -3  -4   32.50    2.30
   8  -3  -4   29.80    2.30
   8  -3  -4   29.50    1.70
   8  -3  -4   26.70    2.00
   8  -3  -4   25.90    2.20
  -8   3   4   28.80    2.40
  -8   3   4   26.60    2.70
  -8   3   4   28.30    2.80
  -8   3   4   30.20    2.20
   7  -3  -4    1.80    0.80
   7  -3  -4    2.90    0.90
   7  -3  -4    2.20    0.40
   7  -3  -4    2.20    0.80
   7  -3  -4    1.30    1.00
  -7   3   4    2.00    1.20
  -7   3   4    2.20    1.00
  -7   3   4    2.70    1.40
  -7   3   4    2.90    1.10
   6  -3  -4  155.78    5.10
   6  -3  -4  161.78    5.20
   6  -3  -4  150.38    5.50
   6  -3  -4  159.18    5.20
  -6   3   4  163.18    5.30
  -6   3   4  151.68    5.70
  -6   3   4  155.58    5.30
  -6   3   4  159.58    5.90
  -6   3   4  154.58    4.40
   5  -3  -4    2.10    0.70
   5  -3  -4    2.60    0.80
   5  -3  -4    1.40    0.80
  -5   3   4    1.10    0.60
  -5   3   4    2.50    0.30
  -5   3   4    2.00    0.50
  -5   3   4    2.90    0.80
  -5   3   4    1.60    1.10
  -5   3   4    1.10    0.90
   4  -3  -4  111.69    3.50
   4  -3  -4  112.09    3.10
   4  -3  -4  106.69    4.00
   4  -3  -4  103.79    3.80
  -4   3   4  109.99    3.00
  -4   3   4  105.79    3.50
  -4   3   4  107.79    3.30
  -4   3   4  108.39    4.20
  -4   3   4  105.79    3.90
  -4   3   4  111.99    3.60
   3  -3  -4    2.40    0.70
   3  -3  -4    1.50    0.70
   3  -3  -4    2.50    0.30
   3  -3  -4    2.10    0.50
  -3   3   4    2.20    0.30
  -3   3   4    2.00    0.50
  -3   3   4    2.70    0.90
  -3   3   4    2.00    0.60
  -3   3   4    1.80    0.50
  -3   3   4    2.00    0.50
   2  -3  -4  123.69    4.30
   2  -3  -4  125.09    4.40
   2  -3  -4  131.39    3.60
   2  -3  -4  133.59    3.60
   2  -3  -4  123.69    4.30
  -2   3   4  127.09    3.80
  -2   3   4  127.89    3.70
  -2   3   4  127.79    4.50
  -2   3   4  141.09    3.80
  -2   3   4  139.69    3.80
  -2   3   4  128.39    3.70
  -2   3   4  124.19    4.10
   1  -3  -4   99.19    2.70
   1  -3  -4   97.49    3.60
   1  -3  -4   97.79    2.70
   1  -3  -4   95.79    3.50
   1  -3  -4  100.49    2.70
   1  -3  -4   97.89    3.50
  -1   3   4   98.19    2.70
  -1   3   4   95.59    2.70
  -1   3   4   97.79    2.70
  -1   3   4   94.39    3.10
  -1   3   4   95.59    3.50
   0  -3  -4   12.50    0.60
   0  -3  -4   10.50    1.10
   0  -3  -4   12.10    0.60
   0  -3  -4   11.20    0.60
   0  -3  -4   11.70    0.50
   0  -3  -4   11.50    1.30
   0  -3  -4   13.50    1.30
   0   3   4   11.40    1.30
   0   3   4   11.10    1.00
   0   3   4   11.50    0.50
   0   3   4   12.00    0.80
  -1  -3  -4    0.90    0.70
  -1  -3  -4    1.10    0.60
  -1  -3  -4    0.20    0.30
   1   3   4    0.50    0.30
   1   3   4    0.80    0.60
   1   3   4    1.00    0.50
  -2  -3  -4    5.90    1.20
  -2  -3  -4    5.90    0.70
  -2  -3  -4    4.20    0.80
   2   3   4    6.70    0.80
   2   3   4    4.20    0.70
   2   3   4    5.30    1.00
  -3  -3  -4   71.39    2.80
  -3  -3  -4   66.99    2.50
  -3  -3  -4   68.09    2.50
  -3  -3  -4   66.49    3.30
   3   3   4   60.69    3.00
   3   3   4   65.49    2.60
   3   3   4   66.29    2.70
  -4  -3  -4   16.00    1.30
  -4  -3  -4   16.30    1.30
  -4  -3  -4   13.40    1.80
  -4  -3  -4   13.40    1.30
   4   3   4   15.30    1.50
   4   3   4   13.40    1.40
   4   3   4   13.60    1.70
  -5  -3  -4    3.80    1.30
  -5  -3  -4    4.30    1.00
  -5  -3  -4    6.50    1.10
   5   3   4    6.00    1.20
   5   3   4    5.30    1.30
   5   3   4    7.30    1.20
  -6  -3  -4    1.50    1.20
   6   3   4    0.50    0.80
   6   3   4    1.10    1.40
  -7  -3  -4    9.90    1.90
   7   3   4   16.30    2.00
   7   3   4   12.50    2.40
  -8  -3  -4   -0.80    1.00
   8   3   4    0.50    1.60
  11  -4  -4    1.70    1.70
  11  -4  -4    2.10    1.50
  11  -4  -4    0.90    1.40
  11  -4  -4   -0.10    1.60
 -11   4   4    5.40    2.30
 -11   4   4    2.80    1.70
  10  -4  -4    0.30    1.30
  10  -4  -4    1.50    1.40
  10  -4  -4    1.10    1.10
  10  -4  -4   -0.60    1.10
 -10   4   4    0.70    1.30
 -10   4   4    0.00    1.60
 -10   4   4   -0.80    1.80
 -10   4   4   -1.50    1.30
   9  -4  -4    4.30    1.20
   9  -4  -4    2.90    1.50
   9  -4  -4    3.50    1.40
   9  -4  -4    3.90    1.40
  -9   4   4    2.90    1.70
  -9   4   4    3.10    1.40
  -9   4   4    3.90    1.80
  -9   4   4    5.20    1.50
   8  -4  -4    3.60    1.00
   8  -4  -4    5.20    1.30
   8  -4  -4    2.70    1.00
   8  -4  -4    4.40    1.00
  -8   4   4    5.40    1.70
  -8   4   4    3.10    1.50
  -8   4   4    6.00    1.40
  -8   4   4    4.00    1.30
   7  -4  -4    2.40    1.00
   7  -4  -4    4.20    1.00
   7  -4  -4    4.20    1.10
   7  -4  -4    3.30    0.90
  -7   4   4    4.40    1.10
  -7   4   4    2.70    1.40
  -7   4   4    6.60    1.60
  -7   4   4    5.30    1.20
   6  -4  -4   26.10    2.00
   6  -4  -4   28.50    1.90
   6  -4  -4   22.10    1.70
   6  -4  -4   25.60    1.60
  -6   4   4   28.80    2.40
  -6   4   4   29.10    1.90
  -6   4   4   23.50    2.20
  -6   4   4   25.60    1.80
  -6   4   4   28.40    1.50
   5  -4  -4   57.89    2.80
   5  -4  -4   64.19    2.80
   5  -4  -4   61.49    2.50
   5  -4  -4   59.99    1.70
  -5   4   4   59.69    3.10
  -5   4   4   54.99    2.60
  -5   4   4   60.79    2.60
  -5   4   4   56.69    3.00
  -5   4   4   57.09    2.30
   4  -4  -4   31.80    1.90
   4  -4  -4   32.70    1.60
   4  -4  -4   31.70    2.00
  -4   4   4   34.60    2.30
  -4   4   4   34.00    2.10
  -4   4   4   36.30    1.80
  -4   4   4   33.20    1.60
  -4   4   4   33.30    1.70
   3  -4  -4   35.40    2.00
   3  -4  -4   32.40    1.90
   3  -4  -4   37.10    1.50
   3  -4  -4   37.10    1.60
  -3   4   4   36.20    2.10
  -3   4   4   34.80    2.20
  -3   4   4   33.80    1.60
  -3   4   4   36.10    1.20
  -3   4   4   38.80    1.80
   2  -4  -4  180.58    5.10
   2  -4  -4  176.78    5.90
   2  -4  -4  187.18    5.10
   2  -4  -4  175.58    5.90
   2  -4  -4  178.38    5.90
  -2   4   4  175.88    5.70
  -2   4   4  182.38    6.10
  -2   4   4  183.18    5.20
  -2   4   4  205.98    5.10
  -2   4   4  175.38    5.10
   1  -4  -4  341.87    8.90
   1  -4  -4  322.17    9.80
   1  -4  -4  328.37    9.80
   1  -4  -4  344.17    9.80
  -1   4   4  335.97    9.80
  -1   4   4  337.47    8.90
  -1   4   4  334.27   10.00
  -1   4   4  334.67    9.20
   0  -4  -4    8.30    0.70
   0  -4  -4    7.10    1.20
   0  -4  -4    8.60    1.20
   0  -4  -4    8.00    0.70
   0   4   4    8.10    0.70
   0   4   4    7.00    1.10
   0   4   4    7.50    0.90
  -1  -4  -4  116.29    3.50
  -1  -4  -4  116.29    4.40
  -1  -4  -4  120.19    4.20
  -1  -4  -4  117.99    3.50
   1   4   4  116.59    3.60
   1   4   4  111.29    4.00
   1   4   4  115.89    4.60
  -2  -4  -4   12.60    1.40
  -2  -4  -4   12.20    1.00
  -2  -4  -4    9.70    1.40
   2   4   4   12.20    1.00
   2   4   4   12.00    1.60
   2   4   4   13.00    1.40
   2   4   4   11.90    1.10
  -3  -4  -4    3.20    0.80
  -3  -4  -4    1.50    1.00
  -3  -4  -4    4.20    0.80
   3   4   4    2.50    0.70
   3   4   4    2.80    0.90
   3   4   4    3.20    0.80
   3   4   4    2.00    1.20
  -4  -4  -4   12.70    1.30
  -4  -4  -4    8.30    1.60
  -4  -4  -4   11.10    1.30
   4   4   4   11.00    1.90
   4   4   4   16.70    1.90
   4   4   4   13.00    1.30
   4   4   4   13.20    1.40
  -5  -4  -4   13.20    2.10
   5   4   4   12.40    1.80
   5   4   4   12.90    2.10
   5   4   4   16.10    1.60
  -6  -4  -4    1.10    1.30
   6   4   4    0.60    1.30
  -7  -4  -4    1.90    1.50
   7   4   4    1.40    1.60
  11  -5  -4    1.50    1.50
  11  -5  -4    0.50    1.20
  11  -5  -4    1.30    1.40
  11  -5  -4    0.60    1.50
 -11   5   4   -1.60    1.10
 -11   5   4    1.90    2.20
  10  -5  -4   -0.50    1.20
  10  -5  -4   -0.50    1.10
  10  -5  -4    0.70    1.20
  10  -5  -4    0.60    1.50
 -10   5   4   -0.60    1.80
 -10   5   4    1.50    1.50
 -10   5   4   -1.30    1.70
   9  -5  -4    0.80    0.90
   9  -5  -4    2.20    1.20
   9  -5  -4   -0.20    1.10
  -9   5   4    0.40    1.10
  -9   5   4    1.60    1.70
  -9   5   4    3.80    1.40
  -9   5   4    2.90    1.30
  -9   5   4   -0.70    1.80
   8  -5  -4    0.00    0.70
   8  -5  -4   -1.20    0.60
   8  -5  -4   -0.70    0.80
   8  -5  -4   -0.20    0.90
  -8   5   4    0.00    1.00
  -8   5   4    1.20    1.00
  -8   5   4    0.90    1.50
  -8   5   4   -2.10    1.30
   7  -5  -4  148.19    5.60
   7  -5  -4  148.09    5.40
   7  -5  -4  159.48    5.50
   7  -5  -4  151.08    5.20
  -7   5   4  153.78    5.50
  -7   5   4  153.58    6.30
  -7   5   4  146.29    5.60
  -7   5   4  163.68    6.20
   6  -5  -4    6.10    1.20
   6  -5  -4    5.70    1.10
   6  -5  -4    5.30    1.10
   6  -5  -4    5.20    0.90
  -6   5   4    7.10    1.20
  -6   5   4    7.80    1.70
  -6   5   4    5.40    1.00
  -6   5   4    6.70    1.40
  -6   5   4    5.20    1.10
   5  -5  -4  305.57    9.30
   5  -5  -4  304.27    9.20
   5  -5  -4  303.97    8.80
  -5   5   4  304.07    9.60
  -5   5   4  306.47    9.70
  -5   5   4  309.47    8.90
  -5   5   4  302.17    8.80
  -5   5   4  295.07    8.90
   4  -5  -4  172.18    5.20
   4  -5  -4  167.98    5.80
   4  -5  -4  171.18    5.30
   4  -5  -4  165.58    5.80
  -4   5   4  165.98    5.30
  -4   5   4  174.98    6.20
  -4   5   4  179.18    6.10
  -4   5   4  169.38    5.50
   3  -5  -4   33.40    1.60
   3  -5  -4   30.60    2.00
   3  -5  -4   33.30    2.10
   3  -5  -4   30.00    1.50
  -3   5   4   31.00    1.60
  -3   5   4   28.90    2.10
  -3   5   4   30.10    0.90
  -3   5   4   31.30    1.90
   2  -5  -4    1.60    0.50
   2  -5  -4    1.50    0.80
   2  -5  -4    2.40    0.90
   2  -5  -4    0.70    0.80
  -2   5   4    1.70    0.40
  -2   5   4    2.20    0.70
  -2   5   4    1.00    0.50
  -2   5   4    2.00    0.90
   1  -5  -4    2.90    0.90
   1  -5  -4    2.90    1.00
   1  -5  -4    2.50    0.90
   1  -5  -4    3.60    0.60
  -1   5   4    3.20    0.60
  -1   5   4    3.60    0.60
  -1   5   4    3.90    0.50
  -1   5   4    2.10    0.90
  -1   5   4    2.90    0.90
   0  -5  -4   86.29    3.50
   0  -5  -4   83.09    2.80
   0  -5  -4   81.29    3.50
   0  -5  -4   84.09    2.80
   0   5   4   84.59    3.10
   0   5   4   85.89    2.60
   0   5   4   84.69    3.70
  -1  -5  -4  522.45   13.60
  -1  -5  -4  508.75   14.40
  -1  -5  -4  480.35   14.60
  -1  -5  -4  513.75   13.60
   1   5   4  520.25   13.50
   1   5   4  510.45   14.10
   1   5   4  498.35   14.90
  -2  -5  -4   29.10    2.00
  -2  -5  -4   31.30    1.60
  -2  -5  -4   27.70    2.30
   2   5   4   30.00    1.50
   2   5   4   33.40    2.50
   2   5   4   31.80    2.00
   2   5   4   31.40    1.60
  -3  -5  -4   -0.80    0.50
  -3  -5  -4    0.30    0.70
  -3  -5  -4    0.80    1.00
   3   5   4    0.00    0.60
   3   5   4   -0.80    0.90
   3   5   4    0.30    0.80
  -4  -5  -4   -0.90    0.60
  -4  -5  -4   -1.10    0.90
   4   5   4   -0.30    0.80
   4   5   4   -0.40    1.00
  -5  -5  -4    2.50    1.40
   5   5   4    1.10    1.40
  -6  -5  -4    2.50    1.50
   6   5   4   -1.30    1.20
  -7  -5  -4    9.60    2.20
   7   5   4   10.90    2.50
  11  -6  -4    0.80    1.60
  11  -6  -4    0.80    1.20
  11  -6  -4   -0.50    1.40
 -11   6   4    1.40    1.40
 -11   6   4   -1.50    2.10
  10  -6  -4    2.20    1.20
  10  -6  -4    2.70    1.50
  10  -6  -4    3.60    1.40
 -10   6   4    0.30    1.50
 -10   6   4    2.10    2.10
 -10   6   4    2.00    1.40
   9  -6  -4    3.60    1.30
   9  -6  -4    4.30    1.40
   9  -6  -4    5.20    1.30
  -9   6   4    4.40    1.60
  -9   6   4    3.80    1.40
  -9   6   4    3.20    1.90
  -9   6   4    1.90    2.20
   8  -6  -4   14.70    1.70
   8  -6  -4   14.40    1.80
   8  -6  -4   10.90    1.60
   8  -6  -4   14.80    1.90
  -8   6   4   15.30    2.00
  -8   6   4   13.80    2.50
  -8   6   4   12.70    1.80
  -8   6   4   13.90    2.30
   7  -6  -4   89.69    3.90
   7  -6  -4   87.39    3.80
   7  -6  -4   86.29    3.50
   7  -6  -4   85.29    3.90
  -7   6   4   91.39    4.50
  -7   6   4   89.09    4.70
  -7   6   4   88.69    4.00
  -7   6   4   90.29    3.90
   6  -6  -4   -0.10    0.80
   6  -6  -4    1.30    0.60
   6  -6  -4    0.50    0.80
   6  -6  -4    0.60    0.80
  -6   6   4    1.30    1.00
  -6   6   4    0.40    0.80
  -6   6   4    0.90    1.20
  -6   6   4    0.10    1.00
  -6   6   4    1.20    0.90
   5  -6  -4   -0.50    0.60
   5  -6  -4    1.30    0.80
   5  -6  -4    1.00    0.70
   5  -6  -4    0.20    0.70
  -5   6   4   -0.90    0.60
  -5   6   4    0.30    1.10
  -5   6   4   -0.90    0.60
  -5   6   4    0.10    0.90
   4  -6  -4    0.40    0.60
   4  -6  -4    1.70    0.90
   4  -6  -4   -0.10    0.60
   4  -6  -4    0.30    0.80
  -4   6   4    1.20    1.00
  -4   6   4    2.20    1.00
  -4   6   4    1.20    0.70
  -4   6   4    1.70    0.80
   3  -6  -4    0.50    0.60
   3  -6  -4    0.50    0.50
   3  -6  -4   -0.30    0.70
   3  -6  -4    0.10    0.80
  -3   6   4    0.60    0.70
  -3   6   4    0.30    0.90
  -3   6   4    0.40    0.50
   2  -6  -4    0.40    0.70
   2  -6  -4   -0.30    0.80
   2  -6  -4   -0.20    0.70
   2  -6  -4   -0.10    0.50
  -2   6   4    0.50    0.50
  -2   6   4    0.00    0.70
  -2   6   4    0.70    0.80
  -2   6   4    0.30    0.30
   1  -6  -4   10.30    1.00
   1  -6  -4   11.70    1.50
   1  -6  -4   11.70    1.50
  -1   6   4    9.30    1.50
  -1   6   4   10.90    1.00
  -1   6   4   10.40    1.50
  -1   6   4   12.60    1.10
   0  -6  -4   38.90    1.80
   0  -6  -4   38.30    2.40
   0  -6  -4   35.60    2.30
   0   6   4   39.00    2.60
   0   6   4   39.70    1.80
   0   6   4   40.50    1.90
   0   6   4   36.20    2.60
  -1  -6  -4    2.70    0.70
  -1  -6  -4    4.40    1.20
  -1  -6  -4    5.10    1.10
  -1  -6  -4    3.70    0.70
   1   6   4    3.70    1.30
   1   6   4    4.40    1.00
  -2  -6  -4    6.20    0.90
  -2  -6  -4    5.90    1.20
  -2  -6  -4    5.40    0.80
  -2  -6  -4    6.40    1.40
   2   6   4    4.50    1.40
   2   6   4    5.90    1.20
  -3  -6  -4    4.30    1.30
  -3  -6  -4    3.00    1.00
   3   6   4    4.70    1.20
   3   6   4    2.40    1.30
  -4  -6  -4    1.10    1.10
   4   6   4   -0.20    0.90
   4   6   4    0.00    1.30
  -5  -6  -4    2.60    1.50
   5   6   4    5.40    1.90
  -6  -6  -4   -0.50    1.20
   6   6   4    1.00    1.60
  10  -7  -4   -0.30    1.10
  10  -7  -4    0.90    1.40
 -10   7   4   -0.30    2.00
 -10   7   4    1.30    1.40
 -10   7   4    1.40    1.50
   9  -7  -4    0.90    1.10
   9  -7  -4    0.00    1.10
   9  -7  -4    1.10    1.00
  -9   7   4   -1.90    1.50
  -9   7   4   -1.30    1.80
  -9   7   4   -1.00    1.30
  -9   7   4    0.30    1.30
   8  -7  -4   44.40    2.80
   8  -7  -4   42.30    2.90
   8  -7  -4   43.00    2.90
   8  -7  -4   43.60    2.50
  -8   7   4   34.70    3.60
  -8   7   4   47.10    3.20
  -8   7   4   49.10    3.20
  -8   7   4   42.80    3.50
   7  -7  -4   47.40    2.50
   7  -7  -4   50.69    2.80
   7  -7  -4   49.70    3.00
   7  -7  -4   53.09    3.10
  -7   7   4   52.29    3.80
  -7   7   4   56.29    3.20
  -7   7   4   58.89    3.80
  -7   7   4   58.49    3.20
   6  -7  -4   -0.60    0.70
   6  -7  -4    0.20    0.80
   6  -7  -4    1.10    0.80
  -6   7   4    0.00    0.70
  -6   7   4    1.50    0.90
  -6   7   4    0.50    0.90
  -6   7   4    1.40    1.30
  -6   7   4    1.20    1.20
   5  -7  -4    9.10    1.50
   5  -7  -4    8.90    1.30
   5  -7  -4   14.80    1.50
   5  -7  -4   11.60    1.50
  -5   7   4   12.10    1.60
  -5   7   4   13.50    1.90
  -5   7   4   12.90    1.50
  -5   7   4   12.00    1.90
   4  -7  -4    0.90    0.90
   4  -7  -4    0.90    0.90
   4  -7  -4    2.00    0.80
   4  -7  -4    0.40    0.70
  -4   7   4    1.50    0.80
  -4   7   4    1.20    0.90
  -4   7   4    1.40    1.10
   3  -7  -4    5.00    0.90
   3  -7  -4    5.50    1.20
   3  -7  -4    4.50    1.10
   3  -7  -4    3.80    0.80
  -3   7   4    3.20    1.10
  -3   7   4    1.60    1.10
  -3   7   4    4.80    0.90
   2  -7  -4   83.49    3.20
   2  -7  -4   77.89    3.80
   2  -7  -4   88.99    3.80
  -2   7   4   85.09    4.20
  -2   7   4   86.69    4.00
  -2   7   4   85.79    3.20
   1  -7  -4   47.30    2.20
   1  -7  -4   45.30    2.60
   1  -7  -4   46.90    2.70
  -1   7   4   44.20    3.00
  -1   7   4   45.20    2.00
  -1   7   4   40.90    2.90
  -1   7   4   42.80    2.10
   0  -7  -4   43.70    2.10
   0  -7  -4   43.60    2.70
   0  -7  -4   46.10    2.80
   0   7   4   41.60    3.00
   0   7   4   44.80    2.20
   0   7   4   45.60    2.20
   0   7   4   41.30    2.90
  -1  -7  -4    2.40    0.80
  -1  -7  -4    2.60    1.10
  -1  -7  -4    3.50    1.30
  -1  -7  -4    2.70    0.80
   1   7   4    3.70    1.30
   1   7   4    1.90    0.80
  -2  -7  -4    0.10    0.80
  -2  -7  -4    0.50    1.00
   2   7   4    0.50    1.10
   2   7   4   -0.70    0.70
  -3  -7  -4   17.50    2.00
  -3  -7  -4   14.20    2.10
   3   7   4   17.60    2.00
   3   7   4   14.50    2.30
  -4  -7  -4   20.20    2.60
   4   7   4   24.20    3.10
  -5  -7  -4    4.80    1.80
   5   7   4    1.70    1.70
  10  -8  -4    3.10    1.50
 -10   8   4   -1.10    2.10
 -10   8   4    1.50    1.50
 -10   8   4   -3.10    1.10
   9  -8  -4    2.30    1.30
  -9   8   4   -0.20    1.50
  -9   8   4    0.60    1.90
  -9   8   4    0.60    1.50
   8  -8  -4   32.80    2.70
   8  -8  -4   32.00    2.60
   8  -8  -4   25.40    2.50
  -8   8   4   30.60    3.50
  -8   8   4   33.20    3.10
  -8   8   4   28.80    2.80
  -8   8   4   27.00    3.40
   7  -8  -4    2.30    1.10
   7  -8  -4    2.00    1.20
   7  -8  -4    2.50    1.10
  -7   8   4    1.80    1.60
  -7   8   4    1.40    1.20
  -7   8   4    3.10    1.30
  -7   8   4    3.30    1.80
   6  -8  -4   -0.50    0.80
   6  -8  -4   -0.80    0.80
   6  -8  -4    0.00    0.90
   6  -8  -4    0.70    1.00
  -6   8   4   -0.60    1.00
  -6   8   4   -0.80    1.20
  -6   8   4    0.50    0.90
  -6   8   4   -0.90    1.00
   5  -8  -4    2.50    1.10
   5  -8  -4    3.90    1.00
   5  -8  -4    1.90    0.90
   5  -8  -4    1.40    1.00
  -5   8   4    2.70    1.00
  -5   8   4    5.70    1.50
  -5   8   4    1.10    1.30
  -5   8   4    2.30    1.20
   4  -8  -4    0.80    0.90
   4  -8  -4    0.70    0.90
   4  -8  -4   -0.70    0.60
   4  -8  -4   -0.20    0.70
  -4   8   4   -0.90    0.90
  -4   8   4   -0.40    1.10
  -4   8   4    0.00    0.80
   3  -8  -4   42.90    2.30
   3  -8  -4   41.20    2.30
   3  -8  -4   45.40    2.90
  -3   8   4   44.70    2.40
  -3   8   4   41.30    3.10
  -3   8   4   42.00    2.90
   2  -8  -4   41.50    2.30
   2  -8  -4   41.70    2.80
  -2   8   4   46.70    2.40
  -2   8   4   41.20    2.90
  -2   8   4   44.80    3.20
   1  -8  -4    7.40    1.10
   1  -8  -4    6.10    1.40
   1  -8  -4    8.20    1.50
  -1   8   4    5.00    1.40
  -1   8   4    6.90    1.10
  -1   8   4    6.80    1.60
   0  -8  -4   33.60    2.50
   0  -8  -4   31.10    2.50
   0  -8  -4   36.20    2.90
   0   8   4   33.60    2.90
   0   8   4   32.60    2.90
  -1  -8  -4    1.40    1.10
  -1  -8  -4    2.30    1.10
   1   8   4    1.70    1.20
   1   8   4    1.40    1.30
   1   8   4    0.40    1.20
  -2  -8  -4    0.40    1.00
  -2  -8  -4   -0.30    1.10
   2   8   4   -0.30    0.80
   2   8   4    0.30    1.30
  -3  -8  -4    8.60    1.70
  -3  -8  -4   10.30    2.10
   3   8   4   11.90    2.10
  -4  -8  -4    2.70    1.50
   4   8   4    3.00    1.60
   9  -9  -4   -0.70    1.00
  -9   9   4    1.10    1.40
  -9   9   4   -2.90    1.90
  -9   9   4    0.00    1.40
   8  -9  -4    1.10    1.20
   8  -9  -4   -0.90    1.00
  -8   9   4    1.20    1.40
  -8   9   4    0.80    2.10
  -8   9   4    1.80    1.30
   7  -9  -4    1.10    1.00
   7  -9  -4   -1.70    0.80
   7  -9  -4    0.60    1.00
  -7   9   4   -2.00    1.70
  -7   9   4    0.10    1.10
  -7   9   4    0.00    1.10
   6  -9  -4   19.50    2.10
   6  -9  -4   19.40    2.30
   6  -9  -4   20.30    2.20
   6  -9  -4   20.50    2.10
  -6   9   4   16.70    2.60
  -6   9   4   14.40    2.20
  -6   9   4   17.60    2.10
   5  -9  -4    3.00    1.20
   5  -9  -4    4.10    1.10
   5  -9  -4    2.70    1.30
   5  -9  -4    1.40    1.00
  -5   9   4    2.50    1.50
  -5   9   4    7.20    1.70
  -5   9   4    3.60    1.20
  -5   9   4    2.60    1.30
   4  -9  -4    0.70    0.90
   4  -9  -4   -0.70    0.80
   4  -9  -4    1.60    0.90
  -4   9   4   -1.30    1.00
  -4   9   4   -0.20    1.20
  -4   9   4   -0.10    0.90
   3  -9  -4    0.60    0.80
   3  -9  -4   -0.60    0.90
   3  -9  -4   -0.70    0.70
  -3   9   4   -1.60    1.00
  -3   9   4    0.00    0.80
  -3   9   4   -1.50    0.90
   2  -9  -4    0.20    1.00
   2  -9  -4   -0.80    0.70
  -2   9   4    1.30    1.30
  -2   9   4    0.80    1.10
  -2   9   4    1.30    0.90
   1  -9  -4    2.40    1.20
   1  -9  -4    1.60    1.20
  -1   9   4    4.80    1.50
  -1   9   4    3.00    1.40
   0  -9  -4    0.10    1.10
   0  -9  -4    0.10    1.00
   0   9   4   -0.80    1.10
   0   9   4    1.10    1.10
  -1  -9  -4   -0.10    1.10
  -1  -9  -4    0.20    1.10
   1   9   4    0.60    1.30
   1   9   4    0.30    1.20
  -2  -9  -4    0.00    1.10
  -2  -9  -4    3.00    1.30
   2   9   4   -0.30    1.30
   2   9   4    3.20    1.80
  -3  -9  -4    0.90    1.40
  -3  -9  -4   -1.00    0.90
   3   9   4    0.90    1.70
   3   9   4    2.60    1.50
   8 -10  -4    2.00    1.40
   8 -10  -4    2.80    1.40
  -8  10   4    0.80    2.10
  -8  10   4    3.40    1.40
  -8  10   4    2.30    1.50
   7 -10  -4    5.50    1.50
   7 -10  -4    5.30    1.60
  -7  10   4    5.60    1.60
  -7  10   4    4.40    2.40
  -7  10   4    6.80    1.70
   6 -10  -4    4.30    1.30
   6 -10  -4    6.10    1.50
   6 -10  -4    5.40    1.70
  -6  10   4    4.10    2.00
  -6  10   4    3.90    1.40
  -6  10   4    4.90    2.00
   5 -10  -4   -0.20    1.20
   5 -10  -4    1.20    1.00
   5 -10  -4    0.20    1.00
  -5  10   4    0.20    1.30
  -5  10   4   -1.90    0.90
  -5  10   4   -0.30    1.40
   4 -10  -4    1.40    1.00
   4 -10  -4    0.60    1.00
   4 -10  -4    1.10    1.20
  -4  10   4    0.40    1.30
  -4  10   4    1.30    1.50
  -4  10   4    1.40    1.10
   3 -10  -4   -0.20    1.00
   3 -10  -4   -0.70    1.10
  -3  10   4    0.50    1.50
  -3  10   4    1.70    1.50
   2 -10  -4    0.20    1.00
  -2  10   4   -0.10    1.20
  -2  10   4    0.30    1.30
   1 -10  -4    0.10    1.00
  -1  10   4    0.60    1.30
  -1  10   4    1.50    1.30
   0 -10  -4   -0.40    1.10
   0 -10  -4   -0.80    1.10
   0  10   4   -0.20    1.30
   0  10   4   -0.40    1.30
  -1 -10  -4   -0.50    1.10
  -1 -10  -4   -0.90    1.10
   1  10   4   -0.50    1.40
   1  10   4    0.20    1.20
  -2 -10  -4   -0.60    1.10
  -2 -10  -4    0.70    1.20
   2  10   4    1.30    1.50
   2  10   4    1.30    1.70
   6 -11  -4    2.00    1.40
   6 -11  -4    1.40    1.20
   6 -11  -4    0.60    1.20
  -6  11   4   -1.50    1.10
  -6  11   4   -2.20    1.60
   5 -11  -4    2.30    1.30
  -5  11   4   -1.50    1.60
  -5  11   4    0.70    1.70
   4 -11  -4    4.40    1.70
  -4  11   4    4.00    1.80
  -4  11   4    3.30    1.70
   3 -11  -4   -0.10    1.10
  -3  11   4    0.80    1.70
  -3  11   4    0.20    1.60
   2 -11  -4    7.10    1.80
  -2  11   4    5.00    2.00
  -2  11   4    6.10    2.00
   1 -11  -4    1.00    1.40
  -1  11   4    0.30    1.70
  -1  11   4    0.00    1.50
   0 -11  -4    2.40    1.30
   0  11   4   -0.60    1.40
   0  11   4   -1.10    1.30
  -3 -11   5   -1.90    1.50
   2  11  -5   -0.70    1.10
   2  11  -5    6.30    1.90
   2  11  -5    1.60    1.80
  -2 -11   5    2.30    1.90
  -2 -11   5    2.60    1.70
  -2 -11   5   -0.20    1.50
   1  11  -5   -1.20    1.00
   1  11  -5    1.10    1.50
   1  11  -5   -2.70    1.60
  -1 -11   5    1.00    1.60
  -1 -11   5    2.70    1.80
   0  11  -5   -1.40    1.60
   0  11  -5    2.10    1.80
   0  11  -5    1.00    1.60
   0 -11   5    2.00    1.70
   0 -11   5    1.30    1.60
  -1  11  -5   -3.10    1.60
  -1  11  -5   -0.30    1.60
   1 -11   5   -2.80    1.20
   1 -11   5    1.50    1.40
  -2  11  -5    0.20    1.80
  -2  11  -5    1.10    1.80
   2 -11   5    1.70    1.90
   5  10  -5   -1.30    1.60
   5  10  -5    4.50    1.70
  -5 -10   5    4.10    2.00
  -5 -10   5    5.40    2.10
  -5 -10   5    1.50    1.70
   4  10  -5    0.80    1.60
   4  10  -5    2.70    1.40
  -4 -10   5   -1.00    1.30
  -4 -10   5   -1.30    1.50
  -4 -10   5   -0.10    1.50
   3  10  -5    0.80    1.70
   3  10  -5    2.60    1.30
  -3 -10   5    0.40    1.40
  -3 -10   5    2.90    1.60
  -3 -10   5    0.20    1.50
   2  10  -5    2.90    1.30
   2  10  -5    0.10    1.60
  -2 -10   5    3.20    1.90
  -2 -10   5    1.00    1.50
  -2 -10   5    3.90    1.80
   1  10  -5   -0.20    1.00
   1  10  -5    1.10    1.60
   1  10  -5    1.50    1.30
  -1 -10   5    1.30    1.60
  -1 -10   5   -0.20    1.50
   0  10  -5   -2.00    1.50
   0  10  -5    1.80    1.10
   0  10  -5    2.60    1.50
   0 -10   5   -0.30    1.30
   0 -10   5    2.10    1.50
  -1  10  -5   -0.10    1.00
  -1  10  -5    0.70    1.40
  -1  10  -5    0.80    1.70
   1 -10   5    2.60    1.50
   1 -10   5    3.30    1.80
  -2  10  -5   19.80    2.30
  -2  10  -5   16.10    2.50
  -2  10  -5   13.00    2.70
   2 -10   5   16.40    2.60
  -3  10  -5    4.10    1.80
   3 -10   5    1.80    1.50
   3 -10   5    4.80    1.90
  -4  10  -5    0.20    1.70
   4 -10   5    3.80    1.70
   4 -10   5    0.80    1.70
   6   9  -5    3.50    1.60
   6   9  -5   -1.10    1.40
  -6  -9   5   -1.30    1.30
  -6  -9   5    1.70    1.50
  -6  -9   5   -0.50    1.30
   5   9  -5   -2.60    1.30
   5   9  -5    4.50    1.50
  -5  -9   5    0.50    1.50
  -5  -9   5    0.40    1.60
  -5  -9   5    0.60    1.50
   4   9  -5    1.00    1.30
   4   9  -5   -0.50    1.30
  -4  -9   5    0.60    1.40
  -4  -9   5   -2.70    1.40
  -4  -9   5    0.00    1.40
   3   9  -5    2.20    1.30
   3   9  -5   -2.20    1.20
  -3  -9   5    0.30    1.40
  -3  -9   5    5.00    2.00
  -3  -9   5    2.80    1.50
   2   9  -5    9.20    1.70
   2   9  -5    8.90    2.00
  -2  -9   5   12.30    2.30
  -2  -9   5   13.60    2.20
  -2  -9   5   13.50    2.40
   1   9  -5    2.80    1.20
   1   9  -5    1.50    1.70
   1   9  -5    4.20    1.50
  -1  -9   5    4.40    1.80
  -1  -9   5    3.20    1.50
  -1  -9   5    3.30    1.60
   0   9  -5    1.40    1.60
   0   9  -5   -0.90    1.20
   0   9  -5    0.10    1.00
   0  -9   5    0.60    1.30
   0  -9   5    1.30    1.30
  -1   9  -5   -1.10    0.90
  -1   9  -5    0.90    1.20
  -1   9  -5    2.00    1.50
   1  -9   5    0.70    1.20
   1  -9   5    1.30    1.40
  -2   9  -5    8.80    1.60
  -2   9  -5    8.80    2.30
  -2   9  -5   14.10    2.30
   2  -9   5   12.60    1.60
   2  -9   5    8.20    1.90
   2  -9   5   13.90    2.10
  -3   9  -5   24.90    2.80
  -3   9  -5   26.10    2.50
   3  -9   5   23.20    2.80
   3  -9   5   20.40    2.50
   3  -9   5   21.00    2.10
  -4   9  -5   23.20    2.40
  -4   9  -5   19.20    2.70
   4  -9   5   16.60    2.50
   4  -9   5   15.50    2.00
   4  -9   5   25.50    2.90
  -5   9  -5    0.40    1.40
  -5   9  -5   -0.30    1.20
   5  -9   5    1.10    1.20
   5  -9   5    0.70    1.50
   5  -9   5   -2.20    1.40
   7   8  -5    0.10    1.50
  -7  -8   5    1.80    1.50
  -7  -8   5    0.70    1.50
   6   8  -5    0.80    1.30
   6   8  -5    1.10    1.30
   6   8  -5    0.20    1.30
  -6  -8   5   -1.30    1.20
  -6  -8   5   -0.50    1.30
  -6  -8   5   -0.10    1.30
   5   8  -5    3.30    1.30
   5   8  -5    3.00    1.50
   5   8  -5    3.20    1.50
  -5  -8   5    3.20    1.70
  -5  -8   5    4.40    1.60
  -5  -8   5    2.80    1.40
   4   8  -5    6.10    1.50
   4   8  -5    5.20    1.60
  -4  -8   5    5.40    1.80
  -4  -8   5    6.00    1.60
  -4  -8   5    5.70    1.70
   3   8  -5    0.40    1.20
   3   8  -5    1.30    1.10
  -3  -8   5    1.20    1.50
  -3  -8   5    1.30    1.20
  -3  -8   5    1.30    1.30
   2   8  -5   -1.10    0.80
   2   8  -5    0.60    1.10
  -2  -8   5    0.30    1.10
  -2  -8   5    0.30    1.20
  -2  -8   5   -0.10    1.10
   1   8  -5   10.30    1.60
   1   8  -5   10.30    1.90
  -1  -8   5   12.20    1.90
  -1  -8   5   11.60    1.80
  -1  -8   5   12.00    1.30
  -1  -8   5   13.50    2.10
   0   8  -5   -0.40    1.30
   0   8  -5    0.70    1.00
   0   8  -5    1.10    1.00
   0  -8   5    0.40    1.00
   0  -8   5    1.20    1.10
   0  -8   5   -0.20    0.60
  -1   8  -5    8.60    1.50
  -1   8  -5   11.50    1.80
  -1   8  -5    7.40    1.90
   1  -8   5    9.40    1.80
   1  -8   5    7.60    1.20
   1  -8   5    5.80    1.60
  -2   8  -5   13.00    2.40
  -2   8  -5   11.80    1.70
  -2   8  -5   11.20    1.90
   2  -8   5   13.10    2.00
   2  -8   5   11.10    1.50
   2  -8   5   11.80    1.90
  -3   8  -5    0.00    1.10
  -3   8  -5   -1.60    1.20
  -3   8  -5   -1.10    0.90
   3  -8   5    0.10    0.80
   3  -8   5    1.00    1.30
   3  -8   5    0.30    1.20
  -4   8  -5   -0.30    1.20
  -4   8  -5    1.90    1.30
  -4   8  -5    0.50    1.10
   4  -8   5   -0.40    0.90
   4  -8   5    0.60    1.00
   4  -8   5    2.80    1.60
   4  -8   5    1.30    1.30
  -5   8  -5    0.20    1.40
  -5   8  -5   -1.70    1.00
  -5   8  -5    0.20    1.50
   5  -8   5    0.60    1.40
   5  -8   5   -0.10    1.30
   5  -8   5    0.20    1.10
  -6   8  -5    1.60    1.70
  -6   8  -5    3.30    1.50
   6  -8   5    0.50    1.60
   6  -8   5    2.50    1.70
   6  -8   5    3.30    1.30
   8   7  -5    3.20    1.90
  -8  -7   5    3.60    1.70
  -8  -7   5    2.40    1.80
   7   7  -5    1.70    1.60
  -7  -7   5   -0.10    1.40
  -7  -7   5   -1.40    1.10
   6   7  -5    2.30    1.30
   6   7  -5    2.10    1.50
  -6  -7   5    4.00    1.70
  -6  -7   5    3.80    1.70
   5   7  -5   17.10    2.00
   5   7  -5   16.10    2.20
   5   7  -5   15.00    2.00
  -5  -7   5   18.40    2.70
  -5  -7   5   13.40    2.10
  -5  -7   5   20.40    2.50
   4   7  -5   65.79    3.40
   4   7  -5   60.69    3.50
   4   7  -5   70.29    3.60
  -4  -7   5   61.29    3.80
  -4  -7   5   56.99    3.30
  -4  -7   5   60.79    3.40
   3   7  -5   43.40    2.70
   3   7  -5   41.40    3.00
  -3  -7   5   45.60    3.00
  -3  -7   5   43.10    2.90
  -3  -7   5   42.90    3.10
   2   7  -5   11.20    1.50
   2   7  -5    9.90    1.70
  -2  -7   5   10.10    1.80
  -2  -7   5   12.00    1.80
  -2  -7   5   11.10    1.80
   1   7  -5    2.10    1.00
   1   7  -5    3.90    1.40
  -1  -7   5    4.10    1.20
  -1  -7   5    5.70    1.50
  -1  -7   5    4.50    1.30
  -1  -7   5    2.70    0.80
   0   7  -5   24.30    2.50
   0   7  -5   30.60    2.50
   0   7  -5   32.60    2.20
   0  -7   5   28.80    2.40
   0  -7   5   31.90    1.90
   0  -7   5   33.40    2.40
  -1   7  -5   45.80    2.80
  -1   7  -5   44.50    2.60
  -1   7  -5   39.40    2.50
  -1   7  -5   44.40    3.30
   1  -7   5   44.40    2.80
   1  -7   5   43.00    2.30
   1  -7   5   42.50    2.70
  -2   7  -5    0.10    0.90
  -2   7  -5   -0.20    0.90
  -2   7  -5    0.20    0.90
  -2   7  -5   -0.60    1.10
   2  -7   5    0.00    0.90
   2  -7   5    1.00    1.10
   2  -7   5    1.80    0.90
  -3   7  -5    0.20    0.80
  -3   7  -5   -0.60    1.10
  -3   7  -5    0.00    1.00
   3  -7   5   -1.20    1.00
   3  -7   5    0.00    1.10
   3  -7   5    0.20    0.80
   3  -7   5    1.50    0.90
  -4   7  -5   -0.10    1.20
  -4   7  -5   -0.20    0.90
  -4   7  -5    0.60    1.20
   4  -7   5    0.50    0.90
   4  -7   5    2.00    1.30
   4  -7   5    1.40    0.90
   4  -7   5    1.00    1.20
  -5   7  -5    4.30    1.70
  -5   7  -5    2.30    1.40
  -5   7  -5    4.00    1.40
   5  -7   5    3.60    1.40
   5  -7   5    3.30    1.20
   5  -7   5    1.20    1.40
   5  -7   5    3.60    1.40
  -6   7  -5    1.50    1.60
  -6   7  -5    1.70    1.40
  -6   7  -5   -0.70    1.30
   6  -7   5   -1.50    1.30
   6  -7   5    4.20    1.50
   6  -7   5    0.60    1.20
  -7   7  -5   -0.70    1.50
  -7   7  -5   -0.60    1.20
   7  -7   5   -1.50    1.10
   7  -7   5   -1.70    1.30
   9   6  -5    1.00    1.60
  -9  -6   5    3.20    1.80
  -9  -6   5    3.70    1.60
   8   6  -5    3.30    1.60
  -8  -6   5    5.60    1.90
  -8  -6   5    0.50    1.50
   7   6  -5    2.90    1.50
  -7  -6   5    3.70    1.60
  -7  -6   5    3.10    1.70
   6   6  -5   73.99    3.70
   6   6  -5   76.59    4.00
  -6  -6   5   81.99    4.20
  -6  -6   5   80.49    4.40
  -6  -6   5   79.29    4.30
   5   6  -5   60.59    3.20
   5   6  -5   55.99    3.20
   5   6  -5   53.29    3.10
  -5  -6   5   52.59    3.40
  -5  -6   5   55.69    3.60
  -5  -6   5   58.79    3.40
   4   6  -5   11.30    1.60
   4   6  -5   16.60    2.00
   4   6  -5   14.50    1.70
  -4  -6   5   11.80    1.80
  -4  -6   5   14.60    1.80
  -4  -6   5   15.10    2.30
   3   6  -5    5.60    1.30
   3   6  -5    6.20    1.20
  -3  -6   5    6.70    1.60
  -3  -6   5    7.10    1.30
  -3  -6   5    7.30    1.40
  -3  -6   5    7.20    1.40
   2   6  -5    5.50    1.20
   2   6  -5    5.40    1.30
  -2  -6   5    5.60    1.20
  -2  -6   5    6.80    1.20
  -2  -6   5    8.10    1.60
  -2  -6   5    6.20    1.20
   1   6  -5   81.29    3.50
   1   6  -5   75.29    3.40
   1   6  -5   80.79    3.90
  -1  -6   5   82.19    3.50
  -1  -6   5   83.69    3.60
  -1  -6   5   78.69    3.70
   0   6  -5  226.78    6.80
   0   6  -5  230.48    7.40
   0   6  -5  221.68    7.70
   0   6  -5  216.88    7.10
   0  -6   5  220.88    7.30
   0  -6   5  215.38    7.40
   0  -6   5  227.08    6.90
  -1   6  -5   26.40    2.20
  -1   6  -5   23.00    1.90
  -1   6  -5   23.10    2.40
  -1   6  -5   28.70    2.00
   1  -6   5   27.00    2.00
   1  -6   5   25.50    1.80
   1  -6   5   29.90    2.30
  -2   6  -5    2.60    1.00
  -2   6  -5    1.70    1.00
  -2   6  -5    0.00    0.80
   2  -6   5    2.80    1.10
   2  -6   5    1.30    0.80
   2  -6   5    2.00    0.90
  -3   6  -5   20.50    2.10
  -3   6  -5   28.50    2.30
  -3   6  -5   23.70    2.20
   3  -6   5   23.10    2.20
   3  -6   5   26.70    1.80
   3  -6   5   24.80    2.20
   3  -6   5   25.90    2.00
  -4   6  -5    3.80    1.20
  -4   6  -5    4.60    1.40
  -4   6  -5    5.60    1.40
   4  -6   5    4.40    1.30
   4  -6   5    4.30    1.20
   4  -6   5    5.10    1.40
   4  -6   5    1.90    1.00
  -5   6  -5   12.30    1.90
  -5   6  -5   13.80    1.90
  -5   6  -5   10.50    1.90
   5  -6   5    9.90    1.80
   5  -6   5   12.00    1.90
   5  -6   5   13.00    1.90
   5  -6   5   11.20    1.60
  -6   6  -5   16.50    2.40
  -6   6  -5   14.30    2.20
   6  -6   5   17.40    2.20
   6  -6   5   16.40    2.20
  -7   6  -5    2.50    1.50
  -7   6  -5    1.10    1.40
   7  -6   5   -0.30    1.30
   7  -6   5   -1.00    1.10
  10   5  -5    7.70    2.30
 -10  -5   5    7.20    2.20
 -10  -5   5    7.80    2.10
   9   5  -5    2.90    1.70
  -9  -5   5    1.70    1.60
  -9  -5   5    0.10    1.50
   8   5  -5    1.00    1.50
  -8  -5   5    2.70    1.40
  -8  -5   5    1.90    1.50
   7   5  -5    2.10    1.30
   7   5  -5    0.60    1.10
  -7  -5   5    2.00    1.50
  -7  -5   5    1.60    1.20
  -7  -5   5    1.50    1.30
   6   5  -5    3.00    1.00
   6   5  -5    6.70    1.60
  -6  -5   5    5.30    1.60
  -6  -5   5    7.30    1.60
  -6  -5   5    5.00    1.50
   5   5  -5   15.10    1.90
   5   5  -5   16.90    1.70
  -5  -5   5   17.10    2.00
  -5  -5   5   15.90    2.20
  -5  -5   5   14.90    2.10
   4   5  -5    8.90    1.50
   4   5  -5    9.50    1.40
   4   5  -5   10.40    1.40
  -4  -5   5   10.90    1.50
  -4  -5   5    8.70    1.60
  -4  -5   5    8.50    1.70
   3   5  -5    0.10    0.80
   3   5  -5   -1.50    0.60
   3   5  -5   -0.30    0.60
  -3  -5   5   -1.30    0.60
  -3  -5   5    0.60    1.00
  -3  -5   5   -0.50    0.80
  -3  -5   5   -0.20    0.70
   2   5  -5    0.70    0.90
   2   5  -5   -0.30    0.70
  -2  -5   5   -1.40    0.60
  -2  -5   5   -0.90    0.90
  -2  -5   5   -0.20    0.80
  -2  -5   5   -0.30    0.60
   1   5  -5   13.80    1.50
   1   5  -5   14.90    1.00
   1   5  -5   12.30    1.60
  -1  -5   5   13.90    1.40
  -1  -5   5   12.20    1.40
  -1  -5   5   17.80    1.60
  -1  -5   5   16.00    1.90
   0   5  -5   13.40    0.70
   0   5  -5   12.80    1.40
   0   5  -5   13.40    1.50
   0   5  -5   14.10    1.20
   0   5  -5   13.40    1.40
   0   5  -5   14.20    1.80
   0  -5   5   13.70    1.70
   0  -5   5   11.40    1.40
   0  -5   5   12.40    1.30
  -1   5  -5   51.89    2.60
  -1   5  -5   53.59    2.50
  -1   5  -5   52.89    2.70
   1  -5   5   47.60    2.40
   1  -5   5   54.89    2.70
   1  -5   5   53.49    2.60
  -2   5  -5    2.50    1.00
  -2   5  -5    0.90    0.80
  -2   5  -5   -0.50    0.80
   2  -5   5    1.70    0.80
   2  -5   5    2.70    0.90
   2  -5   5    0.50    0.90
  -3   5  -5   15.40    1.70
  -3   5  -5   18.30    1.90
  -3   5  -5   17.70    1.90
   3  -5   5   12.60    1.60
   3  -5   5   19.40    1.90
   3  -5   5   18.60    1.90
   3  -5   5   18.00    1.60
  -4   5  -5    1.90    1.10
  -4   5  -5    1.20    1.10
  -4   5  -5    2.20    1.10
   4  -5   5    2.50    1.10
   4  -5   5    1.70    0.90
   4  -5   5    1.50    1.00
   4  -5   5    2.10    1.00
  -5   5  -5    0.30    1.00
  -5   5  -5    0.20    1.00
  -5   5  -5    0.60    0.90
   5  -5   5   -0.40    1.00
   5  -5   5    0.20    0.90
   5  -5   5   -0.60    1.00
   5  -5   5   -0.80    0.90
  -6   5  -5   -1.30    1.20
  -6   5  -5   -2.00    1.00
   6  -5   5    0.80    1.20
   6  -5   5    0.10    1.20
  -7   5  -5   15.50    2.30
  -7   5  -5   13.10    2.30
   7  -5   5   14.90    2.10
   7  -5   5   18.70    2.50
  10   4  -5    1.90    1.80
 -10  -4   5   -0.10    1.60
 -10  -4   5    2.60    1.50
 -10  -4   5    1.90    1.60
   9   4  -5   10.70    2.40
  -9  -4   5    7.60    2.00
  -9  -4   5   10.50    2.10
  -9  -4   5    8.70    2.00
   8   4  -5   12.50    1.80
   8   4  -5   13.10    2.20
  -8  -4   5   12.80    2.20
  -8  -4   5   12.40    2.00
  -8  -4   5   15.30    2.30
  -8  -4   5   14.20    2.20
   7   4  -5    2.80    1.30
   7   4  -5    1.90    1.00
  -7  -4   5    1.10    1.10
  -7  -4   5    2.60    1.20
  -7  -4   5    3.20    1.50
  -7  -4   5    0.90    1.30
   6   4  -5   72.39    3.30
   6   4  -5   67.49    3.40
   6   4  -5   72.49    3.00
  -6  -4   5   72.19    3.50
  -6  -4   5   71.69    3.80
  -6  -4   5   69.79    4.00
   5   4  -5   12.80    1.30
   5   4  -5   11.80    1.60
  -5  -4   5    9.50    1.50
  -5  -4   5   12.90    1.90
  -5  -4   5   12.40    1.90
   4   4  -5    4.60    1.10
   4   4  -5    5.00    1.00
   4   4  -5    5.00    1.00
  -4  -4   5    6.40    1.20
  -4  -4   5    4.10    1.40
  -4  -4   5    3.00    1.20
   3   4  -5   23.20    1.70
   3   4  -5   29.20    1.90
   3   4  -5   25.90    1.80
  -3  -4   5   27.60    2.10
  -3  -4   5   25.00    2.10
  -3  -4   5   26.70    1.90
   2   4  -5   -1.30    0.50
   2   4  -5    0.20    0.80
  -2  -4   5    0.00    0.70
  -2  -4   5   -0.50    0.90
  -2  -4   5   -1.10    0.60
  -2  -4   5   -0.20    0.80
   1   4  -5   43.70    2.50
   1   4  -5   41.90    2.20
   1   4  -5   43.00    1.80
   1   4  -5   40.60    2.10
  -1  -4   5   39.70    2.10
  -1  -4   5   39.40    2.40
  -1  -4   5   43.00    2.20
  -1  -4   5   42.70    2.10
   0   4  -5    0.70    0.70
   0   4  -5    0.70    0.60
   0   4  -5    1.50    0.40
   0   4  -5    1.10    0.60
   0   4  -5   -0.20    0.70
   0  -4   5    1.30    0.70
   0  -4   5    0.50    0.60
   0  -4   5    1.30    0.80
  -1   4  -5   14.10    1.40
  -1   4  -5   12.60    1.30
  -1   4  -5   14.20    1.50
  -1   4  -5   14.90    0.90
  -1   4  -5   15.80    0.90
   1  -4   5   14.70    1.40
   1  -4   5   14.80    1.40
   1  -4   5   14.00    1.40
  -2   4  -5   25.90    1.80
  -2   4  -5   23.60    1.70
  -2   4  -5   25.80    1.40
  -2   4  -5   24.50    1.90
   2  -4   5   30.60    1.80
   2  -4   5   23.50    1.80
   2  -4   5   25.10    1.60
   2  -4   5   28.20    1.90
  -3   4  -5   81.29    3.50
  -3   4  -5   80.99    3.50
  -3   4  -5   85.79    3.20
   3  -4   5   81.99    3.50
   3  -4   5   82.49    3.40
   3  -4   5   77.69    3.50
   3  -4   5   87.59    3.60
  -4   4  -5    6.50    1.10
  -4   4  -5    6.20    1.30
  -4   4  -5    7.00    1.30
   4  -4   5    5.30    1.20
   4  -4   5    6.70    1.30
   4  -4   5    6.50    1.30
   4  -4   5    6.40    1.20
  -5   4  -5   10.00    1.60
  -5   4  -5   11.70    1.70
  -5   4  -5    8.50    1.30
   5  -4   5    8.90    1.50
   5  -4   5    6.70    1.50
   5  -4   5    8.10    1.40
  -6   4  -5    3.90    1.30
  -6   4  -5    4.70    1.40
  -6   4  -5    2.30    1.00
   6  -4   5    4.00    1.20
   6  -4   5    4.80    1.40
   6  -4   5    3.40    1.40
  -7   4  -5   10.00    1.90
  -7   4  -5   10.20    2.70
  -7   4  -5    7.40    1.70
   7  -4   5   12.80    2.20
   7  -4   5   11.40    1.90
  -8   4  -5   -1.20    1.20
  -8   4  -5   -1.20    1.20
   8  -4   5    1.10    1.30
   8  -4   5   -0.30    1.40
  11   3  -5   -0.40    1.60
 -11  -3   5   -0.50    1.40
 -11  -3   5   -1.10    1.50
  10   3  -5    2.00    1.50
 -10  -3   5    7.00    1.90
 -10  -3   5    5.70    1.80
 -10  -3   5    4.50    1.70
   9   3  -5    9.30    1.80
   9   3  -5   11.60    2.10
  -9  -3   5   10.40    2.10
  -9  -3   5   13.70    2.30
  -9  -3   5    9.10    1.80
   8   3  -5    1.80    0.90
   8   3  -5    0.80    1.10
  -8  -3   5    2.50    1.30
  -8  -3   5    2.60    1.30
  -8  -3   5    2.10    1.60
  -8  -3   5    0.40    1.40
   7   3  -5   28.50    2.20
   7   3  -5   23.90    1.90
  -7  -3   5   23.30    2.60
  -7  -3   5   26.10    2.50
  -7  -3   5   24.10    2.70
  -7  -3   5   21.50    2.20
   6   3  -5   28.10    2.10
   6   3  -5   27.30    1.50
   6   3  -5   26.80    1.90
  -6  -3   5   29.80    2.10
  -6  -3   5   25.10    2.20
  -6  -3   5   25.00    2.20
  -6  -3   5   32.10    2.70
   5   3  -5   75.39    3.20
   5   3  -5   79.99    2.90
  -5  -3   5   77.99    3.30
  -5  -3   5   74.29    3.60
  -5  -3   5   80.99    3.90
   4   3  -5    3.20    0.90
   4   3  -5    2.60    0.70
   4   3  -5    2.30    0.80
  -4  -3   5    2.00    1.10
  -4  -3   5    1.60    0.90
  -4  -3   5    1.40    1.10
   3   3  -5    5.30    1.00
   3   3  -5    5.00    0.90
   3   3  -5    3.90    0.80
  -3  -3   5    5.10    1.30
  -3  -3   5    4.70    0.90
  -3  -3   5    4.00    1.20
   2   3  -5   20.10    1.40
   2   3  -5   19.30    1.30
   2   3  -5   19.40    1.50
   2   3  -5   22.40    1.70
  -2  -3   5   20.20    1.40
  -2  -3   5   21.30    1.70
  -2  -3   5   18.30    1.80
  -2  -3   5   20.50    1.40
   1   3  -5   52.39    2.00
   1   3  -5   52.49    2.40
   1   3  -5   52.59    2.30
  -1  -3   5   52.19    2.40
  -1  -3   5   50.29    2.20
  -1  -3   5   51.49    2.20
  -1  -3   5   51.69    2.50
  -1  -3   5   51.69    1.70
   0   3  -5    4.80    0.90
   0   3  -5    5.10    0.80
   0   3  -5    5.40    0.60
   0   3  -5    5.70    0.70
   0   3  -5    4.90    0.70
   0  -3   5    5.00    0.70
   0  -3   5    4.70    1.10
   0  -3   5    3.70    0.80
  -1   3  -5  299.17    8.30
  -1   3  -5  300.47    8.50
  -1   3  -5  287.47    8.70
   1  -3   5  289.17    8.70
   1  -3   5  291.07    8.50
   1  -3   5  292.87    8.50
  -2   3  -5    0.60    0.60
  -2   3  -5   -0.10    0.50
  -2   3  -5   -0.10    0.80
   2  -3   5   -0.40    0.50
   2  -3   5   -0.50    0.70
   2  -3   5    1.00    0.70
   2  -3   5    1.20    0.70
  -3   3  -5   25.30    1.60
  -3   3  -5   26.30    1.80
  -3   3  -5   27.00    1.90
   3  -3   5   27.10    1.70
   3  -3   5   23.30    1.70
   3  -3   5   25.80    2.00
   3  -3   5   24.60    1.80
  -4   3  -5    3.00    0.90
  -4   3  -5    1.40    0.90
  -4   3  -5    0.50    0.80
  -4   3  -5    2.30    0.90
   4  -3   5    1.80    0.90
   4  -3   5    2.50    1.00
   4  -3   5    1.50    0.90
  -5   3  -5   12.50    1.60
  -5   3  -5   12.80    1.70
  -5   3  -5   16.00    1.80
   5  -3   5   11.90    1.70
   5  -3   5   13.90    1.90
   5  -3   5   12.40    1.60
  -6   3  -5    3.00    1.20
  -6   3  -5    3.60    1.10
  -6   3  -5    4.40    1.30
   6  -3   5    5.20    1.30
   6  -3   5    3.40    1.20
   6  -3   5    4.30    1.50
  -7   3  -5    5.90    1.60
  -7   3  -5    8.10    1.70
  -7   3  -5    4.70    1.40
   7  -3   5    6.90    1.50
   7  -3   5    9.80    2.10
  -8   3  -5   -0.80    0.90
  -8   3  -5   -1.00    1.60
   8  -3   5   -1.60    1.20
   8  -3   5   -2.20    1.70
  11   2  -5    2.00    1.70
 -11  -2   5   -0.60    1.60
 -11  -2   5   -0.10    1.40
  10   2  -5    5.70    1.80
 -10  -2   5    5.60    1.80
 -10  -2   5    3.40    1.80
 -10  -2   5    3.60    1.60
   9   2  -5    0.30    1.20
   9   2  -5   -0.30    0.70
  -9  -2   5   -1.60    0.90
  -9  -2   5   -0.10    1.30
  -9  -2   5    1.90    1.20
  -9  -2   5    0.50    1.30
   8   2  -5   -1.60    1.00
   8   2  -5   -0.40    0.70
  -8  -2   5    1.50    1.20
  -8  -2   5    0.20    1.00
  -8  -2   5    0.60    1.50
  -8  -2   5    1.80    1.30
   7   2  -5   45.50    2.70
   7   2  -5   46.40    2.50
  -7  -2   5   53.19    3.20
  -7  -2   5   52.89    3.40
  -7  -2   5   49.60    2.70
  -7  -2   5   45.60    2.70
   6   2  -5    2.30    0.90
   6   2  -5    1.50    0.50
   6   2  -5    1.90    0.70
  -6  -2   5    1.40    0.80
  -6  -2   5    1.00    0.90
  -6  -2   5    3.00    1.30
  -6  -2   5    1.60    1.30
   5   2  -5   46.30    2.30
   5   2  -5   48.20    1.80
  -5  -2   5   48.70    2.40
  -5  -2   5   49.80    3.10
  -5  -2   5   47.90    2.40
  -5  -2   5   50.19    2.90
   4   2  -5   -0.20    0.60
   4   2  -5    0.00    0.70
   4   2  -5   -0.20    0.40
  -4  -2   5   -0.60    0.90
  -4  -2   5    0.70    1.10
  -4  -2   5    0.20    0.60
   3   2  -5   37.90    2.00
   3   2  -5   38.30    1.90
   3   2  -5   40.90    1.90
   3   2  -5   40.60    1.80
  -3  -2   5   42.40    1.90
  -3  -2   5   40.40    2.50
  -3  -2   5   39.20    2.30
   2   2  -5   36.10    1.80
   2   2  -5   36.20    1.80
   2   2  -5   39.30    2.00
   2   2  -5   37.90    1.70
  -2  -2   5   36.90    2.10
  -2  -2   5   35.50    1.70
  -2  -2   5   37.40    1.70
   1   2  -5   60.09    2.20
   1   2  -5   59.09    2.40
   1   2  -5   57.59    2.40
  -1  -2   5   58.09    2.20
  -1  -2   5   61.49    2.00
  -1  -2   5   58.99    2.60
  -1  -2   5   56.09    2.50
  -1  -2   5   59.79    2.20
   0   2  -5  180.48    5.00
   0   2  -5  176.48    5.20
   0   2  -5  171.18    5.10
   0   2  -5  171.58    5.20
   0   2  -5  176.68    5.50
   0  -2   5  167.68    5.40
   0  -2   5  180.98    5.20
   0  -2   5  173.48    5.20
  -1   2  -5  115.19    3.70
  -1   2  -5  112.09    3.80
  -1   2  -5  115.69    4.10
   1  -2   5  110.89    3.80
   1  -2   5  111.39    3.60
   1  -2   5  112.79    4.00
   1  -2   5  117.19    3.70
   1  -2   5  113.29    3.30
  -2   2  -5   45.50    2.10
  -2   2  -5   49.99    2.30
  -2   2  -5   47.90    2.50
   2  -2   5   49.70    2.50
   2  -2   5   50.99    2.20
   2  -2   5   46.10    2.40
   2  -2   5   49.70    2.10
   2  -2   5   48.50    1.90
  -3   2  -5   52.69    2.60
  -3   2  -5   53.99    2.40
  -3   2  -5   51.09    2.40
  -3   2  -5   58.89    2.80
   3  -2   5   51.69    2.60
   3  -2   5   57.29    2.70
   3  -2   5   57.69    2.40
  -4   2  -5   48.00    2.60
  -4   2  -5   46.80    2.40
  -4   2  -5   47.70    2.50
   4  -2   5   50.89    2.80
   4  -2   5   51.39    2.80
   4  -2   5   49.10    2.40
  -5   2  -5    7.40    1.30
  -5   2  -5    6.00    1.20
  -5   2  -5    5.40    1.20
   5  -2   5    5.90    1.20
   5  -2   5    7.10    1.40
   5  -2   5    5.10    1.10
  -6   2  -5    0.90    1.00
  -6   2  -5   -1.40    0.80
  -6   2  -5    0.80    0.90
   6  -2   5    0.90    1.00
   6  -2   5    1.20    1.00
   6  -2   5   -0.40    1.00
  -7   2  -5    1.20    1.10
  -7   2  -5   -0.80    0.90
   7  -2   5    2.90    1.40
   7  -2   5    1.80    1.40
   7  -2   5    0.40    1.10
  -8   2  -5    2.60    1.30
   8  -2   5    2.60    1.60
  11   1  -5    4.40    1.90
 -11  -1   5    4.30    1.80
 -11  -1   5    5.20    2.00
  10   1  -5    1.70    1.50
  10   1  -5    0.90    0.90
 -10  -1   5    1.20    1.40
 -10  -1   5    4.10    1.70
 -10  -1   5    1.10    1.50
   9   1  -5    1.40    1.20
   9   1  -5   -0.10    0.80
  -9  -1   5    1.00    1.20
  -9  -1   5    0.00    1.40
  -9  -1   5    0.30    1.40
  -9  -1   5    0.40    1.10
   8   1  -5   11.20    1.80
   8   1  -5   13.70    1.50
  -8  -1   5   16.10    2.20
  -8  -1   5   13.20    1.80
  -8  -1   5   13.00    2.20
  -8  -1   5    9.70    1.60
   7   1  -5   41.40    2.20
   7   1  -5   37.10    2.40
  -7  -1   5   38.00    2.40
  -7  -1   5   38.60    2.80
  -7  -1   5   38.70    2.90
  -7  -1   5   37.80    2.40
   6   1  -5   20.40    1.90
  -6  -1   5   18.20    1.70
  -6  -1   5   22.40    1.80
  -6  -1   5   22.50    2.50
  -6  -1   5   16.90    2.10
   5   1  -5   47.80    2.30
  -5  -1   5   45.00    2.30
  -5  -1   5   49.40    2.30
  -5  -1   5   47.40    2.70
  -5  -1   5   49.30    2.00
  -5  -1   5   50.69    3.00
   4   1  -5    3.50    0.90
   4   1  -5    1.90    0.70
   4   1  -5    2.50    0.70
  -4  -1   5    3.20    0.70
  -4  -1   5    3.20    0.70
  -4  -1   5    2.40    0.50
  -4  -1   5    3.20    1.20
  -4  -1   5    2.70    0.40
  -4  -1   5    5.10    1.30
   3   1  -5   53.19    2.40
   3   1  -5   50.69    2.00
   3   1  -5   53.99    2.20
  -3  -1   5   50.99    2.00
  -3  -1   5   54.19    1.60
  -3  -1   5   50.49    2.70
  -3  -1   5   50.09    2.70
   2   1  -5   23.00    1.50
   2   1  -5   22.00    1.40
   2   1  -5   24.10    1.40
   2   1  -5   22.30    1.10
  -2  -1   5   21.20    1.70
  -2  -1   5   21.60    0.90
  -2  -1   5   19.20    1.60
  -2  -1   5   21.80    1.10
   1   1  -5   77.79    2.80
   1   1  -5   76.89    2.90
   1   1  -5   78.59    2.80
   1   1  -5   80.99    2.90
  -1  -1   5   79.79    2.50
  -1  -1   5   78.99    2.50
  -1  -1   5   81.79    3.00
  -1  -1   5   80.59    3.20
   0   1  -5  185.68    5.70
   0   1  -5  191.38    5.30
   0   1  -5  196.28    5.60
   0   1  -5  186.98    5.80
   0  -1   5  190.28    5.60
   0  -1   5  185.08    5.80
   0  -1   5  186.38    5.30
  -1   1  -5   11.50    1.20
  -1   1  -5   15.10    1.40
  -1   1  -5   14.30    1.00
   1  -1   5   14.00    1.20
   1  -1   5   13.60    1.30
   1  -1   5   16.00    1.00
   1  -1   5   16.50    1.00
   1  -1   5   13.10    1.00
  -2   1  -5   28.70    1.80
  -2   1  -5   26.20    1.40
  -2   1  -5   25.80    1.70
  -2   1  -5   26.90    1.50
   2  -1   5   27.20    1.40
   2  -1   5   25.80    1.30
   2  -1   5   25.30    1.00
   2  -1   5   27.00    1.00
   2  -1   5   24.70    1.70
   2  -1   5   27.10    1.80
  -3   1  -5   11.50    1.50
  -3   1  -5   10.40    1.10
  -3   1  -5   11.80    1.20
  -3   1  -5    9.30    1.30
   3  -1   5   12.40    1.50
   3  -1   5   10.80    1.10
   3  -1   5   11.50    1.40
  -4   1  -5   26.10    1.70
  -4   1  -5   27.40    1.80
  -4   1  -5   25.10    1.90
   4  -1   5   26.30    2.10
   4  -1   5   24.00    2.20
   4  -1   5   23.70    1.70
  -5   1  -5    0.20    0.80
  -5   1  -5   -0.50    0.70
   5  -1   5   -1.70    0.80
   5  -1   5    0.20    0.90
   5  -1   5    0.00    0.90
   5  -1   5    0.70    0.80
  -6   1  -5    3.10    1.10
  -6   1  -5    5.10    1.40
   6  -1   5    0.90    1.10
   6  -1   5    2.60    1.10
   6  -1   5    4.50    1.30
  -7   1  -5   -1.50    0.90
   7  -1   5    0.80    1.20
  -8   1  -5    6.80    1.60
   8  -1   5    9.70    2.00
  11   0  -5    1.80    1.80
  11   0  -5    3.50    1.70
 -11   0   5   -0.60    1.40
 -11   0   5   -0.50    1.40
  10   0  -5    0.20    1.20
  10   0  -5   -1.10    0.70
  10   0  -5    0.30    1.40
 -10   0   5    0.20    1.20
 -10   0   5    0.90    1.50
 -10   0   5   -2.50    1.20
   9   0  -5    5.00    1.50
   9   0  -5    7.00    1.50
   9   0  -5    8.00    1.30
  -9   0   5    7.40    1.60
  -9   0   5    7.30    1.80
  -9   0   5   10.10    2.20
  -9   0   5    8.90    1.70
   8   0  -5   52.79    3.00
   8   0  -5   50.29    2.90
   8   0  -5   51.39    2.50
  -8   0   5   51.59    3.00
  -8   0   5   51.39    3.50
  -8   0   5   53.99    3.00
  -8   0   5   50.29    3.10
  -8   0   5   54.99    3.00
   7   0  -5    3.40    1.00
   7   0  -5    3.90    1.20
   7   0  -5    2.00    0.70
  -7   0   5    3.40    1.00
  -7   0   5    2.80    1.00
  -7   0   5    2.00    1.00
  -7   0   5    1.90    1.30
  -7   0   5    1.90    1.40
   6   0  -5   35.60    2.30
   6   0  -5   39.40    2.20
   6   0  -5   37.90    2.10
  -6   0   5   37.50    2.50
  -6   0   5   38.50    2.20
  -6   0   5   34.30    2.10
  -6   0   5   38.00    3.00
  -6   0   5   36.40    2.10
   5   0  -5    2.20    0.80
   5   0  -5    2.20    0.90
  -5   0   5    2.10    0.80
  -5   0   5    1.60    1.30
  -5   0   5    0.20    1.00
  -5   0   5    1.90    0.80
  -5   0   5    1.50    0.70
   4   0  -5   47.10    2.00
   4   0  -5   49.60    2.00
  -4   0   5   50.09    2.80
  -4   0   5   49.70    2.00
  -4   0   5   48.60    1.90
  -4   0   5   50.49    2.00
  -4   0   5   48.10    1.40
  -4   0   5   47.60    2.00
  -4   0   5   46.60    2.60
   3   0  -5  840.72   21.60
   3   0  -5  823.72   22.20
   3   0  -5  802.72   21.80
   3   0  -5  873.81   22.90
  -3   0   5  841.72   21.60
  -3   0   5  811.62   22.50
  -3   0   5  834.42   21.60
  -3   0   5  817.32   22.50
  -3   0   5  840.22   21.70
   2   0  -5  240.78    7.10
   2   0  -5  240.38    6.40
   2   0  -5  228.98    6.90
   2   0  -5  227.58    6.70
  -2   0   5  237.48    6.60
  -2   0   5  240.38    7.20
  -2   0   5  237.58    6.40
  -2   0   5  231.38    7.30
   1   0  -5  129.59    3.50
   1   0  -5  128.19    4.20
   1   0  -5  129.89    3.50
   1   0  -5  127.39    4.10
   1   0  -5  132.29    3.50
   1   0  -5  124.59    4.10
  -1   0   5  124.99    4.30
  -1   0   5  125.39    3.50
  -1   0   5  127.09    4.30
  -1   0   5  129.39    3.50
   0   0  -5  458.65   11.60
   0   0  -5  436.96   12.40
   0   0  -5  459.15   12.30
   0   0  -5  449.36   11.60
   0   0  -5  442.76   12.20
   0   0   5  443.66   12.30
   0   0   5  441.16   11.60
   0   0   5  453.95   11.60
   0   0   5  443.26   11.60
   0   0   5  442.26   12.20
  -1   0  -5   67.79    2.20
  -1   0  -5   65.79    2.70
  -1   0  -5   68.19    2.20
  -1   0  -5   65.59    2.80
   1   0   5   64.99    2.10
   1   0   5   68.49    2.60
   1   0   5   66.19    2.50
   1   0   5   68.59    2.70
   1   0   5   65.09    2.70
  -2   0  -5  119.99    3.70
  -2   0  -5  119.39    3.70
  -2   0  -5  114.79    4.30
  -2   0  -5  117.69    4.20
   2   0   5  123.39    4.30
   2   0   5  117.29    3.70
   2   0   5  118.09    4.20
   2   0   5  116.99    3.70
   2   0   5  118.69    3.60
  -3   0  -5  192.08    5.60
  -3   0  -5  188.78    6.40
   3   0   5  173.68    6.00
   3   0   5  183.58    5.70
   3   0   5  183.28    5.60
   3   0   5  191.58    5.40
   3   0   5  185.58    6.20
  -4   0  -5   21.10    1.80
  -4   0  -5   22.90    1.50
   4   0   5   19.20    1.50
   4   0   5   22.20    2.00
   4   0   5   24.90    2.10
   4   0   5   22.60    1.60
  -5   0  -5   -0.10    0.80
  -5   0  -5    0.40    0.90
   5   0   5    1.00    1.00
   5   0   5    0.20    0.90
   5   0   5    0.50    0.90
   5   0   5    1.90    0.90
  -6   0  -5   -0.50    0.90
  -6   0  -5    0.60    1.00
   6   0   5    2.50    1.20
   6   0   5    0.20    1.30
  -7   0  -5   11.30    2.00
   7   0   5   17.40    2.30
  -8   0  -5    2.10    1.30
   8   0   5    6.10    1.70
  12  -1  -5   -1.70    1.60
  12  -1  -5    0.60    1.80
  12  -1  -5   -1.80    1.30
 -12   1   5   -2.80    1.70
 -12   1   5   -1.00    1.50
  11  -1  -5   -0.60    1.60
  11  -1  -5   -0.60    1.20
  11  -1  -5   -1.00    1.30
  11  -1  -5   -1.50    1.30
 -11   1   5   -0.50    1.30
 -11   1   5   -0.20    1.50
  10  -1  -5    0.90    1.20
  10  -1  -5   -0.90    1.30
  10  -1  -5    1.20    1.20
  10  -1  -5   -0.60    1.10
 -10   1   5   -0.70    1.60
 -10   1   5    0.50    1.20
 -10   1   5   -0.10    1.40
 -10   1   5   -2.00    1.00
   9  -1  -5    0.60    1.00
   9  -1  -5    0.00    0.60
   9  -1  -5    0.70    1.00
   9  -1  -5   -1.10    1.00
   9  -1  -5    1.20    1.20
  -9   1   5   -0.30    1.20
  -9   1   5    1.20    1.10
  -9   1   5   -1.10    1.10
  -9   1   5    0.60    1.50
   8  -1  -5    3.10    0.70
   8  -1  -5    5.10    1.30
   8  -1  -5    3.40    1.20
   8  -1  -5    3.10    1.20
  -8   1   5    8.10    1.40
  -8   1   5    5.60    1.40
  -8   1   5    3.90    1.60
  -8   1   5    6.10    1.90
   7  -1  -5   28.50    2.00
   7  -1  -5   28.20    2.30
   7  -1  -5   32.90    2.10
  -7   1   5   29.30    2.10
  -7   1   5   29.20    2.30
  -7   1   5   26.70    2.20
  -7   1   5   30.50    2.90
   6  -1  -5   87.59    3.40
   6  -1  -5   89.29    3.50
   6  -1  -5   88.19    3.80
  -6   1   5   84.29    3.40
  -6   1   5   89.99    4.10
  -6   1   5   91.29    3.10
  -6   1   5   86.69    3.60
  -6   1   5   87.29    4.30
   5  -1  -5  137.69    4.40
   5  -1  -5  139.39    4.80
   5  -1  -5  140.49    4.30
   5  -1  -5  138.39    4.90
   5  -1  -5  136.39    4.40
  -5   1   5  125.09    5.10
  -5   1   5  140.39    4.60
  -5   1   5  127.79    4.40
  -5   1   5  131.99    5.10
  -5   1   5  144.39    4.30
   4  -1  -5    0.30    0.50
   4  -1  -5    0.00    0.40
   4  -1  -5    0.20    0.40
   4  -1  -5    0.50    0.70
   4  -1  -5    0.50    0.80
  -4   1   5    0.10    0.50
  -4   1   5    0.10    0.20
  -4   1   5    1.10    1.00
  -4   1   5    0.30    0.50
  -4   1   5    0.10    0.50
  -4   1   5    0.00    0.40
  -4   1   5    0.00    1.00
   3  -1  -5    3.80    0.80
   3  -1  -5    6.20    0.70
   3  -1  -5    3.80    0.90
   3  -1  -5    7.40    0.70
  -3   1   5    5.00    1.20
  -3   1   5    6.70    0.70
  -3   1   5    7.00    0.70
  -3   1   5    5.70    0.70
  -3   1   5    7.20    1.20
   2  -1  -5   35.80    1.10
   2  -1  -5   34.20    1.90
   2  -1  -5   38.30    1.20
   2  -1  -5   37.40    1.90
   2  -1  -5   36.80    1.60
   2  -1  -5   31.90    1.80
  -2   1   5   37.70    1.10
  -2   1   5   35.20    1.10
  -2   1   5   37.20    1.70
  -2   1   5   35.70    1.10
  -2   1   5   38.20    2.10
   1  -1  -5   33.80    1.80
   1  -1  -5   34.80    1.60
   1  -1  -5   33.10    1.80
   1  -1  -5   32.90    1.80
  -1   1   5   32.60    1.80
   0  -1  -5    0.50    0.60
   0  -1  -5   -0.50    0.50
   0  -1  -5    0.60    0.70
   0  -1  -5    0.10    0.60
   0   1   5    0.00    0.60
   0   1   5    0.10    0.60
  -1  -1  -5   90.79    2.60
  -1  -1  -5   93.29    2.60
  -1  -1  -5   87.19    3.50
  -1  -1  -5   95.99    3.40
  -1  -1  -5   86.09    2.60
  -1  -1  -5   92.99    3.40
   1   1   5   83.59    3.30
   1   1   5   89.69    3.20
   1   1   5   94.79    3.30
   1   1   5   88.49    2.60
   1   1   5   89.49    2.60
  -2  -1  -5    6.70    0.70
  -2  -1  -5    4.90    1.10
  -2  -1  -5    5.30    0.90
   2   1   5    7.50    0.90
   2   1   5    5.50    1.00
   2   1   5    4.80    1.00
   2   1   5    5.10    0.70
   2   1   5    6.30    0.80
  -3  -1  -5   10.40    1.60
  -3  -1  -5   11.20    1.10
   3   1   5    9.70    1.30
   3   1   5   13.00    1.20
   3   1   5   12.30    1.10
   3   1   5   11.90    1.50
  -4  -1  -5    5.50    1.30
  -4  -1  -5    8.80    1.10
   4   1   5    5.20    1.20
   4   1   5    8.90    1.30
   4   1   5    7.40    1.00
   4   1   5    9.30    1.20
  -5  -1  -5    0.40    0.80
  -5  -1  -5   -0.70    0.70
   5   1   5   -0.40    0.80
   5   1   5    0.60    0.90
   5   1   5    0.10    1.10
  -6  -1  -5    0.40    1.00
   6   1   5   -0.50    1.00
  -7  -1  -5   15.10    2.30
   7   1   5   23.50    2.50
  12  -2  -5   -2.30    1.30
  12  -2  -5   -0.80    1.50
  12  -2  -5   -0.80    1.40
  12  -2  -5    1.90    1.70
 -12   2   5   -1.00    1.60
  11  -2  -5    0.50    1.30
  11  -2  -5    1.00    1.50
  11  -2  -5   -1.70    1.30
  11  -2  -5   -1.50    1.10
 -11   2   5   -2.00    1.20
 -11   2   5    0.50    1.40
  10  -2  -5    3.40    1.60
  10  -2  -5    2.30    1.30
  10  -2  -5    5.60    1.50
  10  -2  -5    1.60    1.30
 -10   2   5    2.10    1.70
 -10   2   5    0.40    1.70
 -10   2   5    2.70    1.70
 -10   2   5    4.50    1.50
   9  -2  -5    7.30    1.60
   9  -2  -5   11.90    1.70
   9  -2  -5   14.10    1.90
   9  -2  -5   13.10    2.10
  -9   2   5   11.60    1.90
  -9   2   5   11.40    2.20
  -9   2   5   11.30    2.10
  -9   2   5   10.00    1.90
   8  -2  -5    0.10    0.90
   8  -2  -5    0.50    0.90
   8  -2  -5    1.20    0.90
   8  -2  -5   -0.70    1.00
  -8   2   5   -0.90    1.40
  -8   2   5    1.10    0.90
  -8   2   5   -0.30    1.30
  -8   2   5    1.90    1.30
   7  -2  -5   -0.80    0.80
   7  -2  -5    0.20    0.90
   7  -2  -5    1.50    0.80
  -7   2   5   -0.30    1.30
  -7   2   5    0.10    0.80
  -7   2   5   -1.10    1.00
  -7   2   5    1.40    1.00
   6  -2  -5   20.50    1.80
   6  -2  -5   18.90    1.70
   6  -2  -5   20.30    1.60
   6  -2  -5   17.70    1.80
  -6   2   5   19.40    1.50
  -6   2   5   21.10    2.00
  -6   2   5   19.30    2.20
  -6   2   5   20.00    1.10
  -6   2   5   20.50    2.30
   5  -2  -5    3.80    0.80
   5  -2  -5    1.60    0.80
   5  -2  -5    0.70    0.40
   5  -2  -5    2.00    0.90
   5  -2  -5    2.10    0.70
  -5   2   5    1.50    1.10
  -5   2   5    2.90    0.70
  -5   2   5    1.60    0.40
  -5   2   5    2.20    0.80
   4  -2  -5   18.20    1.00
   4  -2  -5   17.10    1.10
   4  -2  -5   19.30    1.10
   4  -2  -5   18.20    1.50
   4  -2  -5   17.30    1.50
  -4   2   5   17.00    1.80
  -4   2   5   16.30    1.00
  -4   2   5   19.20    1.40
  -4   2   5   17.80    0.80
  -4   2   5   19.60    1.00
   3  -2  -5   13.90    1.40
   3  -2  -5   10.10    1.20
   3  -2  -5   12.70    0.70
   3  -2  -5   13.80    0.80
   3  -2  -5   14.00    0.70
  -3   2   5   12.50    1.10
  -3   2   5   11.50    0.90
  -3   2   5   12.90    0.80
  -3   2   5   12.30    1.50
   2  -2  -5    8.90    1.10
   2  -2  -5   10.10    0.80
   2  -2  -5   10.90    1.30
   2  -2  -5    7.10    1.00
  -2   2   5   10.50    1.30
  -2   2   5    9.40    1.10
   1  -2  -5  143.29    5.00
   1  -2  -5  150.18    5.00
   1  -2  -5  156.58    5.10
   1  -2  -5  154.68    4.60
  -1   2   5  157.98    5.20
  -1   2   5  153.28    4.70
   0  -2  -5   40.90    2.20
   0  -2  -5   40.40    2.10
   0  -2  -5   42.90    2.10
   0  -2  -5   41.70    1.90
   0   2   5   43.00    2.00
   0   2   5   41.50    1.90
  -1  -2  -5    0.10    0.20
  -1  -2  -5   -1.00    0.70
  -1  -2  -5    0.50    0.70
  -1  -2  -5    0.10    0.20
   1   2   5   -0.40    0.60
   1   2   5   -0.10    0.50
   1   2   5    0.30    0.20
  -2  -2  -5   26.70    1.20
  -2  -2  -5   24.70    1.70
  -2  -2  -5   26.00    1.20
  -2  -2  -5   25.90    2.00
   2   2   5   26.90    1.80
   2   2   5   27.70    1.20
   2   2   5   25.80    1.70
  -3  -2  -5    0.40    0.60
  -3  -2  -5    1.10    0.90
  -3  -2  -5    0.90    0.50
  -3  -2  -5    1.20    0.50
   3   2   5    0.80    0.60
   3   2   5   -0.30    0.70
   3   2   5   -1.20    0.60
  -4  -2  -5   13.00    1.40
  -4  -2  -5   10.10    1.70
  -4  -2  -5   14.10    1.90
   4   2   5   12.10    1.50
   4   2   5   10.10    1.50
  -5  -2  -5    1.90    1.10
   5   2   5    6.30    1.30
   5   2   5    5.00    1.30
  -6  -2  -5   -0.20    1.00
   6   2   5    1.50    1.00
  -7  -2  -5    9.50    2.00
   7   2   5    9.10    1.80
  12  -3  -5    2.90    1.80
  12  -3  -5    0.90    1.50
  12  -3  -5    3.10    1.60
  12  -3  -5    0.10    1.50
 -12   3   5    1.20    1.60
 -12   3   5    1.20    1.80
  11  -3  -5   -0.60    1.10
  11  -3  -5   -2.40    1.20
  11  -3  -5   -0.60    1.20
  11  -3  -5   -1.50    1.40
 -11   3   5   -0.70    1.30
 -11   3   5    0.40    1.60
  10  -3  -5   -0.70    1.20
  10  -3  -5    0.10    1.20
  10  -3  -5   -0.90    1.10
  10  -3  -5   -0.60    1.10
 -10   3   5    0.40    1.30
 -10   3   5   -0.50    1.60
 -10   3   5   -2.10    1.60
 -10   3   5   -0.70    1.30
   9  -3  -5    1.00    1.20
   9  -3  -5    0.70    1.00
   9  -3  -5   -0.10    1.10
   9  -3  -5    1.20    1.00
  -9   3   5    2.60    1.50
  -9   3   5    0.30    1.00
  -9   3   5   -0.30    1.50
  -9   3   5   -0.30    1.40
   8  -3  -5    2.00    1.10
   8  -3  -5    0.30    0.90
   8  -3  -5    1.10    0.90
   8  -3  -5    3.70    1.20
   8  -3  -5    1.00    0.90
  -8   3   5    1.20    1.40
  -8   3   5    1.00    1.30
  -8   3   5    0.60    1.30
  -8   3   5    1.30    1.00
   7  -3  -5    5.50    1.10
   7  -3  -5    6.30    1.10
   7  -3  -5    6.60    1.30
   7  -3  -5    5.70    1.20
  -7   3   5    5.50    1.10
  -7   3   5    5.00    1.30
  -7   3   5    3.70    1.50
  -7   3   5    8.10    1.80
   6  -3  -5   14.90    0.90
   6  -3  -5   16.00    1.60
   6  -3  -5   13.20    1.60
   6  -3  -5   16.00    1.40
   6  -3  -5   13.60    1.50
  -6   3   5   13.70    1.70
  -6   3   5   17.40    1.60
  -6   3   5   16.30    2.20
   5  -3  -5    7.30    1.20
   5  -3  -5    6.30    0.90
   5  -3  -5    5.70    1.10
   5  -3  -5    8.10    0.70
  -5   3   5    5.20    1.50
  -5   3   5    6.60    0.60
  -5   3   5    7.00    1.20
  -5   3   5    6.50    0.90
  -5   3   5    7.30    0.60
  -5   3   5    8.20    1.00
   4  -3  -5    3.80    1.00
   4  -3  -5    3.60    0.60
   4  -3  -5    3.80    0.90
   4  -3  -5    4.80    0.50
  -4   3   5    4.50    0.60
  -4   3   5    3.40    0.90
  -4   3   5    5.40    1.20
  -4   3   5    5.50    0.60
  -4   3   5    5.20    0.70
  -4   3   5    3.80    0.70
   3  -3  -5   -0.30    0.30
   3  -3  -5   -0.50    0.60
   3  -3  -5    0.10    0.60
   3  -3  -5    0.10    0.30
  -3   3   5   -0.20    0.30
  -3   3   5    0.00    0.30
  -3   3   5   -0.50    0.30
  -3   3   5    0.10    0.60
  -3   3   5    0.40    0.80
  -3   3   5    0.20    0.40
   2  -3  -5   48.40    1.40
   2  -3  -5   48.80    1.80
   2  -3  -5   50.09    2.40
   2  -3  -5   48.90    1.40
   2  -3  -5   50.09    1.40
   2  -3  -5   49.50    2.40
   2  -3  -5   46.20    2.40
  -2   3   5   48.20    1.90
  -2   3   5   44.20    2.50
  -2   3   5   51.09    2.20
  -2   3   5   49.40    1.40
  -2   3   5   46.10    2.40
  -2   3   5   49.30    1.40
   1  -3  -5   47.30    2.40
   1  -3  -5   48.20    2.40
   1  -3  -5   44.70    2.30
  -1   3   5   47.80    2.00
  -1   3   5   46.50    2.40
   0  -3  -5    4.10    0.90
   0  -3  -5    4.00    0.90
   0  -3  -5    4.90    1.10
   0   3   5    4.30    0.80
   0   3   5    3.50    0.70
  -1  -3  -5   36.10    1.20
  -1  -3  -5   38.80    1.30
  -1  -3  -5   36.90    2.00
  -1  -3  -5   35.50    2.20
   1   3   5   37.80    2.10
   1   3   5   38.80    1.80
  -2  -3  -5    0.80    0.40
  -2  -3  -5    0.30    0.60
  -2  -3  -5   -0.30    0.80
   2   3   5    0.40    0.50
   2   3   5    0.40    0.80
   2   3   5   -0.40    0.60
  -3  -3  -5    0.90    0.90
  -3  -3  -5    0.60    0.70
   3   3   5    0.70    0.70
   3   3   5   -0.10    0.70
  -4  -3  -5   11.30    1.80
   4   3   5   11.70    1.70
   4   3   5   10.50    1.40
  -5  -3  -5    0.30    0.90
   5   3   5    1.30    1.00
  -6  -3  -5    1.80    1.20
   6   3   5    0.40    1.40
   6   3   5    2.20    1.20
  -7  -3  -5    4.40    1.60
   7   3   5    1.00    1.60
  11  -4  -5   -0.50    1.20
  11  -4  -5    2.20    1.60
  11  -4  -5   -0.90    1.30
  11  -4  -5   -2.20    1.00
 -11   4   5    3.50    2.00
 -11   4   5    2.50    1.50
  10  -4  -5    4.90    1.70
  10  -4  -5    6.20    1.70
  10  -4  -5    7.50    1.70
  10  -4  -5    5.00    1.50
 -10   4   5    5.00    2.20
 -10   4   5    7.50    2.00
 -10   4   5    4.40    1.50
 -10   4   5    4.70    2.20
   9  -4  -5    5.50    1.60
   9  -4  -5    4.40    1.20
   9  -4  -5    2.70    1.20
   9  -4  -5    1.60    1.20
  -9   4   5    4.50    1.90
  -9   4   5    6.60    1.60
  -9   4   5    9.10    2.00
  -9   4   5    3.00    1.70
   8  -4  -5    1.20    1.00
   8  -4  -5    1.60    1.10
   8  -4  -5    0.40    0.80
   8  -4  -5    1.00    0.90
   8  -4  -5    0.20    0.80
  -8   4   5   -1.40    0.80
  -8   4   5    0.60    1.50
  -8   4   5    0.40    1.30
   7  -4  -5    0.10    0.90
   7  -4  -5    0.70    0.80
   7  -4  -5    1.40    1.00
  -7   4   5   -0.20    0.90
  -7   4   5    0.70    0.90
  -7   4   5    0.00    1.10
  -7   4   5    2.70    1.50
   6  -4  -5    8.20    1.30
   6  -4  -5    7.60    1.30
   6  -4  -5    9.60    1.20
  -6   4   5    8.70    1.20
  -6   4   5    6.80    1.60
  -6   4   5    8.30    1.20
  -6   4   5    7.90    1.40
   5  -4  -5    1.90    0.90
   5  -4  -5    1.20    0.90
   5  -4  -5    1.60    0.70
  -5   4   5    1.90    0.60
  -5   4   5    1.80    1.20
  -5   4   5   -0.10    0.80
  -5   4   5    2.30    0.70
  -5   4   5    2.80    0.80
   4  -4  -5   32.30    2.10
   4  -4  -5   32.40    2.20
   4  -4  -5   35.70    1.60
  -4   4   5   37.30    2.30
  -4   4   5   34.60    1.70
  -4   4   5   35.60    1.20
  -4   4   5   35.00    1.70
  -4   4   5   34.60    2.40
  -4   4   5   36.40    1.20
  -4   4   5   36.80    1.80
   3  -4  -5    5.70    1.00
   3  -4  -5    9.20    0.80
   3  -4  -5    6.30    1.10
  -3   4   5    8.00    0.70
  -3   4   5    7.70    0.80
  -3   4   5    7.80    1.20
  -3   4   5    6.60    0.90
  -3   4   5    4.90    1.20
  -3   4   5    8.00    0.80
   2  -4  -5    2.70    0.90
   2  -4  -5    3.70    1.00
   2  -4  -5    3.50    0.90
   2  -4  -5    3.40    0.40
  -2   4   5    3.00    0.60
  -2   4   5    2.70    0.80
  -2   4   5    3.30    0.50
  -2   4   5    3.20    0.40
  -2   4   5    2.20    0.90
   1  -4  -5   84.19    2.30
   1  -4  -5   79.39    3.50
   1  -4  -5   84.09    2.30
   1  -4  -5   76.99    3.40
   1  -4  -5   81.09    3.50
  -1   4   5   79.79    3.00
  -1   4   5   82.09    3.50
  -1   4   5   84.19    2.30
   0  -4  -5    0.50    0.70
   0  -4  -5   -0.30    0.80
   0  -4  -5    1.10    0.30
   0   4   5    1.40    0.90
   0   4   5    1.30    0.70
   0   4   5    1.30    0.50
  -1  -4  -5    4.20    1.10
  -1  -4  -5    2.60    1.00
   1   4   5    4.10    1.30
   1   4   5    3.30    0.80
   1   4   5    5.30    0.80
  -2  -4  -5    0.70    1.00
  -2  -4  -5    0.00    0.70
   2   4   5    0.00    0.50
   2   4   5   -0.50    0.90
   2   4   5   -0.40    0.60
  -3  -4  -5   -0.90    0.60
  -3  -4  -5   -1.10    0.70
   3   4   5   -1.00    0.70
   3   4   5   -0.10    1.00
   3   4   5   -0.60    0.50
  -4  -4  -5   -0.80    0.80
   4   4   5    0.50    0.90
   4   4   5    0.60    1.30
   4   4   5   -0.20    0.70
  -5  -4  -5    2.60    1.30
   5   4   5    3.30    1.70
  -6  -4  -5   17.10    2.50
   6   4   5   15.10    2.70
  11  -5  -5    1.00    1.30
  11  -5  -5    0.60    1.40
  11  -5  -5    0.80    1.30
  11  -5  -5   -0.50    1.40
 -11   5   5   -0.70    2.00
 -11   5   5    3.10    1.60
  10  -5  -5    1.60    1.30
  10  -5  -5    2.90    1.40
  10  -5  -5    3.20    1.30
  10  -5  -5    2.80    1.60
 -10   5   5   -0.10    1.60
 -10   5   5    4.50    2.20
 -10   5   5    0.10    1.30
   9  -5  -5    2.80    1.10
   9  -5  -5    1.80    1.20
   9  -5  -5    2.80    1.20
  -9   5   5    0.70    1.70
  -9   5   5    0.20    1.90
  -9   5   5    2.10    1.20
  -9   5   5   -0.10    1.00
  -9   5   5    3.40    1.60
   8  -5  -5   22.80    2.40
   8  -5  -5   26.40    2.10
   8  -5  -5   30.20    2.30
  -8   5   5   24.20    2.80
  -8   5   5   25.00    3.00
  -8   5   5   26.90    2.20
  -8   5   5   26.40    2.20
   7  -5  -5    0.00    0.80
   7  -5  -5    0.30    0.90
   7  -5  -5   -0.40    0.80
  -7   5   5   -0.30    1.20
  -7   5   5   -0.20    0.80
  -7   5   5   -0.50    0.80
  -7   5   5   -1.00    1.30
   6  -5  -5    8.80    1.20
   6  -5  -5    6.20    1.30
   6  -5  -5    8.40    1.40
  -6   5   5    8.10    1.60
  -6   5   5    5.40    1.60
  -6   5   5    7.90    1.20
  -6   5   5    7.10    1.50
  -6   5   5    7.00    1.20
   5  -5  -5   25.50    2.00
   5  -5  -5   28.20    1.60
   5  -5  -5   26.40    2.00
  -5   5   5   28.80    1.80
  -5   5   5   26.10    1.70
  -5   5   5   28.90    2.40
  -5   5   5   28.00    2.50
  -5   5   5   28.40    1.70
   4  -5  -5    7.10    1.20
   4  -5  -5    7.80    1.30
   4  -5  -5    8.20    0.90
  -4   5   5    4.70    1.10
  -4   5   5    8.20    1.50
  -4   5   5    9.00    1.10
  -4   5   5    5.80    0.90
  -4   5   5   10.00    1.00
   3  -5  -5    1.90    0.80
   3  -5  -5    2.00    0.50
   3  -5  -5    1.10    0.50
   3  -5  -5    1.50    0.80
  -3   5   5    1.10    0.80
  -3   5   5    1.20    0.50
  -3   5   5    1.10    0.30
  -3   5   5    1.90    0.80
   2  -5  -5   87.79    3.80
   2  -5  -5   91.49    3.80
   2  -5  -5   92.49    2.90
   2  -5  -5   86.19    3.80
   2  -5  -5   94.49    2.80
  -2   5   5   90.09    3.70
  -2   5   5   94.79    3.00
  -2   5   5   92.79    2.90
  -2   5   5   90.39    4.10
   1  -5  -5   12.10    0.80
   1  -5  -5   12.10    1.50
   1  -5  -5   12.60    1.60
   1  -5  -5   12.00    1.50
  -1   5   5   12.90    1.60
  -1   5   5   12.20    0.90
  -1   5   5   14.00    1.60
  -1   5   5   11.90    0.80
  -1   5   5   13.30    1.10
   0  -5  -5   51.69    2.90
   0  -5  -5   45.50    2.70
   0   5   5   49.99    1.90
   0   5   5   48.30    2.30
   0   5   5   50.19    3.00
  -1  -5  -5   67.49    3.30
  -1  -5  -5   68.79    3.50
   1   5   5   71.89    3.70
   1   5   5   73.19    2.70
   1   5   5   73.19    3.20
  -2  -5  -5    1.30    0.90
  -2  -5  -5    1.90    1.00
   2   5   5    3.00    1.20
   2   5   5    4.00    1.10
  -3  -5  -5    4.90    1.50
  -3  -5  -5    5.80    1.20
   3   5   5   10.50    1.60
   3   5   5    5.20    1.50
  -4  -5  -5    1.70    1.30
   4   5   5    2.70    1.40
  -5  -5  -5    0.00    1.20
   5   5   5   -0.10    1.30
  -6  -5  -5    2.90    1.60
   6   5   5    0.10    1.40
  11  -6  -5    2.50    1.50
  11  -6  -5    3.70    1.60
  11  -6  -5    3.90    1.50
  11  -6  -5    2.80    1.80
 -11   6   5    0.60    2.20
 -11   6   5    0.90    1.50
  10  -6  -5    8.40    1.70
  10  -6  -5    7.60    1.70
  10  -6  -5    3.70    1.70
  10  -6  -5    3.80    1.40
 -10   6   5    4.00    1.60
 -10   6   5    9.40    2.00
 -10   6   5    7.90    2.00
 -10   6   5    9.10    2.60
   9  -6  -5    1.00    1.20
   9  -6  -5   -1.70    1.00
  -9   6   5    0.40    1.10
  -9   6   5    1.90    1.30
  -9   6   5   -1.40    1.80
  -9   6   5    1.20    1.90
   8  -6  -5    2.90    1.30
   8  -6  -5    1.60    1.10
   8  -6  -5    2.40    1.10
  -8   6   5    3.50    1.30
  -8   6   5   -0.50    1.40
  -8   6   5    6.00    1.40
  -8   6   5    2.40    1.70
   7  -6  -5    4.50    1.10
   7  -6  -5    2.60    1.10
   7  -6  -5    3.20    1.20
  -7   6   5    4.80    1.30
  -7   6   5    2.60    1.40
  -7   6   5    3.20    1.50
  -7   6   5    4.50    1.20
   6  -6  -5   31.10    2.40
   6  -6  -5   34.50    2.50
   6  -6  -5   32.50    2.00
  -6   6   5   34.80    2.20
  -6   6   5   33.90    2.10
  -6   6   5   33.90    2.80
  -6   6   5   28.00    2.20
  -6   6   5   31.00    2.70
   5  -6  -5   26.30    2.20
   5  -6  -5   26.70    2.10
   5  -6  -5   25.60    1.70
  -5   6   5   26.10    2.40
  -5   6   5   24.90    1.80
  -5   6   5   25.00    1.70
  -5   6   5   24.90    1.90
  -5   6   5   24.40    2.60
   4  -6  -5   24.80    1.60
   4  -6  -5   22.00    2.10
   4  -6  -5   23.40    1.50
   4  -6  -5   25.10    2.10
  -4   6   5   27.00    2.70
  -4   6   5   26.60    1.90
  -4   6   5   28.50    2.40
  -4   6   5   24.50    1.60
   3  -6  -5   25.30    1.40
   3  -6  -5   25.70    2.00
   3  -6  -5   27.10    2.20
   3  -6  -5   25.00    1.40
  -3   6   5   23.10    1.50
  -3   6   5   26.70    2.20
  -3   6   5   24.50    1.90
   2  -6  -5   15.90    1.10
   2  -6  -5   13.70    1.70
   2  -6  -5   17.00    1.10
   2  -6  -5   17.10    1.90
   2  -6  -5   17.10    1.90
  -2   6   5   15.70    1.10
  -2   6   5   18.60    1.90
  -2   6   5   12.10    1.70
  -2   6   5   16.70    1.00
   1  -6  -5   15.80    1.90
   1  -6  -5   14.50    1.80
  -1   6   5   17.00    1.20
  -1   6   5   18.00    2.00
  -1   6   5   16.10    1.90
   0  -6  -5  163.48    5.90
   0  -6  -5  156.38    5.90
   0   6   5  161.18    5.30
   0   6   5  159.58    6.20
  -1  -6  -5   15.10    1.90
  -1  -6  -5   17.80    2.20
   1   6   5   13.50    1.90
   1   6   5   14.60    1.60
  -2  -6  -5   14.90    2.10
  -2  -6  -5   12.10    1.60
   2   6   5   10.40    2.00
   2   6   5   13.60    1.60
  -3  -6  -5    3.00    1.40
  -3  -6  -5    2.70    1.10
   3   6   5    4.60    1.60
   3   6   5    3.60    1.20
  -4  -6  -5   13.40    2.20
   4   6   5   12.70    2.40
  -5  -6  -5    1.20    1.50
   5   6   5   -0.90    1.30
  10  -7  -5    1.60    1.30
  10  -7  -5    6.30    1.60
 -10   7   5    3.80    1.70
 -10   7   5    4.00    2.50
 -10   7   5    7.00    1.90
   9  -7  -5    1.40    1.20
   9  -7  -5    1.90    1.20
  -9   7   5    2.50    2.10
  -9   7   5    2.60    1.40
  -9   7   5    2.60    1.50
   8  -7  -5    2.80    1.20
   8  -7  -5    1.90    1.10
   8  -7  -5    1.20    1.20
  -8   7   5    2.40    1.30
  -8   7   5    4.30    1.90
  -8   7   5    2.30    1.30
  -8   7   5    2.00    1.80
   7  -7  -5    5.40    1.40
   7  -7  -5    8.40    1.40
   7  -7  -5    7.60    1.50
  -7   7   5    6.00    2.00
  -7   7   5    5.80    1.30
  -7   7   5    5.60    1.30
  -7   7   5    3.80    1.70
   6  -7  -5   17.80    2.10
   6  -7  -5   20.20    1.90
   6  -7  -5   19.40    2.20
  -6   7   5   18.40    1.90
  -6   7   5   19.20    2.50
  -6   7   5   20.80    2.90
  -6   7   5   22.60    2.70
  -6   7   5   18.50    1.90
   5  -7  -5   83.79    4.00
   5  -7  -5   86.99    3.50
   5  -7  -5   90.89    4.20
   5  -7  -5   88.89    3.50
  -5   7   5   94.49    4.70
  -5   7   5   94.39    4.00
  -5   7   5   90.09    3.60
  -5   7   5   90.59    4.70
  -5   7   5   87.09    3.60
   4  -7  -5   37.40    2.60
   4  -7  -5   34.50    1.90
   4  -7  -5   35.70    2.50
   4  -7  -5   34.00    2.00
  -4   7   5   32.40    1.90
  -4   7   5   38.80    2.90
  -4   7   5   35.30    2.40
  -4   7   5   34.80    2.80
   3  -7  -5   21.30    2.20
   3  -7  -5   20.60    2.20
   3  -7  -5   23.50    1.50
   3  -7  -5   23.40    1.50
  -3   7   5   27.00    2.20
  -3   7   5   23.60    1.60
  -3   7   5   24.30    2.50
   2  -7  -5    2.20    1.10
   2  -7  -5    2.40    1.10
  -2   7   5    2.80    1.20
  -2   7   5    2.40    1.20
   1  -7  -5    0.50    0.90
   1  -7  -5    0.20    1.00
  -1   7   5    0.90    1.00
  -1   7   5    0.20    1.00
   0  -7  -5    0.60    0.90
   0  -7  -5    0.20    1.10
   0   7   5    0.70    1.00
   0   7   5    0.80    0.70
   0   7   5    1.90    1.20
  -1  -7  -5   18.10    2.30
  -1  -7  -5   14.20    1.90
   1   7   5   13.60    1.50
   1   7   5   13.00    2.20
  -2  -7  -5    1.00    1.10
  -2  -7  -5   -0.50    0.90
   2   7   5    0.70    0.90
   2   7   5    0.10    1.20
  -3  -7  -5   12.70    2.20
  -3  -7  -5    9.40    1.60
   3   7   5    8.80    2.00
  -4  -7  -5    3.60    1.70
   4   7   5    8.30    2.20
  10  -8  -5   -0.10    1.20
 -10   8   5   -0.70    1.20
 -10   8   5    0.30    1.40
 -10   8   5   -3.50    1.90
   9  -8  -5    1.30    1.20
   9  -8  -5   -1.30    1.10
  -9   8   5    1.80    1.30
  -9   8   5    1.80    2.10
  -9   8   5    0.80    1.30
   8  -8  -5   16.80    2.20
   8  -8  -5   19.20    2.20
   8  -8  -5   18.90    2.30
  -8   8   5   11.70    2.60
  -8   8   5   20.70    2.40
  -8   8   5   15.30    2.10
   7  -8  -5    6.10    1.50
   7  -8  -5    7.50    1.60
   7  -8  -5    8.90    1.50
  -7   8   5    9.80    1.70
  -7   8   5    7.30    2.10
  -7   8   5    6.80    1.60
   6  -8  -5   14.50    1.70
   6  -8  -5   14.70    2.10
   6  -8  -5   15.80    2.00
  -6   8   5   17.90    2.00
  -6   8   5   16.00    2.40
  -6   8   5   12.10    2.20
  -6   8   5   12.00    1.60
   5  -8  -5   19.90    1.90
   5  -8  -5   20.30    1.80
   5  -8  -5   22.10    2.30
   5  -8  -5   19.40    2.30
  -5   8   5   18.90    2.20
  -5   8   5   22.40    2.00
  -5   8   5   20.70    2.50
  -5   8   5   16.80    2.40
   4  -8  -5    3.50    0.90
   4  -8  -5    2.70    1.10
   4  -8  -5    2.40    1.10
   4  -8  -5    3.20    0.90
  -4   8   5    1.70    1.10
  -4   8   5    1.40    0.80
  -4   8   5    1.40    1.30
   3  -8  -5   -0.60    0.80
  -3   8   5   -0.40    1.00
  -3   8   5    1.10    1.20
   2  -8  -5   13.30    1.90
  -2   8   5   14.50    2.10
  -2   8   5   18.00    2.20
   1  -8  -5    8.00    1.60
   1  -8  -5    9.50    1.70
  -1   8   5    9.00    1.80
  -1   8   5    6.90    1.60
   0  -8  -5    3.20    1.20
   0  -8  -5    5.10    1.50
   0   8   5    5.00    1.60
   0   8   5    4.30    1.50
  -1  -8  -5   -0.10    1.00
  -1  -8  -5   -1.10    0.90
   1   8   5    0.00    1.10
   1   8   5    1.70    1.30
  -2  -8  -5    0.00    1.00
  -2  -8  -5   -0.50    1.20
   2   8   5    0.20    1.30
  -3  -8  -5    1.80    1.50
  -3  -8  -5    5.40    1.80
   3   8   5    4.10    2.00
  -4  -8  -5    3.30    1.70
   4   8   5    2.60    1.70
   9  -9  -5    2.70    1.40
  -9   9   5    1.50    1.30
  -9   9   5   -1.80    2.20
  -9   9   5   -0.60    1.10
   8  -9  -5    0.20    1.00
   8  -9  -5   -0.20    1.10
   8  -9  -5   -0.50    1.00
  -8   9   5   -0.20    1.20
  -8   9   5    0.10    1.10
  -8   9   5   -3.80    1.80
   7  -9  -5    2.00    1.10
   7  -9  -5    2.70    1.10
   7  -9  -5    1.30    1.30
  -7   9   5   -0.10    1.80
  -7   9   5    1.40    1.20
  -7   9   5    1.70    1.20
   6  -9  -5    2.20    1.30
   6  -9  -5    3.80    1.10
   6  -9  -5    1.40    1.20
  -6   9   5    1.30    1.00
  -6   9   5   -0.10    1.00
  -6   9   5    2.50    1.80
   5  -9  -5    1.40    1.10
   5  -9  -5   -0.80    0.80
   5  -9  -5   -1.00    1.10
  -5   9   5    1.00    1.40
  -5   9   5   -0.80    1.10
   4  -9  -5    0.80    1.10
  -4   9   5    3.50    1.40
  -4   9   5    1.90    1.40
   3  -9  -5   -0.20    1.00
  -3   9   5    0.20    1.20
  -3   9   5   -0.20    1.20
   2  -9  -5   -0.40    1.00
  -2   9   5    0.50    1.30
  -2   9   5   -0.60    1.10
   1  -9  -5    8.70    1.80
   1  -9  -5   10.70    1.90
  -1   9   5   10.00    2.00
  -1   9   5   11.00    2.10
   0  -9  -5    4.10    1.50
   0  -9  -5    2.20    1.40
   0   9   5    4.90    1.60
   0   9   5    1.20    1.40
  -1  -9  -5   10.10    2.00
  -1  -9  -5    9.30    1.90
   1   9   5   11.30    2.40
   1   9   5   10.50    2.10
  -2  -9  -5   12.60    2.20
  -2  -9  -5   10.80    2.00
   2   9   5   10.20    2.20
   2   9   5    8.30    2.30
   8 -10  -5    1.40    1.90
   8 -10  -5    1.50    1.30
  -8  10   5   -3.00    2.10
   7 -10  -5   -0.70    1.10
   7 -10  -5    0.10    1.20
  -7  10   5    0.60    1.80
   6 -10  -5    0.10    1.10
   6 -10  -5    3.00    1.50
  -6  10   5   -0.40    1.80
   5 -10  -5   -1.40    1.00
  -5  10   5   -1.90    1.20
  -5  10   5   -1.80    1.20
   4 -10  -5    0.10    1.20
  -4  10   5   -1.20    1.40
  -4  10   5   -0.80    1.30
   3 -10  -5    0.50    1.10
  -3  10   5    1.30    1.60
  -3  10   5   -0.10    1.30
   2 -10  -5   -0.10    1.10
  -2  10   5    2.50    1.40
  -2  10   5    0.90    1.40
   1 -10  -5    0.90    1.30
  -1  10   5    0.10    1.50
  -1  10   5    0.80    1.40
   0 -10  -5   -1.00    1.00
   0 -10  -5    0.90    1.40
   0  10   5    0.50    1.60
   0  10   5   -1.40    1.30
  -1 -10  -5    3.00    1.60
  -1 -10  -5   -0.20    1.30
   1  10   5    4.00    1.80
   1  10   5    0.60    1.40
   6 -11  -5    2.60    1.60
  -6  11   5    2.50    2.20
   5 -11  -5    3.90    1.70
  -5  11   5    4.20    2.10
   4 -11  -5    3.00    1.40
  -4  11   5    2.50    1.70
  -4  11   5    3.50    2.10
   3 -11  -5    5.40    1.70
  -3  11   5   11.70    2.40
  -3  11   5    8.70    2.40
   2 -11  -5    2.80    1.60
  -2  11   5    3.40    1.80
  -2  11   5    2.40    1.80
  -1  11   5    3.10    1.90
  -1  11   5    1.80    1.70
   4  10  -6    1.80    1.30
   4  10  -6   -2.10    1.50
  -4 -10   6   -1.00    1.50
  -4 -10   6    2.10    1.70
  -4 -10   6    0.00    1.50
   3  10  -6    0.90    1.20
   3  10  -6    1.50    1.90
  -3 -10   6    0.90    1.40
  -3 -10   6    0.00    1.40
  -3 -10   6    3.10    1.70
   2  10  -6   -2.60    1.40
   2  10  -6    1.70    1.30
   2  10  -6   -0.20    1.40
  -2 -10   6    0.30    1.60
  -2 -10   6    0.70    1.60
  -2 -10   6    0.30    1.60
   1  10  -6    4.20    1.50
   1  10  -6    1.90    1.80
   1  10  -6    5.00    1.70
  -1 -10   6    5.60    2.00
  -1 -10   6    3.40    1.70
   0  10  -6    1.30    1.70
   0  10  -6   -1.50    1.00
   0  10  -6    3.00    1.60
   0 -10   6   -1.50    1.40
   0 -10   6    0.90    1.40
  -1  10  -6    2.60    2.00
  -1  10  -6    3.40    1.60
  -1  10  -6    1.00    1.30
   1 -10   6    2.50    1.60
   1 -10   6   -0.40    1.50
  -2  10  -6    2.00    1.60
  -2  10  -6   -1.00    1.10
   2 -10   6    1.50    1.70
  -3  10  -6   -1.20    1.60
  -3  10  -6   -0.10    1.10
   3 -10   6    2.60    1.60
   3 -10   6    1.50    1.70
   6   9  -6    0.10    1.20
  -6  -9   6    2.20    1.80
  -6  -9   6    4.10    1.90
  -6  -9   6   -0.10    1.50
   5   9  -6   -0.60    1.10
   5   9  -6   -0.60    1.50
  -5  -9   6    0.70    1.60
  -5  -9   6    2.50    1.70
  -5  -9   6    0.80    1.50
   4   9  -6    1.40    1.30
   4   9  -6    0.70    1.50
  -4  -9   6    4.80    1.80
  -4  -9   6    4.80    2.00
  -4  -9   6    4.00    1.80
   3   9  -6   16.70    2.60
   3   9  -6   19.90    2.40
  -3  -9   6   24.00    3.20
  -3  -9   6   20.50    2.60
  -3  -9   6   18.90    2.50
   2   9  -6   -1.20    0.90
   2   9  -6    0.20    1.40
  -2  -9   6    0.80    1.30
  -2  -9   6   -2.20    1.10
  -2  -9   6    1.40    1.40
   1   9  -6    1.30    1.50
   1   9  -6    4.90    1.70
   1   9  -6    0.10    1.10
  -1  -9   6    1.30    1.40
  -1  -9   6    1.60    1.50
   0   9  -6    5.00    1.50
   0   9  -6    7.40    1.80
   0   9  -6    2.30    1.90
   0  -9   6    6.10    1.70
   0  -9   6    5.60    1.70
  -1   9  -6    9.10    2.00
  -1   9  -6    6.50    2.20
  -1   9  -6    7.80    1.60
   1  -9   6    7.30    1.80
   1  -9   6    8.00    1.40
   1  -9   6    7.20    1.80
  -2   9  -6    0.40    1.20
  -2   9  -6   -0.60    1.10
   2  -9   6   -1.00    1.40
   2  -9   6    1.50    1.20
   2  -9   6   -0.80    0.80
  -3   9  -6    1.70    1.20
  -3   9  -6    1.30    1.50
   3  -9   6   -1.00    1.30
   3  -9   6    0.80    1.00
   3  -9   6    2.20    1.50
  -4   9  -6   -1.60    1.00
  -4   9  -6    1.40    1.70
   4  -9   6   -0.20    0.90
   4  -9   6    1.00    1.40
   4  -9   6    0.60    1.50
   7   8  -6    1.90    1.60
   7   8  -6    0.80    1.50
  -7  -8   6    0.10    1.60
  -7  -8   6    3.10    1.70
  -7  -8   6   -0.30    1.60
   6   8  -6    1.50    1.40
   6   8  -6    4.20    1.50
  -6  -8   6    2.40    1.60
  -6  -8   6    5.70    2.00
  -6  -8   6    2.90    1.70
   5   8  -6   -0.20    1.20
   5   8  -6   -1.20    1.20
  -5  -8   6   -1.30    1.20
  -5  -8   6    0.50    1.50
  -5  -8   6   -0.20    1.40
   4   8  -6    1.70    1.40
   4   8  -6    0.20    1.10
  -4  -8   6    2.10    1.50
  -4  -8   6    2.10    1.50
  -4  -8   6    1.50    1.30
   3   8  -6    0.00    1.20
   3   8  -6    1.20    1.20
  -3  -8   6   -1.00    1.00
  -3  -8   6    1.90    1.50
  -3  -8   6    1.20    1.20
   2   8  -6    6.20    1.70
   2   8  -6    9.50    1.70
  -2  -8   6    7.80    1.70
  -2  -8   6    5.80    1.50
  -2  -8   6    5.50    1.10
  -2  -8   6    6.10    1.80
   1   8  -6    5.20    1.50
   1   8  -6    4.70    1.70
   1   8  -6    6.20    1.40
  -1  -8   6    4.10    1.00
  -1  -8   6    4.80    1.60
  -1  -8   6    5.20    1.60
   0   8  -6   22.10    2.80
   0   8  -6   26.30    2.70
   0   8  -6   25.00    2.40
   0  -8   6   19.30    2.30
   0  -8   6   23.40    2.70
   0  -8   6   21.10    2.00
  -1   8  -6    0.90    1.00
  -1   8  -6    1.40    1.70
  -1   8  -6   -0.80    1.10
   1  -8   6    1.40    0.90
   1  -8   6    0.90    1.20
   1  -8   6   -0.80    1.20
  -2   8  -6    5.00    1.40
  -2   8  -6    6.40    1.70
   2  -8   6    5.20    1.40
   2  -8   6    2.80    1.20
   2  -8   6    5.10    1.60
  -3   8  -6   10.30    2.00
  -3   8  -6    8.80    1.70
   3  -8   6   11.10    2.00
   3  -8   6   11.70    1.80
   3  -8   6   11.50    2.00
  -4   8  -6   16.70    2.40
  -4   8  -6   14.50    2.10
   4  -8   6   15.60    2.10
   4  -8   6   13.80    2.20
   4  -8   6   12.80    2.30
  -5   8  -6   -0.90    1.20
  -5   8  -6   -1.70    1.30
   5  -8   6    1.20    1.50
   5  -8   6    0.10    1.30
   5  -8   6   -1.30    1.30
   8   7  -6    0.30    1.50
   8   7  -6    0.40    1.60
  -8  -7   6    1.40    1.60
  -8  -7   6    0.80    1.60
   7   7  -6    0.60    1.40
   7   7  -6    1.30    1.60
  -7  -7   6   -0.90    1.40
  -7  -7   6    1.00    1.80
   6   7  -6    8.00    1.70
   6   7  -6    9.50    2.00
  -6  -7   6   15.40    2.80
  -6  -7   6   11.60    2.10
   5   7  -6    8.30    1.70
   5   7  -6    7.60    1.60
   5   7  -6   11.10    1.90
  -5  -7   6   10.70    2.30
  -5  -7   6   10.70    1.90
  -5  -7   6   12.50    2.00
  -5  -7   6   10.20    1.90
   4   7  -6   11.00    1.80
   4   7  -6    6.30    1.50
  -4  -7   6   14.70    2.10
  -4  -7   6   12.90    1.90
  -4  -7   6   11.20    1.80
  -4  -7   6    9.60    2.20
   3   7  -6    2.60    1.30
   3   7  -6    1.90    1.10
  -3  -7   6    2.00    1.40
  -3  -7   6    0.90    1.10
  -3  -7   6    3.70    1.20
   2   7  -6   -0.50    0.90
   2   7  -6   -1.70    1.00
  -2  -7   6    2.30    1.30
  -2  -7   6    2.00    1.20
  -2  -7   6    1.30    1.30
   1   7  -6    3.10    1.10
   1   7  -6    2.30    1.10
   1   7  -6    3.00    1.30
  -1  -7   6    1.30    0.70
  -1  -7   6    0.50    1.10
  -1  -7   6    3.40    1.20
  -1  -7   6    4.00    1.40
   0   7  -6    8.80    1.50
   0   7  -6    9.70    1.50
   0   7  -6    7.40    1.80
   0  -7   6   10.40    1.40
   0  -7   6   10.80    1.80
   0  -7   6    9.00    1.60
  -1   7  -6   18.50    2.00
  -1   7  -6   19.20    2.10
   1  -7   6   15.60    2.00
   1  -7   6   16.50    1.80
   1  -7   6   19.10    2.20
  -2   7  -6   -1.40    1.00
  -2   7  -6   -0.70    1.00
   2  -7   6    2.00    1.00
   2  -7   6    0.60    0.90
   2  -7   6    1.30    1.10
  -3   7  -6    0.70    1.20
  -3   7  -6    0.40    1.20
   3  -7   6   -1.10    0.90
   3  -7   6    1.40    1.30
   3  -7   6    0.00    1.10
  -4   7  -6   10.90    1.90
  -4   7  -6    7.40    1.60
   4  -7   6    9.00    1.90
   4  -7   6    9.60    1.80
   4  -7   6   10.80    1.80
  -5   7  -6   12.90    2.10
  -5   7  -6   12.30    2.10
   5  -7   6   11.90    2.10
   5  -7   6   14.70    2.10
   5  -7   6   17.50    2.40
  -6   7  -6    8.90    2.00
  -6   7  -6    3.90    1.70
   6  -7   6   11.40    2.20
   6  -7   6   11.80    2.00
   9   6  -6   10.10    2.30
  -9  -6   6    4.10    1.90
  -9  -6   6    6.80    2.00
   8   6  -6    1.50    1.60
  -8  -6   6    0.00    1.50
  -8  -6   6   -0.70    1.50
   7   6  -6    7.50    1.90
   7   6  -6    5.60    1.60
  -7  -6   6    7.00    1.70
  -7  -6   6    6.50    2.10
   6   6  -6   11.00    1.90
   6   6  -6   11.60    1.90
   6   6  -6    9.90    1.80
  -6  -6   6    9.70    1.80
  -6  -6   6   17.70    2.80
  -6  -6   6   13.70    2.20
   5   6  -6    0.10    0.90
   5   6  -6    2.20    1.30
   5   6  -6    0.60    1.00
  -5  -6   6    1.90    1.60
  -5  -6   6    3.40    1.40
  -5  -6   6    0.30    1.10
   4   6  -6   18.90    2.10
   4   6  -6   19.80    2.30
   4   6  -6   17.20    1.90
  -4  -6   6   23.30    2.70
  -4  -6   6   22.00    2.40
  -4  -6   6   20.60    2.20
  -4  -6   6   25.20    2.40
   3   6  -6    5.70    1.30
   3   6  -6    7.20    1.40
  -3  -6   6    7.90    1.40
  -3  -6   6    7.00    1.50
  -3  -6   6    5.90    1.30
  -3  -6   6    6.40    1.70
   2   6  -6    0.00    0.90
   2   6  -6   -0.40    0.90
  -2  -6   6    0.10    1.20
  -2  -6   6   -0.40    0.80
  -2  -6   6    0.90    0.90
  -2  -6   6    0.90    0.80
   1   6  -6    4.50    1.20
   1   6  -6    3.00    1.20
  -1  -6   6    6.00    1.30
  -1  -6   6    5.40    1.40
  -1  -6   6    5.00    1.20
   0   6  -6    3.00    1.10
   0   6  -6    3.20    1.40
   0   6  -6    1.60    1.00
   0  -6   6    1.90    0.90
   0  -6   6    5.10    1.30
   0  -6   6    3.00    1.10
  -1   6  -6    0.30    0.80
  -1   6  -6    0.30    1.00
   1  -6   6    1.40    1.00
   1  -6   6    2.40    1.00
   1  -6   6    1.30    0.90
  -2   6  -6    0.40    0.80
  -2   6  -6   -0.20    0.80
  -2   6  -6    0.60    0.80
   2  -6   6   -1.00    0.70
   2  -6   6   -0.20    1.00
   2  -6   6   -0.40    0.80
  -3   6  -6   14.60    1.90
  -3   6  -6   15.30    1.90
   3  -6   6   10.30    1.60
   3  -6   6   15.30    1.90
   3  -6   6   13.50    1.80
  -4   6  -6   -0.50    1.10
  -4   6  -6    1.70    1.10
   4  -6   6   -0.20    1.00
   4  -6   6    0.00    1.00
   4  -6   6    0.40    1.10
   4  -6   6    1.10    1.20
  -5   6  -6    0.10    1.10
  -5   6  -6    0.20    1.20
   5  -6   6    0.40    1.20
   5  -6   6   -1.80    1.20
   5  -6   6    0.70    1.20
  -6   6  -6   -0.20    1.30
  -6   6  -6    0.30    1.30
   6  -6   6    0.00    1.20
   6  -6   6   -0.30    1.40
  10   5  -6    0.90    1.50
 -10  -5   6    2.90    1.50
 -10  -5   6    1.20    1.60
   9   5  -6    3.90    1.80
  -9  -5   6    1.60    1.50
  -9  -5   6    3.00    1.60
   8   5  -6   -0.30    1.30
  -8  -5   6    1.70    1.70
  -8  -5   6   -1.20    1.30
   7   5  -6    0.40    1.20
  -7  -5   6   -0.70    1.00
  -7  -5   6   -1.00    1.40
  -7  -5   6    1.60    1.40
   6   5  -6    0.80    1.00
   6   5  -6    1.50    1.20
   6   5  -6   -1.30    0.70
  -6  -5   6    0.20    1.10
  -6  -5   6    0.00    1.20
  -6  -5   6    0.70    1.40
   5   5  -6    6.40    1.20
   5   5  -6    7.70    1.40
   5   5  -6    8.80    1.60
  -5  -5   6    6.40    1.50
  -5  -5   6    4.90    1.60
  -5  -5   6    7.50    1.70
   4   5  -6    3.50    1.00
   4   5  -6    5.10    1.30
   4   5  -6    3.60    1.10
  -4  -5   6    7.00    1.30
  -4  -5   6    4.50    1.40
  -4  -5   6    5.00    1.30
   3   5  -6   10.90    1.50
   3   5  -6   12.20    1.50
  -3  -5   6   13.20    1.90
  -3  -5   6   14.00    1.60
  -3  -5   6   16.10    1.90
  -3  -5   6   13.00    1.60
   2   5  -6    3.40    1.10
   2   5  -6    6.30    1.20
   2   5  -6    4.80    0.90
  -2  -5   6    3.30    1.20
  -2  -5   6    5.30    1.10
  -2  -5   6    6.40    1.20
  -2  -5   6    4.30    1.00
   1   5  -6   12.40    1.50
   1   5  -6   10.90    1.60
   1   5  -6   12.30    1.00
  -1  -5   6   11.00    1.40
  -1  -5   6   13.10    1.60
  -1  -5   6   15.50    1.40
  -1  -5   6   15.60    1.90
   0   5  -6   13.10    1.60
   0   5  -6   12.90    1.50
   0  -5   6   11.90    1.40
   0  -5   6   12.70    1.50
   0  -5   6   14.50    1.70
  -1   5  -6   14.00    1.70
  -1   5  -6   17.40    1.70
   1  -5   6   17.10    1.60
   1  -5   6   13.40    1.60
   1  -5   6   16.20    1.70
  -2   5  -6   22.50    2.10
  -2   5  -6   20.50    1.90
   2  -5   6   21.20    1.90
   2  -5   6   21.60    1.90
   2  -5   6   22.00    2.10
   2  -5   6   19.70    1.60
  -3   5  -6   -0.50    0.80
  -3   5  -6    0.80    0.90
   3  -5   6   -1.00    0.80
   3  -5   6    0.10    0.90
   3  -5   6    0.00    0.90
   3  -5   6   -0.60    0.70
  -4   5  -6    3.10    1.20
  -4   5  -6    3.90    1.20
   4  -5   6    4.20    1.30
   4  -5   6    2.70    1.10
   4  -5   6    3.00    1.20
   4  -5   6    2.60    1.10
  -5   5  -6   -0.60    1.10
  -5   5  -6   -0.60    1.00
   5  -5   6    0.20    1.30
   5  -5   6    0.30    1.00
  -6   5  -6    0.10    1.30
  -6   5  -6    2.90    1.50
   6  -5   6    4.10    1.70
   6  -5   6    0.20    1.20
   7  -5   6    0.70    1.40
  10   4  -6    2.90    1.80
 -10  -4   6    4.30    1.80
 -10  -4   6    4.70    1.90
 -10  -4   6    2.00    1.50
   9   4  -6    0.50    1.40
  -9  -4   6    0.20    1.30
  -9  -4   6    5.30    2.00
   8   4  -6    9.70    1.90
  -8  -4   6    2.70    1.60
  -8  -4   6    2.50    1.40
   7   4  -6   10.90    1.80
  -7  -4   6   14.10    2.30
  -7  -4   6   11.20    1.80
  -7  -4   6   12.20    2.10
   6   4  -6   50.19    2.80
   6   4  -6   50.49    3.00
   6   4  -6   53.39    3.40
  -6  -4   6   54.49    3.60
  -6  -4   6   51.69    3.00
  -6  -4   6   51.59    3.30
   5   4  -6    8.30    1.30
   5   4  -6    6.40    1.10
   5   4  -6    7.00    1.30
  -5  -4   6    4.80    1.50
  -5  -4   6    5.90    1.60
  -5  -4   6   10.80    1.60
   4   4  -6   93.49    3.80
   4   4  -6   96.99    4.00
   4   4  -6   98.19    3.80
  -4  -4   6  103.99    4.00
  -4  -4   6  102.29    4.40
  -4  -4   6   96.59    4.40
   3   4  -6   34.30    2.00
   3   4  -6   34.10    2.10
   3   4  -6   34.40    2.10
  -3  -4   6   33.30    2.10
  -3  -4   6   33.50    2.40
  -3  -4   6   36.20    2.50
  -3  -4   6   36.00    2.10
   2   4  -6   29.10    1.90
   2   4  -6   30.00    2.10
   2   4  -6   28.20    1.70
  -2  -4   6   27.70    2.20
  -2  -4   6   30.30    2.10
  -2  -4   6   27.70    1.80
  -2  -4   6   28.90    1.80
   1   4  -6    2.80    0.60
   1   4  -6    2.00    0.80
   1   4  -6    2.10    0.90
  -1  -4   6    2.30    0.80
  -1  -4   6    0.60    0.70
  -1  -4   6    3.20    0.90
  -1  -4   6    2.10    1.00
   0   4  -6    0.20    0.80
   0   4  -6    0.70    0.60
   0  -4   6    1.00    0.70
   0  -4   6   -0.10    0.90
   0  -4   6    0.20    0.50
   0  -4   6   -0.10    0.70
  -1   4  -6   49.50    2.00
  -1   4  -6   46.30    2.40
  -1   4  -6   48.10    2.60
   1  -4   6   49.70    2.40
   1  -4   6   47.40    2.60
   1  -4   6   49.00    2.50
  -2   4  -6   31.30    1.70
  -2   4  -6   29.70    2.00
  -2   4  -6   30.60    2.20
   2  -4   6   33.50    2.00
   2  -4   6   31.20    2.10
   2  -4   6   31.30    1.80
   2  -4   6   31.10    2.10
  -3   4  -6    5.00    1.20
  -3   4  -6    4.50    0.90
  -3   4  -6    4.70    1.10
   3  -4   6    1.10    1.00
   3  -4   6    5.30    1.10
   3  -4   6    5.10    1.10
   3  -4   6    3.70    1.10
  -4   4  -6    2.60    1.00
  -4   4  -6    1.90    0.80
  -4   4  -6    2.60    1.00
  -4   4  -6    2.00    1.10
   4  -4   6    3.30    1.00
   4  -4   6    2.60    1.20
   4  -4   6    2.20    1.00
  -5   4  -6   -0.10    1.00
  -5   4  -6    0.70    1.10
   5  -4   6   -0.40    0.90
   5  -4   6    0.90    1.20
  -6   4  -6   13.80    2.00
  -6   4  -6   13.40    2.00
   6  -4   6   11.50    1.80
   6  -4   6   12.50    2.20
   7  -4   6    4.80    1.90
  11   3  -6    1.40    1.70
 -11  -3   6   -0.80    1.70
 -11  -3   6   -0.60    1.40
  10   3  -6   -0.10    1.50
 -10  -3   6    3.30    1.60
 -10  -3   6    0.90    1.50
 -10  -3   6    0.90    1.70
   9   3  -6    2.30    1.60
  -9  -3   6    3.10    1.90
  -9  -3   6    1.70    1.30
  -9  -3   6    2.40    1.50
   8   3  -6    2.10    1.30
  -8  -3   6   -0.20    1.00
  -8  -3   6    0.90    1.40
  -8  -3   6    3.30    1.70
  -8  -3   6    0.20    1.10
   7   3  -6   16.50    2.10
  -7  -3   6   17.20    2.00
  -7  -3   6   16.50    2.30
  -7  -3   6   17.80    2.60
  -7  -3   6   15.50    2.00
   6   3  -6   16.10    1.80
  -6  -3   6   13.60    1.60
  -6  -3   6   14.40    2.10
  -6  -3   6   11.60    1.90
   5   3  -6    9.40    1.00
   5   3  -6    8.90    1.40
   5   3  -6    8.30    1.20
  -5  -3   6    6.40    1.50
  -5  -3   6    8.30    1.70
  -5  -3   6    7.70    1.30
   4   3  -6   12.40    1.40
   4   3  -6   11.60    1.20
   4   3  -6   14.00    1.50
  -4  -3   6   13.10    1.50
  -4  -3   6   13.60    1.90
  -4  -3   6   13.50    1.90
   3   3  -6    3.70    0.90
   3   3  -6    2.80    0.90
   3   3  -6    2.20    0.80
  -3  -3   6    4.70    0.90
  -3  -3   6    4.10    1.30
  -3  -3   6    2.90    0.80
  -3  -3   6    4.50    1.30
   2   3  -6    5.10    1.00
   2   3  -6    5.70    0.90
  -2  -3   6    3.40    0.80
  -2  -3   6    5.10    0.90
  -2  -3   6    5.90    1.20
  -2  -3   6    4.80    1.40
   1   3  -6    3.90    1.00
   1   3  -6    2.20    0.60
   1   3  -6    2.30    0.80
  -1  -3   6    2.70    0.70
  -1  -3   6    4.20    1.00
  -1  -3   6    3.00    0.80
  -1  -3   6    2.40    1.10
   0   3  -6    0.10    0.40
   0   3  -6    0.00    0.50
   0   3  -6   -0.50    0.50
   0   3  -6    0.60    0.70
   0   3  -6   -0.60    0.40
   0  -3   6   -0.20    0.60
   0  -3   6   -0.50    0.90
   0  -3   6   -0.70    0.60
   0  -3   6   -0.30    0.60
  -1   3  -6  170.58    5.30
  -1   3  -6  165.08    5.60
  -1   3  -6  164.18    5.20
   1  -3   6  161.48    5.30
   1  -3   6  166.18    5.20
   1  -3   6  163.58    5.60
   1  -3   6  165.58    5.30
  -2   3  -6    7.30    1.10
  -2   3  -6    6.60    1.30
  -2   3  -6    9.30    1.20
   2  -3   6    8.40    1.30
   2  -3   6    8.10    1.10
   2  -3   6    8.30    1.00
   2  -3   6    9.70    1.10
  -3   3  -6    3.20    0.90
  -3   3  -6    2.10    1.00
  -3   3  -6    4.30    1.00
   3  -3   6    1.60    1.00
   3  -3   6    2.90    1.10
   3  -3   6    2.50    0.90
   3  -3   6    4.60    1.00
  -4   3  -6    0.80    0.80
  -4   3  -6    0.30    0.70
  -4   3  -6    1.70    0.90
  -4   3  -6    0.30    1.00
   4  -3   6    2.10    1.20
   4  -3   6    0.80    0.80
   4  -3   6    0.90    0.80
  -5   3  -6   -0.70    0.90
  -5   3  -6    0.40    0.80
  -5   3  -6    0.20    0.90
   5  -3   6    1.80    1.00
   5  -3   6    2.30    1.20
  -6   3  -6    5.00    1.30
   6  -3   6    6.90    1.90
  -7   3  -6    1.90    1.20
   7  -3   6   -0.80    1.40
  11   2  -6   -2.10    1.10
 -11  -2   6    0.40    2.40
 -11  -2   6    0.00    1.50
 -11  -2   6   -0.40    1.30
  10   2  -6    0.20    1.30
 -10  -2   6    1.60    1.40
 -10  -2   6    0.70    1.70
 -10  -2   6    2.90    1.60
   9   2  -6    0.40    0.80
   9   2  -6    1.00    1.20
  -9  -2   6    1.70    1.60
  -9  -2   6   -0.40    1.00
  -9  -2   6    2.00    1.20
   8   2  -6   10.00    1.70
  -8  -2   6   10.00    2.10
  -8  -2   6   10.00    1.70
  -8  -2   6   12.00    2.20
  -8  -2   6   10.90    1.80
   7   2  -6   33.30    2.40
  -7  -2   6   35.20    3.00
  -7  -2   6   30.70    2.60
  -7  -2   6   32.50    2.30
  -7  -2   6   35.00    2.40
   6   2  -6    9.20    1.40
  -6  -2   6    9.40    1.40
  -6  -2   6    8.50    1.70
  -6  -2   6   10.50    1.50
  -6  -2   6    7.80    1.70
   5   2  -6   70.89    3.00
   5   2  -6   72.99    3.00
   5   2  -6   69.49    3.20
  -5  -2   6   68.79    3.50
  -5  -2   6   70.09    3.70
  -5  -2   6   69.19    3.00
   4   2  -6    2.40    0.80
   4   2  -6    3.30    0.80
   4   2  -6    1.40    0.90
  -4  -2   6    3.00    1.40
  -4  -2   6    0.80    0.70
  -4  -2   6    1.10    1.20
   3   2  -6   22.50    1.70
   3   2  -6   20.90    1.60
   3   2  -6   22.60    1.40
  -3  -2   6   20.40    2.00
  -3  -2   6   21.20    1.40
  -3  -2   6   24.20    2.10
   2   2  -6   39.80    2.00
   2   2  -6   37.80    2.40
   2   2  -6   34.90    2.00
  -2  -2   6   38.10    2.30
  -2  -2   6   39.10    1.80
  -2  -2   6   38.90    2.40
  -2  -2   6   39.60    1.80
   1   2  -6   23.60    1.60
   1   2  -6   24.10    1.40
   1   2  -6   24.00    1.30
   1   2  -6   23.10    1.40
   1   2  -6   24.10    1.50
  -1  -2   6   23.90    1.30
  -1  -2   6   22.80    1.70
  -1  -2   6   21.10    1.80
   0   2  -6  248.98    7.90
   0   2  -6  269.57    7.70
   0   2  -6  262.47    7.40
   0   2  -6  262.57    7.50
   0  -2   6  262.57    7.90
   0  -2   6  264.17    7.50
   0  -2   6  266.57    7.50
  -1   2  -6  216.68    6.30
  -1   2  -6  206.38    6.50
  -1   2  -6  216.78    6.80
   1  -2   6  208.38    6.20
   1  -2   6  210.88    5.80
   1  -2   6  213.28    6.40
   1  -2   6  203.28    6.70
   1  -2   6  213.88    6.20
  -2   2  -6   -0.10    0.50
  -2   2  -6    1.10    0.70
  -2   2  -6   -1.00    0.70
   2  -2   6   -0.20    0.70
   2  -2   6   -0.80    0.50
   2  -2   6    1.40    0.70
   2  -2   6    0.60    0.60
   2  -2   6   -0.10    0.70
  -3   2  -6    5.30    1.20
  -3   2  -6    3.60    0.90
  -3   2  -6    3.40    0.90
  -3   2  -6    2.60    0.90
   3  -2   6    3.80    0.90
   3  -2   6    2.70    1.00
   3  -2   6    3.00    1.10
  -4   2  -6    6.80    1.20
  -4   2  -6    6.00    1.20
  -4   2  -6    6.00    1.10
   4  -2   6    5.20    1.30
   4  -2   6    4.60    1.30
   4  -2   6    6.30    1.10
  -5   2  -6    4.70    1.20
  -5   2  -6    4.70    1.20
  -5   2  -6    4.30    1.20
   5  -2   6    6.60    1.40
   5  -2   6    4.30    1.30
  -6   2  -6    0.10    1.00
   6  -2   6    0.10    1.20
  -7   2  -6    1.80    1.20
   7  -2   6    4.00    1.60
  11   1  -6    1.80    1.60
  11   1  -6   -1.00    1.70
 -11  -1   6    0.00    1.40
 -11  -1   6   -0.30    1.60
 -11  -1   6   -1.00    1.60
  10   1  -6    0.00    0.90
  10   1  -6    0.70    1.20
 -10  -1   6    0.90    1.70
 -10  -1   6   -0.30    1.20
 -10  -1   6    0.40    1.20
   9   1  -6   24.70    2.70
  -9  -1   6   22.30    2.90
  -9  -1   6   25.20    2.60
  -9  -1   6   21.10    2.30
  -9  -1   6   20.20    2.80
   8   1  -6    1.80    1.20
  -8  -1   6    4.50    1.40
  -8  -1   6    1.80    1.60
  -8  -1   6    2.80    1.60
  -8  -1   6    0.30    1.00
   7   1  -6   31.80    2.20
   7   1  -6   31.40    2.40
  -7  -1   6   29.60    2.60
  -7  -1   6   29.50    2.20
  -7  -1   6   23.00    2.70
  -7  -1   6   25.80    2.00
   6   1  -6   12.00    1.40
   6   1  -6   12.80    1.60
   6   1  -6   12.80    1.40
  -6  -1   6   15.20    1.60
  -6  -1   6   11.50    2.00
  -6  -1   6   12.40    1.90
  -6  -1   6   13.80    1.50
   5   1  -6   66.79    2.80
   5   1  -6   64.99    2.80
  -5  -1   6   67.59    3.70
  -5  -1   6   69.09    2.80
  -5  -1   6   65.99    2.80
  -5  -1   6   65.29    3.40
  -5  -1   6   68.89    2.30
   4   1  -6   13.20    1.20
   4   1  -6   11.70    1.20
   4   1  -6   12.10    1.40
  -4  -1   6   13.20    1.20
  -4  -1   6   10.60    1.70
  -4  -1   6   12.10    0.70
  -4  -1   6   11.40    1.70
   3   1  -6  216.98    6.70
   3   1  -6  221.28    6.90
   3   1  -6  225.28    6.40
  -3  -1   6  218.38    6.40
  -3  -1   6  223.28    7.30
  -3  -1   6  223.28    5.90
  -3  -1   6  223.88    7.30
   2   1  -6   61.29    2.60
   2   1  -6   59.39    2.50
   2   1  -6   60.59    2.50
  -2  -1   6   58.49    2.00
  -2  -1   6   57.69    2.10
  -2  -1   6   58.39    2.10
  -2  -1   6   56.09    2.90
  -2  -1   6   57.19    2.80
   1   1  -6   52.69    2.40
   1   1  -6   53.69    2.30
   1   1  -6   55.89    1.90
   1   1  -6   50.59    2.40
  -1  -1   6   55.29    2.50
  -1  -1   6   55.09    2.00
  -1  -1   6   52.89    2.60
   0   1  -6   71.79    2.40
   0   1  -6   69.89    2.90
   0   1  -6   62.69    2.80
   0   1  -6   73.79    2.70
   0  -1   6   72.79    2.80
   0  -1   6   69.49    2.30
   0  -1   6   69.69    3.00
   0  -1   6   69.09    2.40
  -1   1  -6    3.70    0.60
  -1   1  -6    3.30    0.90
  -1   1  -6    4.60    1.00
   1  -1   6    5.40    1.00
   1  -1   6    3.50    0.90
   1  -1   6    4.30    0.60
   1  -1   6    2.50    0.90
   1  -1   6    4.20    0.80
   1  -1   6    3.50    0.60
  -2   1  -6   54.89    2.20
  -2   1  -6   56.39    2.70
  -2   1  -6   47.30    2.60
  -2   1  -6   55.39    2.20
   2  -1   6   53.99    2.70
   2  -1   6   55.19    2.20
   2  -1   6   53.59    2.70
  -3   1  -6   85.49    3.20
  -3   1  -6   86.29    3.20
  -3   1  -6   81.69    3.70
  -3   1  -6   79.59    3.70
   3  -1   6   88.29    3.80
   3  -1   6   84.79    3.10
   3  -1   6   91.59    3.90
  -4   1  -6   21.30    1.70
  -4   1  -6   18.80    2.00
  -4   1  -6   22.40    1.60
   4  -1   6   22.30    2.20
   4  -1   6   23.80    1.80
   4  -1   6   23.70    2.30
  -5   1  -6    5.50    1.30
   5  -1   6    4.70    1.40
  -6   1  -6    0.70    1.10
   6  -1   6    0.90    1.20
  -7   1  -6    0.20    1.10
   7  -1   6    3.00    1.60
  11   0  -6    8.00    2.10
  11   0  -6   14.20    2.40
 -11   0   6    8.00    2.00
 -11   0   6   11.20    2.30
 -11   0   6   11.20    2.40
  10   0  -6    0.90    1.40
  10   0  -6    6.90    1.70
 -10   0   6    4.00    1.70
 -10   0   6    2.10    1.70
 -10   0   6    3.90    1.50
   9   0  -6   13.60    2.20
   9   0  -6   15.40    2.10
  -9   0   6   15.90    2.50
  -9   0   6   14.70    2.50
  -9   0   6   15.40    2.10
  -9   0   6   16.10    2.10
   8   0  -6   85.59    4.40
   8   0  -6   89.19    4.00
  -8   0   6   93.09    4.10
  -8   0   6   90.59    4.00
  -8   0   6   90.69    4.50
  -8   0   6   91.49    3.90
  -8   0   6   92.99    5.00
   7   0  -6  106.19    4.60
   7   0  -6  109.79    4.30
  -7   0   6  112.19    4.20
  -7   0   6  109.09    4.20
  -7   0   6  103.89    4.30
  -7   0   6  118.09    5.40
  -7   0   6  111.29    5.00
   6   0  -6  100.69    3.80
   6   0  -6  102.99    4.30
   6   0  -6  100.69    3.80
  -6   0   6   99.09    4.50
  -6   0   6  110.09    5.00
  -6   0   6  109.19    3.80
  -6   0   6  101.89    3.90
  -6   0   6  103.99    3.90
   5   0  -6   88.59    3.20
   5   0  -6   88.99    3.20
  -5   0   6   82.99    3.10
  -5   0   6   85.89    3.20
  -5   0   6   92.59    4.30
  -5   0   6   81.69    3.90
  -5   0   6   87.99    3.10
   4   0  -6    0.50    0.50
   4   0  -6    1.80    0.60
   4   0  -6    1.10    0.80
  -4   0   6    2.00    1.30
  -4   0   6    0.80    0.50
  -4   0   6    0.30    1.10
  -4   0   6    2.00    0.60
  -4   0   6    2.20    0.60
   3   0  -6    3.20    0.50
   3   0  -6    1.90    0.70
   3   0  -6    2.70    0.70
  -3   0   6    4.00    1.30
  -3   0   6    2.70    0.50
  -3   0   6    3.00    1.20
  -3   0   6    3.40    0.50
   2   0  -6  245.98    7.20
   2   0  -6  235.78    7.30
  -2   0   6  231.68    7.60
  -2   0   6  246.18    7.00
  -2   0   6  242.28    6.60
  -2   0   6  252.57    7.70
  -2   0   6  251.67    6.60
   1   0  -6   73.79    2.90
   1   0  -6   77.19    3.00
   1   0  -6   75.69    2.20
   1   0  -6   79.79    2.20
   1   0  -6   78.79    3.20
  -1   0   6   77.59    2.30
  -1   0   6   77.69    2.20
  -1   0   6   79.59    3.20
  -1   0   6   78.19    2.20
  -1   0   6   79.39    2.20
  -1   0   6   76.89    3.30
   0   0  -6   35.20    1.20
   0   0  -6   34.50    2.00
   0   0  -6   31.60    1.80
   0   0  -6   34.80    1.90
   0   0  -6   40.70    1.40
   0   0  -6   36.20    1.20
   0   0   6   35.70    2.10
   0   0   6   32.00    1.90
   0   0   6   33.60    1.20
   0   0   6   37.50    2.00
  -1   0  -6    0.40    0.30
  -1   0  -6    0.90    0.40
  -1   0  -6    0.80    0.70
  -1   0  -6   -0.40    0.70
   1   0   6    0.60    0.40
   1   0   6   -0.10    0.60
   1   0   6    0.80    0.70
   1   0   6    0.40    0.80
   1   0   6    1.00    0.60
  -2   0  -6   16.80    1.00
  -2   0  -6   20.80    1.90
  -2   0  -6   17.30    1.80
   2   0   6   16.80    1.20
   2   0   6   16.90    1.10
   2   0   6   16.00    1.10
   2   0   6   19.10    1.80
   2   0   6   19.50    1.80
  -3   0  -6    1.10    0.90
  -3   0  -6    0.60    0.70
   3   0   6    2.40    0.90
   3   0   6    1.00    0.90
  -4   0  -6   -0.30    0.80
   4   0   6    0.50    0.90
   4   0   6   -0.70    0.90
  -5   0  -6    0.50    0.90
   5   0   6   -0.60    0.90
  -6   0  -6    7.50    1.70
   6   0   6    8.50    1.80
  -7   0  -6    3.60    1.40
   7   0   6    2.50    1.60
  12  -1  -6    0.40    1.70
  12  -1  -6    4.40    1.90
 -12   1   6    1.50    1.70
 -12   1   6    1.10    1.60
  11  -1  -6    4.80    1.90
  11  -1  -6    4.50    1.70
  11  -1  -6    2.30    1.70
 -11   1   6    3.00    1.90
 -11   1   6    3.50    1.70
 -11   1   6    2.50    1.60
  10  -1  -6    0.10    1.30
  10  -1  -6   -0.80    1.20
  10  -1  -6    1.00    1.20
 -10   1   6    0.70    1.20
 -10   1   6   -0.30    1.60
 -10   1   6   -0.20    1.50
 -10   1   6    0.40    1.20
   9  -1  -6    6.70    1.60
   9  -1  -6   10.10    1.80
   9  -1  -6    8.20    1.50
  -9   1   6   11.50    2.30
  -9   1   6   11.60    1.80
  -9   1   6    7.90    1.60
  -9   1   6    9.50    2.20
  -9   1   6    8.70    1.70
   8  -1  -6   56.59    2.90
   8  -1  -6   52.89    3.00
   8  -1  -6   58.99    3.40
  -8   1   6   53.59    3.80
  -8   1   6   57.79    3.50
  -8   1   6   57.39    3.20
  -8   1   6   54.19    2.90
   7  -1  -6   32.80    2.00
   7  -1  -6   32.00    2.10
  -7   1   6   29.90    2.10
  -7   1   6   30.50    2.70
  -7   1   6   34.30    2.10
  -7   1   6   33.90    3.10
  -7   1   6   34.70    2.40
   6  -1  -6  196.68    6.10
   6  -1  -6  194.88    5.90
   6  -1  -6  191.48    6.60
   6  -1  -6  199.28    6.00
  -6   1   6  193.58    7.00
  -6   1   6  191.28    6.10
  -6   1   6  190.28    7.20
  -6   1   6  197.28    6.20
  -6   1   6  184.88    6.00
   5  -1  -6   40.10    2.50
   5  -1  -6   37.20    1.90
   5  -1  -6   42.60    1.90
  -5   1   6   40.10    1.90
  -5   1   6   40.60    2.80
  -5   1   6   42.60    2.10
  -5   1   6   47.40    3.00
  -5   1   6   38.10    1.90
  -5   1   6   41.20    2.10
   4  -1  -6    5.50    0.80
   4  -1  -6    6.30    1.30
   4  -1  -6    4.20    1.00
   4  -1  -6    7.80    0.80
  -4   1   6    6.60    1.40
  -4   1   6    5.70    0.90
  -4   1   6    6.90    0.60
  -4   1   6    7.20    0.80
  -4   1   6    7.20    0.80
  -4   1   6    5.50    1.40
  -4   1   6    6.10    0.90
   3  -1  -6  105.29    4.00
   3  -1  -6  112.49    4.30
   3  -1  -6  113.99    3.20
   3  -1  -6  106.39    3.60
  -3   1   6  114.79    3.30
  -3   1   6  112.69    4.40
  -3   1   6  111.89    3.80
  -3   1   6  110.89    4.40
   2  -1  -6  275.17    8.40
   2  -1  -6  280.87    8.00
   2  -1  -6  288.27    8.50
   2  -1  -6  271.47    8.50
  -2   1   6  281.37    8.70
  -2   1   6  283.07    8.10
  -2   1   6  279.17    8.50
   1  -1  -6    4.30    0.90
   1  -1  -6    5.10    0.90
   1  -1  -6    3.40    0.90
   1  -1  -6   10.60    1.40
  -1   1   6    4.20    1.00
  -1   1   6    5.20    1.30
   0  -1  -6   13.00    1.50
   0  -1  -6   13.20    1.30
   0  -1  -6   11.40    1.20
   0  -1  -6   13.50    1.50
   0   1   6   10.90    1.30
   0   1   6   17.70    1.70
   0   1   6   16.50    1.50
   0   1   6   14.60    1.40
  -1  -1  -6   11.50    1.50
  -1  -1  -6   11.10    1.30
  -1  -1  -6   13.30    1.40
   1   1   6   13.50    1.50
   1   1   6   11.70    1.30
   1   1   6   11.50    1.30
   1   1   6   11.50    1.30
  -2  -1  -6   34.60    2.40
   2   1   6   35.70    2.10
   2   1   6   35.90    1.90
   2   1   6   34.10    2.20
  -3  -1  -6    0.80    1.00
   3   1   6    1.00    0.90
   3   1   6    0.90    0.90
  -4  -1  -6    2.50    1.20
   4   1   6    3.20    1.10
   4   1   6    1.50    1.10
  -5  -1  -6    0.10    0.90
   5   1   6    0.60    1.10
  -6  -1  -6    0.00    1.10
   6   1   6   -0.60    1.30
  -7  -1  -6   -0.40    1.00
   7   1   6    0.60    1.40
  12  -2  -6    2.50    1.80
  12  -2  -6    2.40    1.50
  12  -2  -6   -0.10    1.50
 -12   2   6    0.50    1.50
 -12   2   6    3.40    2.00
  11  -2  -6   -0.90    1.40
  11  -2  -6    5.40    1.80
  11  -2  -6    2.90    1.50
 -11   2   6    3.20    1.70
 -11   2   6    1.80    1.90
 -11   2   6    1.00    1.60
  10  -2  -6   16.60    2.40
  10  -2  -6   14.50    2.40
  10  -2  -6   17.30    2.20
 -10   2   6   16.50    2.40
 -10   2   6   18.30    2.90
 -10   2   6   16.80    2.30
   9  -2  -6   -0.50    0.90
   9  -2  -6   -0.70    1.00
   9  -2  -6    0.60    1.20
  -9   2   6   -1.20    1.30
  -9   2   6    0.50    1.20
  -9   2   6    0.70    1.10
  -9   2   6   -0.40    1.50
   8  -2  -6    1.20    1.10
   8  -2  -6    2.30    1.00
   8  -2  -6    0.60    1.10
  -8   2   6    1.30    1.60
  -8   2   6    1.30    1.40
  -8   2   6   -0.30    0.90
  -8   2   6    1.60    1.20
   7  -2  -6   35.20    2.50
   7  -2  -6   37.80    2.10
   7  -2  -6   35.70    2.20
   7  -2  -6   34.30    1.80
  -7   2   6   43.10    3.30
  -7   2   6   35.30    2.80
  -7   2   6   38.10    2.60
  -7   2   6   39.70    2.20
   6  -2  -6  125.19    5.00
   6  -2  -6  126.09    4.10
   6  -2  -6  129.19    4.30
   6  -2  -6  128.29    4.80
   6  -2  -6  125.49    4.40
  -6   2   6  123.39    4.30
  -6   2   6  126.59    4.70
  -6   2   6  131.89    5.50
  -6   2   6  125.59    5.20
  -6   2   6  131.29    4.40
   5  -2  -6   12.90    1.00
   5  -2  -6   13.70    1.10
   5  -2  -6   11.30    1.50
   5  -2  -6   13.80    1.60
   5  -2  -6   14.10    1.10
  -5   2   6   12.80    1.90
  -5   2   6   12.00    0.90
  -5   2   6   12.40    1.90
  -5   2   6   11.20    1.30
  -5   2   6   13.90    1.20
   4  -2  -6   83.09    2.70
   4  -2  -6   78.89    3.50
   4  -2  -6   85.49    3.60
   4  -2  -6   85.79    2.80
  -4   2   6   85.19    2.80
  -4   2   6   86.09    3.90
  -4   2   6   82.59    2.80
  -4   2   6   88.39    2.90
  -4   2   6   87.09    3.30
  -4   2   6   82.49    2.70
   3  -2  -6    1.10    0.70
   3  -2  -6    0.20    0.20
   3  -2  -6    0.50    0.80
   3  -2  -6    0.60    0.20
   3  -2  -6   -0.30    0.40
  -3   2   6    0.00    0.30
  -3   2   6    0.10    0.30
  -3   2   6   -0.20    0.50
  -3   2   6    0.10    0.40
  -3   2   6    0.00    0.30
  -3   2   6   -0.20    0.90
   2  -2  -6  142.69    4.40
   2  -2  -6  138.09    5.00
   2  -2  -6  140.29    5.00
   2  -2  -6  139.39    5.00
  -2   2   6  143.99    4.90
  -2   2   6  148.09    5.20
   1  -2  -6   23.50    1.40
   1  -2  -6   24.80    1.90
   1  -2  -6   24.10    1.70
   1  -2  -6   21.40    1.70
  -1   2   6   21.50    1.40
  -1   2   6   22.00    1.80
   0  -2  -6   -0.10    0.60
   0  -2  -6    0.60    0.80
   0  -2  -6    0.20    0.60
   0  -2  -6    0.40    0.80
   0   2   6   -0.10    0.70
   0   2   6    0.50    0.60
   0   2   6    0.40    0.60
  -1  -2  -6  135.59    4.80
  -1  -2  -6  129.09    5.10
   1   2   6  144.29    5.00
   1   2   6  137.39    4.70
  -2  -2  -6   52.79    2.90
  -2  -2  -6   51.99    2.60
   2   2   6   52.19    2.70
   2   2   6   54.69    2.60
  -3  -2  -6   19.20    2.30
   3   2   6   13.30    1.70
   3   2   6   18.40    1.80
  -4  -2  -6    0.40    1.00
   4   2   6    0.80    1.00
   4   2   6    0.60    0.80
  -5  -2  -6    4.80    1.60
   5   2   6    4.90    1.40
  -6  -2  -6    0.60    1.30
   6   2   6    0.60    1.30
  12  -3  -6   -2.30    1.40
  12  -3  -6    0.50    1.30
  11  -3  -6    2.50    1.70
  11  -3  -6    4.10    1.70
  11  -3  -6    3.00    1.50
 -11   3   6    4.30    1.90
 -11   3   6    2.50    1.50
 -11   3   6    2.90    2.00
  10  -3  -6   17.50    2.40
  10  -3  -6   12.70    1.90
  10  -3  -6   14.50    2.20
 -10   3   6   17.60    2.70
 -10   3   6   18.00    2.70
 -10   3   6   14.10    2.20
   9  -3  -6    8.50    1.80
   9  -3  -6    8.10    1.80
   9  -3  -6    9.80    1.70
  -9   3   6    6.70    2.30
  -9   3   6    9.60    2.10
  -9   3   6    7.70    1.90
  -9   3   6   11.50    1.90
   8  -3  -6    4.00    1.10
   8  -3  -6    5.20    1.40
   8  -3  -6    1.70    1.10
   8  -3  -6    3.90    1.30
  -8   3   6    5.20    1.30
  -8   3   6    2.60    1.30
  -8   3   6    4.40    1.90
  -8   3   6    4.70    1.70
   7  -3  -6   15.20    1.60
   7  -3  -6   10.30    1.50
   7  -3  -6   12.80    1.40
   7  -3  -6   11.60    1.60
   7  -3  -6   12.90    1.00
  -7   3   6   12.00    2.10
  -7   3   6   15.70    1.70
  -7   3   6    8.80    1.90
  -7   3   6   11.00    1.70
   6  -3  -6    1.50    1.00
   6  -3  -6    2.30    0.80
   6  -3  -6    1.50    0.70
   6  -3  -6    0.60    0.80
   6  -3  -6    1.20    0.40
  -6   3   6    1.60    0.90
  -6   3   6    1.50    1.30
  -6   3   6    1.90    0.70
   5  -3  -6    8.40    1.00
   5  -3  -6    6.80    1.30
   5  -3  -6    8.40    1.40
   5  -3  -6    8.50    0.70
   5  -3  -6    8.50    0.90
  -5   3   6    7.40    0.80
  -5   3   6    8.60    1.70
  -5   3   6    7.80    1.20
  -5   3   6    6.90    0.60
  -5   3   6    7.30    1.00
   4  -3  -6    0.50    0.40
   4  -3  -6    0.60    0.40
   4  -3  -6    0.50    0.80
   4  -3  -6    0.70    0.40
   4  -3  -6   -0.40    0.70
  -4   3   6    0.20    0.40
  -4   3   6    0.20    0.40
  -4   3   6    0.20    0.40
  -4   3   6   -0.90    0.60
  -4   3   6    0.50    1.10
   3  -3  -6    7.80    1.30
   3  -3  -6   11.00    1.30
   3  -3  -6   10.40    0.50
   3  -3  -6   11.40    0.80
  -3   3   6   12.40    1.20
  -3   3   6   11.60    1.60
  -3   3   6    9.90    0.60
  -3   3   6   10.30    1.30
  -3   3   6   10.00    0.60
  -3   3   6   11.30    1.00
   2  -3  -6   14.10    1.60
   2  -3  -6   16.10    1.10
   2  -3  -6   15.50    1.70
   2  -3  -6   14.40    1.60
  -2   3   6   16.40    1.40
  -2   3   6   16.00    1.20
  -2   3   6   17.40    1.60
  -2   3   6   14.90    1.80
   1  -3  -6    0.20    0.70
   1  -3  -6    0.50    0.70
   1  -3  -6    0.70    0.80
  -1   3   6   -0.30    0.60
  -1   3   6   -0.30    0.90
  -1   3   6    1.00    0.80
   0  -3  -6   15.90    1.60
   0  -3  -6   19.10    1.90
   0   3   6   17.60    1.40
   0   3   6   18.80    1.30
  -1  -3  -6   58.59    2.80
  -1  -3  -6   59.39    3.20
   1   3   6   62.19    2.60
   1   3   6   62.79    2.90
  -2  -3  -6    4.20    1.30
  -2  -3  -6    6.00    1.20
   2   3   6    4.90    1.00
   2   3   6    6.20    1.20
  -3  -3  -6    2.80    1.20
  -3  -3  -6    0.90    0.80
   3   3   6    1.40    0.90
   3   3   6    2.20    0.90
  -4  -3  -6    1.60    1.20
   4   3   6    0.20    0.80
  -5  -3  -6    5.30    1.70
   5   3   6   11.00    1.80
  -6  -3  -6    6.10    1.80
   6   3   6    4.40    1.90
  11  -4  -6    1.40    1.60
  11  -4  -6    0.90    1.50
  11  -4  -6    0.60    1.40
 -11   4   6    0.50    1.70
 -11   4   6    6.30    1.80
 -11   4   6   -0.60    1.70
  10  -4  -6   -1.50    1.10
  10  -4  -6    1.50    1.20
  10  -4  -6   -1.90    1.10
 -10   4   6    1.60    1.30
 -10   4   6    0.60    1.80
 -10   4   6    2.20    1.70
   9  -4  -6   -0.40    1.00
   9  -4  -6   -0.20    1.00
   9  -4  -6    1.30    1.10
   9  -4  -6    0.60    1.00
  -9   4   6   -0.70    1.50
  -9   4   6    0.90    1.70
  -9   4   6    0.10    1.50
  -9   4   6    1.20    1.00
   8  -4  -6    2.00    1.10
   8  -4  -6    2.40    1.00
   8  -4  -6    2.70    1.10
   8  -4  -6    4.80    1.40
  -8   4   6    1.20    1.60
  -8   4   6    3.00    1.50
  -8   4   6    1.60    1.00
  -8   4   6    5.70    1.70
   7  -4  -6   14.80    1.80
   7  -4  -6   13.20    1.60
   7  -4  -6    8.90    1.60
   7  -4  -6   11.20    1.40
  -7   4   6    9.30    1.70
  -7   4   6   11.00    1.50
  -7   4   6   15.40    2.40
   6  -4  -6    4.30    1.20
   6  -4  -6    5.60    1.30
   6  -4  -6    4.40    1.00
   6  -4  -6    5.40    0.90
  -6   4   6    4.40    1.20
  -6   4   6    5.00    1.00
  -6   4   6    4.40    1.60
   5  -4  -6    6.50    1.20
   5  -4  -6    6.50    0.90
   5  -4  -6    4.10    1.10
  -5   4   6    5.30    0.70
  -5   4   6    6.60    0.90
  -5   4   6    7.20    1.60
  -5   4   6    5.10    1.10
   4  -4  -6    1.80    0.90
   4  -4  -6    3.40    1.00
   4  -4  -6    3.80    0.60
   4  -4  -6    4.30    0.50
  -4   4   6    2.90    1.00
  -4   4   6    4.20    0.70
  -4   4   6    3.30    0.50
  -4   4   6    2.30    0.70
  -4   4   6    3.70    1.30
   3  -4  -6  195.08    5.20
   3  -4  -6  192.08    6.60
   3  -4  -6  175.38    6.40
   3  -4  -6  193.88    5.20
  -3   4   6  191.98    5.60
  -3   4   6  191.68    6.80
  -3   4   6  195.88    6.60
  -3   4   6  194.48    6.10
   2  -4  -6   92.19    4.00
   2  -4  -6   92.49    4.00
   2  -4  -6   99.79    4.00
  -2   4   6   94.79    3.80
  -2   4   6  100.99    4.30
  -2   4   6   99.49    3.40
  -2   4   6   97.99    4.10
   1  -4  -6   24.30    1.90
   1  -4  -6   27.90    2.00
   1  -4  -6   22.40    1.90
  -1   4   6   24.00    1.50
  -1   4   6   25.40    1.40
  -1   4   6   24.00    1.90
   0  -4  -6    5.30    1.30
   0  -4  -6    1.90    1.00
   0   4   6    3.70    0.70
   0   4   6    3.50    0.90
   0   4   6    2.90    1.10
  -1  -4  -6    0.50    0.80
  -1  -4  -6   -1.20    0.70
   1   4   6   -0.50    0.70
   1   4   6    0.10    0.50
   1   4   6   -0.20    1.10
  -2  -4  -6    6.40    1.50
  -2  -4  -6    5.50    1.10
   2   4   6    5.50    1.20
   2   4   6    4.40    1.40
   2   4   6    5.40    1.00
  -3  -4  -6   25.60    2.80
  -3  -4  -6   20.50    1.90
   3   4   6   16.50    2.40
   3   4   6   25.40    1.80
   3   4   6   25.20    2.30
  -4  -4  -6   -0.60    1.10
   4   4   6    1.80    1.50
  -5  -4  -6    3.30    1.50
   5   4   6    3.90    1.90
  -6  -4  -6   -0.40    1.20
   6   4   6    1.90    1.80
  11  -5  -6    1.10    1.40
  11  -5  -6    2.30    1.30
  11  -5  -6    1.30    1.50
 -11   5   6    0.30    1.80
 -11   5   6   -1.00    1.20
 -11   5   6   -2.80    1.90
  10  -5  -6    8.80    1.80
  10  -5  -6    6.80    1.60
  10  -5  -6    8.60    2.00
 -10   5   6    6.30    1.60
 -10   5   6    4.00    2.10
 -10   5   6    7.20    2.20
   9  -5  -6    5.00    1.30
   9  -5  -6    4.50    1.30
   9  -5  -6    3.60    1.40
   9  -5  -6    5.30    1.50
  -9   5   6    4.40    2.40
  -9   5   6    7.00    2.20
  -9   5   6    4.80    2.00
  -9   5   6    3.80    1.40
   8  -5  -6    1.10    1.20
   8  -5  -6    1.50    1.00
   8  -5  -6    1.10    1.10
   8  -5  -6    0.00    1.00
  -8   5   6   -1.80    1.40
  -8   5   6   -0.40    0.90
  -8   5   6    0.90    1.50
   7  -5  -6   19.70    2.20
   7  -5  -6   22.80    1.80
   7  -5  -6   23.20    2.30
  -7   5   6   25.50    3.00
  -7   5   6   21.20    1.90
  -7   5   6   20.30    2.40
  -7   5   6   24.00    1.90
   6  -5  -6   90.59    4.10
   6  -5  -6   93.19    3.50
   6  -5  -6   88.99    4.20
  -6   5   6   91.89    3.60
  -6   5   6   87.99    4.60
  -6   5   6   88.69    4.30
  -6   5   6   88.09    3.50
   5  -5  -6   40.00    1.90
   5  -5  -6   41.70    2.70
   5  -5  -6   35.30    2.60
  -5   5   6   37.40    1.90
  -5   5   6   38.70    2.80
  -5   5   6   40.60    2.00
  -5   5   6   39.10    2.80
  -5   5   6   38.50    2.00
   4  -5  -6    2.80    1.00
   4  -5  -6    1.90    1.00
   4  -5  -6    3.30    0.60
  -4   5   6    4.70    1.20
  -4   5   6    3.90    0.70
  -4   5   6    2.80    0.80
  -4   5   6    2.70    0.60
  -4   5   6    3.90    1.40
   3  -5  -6   25.10    2.00
   3  -5  -6   26.10    2.10
  -3   5   6   27.30    1.90
  -3   5   6   23.70    2.20
  -3   5   6   25.20    1.30
  -3   5   6   27.30    2.30
   2  -5  -6   11.50    1.60
   2  -5  -6    9.90    1.60
   2  -5  -6    8.40    1.40
  -2   5   6   11.00    1.00
  -2   5   6    9.20    1.50
  -2   5   6   11.30    1.50
   1  -5  -6  143.79    5.60
   1  -5  -6  147.49    5.50
  -1   5   6  150.98    5.60
  -1   5   6  150.08    4.90
  -1   5   6  138.99    5.70
  -1   5   6  146.39    4.50
   0  -5  -6   92.39    4.20
   0  -5  -6   92.59    4.30
   0   5   6  100.89    3.90
   0   5   6   98.89    3.80
   0   5   6   96.29    4.40
  -1  -5  -6   28.20    2.50
  -1  -5  -6   28.70    2.20
   1   5   6   23.70    2.60
   1   5   6   25.80    2.00
  -2  -5  -6   -0.40    1.00
  -2  -5  -6   -0.20    0.90
   2   5   6    0.60    1.20
   2   5   6    1.20    0.90
  -3  -5  -6    3.00    1.50
  -3  -5  -6    2.50    1.10
   3   5   6    3.20    1.50
   3   5   6    2.80    1.30
  -4  -5  -6    2.20    1.50
   4   5   6    2.10    1.60
  -5  -5  -6    7.40    2.10
   5   5   6    4.20    1.90
  11  -6  -6    1.80    1.50
  11  -6  -6    3.20    1.60
  11  -6  -6    2.60    1.50
 -11   6   6    0.70    1.40
 -11   6   6    3.20    2.50
 -11   6   6    6.50    2.30
  10  -6  -6    4.50    1.70
  10  -6  -6    4.80    1.70
  10  -6  -6    5.10    1.50
 -10   6   6    4.60    2.40
 -10   6   6   10.50    2.40
 -10   6   6    4.40    1.70
   9  -6  -6   29.70    2.60
   9  -6  -6   31.40    2.50
   9  -6  -6   27.70    2.80
   9  -6  -6   33.30    3.00
  -9   6   6   33.00    3.50
  -9   6   6   33.70    2.70
  -9   6   6   30.00    2.80
   8  -6  -6    2.60    1.10
   8  -6  -6    1.00    1.10
   8  -6  -6    0.20    1.00
  -8   6   6    0.60    1.70
  -8   6   6   -0.90    1.60
  -8   6   6    2.70    1.10
  -8   6   6    0.60    1.10
   7  -6  -6   24.00    2.40
   7  -6  -6   22.30    1.90
   7  -6  -6   22.70    2.40
  -7   6   6   19.70    2.50
  -7   6   6   23.80    3.00
  -7   6   6   24.30    2.00
  -7   6   6   23.20    2.10
   6  -6  -6    8.90    1.20
   6  -6  -6    5.30    1.40
   6  -6  -6    6.80    1.50
  -6   6   6    8.10    1.30
  -6   6   6    7.70    1.20
  -6   6   6    7.40    1.70
  -6   6   6    7.90    1.90
   5  -6  -6   23.90    2.30
   5  -6  -6   20.90    2.20
   5  -6  -6   22.90    1.50
  -5   6   6   21.10    1.60
  -5   6   6   23.70    2.70
  -5   6   6   21.00    1.60
  -5   6   6   22.40    1.80
  -5   6   6   17.90    2.20
   4  -6  -6    0.50    0.90
   4  -6  -6    0.00    0.90
  -4   6   6    0.90    1.10
  -4   6   6    0.80    0.90
  -4   6   6   -0.70    0.70
   3  -6  -6    0.20    0.90
   3  -6  -6    0.30    0.90
  -3   6   6    2.00    1.10
  -3   6   6    2.00    0.90
  -3   6   6    1.90    1.10
   2  -6  -6   27.10    2.20
   2  -6  -6   26.50    2.20
   2  -6  -6   25.90    2.50
  -2   6   6   20.00    2.20
  -2   6   6   29.00    2.30
   1  -6  -6   59.69    3.40
   1  -6  -6   57.49    3.30
  -1   6   6   65.69    2.70
  -1   6   6   60.69    3.60
  -1   6   6   58.69    3.40
   0  -6  -6   -0.60    1.00
   0  -6  -6    0.50    1.00
   0   6   6   -0.70    0.50
   0   6   6    0.80    1.10
  -1  -6  -6   12.20    2.00
  -1  -6  -6   13.30    1.80
   1   6   6   10.00    1.90
   1   6   6    8.30    1.40
  -2  -6  -6   -1.50    1.00
  -2  -6  -6   -0.40    0.90
   2   6   6    0.70    1.40
   2   6   6   -0.50    0.80
  -3  -6  -6    0.10    1.30
   3   6   6    3.90    1.70
  -4  -6  -6    2.70    1.50
   4   6   6   -0.80    1.50
  10  -7  -6    1.50    1.40
  10  -7  -6    1.40    1.40
  10  -7  -6    2.40    1.30
 -10   7   6    2.80    1.40
 -10   7   6    1.50    2.20
   9  -7  -6   14.40    2.00
   9  -7  -6   14.80    2.30
   9  -7  -6   18.70    2.30
  -9   7   6   14.10    2.00
  -9   7   6   13.20    2.90
  -9   7   6   13.80    2.00
   8  -7  -6    2.10    1.30
   8  -7  -6    1.80    1.00
   8  -7  -6   -0.30    1.00
  -8   7   6   -0.50    0.90
  -8   7   6    2.00    1.20
  -8   7   6    1.00    1.90
   7  -7  -6    2.50    1.20
   7  -7  -6    1.40    1.20
   7  -7  -6    0.50    0.80
  -7   7   6   -0.20    0.80
  -7   7   6   -1.00    1.20
  -7   7   6   -1.20    1.60
  -7   7   6    1.10    1.00
   6  -7  -6   20.40    2.30
   6  -7  -6   19.00    2.20
   6  -7  -6   21.40    1.80
  -6   7   6   23.50    2.10
  -6   7   6   20.10    2.50
  -6   7   6   22.70    2.90
  -6   7   6   21.70    1.90
   5  -7  -6   20.90    2.30
   5  -7  -6   20.50    2.20
  -5   7   6   30.20    3.10
  -5   7   6   20.00    2.50
  -5   7   6   26.80    2.20
   4  -7  -6    1.00    1.00
   4  -7  -6   -0.90    1.00
  -4   7   6    3.20    1.30
  -4   7   6    0.30    1.20
  -4   7   6    1.10    0.90
   3  -7  -6    6.80    1.50
   3  -7  -6   11.00    1.70
  -3   7   6    9.50    1.50
  -3   7   6    8.70    1.70
   2  -7  -6   10.80    1.90
   2  -7  -6   10.00    1.70
  -2   7   6   11.90    1.70
  -2   7   6    8.80    1.70
   1  -7  -6    4.90    1.50
   1  -7  -6    4.10    1.30
  -1   7   6    3.00    1.30
  -1   7   6    5.70    1.50
   0  -7  -6    6.40    1.50
   0  -7  -6    7.30    1.60
   0   7   6    6.50    1.70
   0   7   6    6.20    1.50
  -1  -7  -6   10.50    1.80
  -1  -7  -6   12.90    2.10
   1   7   6   12.40    2.10
  -2  -7  -6    0.80    1.10
  -2  -7  -6   -1.40    1.10
   2   7   6    3.30    1.20
   2   7   6    1.40    1.50
  -3  -7  -6    6.70    2.00
   3   7   6    6.90    2.20
  -4  -7  -6    0.80    1.60
   4   7   6   -3.40    1.40
  10  -8  -6    9.60    2.00
 -10   8   6   11.60    3.10
   9  -8  -6   14.10    2.00
   9  -8  -6   15.10    2.20
   9  -8  -6   10.90    1.90
  -9   8   6   12.90    2.00
  -9   8   6   10.80    1.90
  -9   8   6   12.70    3.00
   8  -8  -6   -1.10    1.10
   8  -8  -6   -0.40    1.10
   8  -8  -6   -1.00    0.90
  -8   8   6   -0.10    1.10
  -8   8   6   -3.00    1.80
  -8   8   6   -1.20    1.40
   7  -8  -6   -0.40    1.10
   7  -8  -6    1.50    1.30
  -7   8   6   -0.80    1.40
   6  -8  -6    1.50    1.20
   6  -8  -6    3.60    1.40
  -6   8   6    2.10    1.50
   5  -8  -6    2.20    1.30
   5  -8  -6    4.20    1.40
  -5   8   6    2.20    1.50
  -5   8   6    1.00    1.10
   4  -8  -6   22.90    2.50
   4  -8  -6   21.50    2.50
  -4   8   6   21.20    2.30
  -4   8   6   25.40    2.90
   3  -8  -6    6.90    1.70
  -3   8   6    5.60    1.70
  -3   8   6    6.20    1.50
   2  -8  -6   26.50    2.80
   2  -8  -6   32.90    2.80
  -2   8   6   40.60    3.10
  -2   8   6   36.00    3.30
   1  -8  -6    6.60    1.70
   1  -8  -6    2.50    1.30
  -1   8   6    3.00    1.50
  -1   8   6    3.10    1.40
   0  -8  -6    2.50    1.40
   0  -8  -6    1.80    1.20
   0   8   6    2.20    1.50
   0   8   6    0.20    1.10
  -1  -8  -6   -0.80    1.10
  -1  -8  -6    3.30    1.40
   1   8   6    2.70    1.60
   1   8   6    3.40    1.50
  -2  -8  -6    0.70    1.30
  -2  -8  -6    1.20    1.40
   2   8   6    3.10    1.70
   2   8   6    2.80    1.50
  -3  -8  -6    1.10    1.40
   3   8   6    1.40    1.80
   9  -9  -6    0.80    1.20
   9  -9  -6   -3.30    1.00
  -9   9   6   -1.80    2.20
   8  -9  -6    0.20    1.10
   8  -9  -6   -0.80    1.20
  -8   9   6   -0.40    2.00
   7  -9  -6    3.10    1.50
   7  -9  -6    2.00    1.40
  -7   9   6    4.20    2.10
   6  -9  -6    1.50    1.20
   6  -9  -6    1.40    1.40
  -6   9   6   -1.10    1.40
   5  -9  -6   -0.20    1.30
   5  -9  -6   -1.10    1.10
  -5   9   6    0.40    1.50
   4  -9  -6    3.40    1.40
  -4   9   6    0.30    1.30
  -4   9   6    3.30    1.50
   3  -9  -6    8.20    1.80
  -3   9   6    8.80    1.80
  -3   9   6    7.30    1.90
   2  -9  -6    8.70    1.90
  -2   9   6    6.40    1.90
  -2   9   6    9.20    1.90
   1  -9  -6    2.40    1.40
   1  -9  -6    0.70    1.20
  -1   9   6    0.40    1.30
  -1   9   6    1.40    1.50
   0  -9  -6    1.00    1.40
   0  -9  -6   -1.30    1.00
   0   9   6    1.60    1.40
   0   9   6   -1.00    1.40
  -1  -9  -6    0.10    1.20
  -1  -9  -6   -0.50    1.30
   1   9   6    1.40    1.50
   1   9   6    0.10    1.20
   7 -10  -6    0.60    1.40
   7 -10  -6    3.20    1.50
  -7  10   6   -1.60    1.90
   6 -10  -6   -0.90    1.30
   6 -10  -6    0.00    1.20
  -6  10   6   -3.50    1.20
   5 -10  -6    4.00    1.60
  -5  10   6    2.60    1.70
   4 -10  -6    2.60    1.50
  -4  10   6    1.20    1.50
  -4  10   6    1.60    1.70
   3 -10  -6    1.10    1.50
  -3  10   6    3.30    1.70
  -3  10   6    3.70    1.80
   2 -10  -6   -0.50    1.20
  -2  10   6   -0.20    1.50
  -2  10   6    2.40    1.50
   1 -10  -6   -0.60    1.10
  -1  10   6    0.70    1.30
  -1  10   6    1.20    1.50
   0 -10  -6   -2.00    0.90
   0 -10  -6    0.00    1.40
   0  10   6   -0.10    1.50
   0  10   6    0.20    1.50
   3  10  -7    2.70    1.60
   3  10  -7   -1.40    1.50
  -3 -10   7    4.80    1.90
  -3 -10   7    1.00    1.60
  -3 -10   7    1.70    1.70
   2  10  -7    2.20    1.50
   2  10  -7   -0.20    1.30
   2  10  -7    2.00    1.90
  -2 -10   7   -0.60    1.30
  -2 -10   7    3.20    1.90
   1  10  -7   -3.00    1.60
   1  10  -7    2.40    1.70
   1  10  -7    0.10    1.10
  -1 -10   7    2.40    1.70
  -1 -10   7    3.90    1.70
   0  10  -7    3.60    1.60
   0  10  -7    3.60    1.90
   0  10  -7    4.10    2.10
   0 -10   7    8.20    2.00
   0 -10   7    1.90    1.80
  -1  10  -7   10.80    2.20
  -1  10  -7   11.10    2.10
   1 -10   7    8.00    2.20
   5   9  -7    1.00    1.30
  -5  -9   7    1.70    1.70
  -5  -9   7    0.70    1.50
  -5  -9   7    0.30    1.50
   4   9  -7   -0.60    1.20
   4   9  -7   -3.00    1.20
  -4  -9   7    0.10    1.50
  -4  -9   7    3.00    1.80
  -4  -9   7    0.80    1.60
   3   9  -7    1.60    1.40
   3   9  -7   -1.20    1.40
  -3  -9   7    0.00    1.40
  -3  -9   7    1.50    1.50
  -3  -9   7    2.70    1.70
   2   9  -7    0.10    1.40
   2   9  -7    0.50    1.20
   2   9  -7    0.60    1.30
  -2  -9   7   -1.00    1.30
  -2  -9   7   -0.50    1.20
   1   9  -7   -0.20    1.60
   1   9  -7    1.00    1.30
   1   9  -7   -1.60    0.90
  -1  -9   7   -2.80    1.20
  -1  -9   7    1.20    1.30
   0   9  -7    9.90    2.10
   0   9  -7    8.80    2.40
   0   9  -7    7.60    1.70
   0  -9   7   10.80    2.20
   0  -9   7    7.40    1.40
   0  -9   7    6.00    1.90
  -1   9  -7    5.20    1.70
  -1   9  -7    5.10    1.60
   1  -9   7    8.10    1.90
   1  -9   7    7.40    2.10
   1  -9   7    7.50    1.40
  -2   9  -7   -2.80    1.30
  -2   9  -7   -0.30    1.10
   2  -9   7   -1.20    1.20
   2  -9   7    1.50    1.10
   2  -9   7    0.90    1.40
  -3   9  -7    4.40    1.80
  -3   9  -7    7.40    1.80
   3  -9   7    7.30    1.60
   3  -9   7    4.10    1.90
   3  -9   7    8.10    1.90
   7   8  -7    6.20    2.00
   7   8  -7    4.90    1.90
  -7  -8   7    5.30    1.80
  -7  -8   7    5.10    1.90
  -7  -8   7    7.60    2.40
   6   8  -7   -2.60    1.00
  -6  -8   7    1.70    1.50
  -6  -8   7   -2.60    1.30
  -6  -8   7    2.80    1.80
   5   8  -7   -1.40    1.30
   5   8  -7    2.70    1.40
  -5  -8   7    2.60    1.50
  -5  -8   7    2.80    1.80
  -5  -8   7    1.70    1.60
   4   8  -7    1.00    1.20
   4   8  -7    2.00    1.50
  -4  -8   7    1.60    1.50
  -4  -8   7    1.20    1.70
  -4  -8   7    1.90    1.50
   3   8  -7   -0.60    1.30
   3   8  -7    0.50    1.20
  -3  -8   7    1.90    1.40
  -3  -8   7    2.10    1.50
  -3  -8   7    5.80    2.00
   2   8  -7    6.40    1.80
   2   8  -7    8.70    1.70
  -2  -8   7   10.60    2.20
  -2  -8   7    5.90    1.20
  -2  -8   7    6.70    1.70
  -2  -8   7    6.50    1.60
   1   8  -7    1.00    1.20
   1   8  -7    1.50    1.60
   1   8  -7    3.10    1.40
  -1  -8   7    2.30    1.40
  -1  -8   7    1.70    1.40
  -1  -8   7    1.00    0.90
   0   8  -7   25.70    2.70
   0   8  -7   22.70    2.40
   0  -8   7   26.60    2.90
   0  -8   7   25.50    2.30
   0  -8   7   25.00    2.70
  -1   8  -7    5.70    1.50
  -1   8  -7    3.90    1.60
   1  -8   7    5.30    1.60
   1  -8   7    5.00    1.50
   1  -8   7    5.40    1.40
  -2   8  -7    1.70    1.30
  -2   8  -7    0.80    1.20
   2  -8   7    2.90    1.30
   2  -8   7   -0.20    1.30
   2  -8   7    0.20    1.10
  -3   8  -7   -1.30    1.30
  -3   8  -7   -0.40    1.20
   3  -8   7   -1.50    1.20
   3  -8   7   -1.00    1.30
   3  -8   7    1.60    1.20
  -4   8  -7    1.30    1.30
  -4   8  -7    1.90    1.60
   4  -8   7   -0.60    1.20
   4  -8   7   -1.60    1.20
   4  -8   7   -1.10    1.20
   8   7  -7   12.20    2.50
   8   7  -7    9.40    2.30
  -8  -7   7   12.50    2.70
  -8  -7   7   11.10    2.40
   7   7  -7   -0.30    1.30
   7   7  -7   -0.20    1.50
  -7  -7   7    0.50    1.40
  -7  -7   7    1.60    2.00
   6   7  -7    2.90    1.60
   6   7  -7    3.90    1.60
  -6  -7   7    4.90    1.70
  -6  -7   7    2.40    1.40
  -6  -7   7    4.10    2.20
   5   7  -7    8.60    1.70
   5   7  -7   10.50    1.80
  -5  -7   7   16.70    2.80
  -5  -7   7    9.10    1.90
  -5  -7   7   12.60    2.00
   4   7  -7    4.70    1.50
   4   7  -7    3.20    1.30
  -4  -7   7    9.70    2.30
  -4  -7   7    7.50    1.80
  -4  -7   7    3.60    1.50
  -4  -7   7    9.80    1.70
   3   7  -7   24.70    2.60
   3   7  -7   28.50    2.70
  -3  -7   7   30.30    2.80
  -3  -7   7   29.50    2.80
  -3  -7   7   37.50    2.60
  -3  -7   7   30.80    3.30
   2   7  -7   16.70    2.30
   2   7  -7   16.40    2.10
  -2  -7   7   17.90    2.20
  -2  -7   7   19.80    2.60
  -2  -7   7   14.30    2.00
   1   7  -7    4.00    1.30
   1   7  -7    1.30    1.40
   1   7  -7    1.60    1.10
  -1  -7   7    2.00    1.00
  -1  -7   7    2.20    1.30
  -1  -7   7    4.10    1.50
   0   7  -7    2.40    1.20
   0   7  -7    4.30    1.30
   0  -7   7    5.80    1.60
   0  -7   7    2.90    1.10
   0  -7   7    5.20    1.50
  -1   7  -7    1.20    1.20
  -1   7  -7    4.70    1.40
   1  -7   7    4.80    1.30
   1  -7   7    0.80    1.10
   1  -7   7    2.00    1.10
  -2   7  -7    0.40    1.20
  -2   7  -7   -0.40    1.20
   2  -7   7   -0.20    1.00
   2  -7   7   -1.10    1.10
   2  -7   7    1.30    1.20
  -3   7  -7    2.10    1.30
  -3   7  -7    4.00    1.60
   3  -7   7    4.00    1.50
   3  -7   7    4.30    1.60
   3  -7   7    3.60    1.40
  -4   7  -7    0.10    1.30
  -4   7  -7   -1.00    1.20
   4  -7   7   -0.70    1.20
   4  -7   7   -0.20    1.20
   4  -7   7    0.50    1.40
  -5   7  -7    1.20    1.40
  -5   7  -7    2.60    1.50
  -5   7  -7    4.00    1.60
   5  -7   7    3.20    1.60
   5  -7   7    2.60    1.40
   5  -7   7    1.10    1.50
   9   6  -7    0.10    1.40
   9   6  -7    1.80    1.70
  -9  -6   7    0.50    1.60
  -9  -6   7    6.70    2.30
   8   6  -7    5.70    1.90
   8   6  -7    5.00    1.90
  -8  -6   7    4.60    2.10
  -8  -6   7    6.60    2.00
   7   6  -7   12.80    2.30
   7   6  -7   12.90    2.20
  -7  -6   7   15.10    2.40
  -7  -6   7   20.10    3.20
   6   6  -7   48.60    3.20
   6   6  -7   58.79    3.60
  -6  -6   7   46.90    3.60
  -6  -6   7   54.89    3.50
   5   6  -7    0.70    1.10
   5   6  -7    1.00    1.10
   5   6  -7    0.60    1.10
  -5  -6   7    2.80    1.30
  -5  -6   7   -1.00    1.00
  -5  -6   7    1.90    1.50
  -5  -6   7    2.80    1.20
   4   6  -7    0.20    1.00
   4   6  -7   -1.40    0.80
  -4  -6   7    0.30    1.10
  -4  -6   7   -1.10    0.90
  -4  -6   7    1.50    1.30
  -4  -6   7    2.10    1.10
   3   6  -7   19.20    2.20
   3   6  -7   20.60    2.20
   3   6  -7   23.30    1.90
  -3  -6   7   25.40    2.40
  -3  -6   7   22.50    2.60
  -3  -6   7   27.30    2.30
  -3  -6   7   19.00    2.20
   2   6  -7   78.29    4.10
   2   6  -7   83.29    4.00
  -2  -6   7   81.99    3.90
  -2  -6   7   79.99    3.70
  -2  -6   7   78.99    3.90
  -2  -6   7   80.99    4.20
   1   6  -7   25.90    2.40
   1   6  -7   29.80    2.30
  -1  -6   7   23.90    2.30
  -1  -6   7   18.50    1.90
  -1  -6   7   28.10    2.50
   0   6  -7    3.10    1.10
   0   6  -7    1.90    1.20
   0  -6   7    3.50    1.30
   0  -6   7    3.50    1.20
   0  -6   7    3.00    1.20
  -1   6  -7    6.40    1.50
  -1   6  -7    7.80    1.40
   1  -6   7    6.20    1.40
   1  -6   7    7.30    1.40
   1  -6   7    5.80    1.30
  -2   6  -7    4.30    1.30
  -2   6  -7    5.20    1.30
   2  -6   7    6.60    1.60
   2  -6   7    4.90    1.40
   2  -6   7    4.60    1.30
  -3   6  -7    3.30    1.40
  -3   6  -7    3.40    1.30
   3  -6   7    3.40    1.20
   3  -6   7    1.70    1.30
   3  -6   7    4.90    1.50
  -4   6  -7    1.40    1.20
  -4   6  -7    3.90    1.40
   4  -6   7    3.40    1.40
   4  -6   7    0.50    1.40
   4  -6   7    1.80    1.20
  -5   6  -7    1.70    1.30
  -5   6  -7    0.00    1.20
   5  -6   7    1.10    1.40
   5  -6   7    0.60    1.50
   9   5  -7    0.70    1.40
  -9  -5   7    0.90    1.50
  -9  -5   7    1.50    1.80
   8   5  -7    1.00    1.30
   8   5  -7    1.10    1.40
  -8  -5   7   -0.30    1.60
  -8  -5   7    0.90    1.20
   7   5  -7    0.70    1.30
   7   5  -7    0.70    1.20
  -7  -5   7    0.50    1.20
  -7  -5   7    3.50    1.80
   6   5  -7   -1.10    1.00
   6   5  -7    0.40    1.00
  -6  -5   7   -4.00    1.10
  -6  -5   7    0.80    1.10
  -6  -5   7    2.50    1.40
   5   5  -7    3.70    1.20
   5   5  -7    2.70    1.20
   5   5  -7    2.60    1.00
  -5  -5   7    2.00    1.50
  -5  -5   7    6.70    1.60
  -5  -5   7    6.30    1.50
   4   5  -7   17.80    2.00
   4   5  -7   16.60    1.80
   4   5  -7   21.20    1.90
  -4  -5   7   20.20    2.30
  -4  -5   7   17.50    1.90
  -4  -5   7   17.90    2.40
  -4  -5   7   20.50    2.00
   3   5  -7   21.90    2.10
   3   5  -7   24.60    1.80
   3   5  -7   21.90    2.10
  -3  -5   7   23.90    2.30
  -3  -5   7   25.90    2.20
  -3  -5   7   25.80    2.10
  -3  -5   7   23.90    1.90
   2   5  -7   14.10    1.30
   2   5  -7   10.90    1.60
  -2  -5   7   14.50    1.70
  -2  -5   7   13.50    2.00
  -2  -5   7   14.70    1.70
  -2  -5   7   13.30    1.60
   1   5  -7    5.10    1.10
   1   5  -7    4.70    1.20
  -1  -5   7    2.20    1.00
  -1  -5   7    4.90    1.00
  -1  -5   7    4.80    1.40
   0   5  -7    8.20    1.30
   0   5  -7    9.70    1.60
   0  -5   7   10.70    1.70
   0  -5   7    7.70    1.30
   0  -5   7   10.20    1.60
  -1   5  -7   23.00    2.30
  -1   5  -7   22.30    1.90
   1  -5   7   20.20    1.80
   1  -5   7   23.90    2.20
   1  -5   7   23.30    2.10
  -2   5  -7    2.70    1.20
  -2   5  -7    4.20    1.20
   2  -5   7    2.50    1.00
   2  -5   7    1.80    1.00
   2  -5   7    3.70    1.20
  -3   5  -7    1.20    1.00
  -3   5  -7    2.10    1.20
   3  -5   7    1.10    1.00
   3  -5   7    1.80    1.00
   3  -5   7    2.50    1.20
   3  -5   7    4.50    1.40
  -4   5  -7   -0.90    1.00
  -4   5  -7    1.70    1.30
   4  -5   7    0.00    1.20
   4  -5   7    1.00    1.10
   4  -5   7   -0.20    1.00
   5  -5   7    9.60    2.10
   6  -5   7    1.90    1.60
  10   4  -7    2.90    1.70
 -10  -4   7    5.40    1.80
 -10  -4   7   -0.80    1.60
   9   4  -7    2.80    1.60
  -9  -4   7    5.20    2.10
  -9  -4   7    2.30    1.30
   8   4  -7   11.10    1.90
   8   4  -7   11.50    2.10
  -8  -4   7   10.20    2.30
  -8  -4   7    7.80    1.70
   7   4  -7    1.70    1.20
   7   4  -7    4.60    1.40
  -7  -4   7    4.90    1.90
  -7  -4   7    5.20    1.70
  -7  -4   7    4.90    1.40
   6   4  -7    7.70    1.50
   6   4  -7   10.70    1.60
  -6  -4   7    6.50    1.40
  -6  -4   7    7.00    1.80
  -6  -4   7   10.80    2.00
   5   4  -7    4.20    1.20
   5   4  -7    4.40    1.20
   5   4  -7    1.10    0.80
  -5  -4   7    1.90    1.40
  -5  -4   7    2.90    1.10
  -5  -4   7    3.60    1.50
   4   4  -7    0.80    0.90
   4   4  -7   -0.10    0.80
   4   4  -7    1.90    0.90
   4   4  -7    1.50    0.90
  -4  -4   7    0.90    1.10
  -4  -4   7    3.20    1.40
  -4  -4   7   -0.20    0.70
  -4  -4   7   -0.20    0.70
   3   4  -7   15.60    1.70
   3   4  -7   16.00    1.50
  -3  -4   7   19.40    2.40
  -3  -4   7   16.00    1.90
  -3  -4   7   14.90    1.60
  -3  -4   7   19.30    1.80
   2   4  -7    4.20    0.90
   2   4  -7    4.80    1.10
  -2  -4   7    6.40    1.60
  -2  -4   7    5.70    1.20
  -2  -4   7    4.00    1.00
  -2  -4   7    4.10    1.00
   1   4  -7   30.00    2.10
   1   4  -7   29.70    1.90
  -1  -4   7   27.50    2.10
  -1  -4   7   28.50    1.90
  -1  -4   7   29.70    1.90
   0   4  -7   31.80    2.00
   0   4  -7   32.60    2.20
   0  -4   7   33.30    2.00
   0  -4   7   31.80    2.20
   0  -4   7   34.70    2.20
  -1   4  -7   24.60    1.80
  -1   4  -7   21.70    2.10
   1  -4   7   25.20    1.80
   1  -4   7   26.80    1.90
   1  -4   7   23.00    2.20
   1  -4   7   23.80    1.80
  -2   4  -7    1.80    1.10
  -2   4  -7    1.20    0.80
   2  -4   7    2.60    1.10
   2  -4   7    2.20    0.90
   2  -4   7    1.20    0.90
  -3   4  -7    3.70    1.10
  -3   4  -7    5.10    1.40
   3  -4   7    4.50    1.10
   3  -4   7    5.60    1.40
   3  -4   7    3.50    1.20
   3  -4   7    4.30    1.10
  -4   4  -7    1.90    1.00
  -4   4  -7    1.70    1.20
  -4   4  -7   -1.30    0.80
   4  -4   7    0.90    1.20
   5  -4   7   27.70    2.90
   6  -4   7    5.10    1.80
  10   3  -7    9.00    2.00
 -10  -3   7    7.90    2.00
 -10  -3   7    9.70    2.40
 -10  -3   7   12.90    2.40
   9   3  -7    3.90    1.60
  -9  -3   7    1.30    1.30
  -9  -3   7    1.20    2.00
  -9  -3   7    3.90    1.60
   8   3  -7    6.80    1.70
  -8  -3   7    6.90    2.10
  -8  -3   7    7.30    1.60
  -8  -3   7   11.30    3.80
   7   3  -7    0.20    0.90
   7   3  -7    0.60    0.90
  -7  -3   7    0.00    1.50
  -7  -3   7   -0.90    1.40
  -7  -3   7   -0.10    0.90
   6   3  -7    3.20    1.10
   6   3  -7    5.60    1.30
   6   3  -7    3.00    1.20
  -6  -3   7    3.00    1.10
  -6  -3   7    1.80    1.40
  -6  -3   7    5.50    1.80
   5   3  -7    2.40    1.00
   5   3  -7    2.80    0.90
   5   3  -7    2.50    1.00
  -5  -3   7    1.70    1.40
  -5  -3   7    2.60    1.40
  -5  -3   7    2.00    1.00
   4   3  -7    4.90    1.10
   4   3  -7    3.10    1.00
   4   3  -7    6.50    1.10
  -4  -3   7    7.50    1.20
  -4  -3   7    6.30    1.60
  -4  -3   7    5.30    1.50
   3   3  -7   17.60    1.60
   3   3  -7   16.70    1.70
  -3  -3   7   17.90    1.40
  -3  -3   7   15.00    1.80
  -3  -3   7   15.40    2.00
  -3  -3   7   16.90    1.50
   2   3  -7    8.40    1.30
   2   3  -7    8.90    1.10
  -2  -3   7    8.40    1.50
  -2  -3   7   10.30    1.20
  -2  -3   7    9.00    1.10
  -2  -3   7    8.30    1.40
   1   3  -7   18.00    1.20
   1   3  -7   15.60    1.70
   1   3  -7   17.20    1.40
  -1  -3   7   14.50    1.80
  -1  -3   7   17.00    1.60
  -1  -3   7   17.50    1.40
   0   3  -7    7.10    1.00
   0   3  -7    3.90    0.80
   0   3  -7    4.30    1.10
   0  -3   7    6.60    1.20
   0  -3   7    4.60    0.90
   0  -3   7    6.10    1.30
  -1   3  -7   -0.30    0.60
  -1   3  -7   -0.20    0.80
  -1   3  -7    0.60    0.60
   1  -3   7    0.30    0.60
   1  -3   7   -0.20    0.90
   1  -3   7    0.30    0.80
   1  -3   7    0.10    0.70
  -2   3  -7    0.80    1.00
  -2   3  -7    1.30    0.70
  -2   3  -7    1.00    0.70
   2  -3   7   -1.20    0.70
   2  -3   7    0.10    0.80
   2  -3   7    1.00    0.70
   2  -3   7    0.00    0.70
  -3   3  -7    0.30    0.80
  -3   3  -7    1.70    0.90
  -3   3  -7    2.80    0.90
  -3   3  -7    0.70    1.00
   3  -3   7    3.40    1.30
   3  -3   7    2.20    1.00
   3  -3   7    3.20    1.00
  -4   3  -7   -0.60    1.00
  -4   3  -7   -0.20    0.80
   4  -3   7   -1.00    1.00
  -5   3  -7    0.50    1.00
   5  -3   7   -0.20    1.20
   6  -3   7    3.80    1.80
  11   2  -7   -2.60    1.50
  11   2  -7    3.10    1.60
 -11  -2   7    2.70    1.70
 -11  -2   7    3.20    1.70
 -11  -2   7    1.00    1.90
  10   2  -7   -0.40    1.50
  10   2  -7    3.40    1.70
 -10  -2   7    1.60    1.90
 -10  -2   7    5.50    1.80
 -10  -2   7    0.50    1.20
   9   2  -7    2.80    1.60
   9   2  -7    1.80    1.30
  -9  -2   7    1.00    1.50
  -9  -2   7    2.00    1.90
  -9  -2   7    2.60    1.40
   8   2  -7    1.00    1.20
   8   2  -7    0.10    1.10
  -8  -2   7   -0.10    0.90
  -8  -2   7    0.60    1.50
  -8  -2   7    1.20    1.20
  -8  -2   7    1.90    1.60
   7   2  -7   16.80    2.00
   7   2  -7   19.40    2.00
   7   2  -7   24.30    2.30
  -7  -2   7   23.80    2.80
  -7  -2   7   20.30    2.70
  -7  -2   7   25.10    2.00
  -7  -2   7   20.40    2.10
   6   2  -7    3.30    1.10
   6   2  -7    4.70    1.10
   6   2  -7    4.30    1.10
  -6  -2   7    4.20    1.60
  -6  -2   7    3.90    1.10
  -6  -2   7    5.30    1.80
   5   2  -7    0.20    0.60
   5   2  -7   -0.20    0.60
   5   2  -7    0.10    0.70
  -5  -2   7   -0.30    0.70
  -5  -2   7    0.40    1.30
  -5  -2   7    1.40    1.30
   4   2  -7    9.50    1.30
   4   2  -7   10.20    1.20
   4   2  -7    8.60    1.20
  -4  -2   7    9.30    1.20
  -4  -2   7    6.50    1.70
  -4  -2   7   10.70    1.70
   3   2  -7   78.39    3.30
   3   2  -7   75.99    3.20
  -3  -2   7   73.89    3.60
  -3  -2   7   76.79    3.70
  -3  -2   7   76.79    2.90
  -3  -2   7   76.49    2.90
   2   2  -7   19.80    1.60
   2   2  -7   22.80    1.60
  -2  -2   7   21.00    2.00
  -2  -2   7   19.60    1.30
  -2  -2   7   24.10    2.10
  -2  -2   7   20.40    1.30
   1   2  -7  126.09    4.20
   1   2  -7  126.79    4.30
   1   2  -7  127.09    4.00
   1   2  -7  122.39    4.60
  -1  -2   7  122.89    4.70
  -1  -2   7  129.59    4.10
  -1  -2   7  121.19    4.40
   0   2  -7    0.50    0.50
   0   2  -7    0.10    0.60
   0   2  -7   -0.10    0.40
   0   2  -7   -0.20    0.70
   0  -2   7   -0.20    0.70
   0  -2   7   -0.10    0.40
   0  -2   7    0.20    0.50
   0  -2   7   -0.50    0.90
   0  -2   7    0.10    0.80
  -1   2  -7    0.80    0.90
  -1   2  -7    0.50    0.70
  -1   2  -7    0.10    0.50
   1  -2   7    0.10    0.80
   1  -2   7    0.20    0.60
   1  -2   7   -0.20    0.50
   1  -2   7   -0.10    0.80
  -2   2  -7   25.90    2.10
  -2   2  -7   24.90    1.50
  -2   2  -7   25.40    1.60
  -2   2  -7   20.60    1.70
   2  -2   7   22.10    2.10
   2  -2   7   23.40    2.30
  -3   2  -7   55.39    3.00
  -3   2  -7   56.59    3.20
   3  -2   7   57.39    3.20
   3  -2   7   59.99    3.30
  -4   2  -7    0.10    0.80
   4  -2   7    0.40    1.10
  -5   2  -7    0.90    1.00
   5  -2   7    2.20    1.40
  -6   2  -7    0.20    1.00
   6  -2   7    1.10    1.50
  11   1  -7    3.60    2.00
  11   1  -7    3.30    1.70
 -11  -1   7    4.00    1.80
 -11  -1   7    2.60    2.00
 -11  -1   7    3.60    1.50
  10   1  -7    2.00    1.40
  10   1  -7   -0.10    1.50
 -10  -1   7    2.00    2.00
 -10  -1   7    1.90    1.40
 -10  -1   7    2.70    1.50
   9   1  -7    6.30    1.60
   9   1  -7    8.80    1.90
  -9  -1   7   11.50    1.80
  -9  -1   7    7.20    1.70
  -9  -1   7    8.90    2.50
   8   1  -7    0.60    0.90
   8   1  -7    0.00    1.00
  -8  -1   7   -1.50    1.40
  -8  -1   7    0.60    1.50
  -8  -1   7    0.00    1.00
  -8  -1   7    0.20    1.00
   7   1  -7    1.20    1.00
   7   1  -7    1.20    0.90
   7   1  -7    0.60    0.70
  -7  -1   7    1.40    0.90
  -7  -1   7    1.40    1.50
  -7  -1   7    1.30    0.90
  -7  -1   7    1.70    1.50
   6   1  -7   19.80    1.80
   6   1  -7   16.20    1.80
   6   1  -7   14.00    1.50
  -6  -1   7   17.70    2.40
  -6  -1   7   18.80    1.70
  -6  -1   7   16.10    1.60
  -6  -1   7   15.90    2.20
   5   1  -7   17.40    1.80
   5   1  -7   17.30    1.60
   5   1  -7   20.30    1.40
  -5  -1   7   19.40    2.30
  -5  -1   7   21.00    2.40
  -5  -1   7   17.40    1.40
   4   1  -7   42.20    2.40
   4   1  -7   45.20    2.00
   4   1  -7   43.30    2.30
  -4  -1   7   44.90    3.00
  -4  -1   7   45.50    3.10
  -4  -1   7   41.60    2.00
   3   1  -7   27.80    1.90
   3   1  -7   29.50    2.00
  -3  -1   7   30.40    1.50
  -3  -1   7   27.30    2.30
  -3  -1   7   30.50    1.50
  -3  -1   7   28.20    2.50
  -3  -1   7   31.40    1.20
   2   1  -7   17.00    1.50
   2   1  -7   17.10    1.50
  -2  -1   7   17.40    1.10
  -2  -1   7   17.40    2.00
  -2  -1   7   17.00    1.80
  -2  -1   7   16.40    1.00
  -2  -1   7   15.50    1.00
   1   1  -7    9.30    0.80
   1   1  -7    9.70    1.10
   1   1  -7    9.90    1.30
   1   1  -7    7.30    1.10
  -1  -1   7   12.90    1.70
  -1  -1   7   11.10    1.50
  -1  -1   7   10.20    0.80
   0   1  -7   58.09    2.00
   0   1  -7   54.19    2.40
   0   1  -7   50.19    2.60
   0   1  -7   57.29    2.70
   0  -1   7   52.49    2.70
   0  -1   7   55.69    2.00
   0  -1   7   51.59    2.60
   0  -1   7   51.59    2.50
   0  -1   7   53.69    2.00
  -1   1  -7   -1.40    0.70
  -1   1  -7    0.60    0.80
   1  -1   7    0.60    0.80
   1  -1   7    0.90    0.90
   1  -1   7    0.50    0.80
  -2   1  -7   13.40    1.60
  -2   1  -7   11.90    1.60
   2  -1   7   14.20    1.70
   2  -1   7   13.20    1.70
  -3   1  -7    3.20    1.20
   3  -1   7    3.10    1.30
   3  -1   7    4.50    1.20
  -4   1  -7    2.60    1.20
   4  -1   7    3.60    1.30
  -5   1  -7    0.30    1.00
   5  -1   7    3.30    1.30
  -6   1  -7    5.90    1.60
   6  -1   7    6.20    1.80
  11   0  -7    2.20    1.60
  11   0  -7   -0.20    1.20
 -11   0   7    0.60    1.60
 -11   0   7   -1.00    1.20
 -11   0   7   -0.30    1.90
  10   0  -7    5.20    1.90
  10   0  -7    9.70    1.90
 -10   0   7    7.60    1.90
 -10   0   7    7.80    2.30
 -10   0   7    6.80    1.80
   9   0  -7   26.70    2.70
   9   0  -7   24.20    2.60
  -9   0   7   25.50    3.60
  -9   0   7   30.60    2.80
  -9   0   7   29.20    2.70
  -9   0   7   25.80    3.30
   8   0  -7    2.10    0.90
   8   0  -7    3.90    1.20
   8   0  -7    4.30    1.30
  -8   0   7    4.20    1.80
  -8   0   7    4.00    1.20
  -8   0   7    2.90    1.10
  -8   0   7    3.00    1.80
   7   0  -7    3.50    1.10
   7   0  -7    2.70    0.80
   7   0  -7    7.70    1.50
  -7   0   7    4.90    1.10
  -7   0   7    5.50    2.00
  -7   0   7    6.30    1.80
  -7   0   7    5.70    1.20
   6   0  -7   20.80    1.50
   6   0  -7   18.00    1.60
   6   0  -7   21.90    2.10
  -6   0   7   19.30    1.60
  -6   0   7   17.80    2.40
  -6   0   7   20.20    1.50
  -6   0   7   20.30    2.40
   5   0  -7   20.70    1.80
   5   0  -7   17.90    1.40
   5   0  -7   21.30    1.40
  -5   0   7   20.30    2.40
  -5   0   7   21.10    1.40
  -5   0   7   21.10    1.40
  -5   0   7   19.90    1.40
  -5   0   7   20.40    2.30
   4   0  -7   52.69    2.70
   4   0  -7   50.39    2.00
   4   0  -7   49.30    2.30
  -4   0   7   49.99    2.00
  -4   0   7   47.90    2.00
  -4   0   7   45.30    3.00
  -4   0   7   44.60    3.00
   3   0  -7   64.69    2.80
   3   0  -7   72.09    3.10
  -3   0   7   70.89    2.50
  -3   0   7   74.09    3.60
  -3   0   7   70.79    3.50
  -3   0   7   67.79    2.30
  -3   0   7   65.09    2.30
   2   0  -7  125.89    4.60
   2   0  -7  128.69    4.60
   2   0  -7  128.19    4.40
   2   0  -7  134.29    3.60
  -2   0   7  124.39    4.90
  -2   0   7  131.49    4.90
  -2   0   7  130.49    4.30
  -2   0   7  134.99    3.70
   1   0  -7    0.20    0.70
   1   0  -7    1.30    0.70
   1   0  -7    1.20    0.80
  -1   0   7    2.50    1.10
  -1   0   7    0.20    0.90
   0   0  -7   80.69    3.30
   0   0  -7   75.59    3.40
   0   0  -7   84.09    3.30
   0   0   7   83.69    3.30
   0   0   7   79.99    3.40
   0   0   7   80.69    3.40
   0   0   7   81.99    3.50
  -1   0  -7   48.00    2.60
  -1   0  -7   48.20    2.70
   1   0   7   52.99    2.50
   1   0   7   51.69    2.90
   1   0   7   53.49    2.80
   1   0   7   51.39    2.70
  -2   0  -7   11.20    1.60
  -2   0  -7   11.10    1.60
   2   0   7    9.80    1.50
   2   0   7   14.00    1.70
  -3   0  -7   11.90    1.80
   3   0   7   12.70    1.70
   3   0   7   11.50    1.70
  -4   0  -7   -0.20    0.90
   4   0   7    2.80    1.30
  -5   0  -7    1.50    1.30
   5   0   7    5.00    1.50
  -6   0  -7    9.80    2.00
   6   0   7   17.00    2.40
  11  -1  -7    2.20    1.50
  11  -1  -7    0.40    1.50
 -11   1   7    3.00    1.50
 -11   1   7    1.60    1.90
 -11   1   7    1.10    1.60
  10  -1  -7    8.80    2.00
  10  -1  -7   14.00    2.30
 -10   1   7   11.10    2.00
 -10   1   7    8.60    1.80
 -10   1   7    9.70    2.60
   9  -1  -7   -0.60    1.00
   9  -1  -7   -1.50    1.00
  -9   1   7    0.10    1.00
  -9   1   7   -2.30    1.60
  -9   1   7   -1.80    1.50
  -9   1   7   -0.10    1.20
   8  -1  -7    4.50    1.40
   8  -1  -7    5.80    1.00
   8  -1  -7    6.60    1.40
  -8   1   7    8.40    1.40
  -8   1   7    6.20    1.80
  -8   1   7    3.60    2.00
  -8   1   7    5.00    1.60
  -8   1   7    3.30    1.20
   7  -1  -7   33.90    1.90
   7  -1  -7   34.40    2.10
   7  -1  -7   33.40    2.50
  -7   1   7   36.40    2.20
  -7   1   7   31.20    2.30
  -7   1   7   32.10    2.10
  -7   1   7   35.00    3.10
  -7   1   7   37.20    3.00
   6  -1  -7   41.90    2.10
   6  -1  -7   44.40    2.80
   6  -1  -7   49.50    2.30
  -6   1   7   44.20    2.20
  -6   1   7   44.60    3.10
  -6   1   7   44.20    2.40
  -6   1   7   42.60    2.20
  -6   1   7   42.80    3.20
   5  -1  -7    5.60    0.90
   5  -1  -7    5.40    0.80
   5  -1  -7    4.50    1.10
  -5   1   7    6.40    0.90
  -5   1   7    4.10    0.90
  -5   1   7    5.40    1.50
  -5   1   7    5.30    1.60
  -5   1   7    4.00    0.80
   4  -1  -7    0.10    0.40
   4  -1  -7   -0.10    0.70
   4  -1  -7    0.60    0.60
  -4   1   7    1.10    1.20
  -4   1   7    0.50    0.60
  -4   1   7    0.50    0.40
  -4   1   7    0.20    1.20
   3  -1  -7   20.40    2.00
   3  -1  -7   24.40    1.90
   3  -1  -7   25.30    1.50
  -3   1   7   23.90    1.00
  -3   1   7   23.30    2.10
  -3   1   7   26.00    1.60
  -3   1   7   23.60    1.10
  -3   1   7   25.20    2.30
   2  -1  -7   41.80    2.30
   2  -1  -7   40.90    2.40
   2  -1  -7   41.20    2.00
   2  -1  -7   40.20    2.50
  -2   1   7   41.80    2.10
  -2   1   7   39.30    2.50
  -2   1   7   40.30    2.70
   1  -1  -7  156.18    5.30
   1  -1  -7  160.48    5.50
   1  -1  -7  149.79    5.50
   1  -1  -7  145.69    5.00
  -1   1   7  159.38    5.50
  -1   1   7  152.38    5.20
  -1   1   7  149.19    5.50
   0  -1  -7   46.10    2.60
   0  -1  -7   49.00    2.50
   0  -1  -7   50.69    2.50
   0   1   7   42.80    2.30
   0   1   7   47.50    2.50
   0   1   7   49.00    2.60
   0   1   7   44.00    2.40
  -1  -1  -7    2.50    1.10
  -1  -1  -7    3.30    1.00
   1   1   7    1.70    0.90
   1   1   7    1.40    0.90
   1   1   7    2.50    0.90
   1   1   7    1.90    0.80
  -2  -1  -7    5.50    1.30
   2   1   7    4.80    1.20
   2   1   7    7.20    1.40
  -3  -1  -7    0.00    1.00
   3   1   7   -0.40    0.80
   3   1   7    1.80    1.00
  -4  -1  -7   -1.20    0.80
   4   1   7    0.00    1.00
  -5  -1  -7   28.10    3.10
   5   1   7   34.30    2.70
  -6  -1  -7    4.70    1.70
   6   1   7    4.80    1.70
  11  -2  -7   -0.20    1.30
  11  -2  -7    2.00    1.50
  11  -2  -7    1.50    1.30
 -11   2   7    1.30    1.70
 -11   2   7   -0.60    1.90
 -11   2   7    1.50    1.30
  10  -2  -7    2.70    1.40
  10  -2  -7    1.80    1.10
  10  -2  -7    1.50    1.50
 -10   2   7   -1.00    1.10
 -10   2   7   -1.10    1.30
 -10   2   7    0.30    1.70
   9  -2  -7   10.40    1.70
   9  -2  -7    7.50    1.70
   9  -2  -7   12.50    1.90
  -9   2   7   13.00    2.70
  -9   2   7   11.10    1.80
  -9   2   7   11.50    2.50
  -9   2   7   10.50    1.90
  -9   2   7   10.40    1.70
   8  -2  -7   21.00    1.50
   8  -2  -7   17.40    2.10
   8  -2  -7   23.40    2.00
   8  -2  -7   21.00    1.90
  -8   2   7   23.40    1.90
  -8   2   7   23.50    3.20
  -8   2   7   21.80    2.80
  -8   2   7   19.60    2.10
   7  -2  -7   19.80    1.80
   7  -2  -7   17.10    1.60
   7  -2  -7   17.90    1.30
   7  -2  -7   15.30    2.00
  -7   2   7   16.90    1.80
  -7   2   7   15.60    2.30
  -7   2   7   18.20    1.80
  -7   2   7   19.30    1.70
  -7   2   7   18.90    2.70
   6  -2  -7    3.30    0.80
   6  -2  -7    3.60    1.20
   6  -2  -7    3.90    0.70
   6  -2  -7    3.50    1.10
  -6   2   7    4.00    1.10
  -6   2   7    3.40    0.90
  -6   2   7    2.90    1.60
  -6   2   7    3.90    1.50
  -6   2   7    5.40    0.90
   5  -2  -7    2.20    0.60
   5  -2  -7    1.50    0.60
   5  -2  -7    0.90    1.00
   5  -2  -7    0.10    0.70
  -5   2   7    1.20    0.60
  -5   2   7    1.30    0.70
  -5   2   7    1.50    1.30
  -5   2   7    2.80    0.60
  -5   2   7    0.90    1.30
   4  -2  -7    0.00    0.70
   4  -2  -7    0.80    0.30
   4  -2  -7   -0.20    0.90
   4  -2  -7    0.90    0.50
  -4   2   7   -0.30    1.10
  -4   2   7    0.60    0.40
  -4   2   7    0.00    0.60
  -4   2   7   -0.60    1.00
  -4   2   7   -0.40    0.40
  -4   2   7    0.30    0.40
   3  -2  -7   97.59    4.10
   3  -2  -7  100.09    4.10
   3  -2  -7   99.79    3.40
  -3   2   7   97.19    4.30
  -3   2   7  102.29    3.90
  -3   2   7  103.79    3.70
   2  -2  -7    7.30    1.30
   2  -2  -7    4.40    0.80
   2  -2  -7    3.60    1.10
   2  -2  -7    4.60    1.10
  -2   2   7    5.00    1.00
  -2   2   7    4.50    1.20
  -2   2   7    4.30    0.80
   1  -2  -7   25.30    2.00
   1  -2  -7   30.70    2.10
   1  -2  -7   25.70    2.10
   1  -2  -7   25.80    1.70
  -1   2   7   25.70    1.80
  -1   2   7   29.30    2.10
   0  -2  -7   -0.10    0.80
   0  -2  -7   -0.40    0.80
   0  -2  -7    0.20    0.70
   0   2   7    2.10    1.10
   0   2   7    0.30    0.70
   0   2   7    0.50    0.70
   0   2   7   -0.10    0.80
  -1  -2  -7   -0.50    0.80
  -1  -2  -7   -0.40    0.90
   1   2   7   -0.70    0.70
   1   2   7    1.00    0.90
   1   2   7    0.50    0.80
   1   2   7    0.30    0.80
  -2  -2  -7    7.50    1.50
   2   2   7    7.70    1.50
   2   2   7    7.00    1.30
  -3  -2  -7   12.50    1.90
   3   2   7   15.20    1.90
   3   2   7   12.10    1.60
  -4  -2  -7    0.70    1.20
   4   2   7    0.40    1.00
  -5  -2  -7   17.80    2.70
   5   2   7   20.90    2.40
  11  -3  -7   -0.40    1.10
  11  -3  -7   -0.40    1.50
  11  -3  -7    0.10    1.40
 -11   3   7   -0.60    1.30
 -11   3   7    0.00    2.10
  10  -3  -7    4.70    1.40
  10  -3  -7    3.40    1.70
  10  -3  -7    4.40    1.60
 -10   3   7    1.30    1.90
 -10   3   7    0.40    1.50
 -10   3   7    0.40    1.30
   9  -3  -7   -1.50    0.80
   9  -3  -7   -0.40    1.20
   9  -3  -7    0.20    1.00
  -9   3   7    0.50    1.70
  -9   3   7   -2.60    1.20
  -9   3   7   -0.90    1.00
  -9   3   7    0.50    2.10
   8  -3  -7    6.40    1.20
   8  -3  -7    8.10    1.40
   8  -3  -7    6.10    1.50
  -8   3   7    5.80    1.90
  -8   3   7    7.40    2.00
  -8   3   7    6.20    1.50
  -8   3   7    5.50    1.30
   7  -3  -7    3.30    1.20
   7  -3  -7    5.20    1.40
   7  -3  -7    4.60    1.10
   7  -3  -7    6.10    1.10
  -7   3   7    3.90    1.80
  -7   3   7    4.90    1.30
  -7   3   7    3.80    1.90
  -7   3   7    7.40    1.20
   6  -3  -7    3.60    0.80
   6  -3  -7    3.00    1.10
   6  -3  -7    3.30    0.60
   6  -3  -7    3.50    1.20
   6  -3  -7    2.60    0.80
  -6   3   7    2.80    1.40
  -6   3   7    5.70    1.70
  -6   3   7    2.70    1.00
  -6   3   7    4.80    0.90
   5  -3  -7    1.70    0.60
   5  -3  -7    2.40    1.00
   5  -3  -7    2.70    0.60
   5  -3  -7    1.60    1.00
   5  -3  -7    2.20    0.50
  -5   3   7    1.40    0.60
  -5   3   7    2.20    0.90
  -5   3   7    2.10    0.60
  -5   3   7    0.50    1.20
   4  -3  -7    7.40    0.80
   4  -3  -7    4.40    1.20
   4  -3  -7    5.20    1.20
  -4   3   7    4.60    1.00
  -4   3   7    5.10    1.50
  -4   3   7    6.40    0.90
   3  -3  -7   10.70    1.40
   3  -3  -7   12.70    1.70
   3  -3  -7   13.40    1.00
  -3   3   7   14.00    1.50
  -3   3   7   11.50    1.70
  -3   3   7   14.30    1.30
  -3   3   7   15.10    1.30
   2  -3  -7    0.40    0.90
   2  -3  -7    2.00    0.90
   2  -3  -7    1.30    1.00
   2  -3  -7    1.40    0.60
  -2   3   7    1.90    1.10
  -2   3   7    2.20    0.80
  -2   3   7    1.40    0.60
  -2   3   7    1.00    0.80
   1  -3  -7   15.60    1.80
   1  -3  -7   18.40    1.90
   1  -3  -7   16.30    1.90
  -1   3   7   16.30    1.50
  -1   3   7   16.60    1.90
  -1   3   7   17.90    1.60
   0  -3  -7    1.20    1.00
   0  -3  -7    1.50    1.00
   0   3   7    3.80    1.00
   0   3   7    2.00    0.80
   0   3   7    0.60    0.80
  -1  -3  -7   -0.90    0.80
  -1  -3  -7    0.10    0.90
   1   3   7    1.30    0.80
   1   3   7    1.00    0.70
   1   3   7    0.70    0.80
  -2  -3  -7   -0.70    0.80
  -2  -3  -7    1.80    1.10
   2   3   7    0.90    0.90
   2   3   7    1.10    0.80
  -3  -3  -7    2.00    1.20
   3   3   7    0.50    0.90
  -4  -3  -7    5.90    1.70
   4   3   7    7.00    1.50
  -5  -3  -7    3.70    1.60
  11  -4  -7    0.10    1.40
  11  -4  -7    2.10    1.60
  11  -4  -7   -1.70    1.10
 -11   4   7   -1.90    1.60
 -11   4   7   -0.90    1.70
 -11   4   7    1.10    1.50
  10  -4  -7    1.60    1.30
  10  -4  -7    1.40    1.10
  10  -4  -7    0.00    1.30
 -10   4   7   -1.10    1.60
 -10   4   7   -0.70    1.90
 -10   4   7   -0.90    1.00
   9  -4  -7    5.60    1.30
   9  -4  -7    3.30    1.50
   9  -4  -7    6.20    1.70
   9  -4  -7    7.00    1.70
  -9   4   7    3.60    2.10
  -9   4   7    8.30    1.50
  -9   4   7    3.80    1.80
   8  -4  -7   -0.40    0.90
   8  -4  -7    1.30    0.90
   8  -4  -7    0.10    1.00
   8  -4  -7   -0.50    0.90
  -8   4   7   -0.30    1.70
  -8   4   7    0.10    1.40
  -8   4   7   -0.30    1.50
  -8   4   7    1.00    1.00
   7  -4  -7    7.10    1.50
   7  -4  -7   10.30    1.40
   7  -4  -7    5.80    1.10
   7  -4  -7    4.60    1.30
  -7   4   7    7.20    2.00
  -7   4   7    8.50    1.30
  -7   4   7    5.00    1.50
   6  -4  -7   -0.20    0.90
   6  -4  -7   -0.50    1.00
   6  -4  -7    0.20    0.60
   6  -4  -7    0.60    0.60
  -6   4   7   -1.20    1.20
  -6   4   7   -1.20    0.90
  -6   4   7   -0.10    0.60
   5  -4  -7    3.10    1.30
   5  -4  -7    2.70    1.00
  -5   4   7    4.10    1.50
  -5   4   7    3.10    1.10
   4  -4  -7   -0.20    0.90
   4  -4  -7   -0.30    0.80
  -4   4   7   -0.80    0.30
  -4   4   7   -0.30    1.10
  -4   4   7   -0.10    0.50
  -4   4   7    1.10    0.90
   3  -4  -7    7.00    1.40
   3  -4  -7    7.60    1.30
  -3   4   7   10.00    1.50
  -3   4   7    9.20    1.60
  -3   4   7    8.50    1.00
  -3   4   7   10.10    1.30
   2  -4  -7    3.50    1.30
   2  -4  -7    2.50    1.10
   2  -4  -7    2.90    1.00
  -2   4   7    1.90    0.70
  -2   4   7    3.10    1.00
  -2   4   7    2.80    1.00
  -2   4   7    3.10    1.20
   1  -4  -7   11.90    1.60
   1  -4  -7    9.30    1.60
   1  -4  -7    9.40    1.60
  -1   4   7   12.70    1.40
  -1   4   7   11.30    1.70
  -1   4   7    9.70    1.20
  -1   4   7    9.30    1.50
   0  -4  -7    8.70    1.40
   0  -4  -7   11.60    1.80
   0   4   7    8.20    1.70
   0   4   7   12.30    1.30
   0   4   7    9.20    1.40
  -1  -4  -7    1.90    1.20
  -1  -4  -7    1.50    1.00
   1   4   7    0.80    1.20
   1   4   7    1.20    0.70
   1   4   7    0.20    0.80
  -2  -4  -7   -0.60    0.80
  -2  -4  -7    0.70    1.20
   2   4   7   -0.10    0.70
   2   4   7    2.10    1.00
   2   4   7    0.40    1.30
  -3  -4  -7    3.20    1.40
   3   4   7    1.30    1.60
  -4  -4  -7    7.60    1.80
   4   4   7    5.80    2.00
  -5  -4  -7    8.00    2.10
   5   4   7    7.50    2.20
  11  -5  -7   -0.20    1.10
  11  -5  -7   -1.60    1.20
  11  -5  -7   -1.90    1.10
 -11   5   7   -1.40    1.20
 -11   5   7   -0.30    1.90
 -11   5   7    0.00    2.00
  10  -5  -7    8.70    1.90
  10  -5  -7    6.70    1.50
  10  -5  -7    7.10    1.90
 -10   5   7   10.60    1.90
 -10   5   7    4.50    2.30
 -10   5   7    9.30    2.60
   9  -5  -7    2.10    1.20
   9  -5  -7    5.20    1.70
   9  -5  -7    4.20    1.40
   9  -5  -7    1.50    1.30
  -9   5   7    3.80    2.10
  -9   5   7    3.00    1.80
  -9   5   7    2.80    1.20
   8  -5  -7    1.90    1.00
   8  -5  -7    3.80    1.10
   8  -5  -7    3.50    1.40
   8  -5  -7    6.20    1.60
  -8   5   7    3.10    1.10
  -8   5   7    3.10    2.10
  -8   5   7    1.40    1.60
   7  -5  -7    0.30    0.80
   7  -5  -7    1.30    1.10
   7  -5  -7   -0.20    0.70
   7  -5  -7    1.20    1.20
  -7   5   7   -1.90    1.10
  -7   5   7   -0.90    0.70
  -7   5   7   -2.00    1.20
   6  -5  -7   -0.40    0.80
   6  -5  -7   -0.80    0.80
  -6   5   7    0.30    1.00
  -6   5   7   -0.80    1.30
   5  -5  -7    2.60    1.10
   5  -5  -7    0.10    0.90
  -5   5   7    1.10    1.30
  -5   5   7    0.40    1.10
   4  -5  -7   17.50    2.10
   4  -5  -7   16.80    1.90
  -4   5   7   25.70    1.90
  -4   5   7   28.30    2.40
  -4   5   7   23.30    2.50
   3  -5  -7   39.20    2.70
   3  -5  -7   42.10    2.70
  -3   5   7   42.90    3.10
  -3   5   7   42.30    2.50
  -3   5   7   41.70    2.90
   2  -5  -7   19.50    2.10
   2  -5  -7   26.00    2.60
   2  -5  -7   18.60    2.00
  -2   5   7   22.00    2.30
  -2   5   7   20.80    2.30
  -2   5   7   19.60    2.00
  -2   5   7   23.60    1.50
   1  -5  -7    0.00    1.00
   1  -5  -7    1.30    1.10
  -1   5   7   -1.30    0.80
  -1   5   7    0.60    0.70
  -1   5   7   -0.40    0.80
   0  -5  -7    1.40    1.10
   0  -5  -7    0.00    1.00
   0   5   7   -0.20    0.70
   0   5   7    2.20    1.20
  -1  -5  -7   -0.90    1.00
  -1  -5  -7    0.20    1.00
   1   5   7   -0.30    1.20
   1   5   7    0.10    0.80
  -2  -5  -7    0.50    1.20
  -2  -5  -7    0.20    1.00
   2   5   7    3.00    1.40
   2   5   7    1.10    1.00
  -3  -5  -7    1.30    1.50
   3   5   7    0.60    1.40
  -4  -5  -7    6.00    2.00
   4   5   7    5.00    1.90
  10  -6  -7    0.10    1.10
  10  -6  -7    0.90    1.30
  10  -6  -7    1.00    1.40
 -10   6   7    1.00    1.20
 -10   6   7   -1.70    2.00
 -10   6   7    2.00    1.80
   9  -6  -7   -1.00    1.10
   9  -6  -7   -2.60    1.00
   9  -6  -7   -1.10    1.10
   9  -6  -7    1.00    1.00
  -9   6   7   -1.40    1.00
  -9   6   7   -2.70    1.70
   8  -6  -7    2.10    1.30
   8  -6  -7    2.90    1.40
   8  -6  -7    2.00    1.30
  -8   6   7   -0.60    1.70
   7  -6  -7    4.40    1.40
   7  -6  -7    3.90    1.30
  -7   6   7    4.30    2.20
  -7   6   7    2.50    1.60
   6  -6  -7    5.20    1.40
   6  -6  -7    5.00    1.40
  -6   6   7    5.40    1.60
  -6   6   7    3.70    1.70
   5  -6  -7    1.00    1.20
   5  -6  -7    1.80    1.10
  -5   6   7    3.10    1.30
  -5   6   7    3.10    1.40
   4  -6  -7    3.10    1.30
   4  -6  -7    3.60    1.20
  -4   6   7    3.10    1.00
  -4   6   7    1.40    1.20
  -4   6   7    4.00    1.60
   3  -6  -7    5.10    1.40
   3  -6  -7    5.00    1.30
  -3   6   7    5.90    1.50
  -3   6   7    7.00    1.60
  -3   6   7    7.00    1.40
   2  -6  -7   37.80    2.80
   2  -6  -7   34.30    2.70
   2  -6  -7   37.20    2.80
  -2   6   7   30.80    2.70
  -2   6   7   30.80    2.50
  -2   6   7   38.70    2.80
   1  -6  -7   15.40    2.00
   1  -6  -7   15.00    2.20
  -1   6   7   16.30    2.10
  -1   6   7   14.60    2.00
   0  -6  -7    5.00    1.40
   0  -6  -7    4.10    1.40
   0   6   7    3.20    1.30
   0   6   7    5.20    1.60
   0   6   7    0.00    1.10
  -1  -6  -7    4.10    1.40
  -1  -6  -7    3.10    1.60
   1   6   7    3.70    1.50
   1   6   7    4.90    1.20
  -2  -6  -7    3.30    1.40
  -2  -6  -7    2.80    1.60
   2   6   7    2.00    1.60
  -3  -6  -7    0.00    1.50
   3   6   7    1.60    1.70
  10  -7  -7   -0.80    1.20
 -10   7   7   -2.10    2.00
   9  -7  -7    0.70    1.30
   9  -7  -7    0.60    1.30
  -9   7   7   -1.80    1.90
   8  -7  -7    4.30    1.60
   8  -7  -7   -1.80    1.10
  -8   7   7    0.70    1.90
   7  -7  -7    1.70    1.30
   7  -7  -7   -0.30    1.10
  -7   7   7    1.20    1.70
   6  -7  -7   19.50    2.50
   6  -7  -7   18.90    2.30
  -6   7   7   17.10    2.50
   5  -7  -7    0.80    1.10
   5  -7  -7    1.50    1.10
  -5   7   7    1.50    1.40
   4  -7  -7   15.10    2.10
   4  -7  -7   17.90    2.20
  -4   7   7   16.50    2.40
  -4   7   7   14.70    2.10
  -4   7   7   16.40    1.90
   3  -7  -7    3.30    1.30
   3  -7  -7    3.00    1.30
  -3   7   7    5.00    1.50
  -3   7   7    5.60    1.60
  -3   7   7    4.30    1.30
   2  -7  -7    2.20    1.40
   2  -7  -7    1.20    1.10
  -2   7   7    1.00    1.10
  -2   7   7    2.90    1.20
   1  -7  -7    3.00    1.40
   1  -7  -7    1.60    1.30
  -1   7   7    2.10    1.40
  -1   7   7    1.90    1.30
   0  -7  -7    5.00    1.50
   0  -7  -7    5.00    1.60
   0   7   7    4.50    1.70
   0   7   7    5.40    1.60
  -1  -7  -7    1.70    1.30
  -1  -7  -7    0.80    1.40
   1   7   7    1.90    1.50
  -2  -7  -7   23.80    3.10
  -2  -7  -7   26.10    2.80
   2   7   7   27.70    3.40
   9  -8  -7    3.10    1.40
   9  -8  -7    4.40    1.60
  -9   8   7    0.30    2.30
   8  -8  -7    4.20    1.60
   8  -8  -7    3.60    1.50
  -8   8   7    4.00    2.20
   7  -8  -7    7.80    1.90
   7  -8  -7    7.50    1.80
  -7   8   7    7.90    2.30
   6  -8  -7   11.40    2.10
   6  -8  -7   10.30    1.90
  -6   8   7   10.60    2.20
   5  -8  -7   -1.00    1.00
   5  -8  -7    0.70    1.20
  -5   8   7    3.50    1.70
   4  -8  -7   -1.20    1.10
   4  -8  -7    0.10    1.20
  -4   8   7    0.40    1.40
  -4   8   7    0.20    1.00
   3  -8  -7   -0.20    1.20
  -3   8   7   -0.10    1.20
  -3   8   7    1.50    1.20
   2  -8  -7    0.50    1.30
   2  -8  -7    1.70    1.30
  -2   8   7    0.50    1.20
  -2   8   7    2.20    1.50
   1  -8  -7   -0.70    1.30
   1  -8  -7    2.10    1.30
  -1   8   7    1.30    1.40
  -1   8   7    1.00    1.10
   0  -8  -7   -0.20    1.20
   0  -8  -7   -1.20    1.10
   0   8   7    1.20    1.30
   0   8   7   -0.20    1.30
  -1  -8  -7    4.50    1.50
  -1  -8  -7    8.10    2.10
   1   8   7    6.50    1.90
   1   8   7    5.40    1.90
   8  -9  -7   -2.00    1.30
   8  -9  -7    1.10    1.30
  -8   9   7   -4.20    1.90
   7  -9  -7    0.40    1.30
   7  -9  -7   -0.80    1.00
  -7   9   7   -1.00    1.90
   6  -9  -7    0.70    1.30
   6  -9  -7   -0.60    1.10
  -6   9   7   -3.20    1.20
   5  -9  -7    1.20    1.30
   5  -9  -7    2.60    1.50
  -5   9   7    0.20    1.70
   4  -9  -7    3.30    1.60
  -4   9   7    5.60    2.70
  -4   9   7    4.50    1.80
   3  -9  -7    0.60    1.30
  -3   9   7    0.80    1.40
  -3   9   7   -0.30    1.40
   2  -9  -7    6.10    1.70
  -2   9   7    5.80    1.80
  -2   9   7    8.50    2.00
   1  -9  -7    2.50    1.50
   1  -9  -7    4.70    1.70
  -1   9   7    2.40    1.70
  -1   9   7    4.60    1.70
   0  -9  -7    4.00    1.60
   0  -9  -7    6.20    2.00
   0   9   7    1.50    1.80
   0   9   7    8.60    2.00
   6 -10  -7    0.40    1.50
   6 -10  -7    0.90    1.30
  -6  10   7   -4.50    1.50
   5 -10  -7    1.30    1.40
  -5  10   7   -2.10    1.50
   4 -10  -7   -1.30    1.30
  -4  10   7    1.20    1.80
   3 -10  -7    3.70    1.70
  -3  10   7    3.30    2.00
  -3  10   7    5.80    1.80
   4   9  -8    2.90    1.70
  -4  -9   8    2.10    1.40
  -4  -9   8    0.70    1.60
  -4  -9   8    3.90    2.00
   3   9  -8    0.70    1.60
   3   9  -8   -1.60    1.20
  -3  -9   8    3.70    1.90
  -3  -9   8    1.00    1.50
  -3  -9   8    0.40    1.50
   2   9  -8   -0.40    1.30
   2   9  -8   -0.90    1.40
   2   9  -8    0.90    1.40
  -2  -9   8    2.60    1.70
  -2  -9   8   -1.40    1.30
   1   9  -8    4.60    1.70
   1   9  -8    7.00    1.80
  -1  -9   8    5.10    1.80
  -1  -9   8    3.40    1.60
  -1  -9   8    2.90    1.40
   0   9  -8   -0.90    1.30
   0   9  -8    1.00    1.30
   0  -9   8   -1.40    0.90
   0  -9   8    1.00    1.30
   0  -9   8    0.10    1.50
  -1   9  -8    0.40    1.30
  -1   9  -8   -0.20    1.30
   1  -9   8    0.30    1.20
   1  -9   8   -1.70    1.40
   6   8  -8    0.70    1.60
  -6  -8   8    0.40    1.20
  -6  -8   8    5.10    2.10
  -6  -8   8   -0.70    1.30
   5   8  -8    1.40    1.50
  -5  -8   8    1.20    1.60
  -5  -8   8    1.00    1.70
  -5  -8   8    0.40    1.40
   4   8  -8    0.00    1.40
   4   8  -8   -0.10    1.30
  -4  -8   8    2.60    1.80
  -4  -8   8    1.70    1.40
  -4  -8   8    0.60    1.30
   3   8  -8    1.60    1.50
   3   8  -8    2.10    1.40
  -3  -8   8    4.80    1.60
  -3  -8   8    4.60    1.80
  -3  -8   8    2.40    1.50
   2   8  -8   13.30    2.20
   2   8  -8   10.30    1.90
  -2  -8   8    9.20    2.30
  -2  -8   8    9.80    1.60
  -2  -8   8   12.60    2.10
   1   8  -8   15.60    2.20
   1   8  -8   13.00    2.20
  -1  -8   8   12.80    1.90
  -1  -8   8   13.50    2.10
  -1  -8   8   18.40    2.60
   0   8  -8    3.60    1.60
   0   8  -8    2.30    1.30
   0  -8   8    4.90    1.50
   0  -8   8    2.60    1.50
   0  -8   8    3.30    1.30
  -1   8  -8    3.30    1.50
  -1   8  -8    0.10    1.20
   1  -8   8    1.10    1.30
   1  -8   8    4.00    1.40
  -2   8  -8    0.50    1.40
  -2   8  -8    1.70    1.40
   2  -8   8    2.10    1.60
   2  -8   8    3.60    1.40
   2  -8   8    4.70    1.60
   7   7  -8    0.90    1.30
   7   7  -8    3.60    1.70
  -7  -7   8   -0.70    1.30
  -7  -7   8    1.80    2.10
  -7  -7   8    2.20    1.50
   6   7  -8    3.20    1.60
  -6  -7   8    5.80    2.30
  -6  -7   8    1.90    1.40
  -6  -7   8    2.20    1.60
   5   7  -8    0.80    1.20
  -5  -7   8    3.20    2.00
  -5  -7   8    1.50    1.30
  -5  -7   8    0.20    1.20
   4   7  -8    2.60    1.50
   4   7  -8   -1.40    1.00
  -4  -7   8    0.40    1.20
  -4  -7   8    3.80    1.60
  -4  -7   8    1.40    1.80
   3   7  -8    1.80    1.30
   3   7  -8    0.50    1.20
  -3  -7   8    0.50    1.20
  -3  -7   8    0.20    1.70
  -3  -7   8   -1.50    1.20
   2   7  -8    1.60    1.20
   2   7  -8    3.50    1.30
  -2  -7   8    2.40    1.10
  -2  -7   8    2.90    1.60
  -2  -7   8    3.20    1.40
   1   7  -8   10.00    1.70
   1   7  -8    9.50    1.90
  -1  -7   8   10.20    2.00
  -1  -7   8    7.00    1.60
  -1  -7   8    9.00    1.60
   0   7  -8   10.30    1.80
   0   7  -8   13.60    2.20
   0  -7   8    9.00    1.80
   0  -7   8    8.40    1.70
   0  -7   8   12.00    1.90
  -1   7  -8   -1.70    1.00
  -1   7  -8    1.70    1.40
   1  -7   8   -2.90    1.00
   1  -7   8   -1.00    1.00
  -2   7  -8    2.20    1.50
  -2   7  -8    2.60    1.40
   2  -7   8    3.60    1.50
   2  -7   8    3.40    1.40
   2  -7   8    4.00    1.50
  -3   7  -8    4.00    1.60
  -3   7  -8    3.50    1.70
   3  -7   8    3.00    1.60
   3  -7   8    3.80    1.50
   3  -7   8    0.30    2.10
   8   6  -8    3.30    1.60
   8   6  -8    4.80    1.70
  -8  -6   8    4.40    1.70
  -8  -6   8    6.80    2.50
   7   6  -8    6.70    1.90
   7   6  -8    6.50    1.90
  -7  -6   8    2.60    1.60
  -7  -6   8    6.10    2.10
   6   6  -8    4.70    1.50
   6   6  -8    8.50    1.80
  -6  -6   8   11.40    2.00
  -6  -6   8    7.60    1.90
  -6  -6   8    5.50    2.00
   5   6  -8    1.80    1.10
   5   6  -8    3.70    1.50
  -5  -6   8    2.50    1.20
  -5  -6   8    4.40    1.40
  -5  -6   8    1.50    1.60
  -5  -6   8    1.90    1.30
   4   6  -8    0.20    1.20
   4   6  -8    0.00    1.00
  -4  -6   8    1.80    1.50
  -4  -6   8   -1.10    1.00
  -4  -6   8    2.00    1.30
  -4  -6   8    3.90    1.20
   3   6  -8    0.00    1.10
  -3  -6   8    2.50    1.60
  -3  -6   8   -1.50    1.00
  -3  -6   8    2.40    1.00
  -3  -6   8   -1.80    0.80
   2   6  -8    1.00    1.10
   2   6  -8    0.50    0.90
  -2  -6   8   -0.60    0.90
  -2  -6   8    0.50    1.30
  -2  -6   8    1.40    1.10
   1   6  -8   12.50    2.00
   1   6  -8   11.80    1.70
  -1  -6   8   15.10    1.90
  -1  -6   8   14.80    2.20
  -1  -6   8   14.00    1.80
   0   6  -8    2.10    1.10
   0   6  -8    1.00    1.20
   0  -6   8    2.80    1.20
   0  -6   8   -1.20    0.90
   0  -6   8    1.80    1.20
  -1   6  -8    2.60    1.10
  -1   6  -8    1.40    1.30
   1  -6   8    1.60    1.10
   1  -6   8    2.10    1.10
   1  -6   8    1.90    1.20
  -2   6  -8    2.10    1.20
  -2   6  -8    0.70    1.20
   2  -6   8    1.20    1.10
   2  -6   8    4.60    1.60
   2  -6   8    3.50    1.30
  -3   6  -8    1.50    1.40
   3  -6   8    0.30    1.30
  -4   6  -8   -1.10    1.30
   4  -6   8    0.40    1.50
   9   5  -8    1.50    1.60
   9   5  -8    0.70    1.20
  -9  -5   8    1.70    1.30
  -9  -5   8    2.50    2.20
   8   5  -8    2.50    1.50
   8   5  -8    3.50    1.60
  -8  -5   8    4.30    2.00
  -8  -5   8    3.20    1.60
   7   5  -8    9.10    1.90
   7   5  -8    9.90    1.90
  -7  -5   8   10.50    1.90
  -7  -5   8    7.80    2.20
   6   5  -8   16.90    2.20
   6   5  -8   20.50    2.30
   6   5  -8   19.00    2.30
  -6  -5   8   20.10    2.60
  -6  -5   8   20.80    2.90
  -6  -5   8   22.40    2.50
   5   5  -8   -0.40    1.00
   5   5  -8   -2.00    0.80
  -5  -5   8    0.10    1.40
  -5  -5   8   -0.10    1.00
  -5  -5   8    0.40    0.90
  -5  -5   8    1.00    1.20
   4   5  -8    3.30    1.40
   4   5  -8    3.50    1.10
  -4  -5   8    6.70    1.30
  -4  -5   8    6.50    1.50
  -4  -5   8    4.50    1.30
  -4  -5   8    6.10    1.80
   3   5  -8    4.30    1.30
  -3  -5   8    0.40    0.90
  -3  -5   8    4.10    1.20
  -3  -5   8    2.40    1.10
  -3  -5   8    2.40    1.40
   2   5  -8   10.60    1.70
  -2  -5   8   10.40    2.00
  -2  -5   8   10.50    1.50
  -2  -5   8   11.50    1.50
   1   5  -8   17.60    2.10
   1   5  -8   19.00    1.90
  -1  -5   8   14.40    1.70
  -1  -5   8   18.40    2.00
   0   5  -8   12.50    1.60
   0   5  -8   12.90    1.90
   0  -5   8   14.50    1.70
   0  -5   8   14.30    1.90
   0  -5   8   14.80    2.00
  -1   5  -8    5.80    1.60
  -1   5  -8    4.00    1.10
   1  -5   8    2.00    0.90
   1  -5   8    9.20    1.70
   1  -5   8    3.10    1.10
  -2   5  -8    3.20    1.20
  -2   5  -8    1.70    1.30
   2  -5   8    2.80    1.40
  -3   5  -8   -1.50    1.00
   3  -5   8    0.60    1.40
  -4   5  -8   -2.50    1.00
   4  -5   8    1.30    1.40
  10   4  -8    0.10    1.50
  10   4  -8    2.90    1.50
  10   4  -8   -1.90    1.60
 -10  -4   8    1.10    1.90
 -10  -4   8   -1.70    1.10
   9   4  -8    2.30    1.60
   9   4  -8    6.50    1.70
   9   4  -8    3.40    1.60
  -9  -4   8    0.30    1.30
  -9  -4   8    2.40    2.20
   8   4  -8    2.30    1.30
   8   4  -8    2.90    1.40
   8   4  -8    0.90    1.30
  -8  -4   8    1.50    1.40
  -8  -4   8    1.60    1.90
   7   4  -8    9.80    1.80
   7   4  -8    8.20    1.70
   7   4  -8    9.20    1.70
  -7  -4   8   12.60    2.50
  -7  -4   8   11.10    1.90
   6   4  -8    2.80    1.20
   6   4  -8    0.60    1.10
   6   4  -8    1.10    1.00
  -6  -4   8    0.70    1.10
  -6  -4   8    3.10    1.50
  -6  -4   8    2.70    1.70
   5   4  -8    3.30    1.20
   5   4  -8    4.90    1.20
   5   4  -8    2.60    1.10
  -5  -4   8    4.50    1.70
  -5  -4   8    2.70    1.10
  -5  -4   8    3.50    1.00
  -5  -4   8    2.30    1.30
   4   4  -8    0.70    1.00
   4   4  -8    1.70    0.90
  -4  -4   8    0.20    1.30
  -4  -4   8    0.70    0.90
  -4  -4   8    2.20    1.30
  -4  -4   8    0.30    0.90
   3   4  -8    0.30    1.00
   3   4  -8    2.30    0.90
  -3  -4   8    0.60    0.80
  -3  -4   8    1.50    1.20
  -3  -4   8    2.40    1.50
  -3  -4   8    0.40    0.80
   2   4  -8    0.00    0.90
  -2  -4   8    0.40    1.10
  -2  -4   8    0.70    0.90
  -2  -4   8    1.00    0.80
  -2  -4   8   -0.10    0.70
   1   4  -8   36.40    2.10
   1   4  -8   34.50    2.60
  -1  -4   8   39.60    2.70
  -1  -4   8   34.30    2.20
   0   4  -8    6.00    1.10
   0   4  -8    7.10    1.40
   0  -4   8    6.40    1.20
   0  -4   8    7.40    1.50
   0  -4   8   10.00    1.70
  -1   4  -8    0.50    1.00
  -1   4  -8   -0.50    0.70
   1  -4   8   -0.50    0.80
   1  -4   8   -0.20    1.00
  -2   4  -8    0.70    1.20
   2  -4   8   -0.50    1.00
  -3   4  -8   -0.50    1.00
   3  -4   8    1.40    1.30
  -4   4  -8    3.50    1.50
   4  -4   8    3.40    1.50
   5  -4   8   -0.40    1.60
  10   3  -8   -1.00    1.20
  10   3  -8    1.10    1.50
  10   3  -8    1.50    1.30
 -10  -3   8    1.60    1.30
 -10  -3   8    2.30    2.10
   9   3  -8    5.90    1.60
   9   3  -8    6.50    1.60
   9   3  -8    1.70    1.40
  -9  -3   8    7.50    2.40
  -9  -3   8    4.80    1.50
   8   3  -8   -0.40    1.10
   8   3  -8    1.20    1.20
   8   3  -8    1.30    1.10
  -8  -3   8    4.10    1.50
  -8  -3   8    2.60    1.80
   7   3  -8    3.10    1.10
   7   3  -8    1.70    1.10
   7   3  -8    0.70    0.90
  -7  -3   8    1.20    1.60
  -7  -3   8    1.80    1.10
  -7  -3   8    1.70    1.60
   6   3  -8    2.70    1.00
   6   3  -8    2.10    1.00
   6   3  -8    1.60    1.10
  -6  -3   8    3.40    1.60
  -6  -3   8    1.90    1.00
  -6  -3   8    2.10    1.50
   5   3  -8    1.30    0.90
   5   3  -8   -0.50    0.80
   5   3  -8    0.20    0.80
  -5  -3   8    0.60    0.80
  -5  -3   8    0.50    1.30
  -5  -3   8   -0.20    1.30
   4   3  -8    0.60    0.90
   4   3  -8    0.60    0.80
  -4  -3   8    1.10    0.80
  -4  -3   8   -0.20    0.60
  -4  -3   8   -0.40    1.20
  -4  -3   8    2.80    1.50
   3   3  -8   13.80    1.50
   3   3  -8   12.10    1.60
  -3  -3   8   11.60    1.30
  -3  -3   8   10.40    1.30
  -3  -3   8   13.80    2.10
  -3  -3   8   10.00    1.70
   2   3  -8    9.10    1.20
   2   3  -8    7.60    1.40
   2   3  -8    6.80    1.00
  -2  -3   8    6.50    1.60
  -2  -3   8    8.40    1.50
  -2  -3   8    7.10    1.00
   1   3  -8   15.40    1.80
   1   3  -8   20.40    1.40
  -1  -3   8   14.20    1.30
  -1  -3   8   19.90    2.30
   0   3  -8   -1.50    0.80
   0   3  -8    1.00    0.70
   0   3  -8   -0.10    0.60
   0  -3   8    0.60    1.00
   0  -3   8   -2.30    0.60
  -1   3  -8   -1.20    0.90
  -1   3  -8    0.50    0.70
   1  -3   8    0.50    1.10
  -2   3  -8    2.10    1.10
  -2   3  -8    1.50    0.90
   2  -3   8    0.20    1.20
   2  -3   8    1.80    1.10
  -3   3  -8   -0.50    1.10
   3  -3   8    0.30    1.10
   4  -3   8    6.40    1.80
   5  -3   8    1.90    1.60
  11   2  -8    0.60    1.50
  11   2  -8   -3.40    1.40
  11   2  -8   -1.50    1.10
 -11  -2   8    1.70    1.60
 -11  -2   8   -2.30    1.80
 -11  -2   8   -1.90    1.50
  10   2  -8    1.60    1.50
  10   2  -8    1.30    1.40
  10   2  -8    2.30    1.30
 -10  -2   8    1.80    2.10
 -10  -2   8   -1.70    1.20
 -10  -2   8   -0.30    1.30
   9   2  -8    2.10    1.10
   9   2  -8    1.80    1.30
   9   2  -8    0.60    1.40
  -9  -2   8    3.70    1.40
  -9  -2   8   -1.00    1.90
  -9  -2   8    0.40    1.20
   8   2  -8    0.90    1.00
   8   2  -8    0.10    0.80
   8   2  -8    1.60    1.30
  -8  -2   8    2.20    1.90
  -8  -2   8   -0.10    0.90
   7   2  -8    5.20    1.40
   7   2  -8    1.30    0.90
   7   2  -8    2.80    1.00
  -7  -2   8    4.40    1.20
  -7  -2   8    0.90    1.70
  -7  -2   8    2.90    1.60
   6   2  -8   18.10    2.00
   6   2  -8   17.10    1.80
   6   2  -8   19.80    1.90
  -6  -2   8   17.80    1.80
  -6  -2   8   20.00    2.70
  -6  -2   8   19.80    2.70
   5   2  -8    0.50    0.70
   5   2  -8    0.50    0.80
   5   2  -8    1.00    0.90
  -5  -2   8    0.10    0.70
  -5  -2   8    0.30    1.30
  -5  -2   8   -0.40    1.40
   4   2  -8    1.70    1.00
   4   2  -8    1.70    0.80
  -4  -2   8    2.50    0.80
  -4  -2   8    1.70    0.70
  -4  -2   8    2.30    1.40
  -4  -2   8    1.70    1.40
   3   2  -8    2.20    0.90
   3   2  -8    1.50    0.90
  -3  -2   8    1.10    1.30
  -3  -2   8    2.90    0.80
  -3  -2   8    2.10    1.30
  -3  -2   8   -0.30    0.60
   2   2  -8   51.29    2.50
   2   2  -8   47.00    2.70
   2   2  -8   51.19    2.10
  -2  -2   8   50.69    2.90
  -2  -2   8   52.59    2.20
  -2  -2   8   49.50    3.10
   1   2  -8   99.59    3.60
   1   2  -8  101.89    4.20
  -1  -2   8   97.09    4.20
  -1  -2   8   95.69    3.90
   0   2  -8   15.20    1.80
   0   2  -8   14.60    1.60
   0  -2   8   15.40    1.90
   0  -2   8   15.10    1.80
  -1   2  -8    3.70    1.20
  -1   2  -8    2.50    1.00
   1  -2   8    6.10    1.40
   1  -2   8    2.70    1.10
  -2   2  -8    5.90    1.40
  -2   2  -8    5.20    1.30
   2  -2   8    2.30    1.20
   2  -2   8    3.40    1.20
  -3   2  -8    2.10    1.20
  -3   2  -8    1.10    1.00
   3  -2   8    1.50    1.30
  -4   2  -8    0.30    1.00
   4  -2   8    1.10    1.20
  -5   2  -8    1.40    1.10
   5  -2   8    3.80    1.60
  11   1  -8   -2.40    1.20
  11   1  -8    1.90    1.50
  11   1  -8    0.40    1.00
 -11  -1   8   -0.70    1.30
 -11  -1   8   -0.90    1.40
 -11  -1   8    0.60    2.00
  10   1  -8   -0.10    1.30
  10   1  -8    1.10    1.00
  10   1  -8   -0.10    1.20
 -10  -1   8   -1.10    2.00
 -10  -1   8    1.20    1.30
 -10  -1   8    1.20    1.40
   9   1  -8    5.50    1.60
   9   1  -8    6.30    1.50
   9   1  -8    4.50    1.20
  -9  -1   8    4.00    1.50
  -9  -1   8    2.30    1.40
  -9  -1   8    6.70    2.30
   8   1  -8   -2.30    0.70
   8   1  -8    1.60    0.90
   8   1  -8    2.30    1.20
  -8  -1   8   -0.30    1.00
  -8  -1   8   -0.20    1.60
  -8  -1   8    1.50    1.80
  -8  -1   8    2.50    1.20
   7   1  -8    3.50    1.00
   7   1  -8    0.80    1.10
   7   1  -8    1.60    0.90
  -7  -1   8    3.00    1.70
  -7  -1   8    3.20    1.10
  -7  -1   8    2.80    1.60
  -7  -1   8    3.10    1.00
   6   1  -8    0.80    0.80
   6   1  -8    1.40    0.80
   6   1  -8    1.70    1.10
  -6  -1   8    0.50    1.40
  -6  -1   8    1.00    0.80
  -6  -1   8    0.00    1.30
   5   1  -8    1.40    0.70
   5   1  -8    2.10    0.90
   5   1  -8    0.90    0.80
  -5  -1   8    0.80    0.70
  -5  -1   8   -0.20    1.20
  -5  -1   8    1.00    1.40
   4   1  -8   51.29    2.10
   4   1  -8   50.19    2.70
   4   1  -8   45.90    2.50
  -4  -1   8   53.29    2.20
  -4  -1   8   41.80    3.00
  -4  -1   8   51.49    2.20
  -4  -1   8   48.10    3.30
   3   1  -8    7.80    1.20
   3   1  -8    5.40    1.10
  -3  -1   8    7.50    0.90
  -3  -1   8    6.60    1.60
  -3  -1   8    6.50    1.70
  -3  -1   8    6.90    0.90
   2   1  -8   17.40    1.70
   2   1  -8   20.00    1.70
  -2  -1   8   21.50    2.20
  -2  -1   8   21.90    2.40
   1   1  -8   20.30    1.90
   1   1  -8   16.80    1.70
   1   1  -8   17.90    1.50
  -1  -1   8   23.60    2.30
  -1  -1   8   20.80    2.00
   0   1  -8    7.70    1.40
   0   1  -8    6.60    1.10
   0   1  -8    9.50    1.50
   0  -1   8    8.20    1.40
   0  -1   8    8.50    1.50
  -1   1  -8    5.90    1.30
  -1   1  -8    5.30    1.30
   1  -1   8    4.10    1.20
   1  -1   8    5.20    1.30
  -2   1  -8   45.80    2.90
  -2   1  -8   49.90    3.00
   2  -1   8   50.29    3.00
   2  -1   8   52.69    3.10
  -3   1  -8    3.60    1.30
   3  -1   8    5.10    1.50
  -4   1  -8    1.50    1.00
   4  -1   8    0.50    1.10
  -5   1  -8    1.00    1.10
   5  -1   8    1.60    1.40
  11   0  -8    1.10    1.60
  11   0  -8    1.80    1.40
  11   0  -8    4.20    1.60
 -11   0   8    2.60    2.20
 -11   0   8    3.40    1.70
 -11   0   8    2.90    1.50
  10   0  -8    2.40    1.40
  10   0  -8   -0.50    1.50
  10   0  -8    0.10    0.80
 -10   0   8   -0.30    1.20
 -10   0   8    0.80    1.30
 -10   0   8    2.30    2.20
   9   0  -8   29.10    2.40
   9   0  -8   30.20    2.10
   9   0  -8   28.90    3.00
  -9   0   8   24.00    2.50
  -9   0   8   33.00    3.80
  -9   0   8   33.70    2.60
   8   0  -8   26.90    2.80
   8   0  -8   28.40    2.00
   8   0  -8   32.40    2.20
  -8   0   8   35.10    2.40
  -8   0   8   30.20    2.20
  -8   0   8   33.10    3.70
  -8   0   8   33.20    3.60
   7   0  -8    6.30    1.20
   7   0  -8    4.90    1.00
   7   0  -8    5.40    1.30
  -7   0   8    5.70    1.10
  -7   0   8    2.20    1.90
  -7   0   8    5.20    1.20
  -7   0   8    7.80    2.00
   6   0  -8    0.50    0.70
   6   0  -8    0.40    0.70
   6   0  -8    1.40    1.10
  -6   0   8    0.50    0.70
  -6   0   8    0.00    1.40
  -6   0   8    1.30    1.40
  -6   0   8    2.50    0.80
   5   0  -8    6.00    1.00
   5   0  -8    3.10    1.10
   5   0  -8    5.20    0.80
  -5   0   8    4.90    1.70
  -5   0   8    4.60    1.70
  -5   0   8    5.00    0.80
   4   0  -8   -0.10    0.40
   4   0  -8   -0.40    0.60
   4   0  -8   -0.60    0.70
  -4   0   8    1.10    1.40
  -4   0   8   -0.70    1.20
   3   0  -8   47.00    2.60
   3   0  -8   45.70    2.40
  -3   0   8   51.39    3.20
  -3   0   8   47.00    3.00
  -3   0   8   50.19    2.30
   2   0  -8    5.80    1.10
   2   0  -8    6.30    1.10
  -2   0   8    8.10    1.60
  -2   0   8    5.80    0.90
  -2   0   8    5.80    1.50
   1   0  -8    9.30    1.40
   1   0  -8    9.10    1.50
   1   0  -8    9.10    1.20
  -1   0   8    7.10    1.40
  -1   0   8    8.30    1.60
   0   0  -8    8.00    1.40
   0   0  -8    5.80    1.20
   0   0   8    8.00    1.30
   0   0   8    8.70    1.60
   0   0   8    6.50    1.20
  -1   0  -8    7.30    1.40
  -1   0  -8    4.50    1.20
   1   0   8    7.70    1.40
   1   0   8    4.90    1.20
  -2   0  -8   17.30    2.20
   2   0   8   20.60    2.20
   2   0   8   17.60    2.10
  -3   0  -8    2.80    1.30
   3   0   8    4.00    1.40
  -4   0  -8    3.80    1.40
   4   0   8    3.90    1.60
  -5   0  -8    1.20    1.20
   5   0   8   -0.90    1.30
  11  -1  -8    2.50    1.50
  11  -1  -8   -1.10    1.50
 -11   1   8   -2.10    1.30
 -11   1   8    0.80    2.10
 -11   1   8    1.00    1.30
  10  -1  -8   45.60    3.20
  10  -1  -8   38.30    3.40
 -10   1   8   53.79    3.40
 -10   1   8   42.70    4.10
 -10   1   8   51.69    3.40
   9  -1  -8   38.70    2.70
   9  -1  -8   29.20    3.10
   9  -1  -8   31.30    2.10
  -9   1   8   39.50    2.70
  -9   1   8   38.00    4.10
  -9   1   8   35.00    2.80
   8  -1  -8    3.20    1.30
   8  -1  -8    2.10    1.10
   8  -1  -8    3.60    0.90
  -8   1   8    3.60    1.10
  -8   1   8    4.20    2.10
  -8   1   8    3.00    1.20
  -8   1   8    3.10    1.80
   7  -1  -8    3.60    0.90
   7  -1  -8    4.80    1.40
   7  -1  -8    3.80    1.00
  -7   1   8    4.50    1.70
  -7   1   8    5.50    1.10
  -7   1   8    3.00    1.00
  -7   1   8    3.50    1.70
   6  -1  -8   11.00    1.70
   6  -1  -8    8.70    1.20
   6  -1  -8   11.90    1.30
  -6   1   8   12.10    2.30
  -6   1   8   10.70    1.20
  -6   1   8   11.30    2.20
  -6   1   8    8.50    1.10
   5  -1  -8    3.60    0.90
   5  -1  -8    2.70    1.00
   5  -1  -8    3.20    0.80
  -5   1   8    4.20    1.70
  -5   1   8    4.40    1.60
  -5   1   8    2.90    1.00
   4  -1  -8  177.98    5.80
   4  -1  -8  183.78    6.50
  -4   1   8  183.38    5.80
  -4   1   8  195.08    7.10
  -4   1   8  172.88    6.90
   3  -1  -8   42.80    2.20
   3  -1  -8   45.10    2.60
  -3   1   8   44.70    2.20
  -3   1   8   45.40    3.00
  -3   1   8   43.30    2.90
   2  -1  -8   35.00    2.30
   2  -1  -8   33.70    2.00
   2  -1  -8   38.40    2.30
  -2   1   8   41.70    2.80
  -2   1   8   36.40    2.10
  -2   1   8   33.90    2.60
   1  -1  -8   10.80    1.40
   1  -1  -8   14.50    1.80
   1  -1  -8   13.90    1.50
  -1   1   8   16.90    2.00
  -1   1   8   14.20    1.60
  -1   1   8   12.10    1.70
   0  -1  -8    4.10    1.00
   0  -1  -8    2.90    1.10
   0   1   8    4.10    1.10
   0   1   8    4.50    1.10
   0   1   8    3.10    1.10
   0   1   8    4.70    1.30
  -1  -1  -8    5.90    1.40
  -1  -1  -8    6.20    1.30
   1   1   8    4.90    1.30
   1   1   8    3.70    1.10
  -2  -1  -8    2.30    1.20
   2   1   8    1.00    1.00
   2   1   8    1.80    1.10
  -3  -1  -8    2.60    1.40
   3   1   8    1.60    1.30
  -4  -1  -8    7.60    1.80
   4   1   8   10.40    2.00
  -5  -1  -8    2.00    1.40
   5   1   8   -1.80    1.20
  11  -2  -8    1.40    1.70
  11  -2  -8    2.00    1.40
 -11   2   8    0.10    1.40
 -11   2   8    0.10    1.30
 -11   2   8    2.10    2.10
  10  -2  -8   13.60    2.10
  10  -2  -8    9.00    2.10
 -10   2   8   11.80    2.80
 -10   2   8   12.90    2.10
 -10   2   8   13.80    2.10
   9  -2  -8    4.30    1.60
   9  -2  -8    2.60    1.20
  -9   2   8    5.40    1.40
  -9   2   8    6.40    2.30
  -9   2   8    4.20    1.40
   8  -2  -8    5.30    1.50
   8  -2  -8    7.40    1.30
  -8   2   8    7.30    2.10
  -8   2   8    6.60    1.40
  -8   2   8    7.30    2.20
  -8   2   8    9.40    1.40
   7  -2  -8    4.60    0.90
   7  -2  -8    6.30    1.10
   7  -2  -8    3.80    1.30
  -7   2   8    5.30    1.10
  -7   2   8    5.90    1.50
  -7   2   8    5.20    1.00
  -7   2   8    3.10    1.80
  -7   2   8    4.70    1.70
   6  -2  -8    2.30    1.00
   6  -2  -8    1.60    0.60
   6  -2  -8    2.40    1.10
  -6   2   8    1.40    0.90
  -6   2   8    2.10    1.60
  -6   2   8    1.70    1.50
   5  -2  -8    0.20    0.50
   5  -2  -8    0.10    1.10
   5  -2  -8   -0.40    0.80
  -5   2   8    0.00    0.70
  -5   2   8   -0.50    1.20
  -5   2   8    0.90    1.30
   4  -2  -8   76.69    3.90
   4  -2  -8   78.39    3.80
   4  -2  -8   77.99    3.00
  -4   2   8   78.49    3.20
  -4   2   8   82.49    4.20
  -4   2   8   83.79    3.40
  -4   2   8   76.39    4.20
   3  -2  -8   -1.60    0.80
   3  -2  -8    0.60    0.80
   3  -2  -8    0.50    0.60
  -3   2   8    0.80    1.40
  -3   2   8    0.60    0.70
  -3   2   8   -0.50    1.10
   2  -2  -8    0.10    0.70
   2  -2  -8    0.00    0.90
   2  -2  -8    0.70    1.00
   2  -2  -8    0.10    0.70
  -2   2   8    0.80    1.10
  -2   2   8    1.00    0.80
  -2   2   8   -1.50    1.10
  -2   2   8    1.00    0.70
   1  -2  -8    7.90    1.50
   1  -2  -8   10.10    1.70
   1  -2  -8    8.90    1.20
   1  -2  -8    8.30    1.30
  -1   2   8    8.40    1.50
  -1   2   8    9.90    1.30
  -1   2   8   11.40    1.80
  -1   2   8    9.90    1.30
   0  -2  -8   25.90    2.60
   0  -2  -8   24.20    2.40
   0   2   8   25.80    2.10
   0   2   8   24.70    2.20
   0   2   8   25.80    2.00
   0   2   8   27.80    2.20
  -1  -2  -8   15.90    2.10
   1   2   8   19.80    2.00
   1   2   8   17.80    1.90
  -2  -2  -8    0.80    1.10
   2   2   8    0.10    1.00
   2   2   8    1.10    1.10
  -3  -2  -8    8.50    2.00
   3   2   8   11.10    1.70
  -4  -2  -8    4.10    1.70
   4   2   8    5.70    1.60
  11  -3  -8    2.10    1.50
  11  -3  -8   -1.90    1.30
  11  -3  -8   -0.20    1.00
 -11   3   8   -1.80    1.90
 -11   3   8   -0.60    1.50
 -11   3   8   -0.70    1.20
  10  -3  -8   -1.40    1.20
  10  -3  -8    1.40    1.10
  10  -3  -8    2.10    1.40
 -10   3   8   -1.90    1.20
 -10   3   8   -2.00    1.80
 -10   3   8    0.70    1.20
   9  -3  -8    1.90    1.10
   9  -3  -8   -0.30    0.80
   9  -3  -8    0.80    1.30
  -9   3   8   -0.90    1.80
  -9   3   8    0.00    0.90
  -9   3   8   -0.80    1.10
   8  -3  -8   10.00    1.50
   8  -3  -8    9.40    1.30
   8  -3  -8    9.00    1.80
  -8   3   8    5.40    1.30
  -8   3   8    7.00    2.20
  -8   3   8   10.20    1.50
  -8   3   8    5.50    2.10
  -8   3   8    7.00    1.60
   7  -3  -8   -1.50    0.80
   7  -3  -8   -0.20    1.20
  -7   3   8   -1.90    1.00
  -7   3   8   -1.00    1.30
  -7   3   8    0.00    1.70
   6  -3  -8   11.20    1.70
   6  -3  -8   14.20    2.00
  -6   3   8   10.00    2.10
  -6   3   8    9.40    1.50
  -6   3   8   11.10    2.20
   5  -3  -8   20.90    2.20
   5  -3  -8   18.20    2.20
  -5   3   8   20.60    1.90
  -5   3   8   16.20    2.40
  -5   3   8   21.00    2.60
   4  -3  -8   10.50    1.60
   4  -3  -8   12.90    1.80
   4  -3  -8   15.10    1.30
  -4   3   8   14.50    1.50
  -4   3   8   13.10    1.60
  -4   3   8   13.40    2.10
  -4   3   8   13.30    1.30
   3  -3  -8   16.10    1.80
   3  -3  -8   18.70    2.10
   3  -3  -8   21.00    1.40
  -3   3   8   21.60    1.80
  -3   3   8   21.20    1.50
  -3   3   8   17.60    1.80
  -3   3   8   20.40    2.40
   2  -3  -8    2.60    1.00
   2  -3  -8    0.80    1.00
   2  -3  -8    2.20    0.80
   2  -3  -8    0.60    1.00
  -2   3   8    1.30    0.80
  -2   3   8    1.10    0.80
  -2   3   8    1.70    1.00
  -2   3   8    0.90    1.10
   1  -3  -8   19.80    2.10
   1  -3  -8   19.10    2.10
   1  -3  -8   23.40    2.50
  -1   3   8   20.70    2.20
  -1   3   8   23.20    1.70
  -1   3   8   18.70    1.80
   0  -3  -8   10.10    1.70
   0  -3  -8   11.50    1.90
   0   3   8   11.10    1.70
   0   3   8   12.50    1.50
   0   3   8   11.60    1.60
   0   3   8   13.70    1.80
  -1  -3  -8    1.70    1.20
  -1  -3  -8    1.30    1.10
   1   3   8    0.60    0.90
   1   3   8    2.10    1.10
  -2  -3  -8   -1.90    1.00
   2   3   8    0.10    0.90
  -3  -3  -8   22.00    2.80
   3   3   8   22.00    2.30
  -4  -3  -8    0.30    1.40
  11  -4  -8   -0.70    1.40
  11  -4  -8   -1.10    1.00
  11  -4  -8   -0.40    1.30
 -11   4   8   -1.90    1.20
 -11   4   8   -2.90    1.70
  10  -4  -8   -0.20    0.90
  10  -4  -8    0.50    1.20
  10  -4  -8    0.90    1.30
 -10   4   8    2.00    2.30
 -10   4   8   -0.60    1.10
   9  -4  -8    8.20    2.60
   9  -4  -8    5.30    1.70
  -9   4   8    3.70    1.80
  -9   4   8    4.20    2.20
   8  -4  -8    1.00    1.20
   8  -4  -8    1.50    1.20
  -8   4   8    1.50    1.50
  -8   4   8    3.40    1.80
   7  -4  -8    3.10    1.20
   7  -4  -8    1.40    1.20
  -7   4   8   -1.20    1.50
  -7   4   8    1.40    1.60
  -7   4   8    1.70    1.30
   6  -4  -8    0.00    1.20
   6  -4  -8   -1.00    0.80
  -6   4   8   -1.10    0.90
  -6   4   8   -0.30    1.40
   5  -4  -8   63.79    3.50
   5  -4  -8   60.99    3.60
  -5   4   8   65.69    4.00
  -5   4   8   67.89    3.60
   4  -4  -8   20.80    2.20
   4  -4  -8   22.40    2.40
  -4   4   8   24.80    2.20
  -4   4   8   23.50    2.20
  -4   4   8   23.10    2.70
   3  -4  -8   20.20    2.10
   3  -4  -8   17.10    2.10
  -3   4   8   15.80    1.90
  -3   4   8   20.20    1.50
  -3   4   8   16.00    2.20
  -3   4   8   18.00    1.80
   2  -4  -8   -2.00    1.00
   2  -4  -8    1.10    1.00
   2  -4  -8   -0.20    0.90
  -2   4   8   -0.20    1.00
  -2   4   8    0.00    0.90
  -2   4   8    0.60    0.70
  -2   4   8    0.20    0.80
   1  -4  -8   11.10    1.90
   1  -4  -8    9.10    1.60
  -1   4   8   11.10    1.50
  -1   4   8   11.10    1.80
  -1   4   8   11.10    1.80
  -1   4   8   12.60    1.40
   0  -4  -8   -0.60    0.90
   0  -4  -8    0.40    1.00
   0   4   8   -0.60    0.70
   0   4   8    0.90    0.90
   0   4   8    0.80    1.30
   0   4   8    0.40    0.90
  -1  -4  -8   10.80    2.00
  -1  -4  -8    9.30    1.70
   1   4   8   14.20    1.80
   1   4   8   14.30    2.30
  -2  -4  -8   -0.30    1.10
  -2  -4  -8    2.00    1.50
   2   4   8   -0.70    1.40
  -3  -4  -8   -0.50    1.30
   3   4   8    1.50    1.70
  -4  -4  -8   -0.70    1.20
   4   4   8    2.10    1.90
  11  -5  -8    0.40    1.50
  10  -5  -8   -1.70    1.10
 -10   5   8   -2.30    1.70
 -10   5   8   -1.30    1.80
   9  -5  -8   12.70    2.20
   9  -5  -8   13.50    2.10
  -9   5   8   16.20    3.00
  -9   5   8   13.00    2.50
   8  -5  -8    8.00    1.90
   8  -5  -8    5.10    1.70
  -8   5   8   12.90    2.60
  -8   5   8    5.80    1.90
   7  -5  -8    6.00    1.50
   7  -5  -8    5.60    1.50
  -7   5   8    5.60    1.60
   6  -5  -8   15.70    2.10
   6  -5  -8   15.40    2.20
  -6   5   8   20.70    2.30
  -6   5   8   14.40    2.50
   5  -5  -8   30.00    2.50
   5  -5  -8   29.90    3.00
  -5   5   8   31.60    3.00
  -5   5   8   34.40    2.80
   4  -5  -8   10.00    1.80
   4  -5  -8    8.20    1.60
  -4   5   8    5.10    1.40
  -4   5   8    9.40    1.90
   3  -5  -8   46.90    3.10
   3  -5  -8   49.60    3.20
  -3   5   8   47.00    2.80
  -3   5   8   45.90    3.30
  -3   5   8   49.20    3.30
   2  -5  -8   16.00    2.00
   2  -5  -8   13.50    1.90
   2  -5  -8   13.50    2.10
  -2   5   8   13.00    2.00
  -2   5   8   16.00    2.00
  -2   5   8   18.00    2.40
   1  -5  -8   24.60    2.50
   1  -5  -8   28.70    3.00
  -1   5   8   25.20    2.60
  -1   5   8   17.60    2.30
  -1   5   8   20.90    2.40
  -1   5   8   19.70    2.30
   0  -5  -8    9.80    1.90
   0  -5  -8    9.30    1.80
   0   5   8   14.30    1.90
   0   5   8    7.50    1.80
   0   5   8    7.30    1.40
  -1  -5  -8    3.40    1.30
  -1  -5  -8    4.30    1.50
   1   5   8    3.50    1.60
   1   5   8    4.20    1.20
  -2  -5  -8    2.00    1.50
   2   5   8    0.50    1.60
  -3  -5  -8    0.50    1.60
   3   5   8   -1.10    1.50
  10  -6  -8    0.80    1.40
 -10   6   8   -2.20    1.90
 -10   6   8    2.10    2.10
   9  -6  -8   -1.00    1.30
   9  -6  -8    1.80    1.40
  -9   6   8    5.80    2.30
  -9   6   8   -3.10    1.70
   8  -6  -8    4.70    1.60
   8  -6  -8    3.50    1.40
  -8   6   8    4.50    2.00
   7  -6  -8   -0.80    1.10
   7  -6  -8   -1.50    1.10
  -7   6   8   -2.20    1.40
   6  -6  -8   -0.90    1.00
   6  -6  -8    0.80    1.20
  -6   6   8   -0.10    1.20
   5  -6  -8    1.90    1.30
   5  -6  -8    0.40    0.90
  -5   6   8   -0.40    1.10
   4  -6  -8   12.70    2.00
   4  -6  -8    9.60    1.80
  -4   6   8   15.00    2.50
  -4   6   8   10.90    1.90
   3  -6  -8   26.80    2.80
   3  -6  -8   31.00    2.70
  -3   6   8   27.70    3.10
  -3   6   8   34.80    2.60
  -3   6   8   31.90    3.00
   2  -6  -8    6.80    1.90
   2  -6  -8    5.90    1.70
  -2   6   8    9.00    1.70
  -2   6   8    7.90    1.80
  -2   6   8    4.60    1.50
   1  -6  -8    0.30    1.30
   1  -6  -8    0.20    1.10
  -1   6   8    2.40    1.20
  -1   6   8    2.10    1.00
  -1   6   8   -1.20    1.10
   0  -6  -8    0.40    1.20
   0  -6  -8   -0.50    1.10
   0   6   8    0.70    1.40
   0   6   8    4.50    1.50
  -1  -6  -8    0.40    1.30
  -1  -6  -8    0.80    1.20
   1   6   8    0.10    1.40
  -2  -6  -8    0.80    1.60
   2   6   8   -2.00    1.50
   9  -7  -8    0.20    1.30
   9  -7  -8    0.30    1.30
  -9   7   8   -3.50    1.80
   8  -7  -8    4.50    1.60
   8  -7  -8    4.70    1.60
  -8   7   8    3.40    2.10
   7  -7  -8   25.30    2.90
   7  -7  -8   24.70    2.80
  -7   7   8   21.90    3.00
   6  -7  -8    2.50    1.50
   6  -7  -8    2.20    1.30
  -6   7   8    4.00    1.80
   5  -7  -8    0.10    1.00
   5  -7  -8    1.20    1.30
  -5   7   8    1.20    1.40
   4  -7  -8   13.80    2.00
   4  -7  -8   16.50    2.40
  -4   7   8   12.90    2.10
   3  -7  -8    1.60    1.30
   3  -7  -8    3.10    1.30
  -3   7   8    3.50    1.50
  -3   7   8    3.30    1.30
   2  -7  -8    3.70    1.60
   2  -7  -8    5.10    1.70
  -2   7   8    3.20    1.40
  -2   7   8    2.00    1.40
   1  -7  -8   12.50    2.10
   1  -7  -8   19.80    2.80
  -1   7   8   14.90    2.40
  -1   7   8   14.80    2.40
   0  -7  -8    0.20    1.30
   0  -7  -8    0.50    1.30
   0   7   8    4.40    1.80
   0   7   8    2.60    1.40
  -1  -7  -8   -1.60    1.40
  -1  -7  -8   -1.70    1.10
   1   7   8   -0.80    1.50
   1   7   8    2.80    1.30
   8  -8  -8    3.30    1.60
   8  -8  -8    2.30    1.40
  -8   8   8   -1.50    1.90
   7  -8  -8    3.90    1.60
   7  -8  -8    6.30    1.80
  -7   8   8    4.80    2.10
   6  -8  -8    0.60    1.30
   6  -8  -8   -1.00    1.40
  -6   8   8    0.30    1.50
   5  -8  -8    2.50    1.40
   5  -8  -8   -1.30    1.10
  -5   8   8    2.60    1.70
   4  -8  -8    1.00    1.20
   4  -8  -8    1.20    1.40
  -4   8   8    1.10    1.50
   3  -8  -8    2.60    1.60
  -3   8   8    2.80    1.40
  -3   8   8    0.10    1.40
   2  -8  -8   -0.20    1.30
  -2   8   8   -0.20    1.30
  -2   8   8   -0.50    1.30
   1  -8  -8    3.50    1.60
   1  -8  -8    1.50    1.50
  -1   8   8    4.40    1.80
  -1   8   8    3.50    1.60
   0  -8  -8    0.30    1.40
   0  -8  -8   -1.20    1.30
   0   8   8   -0.10    1.40
   0   8   8    2.10    1.40
   7  -9  -8   -1.40    1.20
   7  -9  -8    1.40    1.20
  -7   9   8   -4.30    1.70
   6  -9  -8   -0.60    1.20
   6  -9  -8    0.10    1.30
  -6   9   8   -0.80    1.50
   5  -9  -8    0.20    1.30
   5  -9  -8    0.50    1.40
  -5   9   8   -1.10    1.60
   4  -9  -8    3.30    1.70
  -4   9   8    5.50    2.00
   3  -9  -8   -0.10    1.30
  -3   9   8    1.40    2.20
  -3   9   8    0.80    1.40
   2  -9  -8    1.80    1.50
  -2   9   8    2.20    1.60
  -2   9   8    1.00    1.50
   5   8  -9    0.50    1.50
  -5  -8   9    1.30    1.40
  -5  -8   9    1.90    1.50
  -5  -8   9    1.70    1.80
   4   8  -9    3.00    1.60
  -4  -8   9   -0.10    1.70
  -4  -8   9   -0.90    1.40
  -4  -8   9    1.80    1.60
   3   8  -9    3.50    1.40
   3   8  -9    0.30    1.40
  -3  -8   9    1.10    1.40
  -3  -8   9    2.60    1.60
  -3  -8   9    1.10    1.10
   2   8  -9    6.00    1.70
   2   8  -9    5.10    1.60
  -2  -8   9    3.90    1.70
  -2  -8   9    2.80    1.50
  -2  -8   9    3.10    1.30
   1   8  -9    4.20    1.60
   1   8  -9    6.80    1.90
  -1  -8   9    4.30    1.50
  -1  -8   9    5.40    1.80
  -1  -8   9    4.60    1.60
   0   8  -9   -0.20    1.30
   0   8  -9    0.40    1.30
   0  -8   9   -1.30    1.10
   0  -8   9   -3.00    1.10
  -7  -7   9    4.40    2.50
  -7  -7   9   -1.20    1.30
   6   7  -9   -0.50    1.40
  -6  -7   9    0.00    1.40
  -6  -7   9    8.30    2.60
  -6  -7   9    2.00    1.50
   5   7  -9    3.60    1.80
  -5  -7   9   -2.00    1.10
  -5  -7   9    2.70    1.60
  -5  -7   9    4.30    2.10
   4   7  -9   13.10    2.30
  -4  -7   9   11.10    2.00
  -4  -7   9   16.80    3.00
  -4  -7   9    9.60    1.90
   3   7  -9    2.10    1.40
  -3  -7   9    5.60    1.60
  -3  -7   9    0.60    1.20
  -3  -7   9    4.80    1.90
   2   7  -9   25.20    3.00
   2   7  -9   22.00    2.50
  -2  -7   9   21.90    2.50
  -2  -7   9   26.80    3.10
  -2  -7   9   25.40    2.60
   1   7  -9    3.30    1.30
   1   7  -9    1.70    1.60
  -1  -7   9    2.00    1.30
  -1  -7   9    7.90    1.80
  -1  -7   9    4.10    1.60
   0   7  -9   -0.40    1.30
   0   7  -9    0.50    1.20
   0  -7   9   -0.30    1.30
   0  -7   9    2.90    1.50
  -1   7  -9   -0.10    1.30
   1  -7   9    1.60    1.50
  -2   7  -9   -0.80    1.40
   2  -7   9   -0.80    1.20
   8   6  -9    1.70    1.60
   8   6  -9   -2.30    1.20
   8   6  -9    2.20    1.60
  -8  -6   9    3.40    2.20
  -8  -6   9    2.90    1.70
   7   6  -9   10.10    2.30
   7   6  -9    4.50    1.70
   7   6  -9   10.20    2.00
  -7  -6   9    8.80    1.90
  -7  -6   9    9.60    2.60
  -7  -6   9    6.10    1.90
   6   6  -9    1.90    2.10
   6   6  -9    3.40    1.70
  -6  -6   9    7.20    1.80
  -6  -6   9    6.40    2.10
  -6  -6   9    6.40    1.70
   5   6  -9    2.10    1.40
  -5  -6   9    3.50    1.50
  -5  -6   9    7.90    1.80
  -5  -6   9    4.80    2.00
   4   6  -9   24.20    2.80
  -4  -6   9   16.90    2.80
  -4  -6   9   26.10    2.60
  -4  -6   9   22.40    2.40
   3   6  -9    3.40    1.40
  -3  -6   9    0.50    1.10
  -3  -6   9    0.20    1.40
  -3  -6   9    1.60    1.20
   2   6  -9    1.20    1.00
   2   6  -9   -0.50    1.20
  -2  -6   9    1.40    1.30
  -2  -6   9    0.70    1.10
   1   6  -9    3.30    1.20
   1   6  -9    2.00    1.50
  -1  -6   9    1.60    1.40
  -1  -6   9    3.80    1.30
  -1  -6   9    2.60    1.30
   0   6  -9   -1.30    1.30
   0  -6   9    1.70    1.40
  -1   6  -9    1.80    1.40
   1  -6   9    1.80    1.40
  -2   6  -9    0.80    1.40
   2  -6   9   -1.10    1.20
  -3   6  -9    0.10    1.50
   3  -6   9   -0.60    1.40
   9   5  -9    0.40    1.50
   9   5  -9   -1.90    1.40
  -9  -5   9    1.00    2.10
  -9  -5   9   -1.00    1.40
   8   5  -9    6.00    1.70
   8   5  -9    3.80    1.70
   8   5  -9    6.80    1.90
  -8  -5   9   10.20    2.70
  -8  -5   9    1.30    1.50
   7   5  -9    0.30    1.20
   7   5  -9   -0.70    1.20
   7   5  -9    0.10    1.20
  -7  -5   9    3.60    2.00
  -7  -5   9   -1.40    1.00
   6   5  -9    1.30    1.30
   6   5  -9   -0.10    1.10
  -6  -5   9    0.50    1.10
  -6  -5   9    0.80    1.60
  -6  -5   9   -0.40    1.10
   5   5  -9   14.40    2.20
   5   5  -9   11.20    1.80
  -5  -5   9   11.60    2.40
  -5  -5   9   14.80    1.90
  -5  -5   9   18.90    2.50
  -5  -5   9   15.50    2.00
   4   5  -9   26.80    2.70
  -4  -5   9   20.20    2.20
  -4  -5   9   24.50    2.30
  -4  -5   9   28.80    2.60
  -4  -5   9   19.90    2.80
   3   5  -9    3.90    1.40
  -3  -5   9    5.30    1.20
  -3  -5   9    4.20    1.80
  -3  -5   9    2.30    1.10
   2   5  -9   -0.80    1.20
   2   5  -9    1.00    0.90
  -2  -5   9   -0.60    0.90
  -2  -5   9    2.80    1.60
   1   5  -9   -0.80    1.10
   1   5  -9    1.30    1.20
  -1  -5   9    2.40    1.40
  -1  -5   9    0.90    1.10
   0   5  -9   -1.10    1.00
   0  -5   9    0.10    1.20
  -1   5  -9    2.50    1.50
   1  -5   9    2.80    1.60
  -2   5  -9    0.30    1.40
   2  -5   9   -0.10    1.30
  -3   5  -9   16.30    2.40
   3  -5   9   12.90    2.40
   9   4  -9    0.60    1.40
   9   4  -9    4.90    1.60
   9   4  -9    0.60    1.40
  -9  -4   9    1.20    2.10
  -9  -4   9    3.00    1.40
   8   4  -9    0.10    1.20
   8   4  -9    1.20    1.30
   8   4  -9    1.80    1.40
  -8  -4   9    1.40    1.40
  -8  -4   9    0.70    2.10
   7   4  -9    3.20    1.40
   7   4  -9    2.10    1.30
   7   4  -9    3.60    1.50
  -7  -4   9    6.50    1.60
  -7  -4   9    4.70    2.20
   6   4  -9    1.40    1.10
   6   4  -9   -1.50    0.90
   6   4  -9   -0.70    1.00
  -6  -4   9    1.50    1.70
  -6  -4   9    1.10    1.00
  -6  -4   9    1.20    1.10
  -6  -4   9    0.00    1.60
   5   4  -9   20.00    2.30
   5   4  -9   16.60    1.90
  -5  -4   9   14.60    1.80
  -5  -4   9   16.00    2.60
  -5  -4   9   15.40    2.40
  -5  -4   9   18.60    2.00
   4   4  -9   -0.90    1.00
   4   4  -9    1.00    0.90
  -4  -4   9    2.60    1.00
  -4  -4   9    0.90    1.50
  -4  -4   9    1.80    0.90
  -4  -4   9    3.00    1.40
   3   4  -9    8.30    1.60
  -3  -4   9    8.20    1.30
  -3  -4   9    8.20    2.10
  -3  -4   9    7.40    1.30
   2   4  -9    8.30    1.60
   2   4  -9    5.10    1.70
  -2  -4   9    6.70    1.80
   1   4  -9   28.00    2.60
  -1  -4   9   21.10    2.30
  -1  -4   9   25.40    2.60
   0   4  -9    0.00    1.10
   0  -4   9    0.40    1.30
  -1   4  -9    5.20    1.70
   1  -4   9    5.50    1.50
  -2   4  -9   -0.10    1.30
   2  -4   9    0.00    1.30
  -3   4  -9   16.30    2.40
   3  -4   9   20.30    2.80
  10   3  -9    6.90    1.90
  10   3  -9    3.70    1.80
  10   3  -9    1.40    1.40
 -10  -3   9    3.80    1.60
 -10  -3   9    6.40    2.50
   9   3  -9    1.60    1.30
   9   3  -9   -0.80    1.20
   9   3  -9    0.40    1.30
  -9  -3   9    0.00    1.20
  -9  -3   9   -0.40    1.80
   8   3  -9   -0.90    1.10
   8   3  -9    1.50    1.10
   8   3  -9    0.60    1.10
  -8  -3   9    0.70    1.10
  -8  -3   9   -0.50    1.90
   7   3  -9   -0.50    0.90
   7   3  -9   -1.40    1.00
   7   3  -9    0.30    1.00
  -7  -3   9    0.20    1.00
  -7  -3   9    0.20    1.70
   6   3  -9    2.20    1.20
   6   3  -9    2.90    1.10
   6   3  -9    4.50    1.30
  -6  -3   9    4.90    2.00
  -6  -3   9    1.80    1.80
  -6  -3   9    3.80    1.20
   5   3  -9    8.30    1.50
   5   3  -9    9.50    1.70
  -5  -3   9    7.50    1.20
  -5  -3   9    9.70    2.10
  -5  -3   9    8.20    1.30
  -5  -3   9    9.10    2.00
   4   3  -9   -0.80    0.90
   4   3  -9   -0.50    0.70
  -4  -3   9   -1.00    1.30
  -4  -3   9   -0.10    0.70
  -4  -3   9   -2.40    1.30
  -4  -3   9    1.10    0.70
   3   3  -9    0.50    0.80
   3   3  -9    1.60    1.00
  -3  -3   9    0.50    1.20
  -3  -3   9    2.50    1.60
   2   3  -9    1.20    1.00
  -2  -3   9   -1.20    1.30
   1   3  -9    0.00    0.90
  -1  -3   9   -1.40    1.10
  -1  -3   9    0.10    1.00
   0   3  -9    6.00    1.50
   0  -3   9    7.90    1.70
  -1   3  -9    2.00    1.30
   1  -3   9   -0.20    1.10
  -2   3  -9    4.60    1.60
   2  -3   9   -0.20    1.30
  -3   3  -9    6.40    1.80
   3  -3   9    4.10    1.80
   4  -3   9    2.80    1.60
  10   2  -9    0.00    1.30
  10   2  -9    0.20    1.10
  10   2  -9    0.90    1.20
 -10  -2   9    0.90    2.00
 -10  -2   9   -0.20    1.20
   9   2  -9    2.90    1.30
   9   2  -9    2.60    1.40
   9   2  -9    2.70    1.30
  -9  -2   9    2.80    2.10
  -9  -2   9    1.30    1.20
   8   2  -9    0.60    1.00
   8   2  -9    0.50    1.30
   8   2  -9    1.70    1.10
  -8  -2   9   -0.80    1.00
  -8  -2   9    5.20    2.20
   7   2  -9    3.30    1.10
   7   2  -9    4.20    1.40
   7   2  -9    4.00    1.10
  -7  -2   9    3.80    1.90
  -7  -2   9    4.40    1.20
  -7  -2   9    1.00    1.90
   6   2  -9    0.50    0.90
   6   2  -9    0.50    0.80
   6   2  -9    2.00    1.10
  -6  -2   9    1.60    1.70
  -6  -2   9    0.60    1.60
  -6  -2   9    0.60    0.80
   5   2  -9   11.50    1.70
   5   2  -9   11.00    1.60
   5   2  -9   13.40    1.50
  -5  -2   9   11.40    1.40
  -5  -2   9   12.40    1.40
  -5  -2   9   12.10    2.10
  -5  -2   9   13.20    2.40
   4   2  -9   15.10    1.80
   4   2  -9   13.20    1.70
  -4  -2   9   13.70    2.20
  -4  -2   9   11.60    2.20
   3   2  -9   28.20    2.20
   3   2  -9   27.50    2.00
  -3  -2   9   27.40    2.70
  -3  -2   9   30.00    2.80
   2   2  -9    2.00    1.00
   2   2  -9    2.60    0.80
  -2  -2   9    0.00    1.20
   1   2  -9   12.60    1.80
  -1  -2   9   13.40    2.10
  -1  -2   9   15.80    2.00
   0   2  -9    9.50    1.60
   0   2  -9    8.60    1.50
   0  -2   9    7.60    1.60
  -1   2  -9   11.70    2.00
  -1   2  -9   13.70    1.80
   1  -2   9   12.10    1.90
  -2   2  -9   -0.60    1.20
  -2   2  -9    0.60    1.00
   2  -2   9    0.10    1.20
  -3   2  -9    2.20    1.90
   3  -2   9    0.10    1.30
   4  -2   9    0.50    1.30
  10   1  -9   -3.40    1.20
  10   1  -9    1.80    1.00
  10   1  -9    1.30    1.30
 -10  -1   9    5.10    2.60
 -10  -1   9    5.00    1.70
 -10  -1   9    2.80    1.40
   9   1  -9    1.10    0.90
   9   1  -9    0.80    1.10
   9   1  -9   -0.70    1.20
  -9  -1   9    1.70    1.20
  -9  -1   9   -1.00    1.80
  -9  -1   9    1.50    1.20
   8   1  -9    7.10    1.40
   8   1  -9    3.20    1.40
   8   1  -9    2.10    0.90
  -8  -1   9    4.30    2.10
  -8  -1   9    2.40    1.10
   7   1  -9    4.60    1.10
   7   1  -9    3.70    1.40
   7   1  -9    6.60    1.20
  -7  -1   9    5.20    1.20
  -7  -1   9    4.90    2.10
  -7  -1   9    5.40    2.00
   6   1  -9    1.40    1.10
   6   1  -9    0.80    0.90
   6   1  -9    0.70    0.70
  -6  -1   9    2.50    1.80
  -6  -1   9    1.50    0.90
  -6  -1   9    0.40    1.60
   5   1  -9   33.50    2.50
   5   1  -9   32.70    2.20
  -5  -1   9   30.10    2.90
  -5  -1   9   34.50    3.20
   4   1  -9   32.10    2.10
   4   1  -9   32.60    2.30
  -4  -1   9   27.60    3.00
  -4  -1   9   29.30    3.00
   3   1  -9    6.10    1.20
   3   1  -9    4.60    1.10
  -3  -1   9    5.30    1.70
  -3  -1   9    6.60    1.80
   2   1  -9   14.90    1.70
   2   1  -9   13.70    1.50
  -2  -1   9   13.30    1.90
  -2  -1   9   12.70    2.10
   1   1  -9    1.60    0.80
   1   1  -9    0.80    0.90
   1   1  -9    0.90    1.00
  -1  -1   9    3.00    1.10
  -1  -1   9    2.00    1.30
   0   1  -9    4.60    1.30
   0   1  -9    2.00    1.00
   0  -1   9    5.70    1.50
   0  -1   9    5.70    1.30
  -1   1  -9   35.10    2.70
  -1   1  -9   31.80    2.50
   1  -1   9   26.00    2.60
  -2   1  -9   -0.40    1.10
  -2   1  -9   -1.00    1.00
   2  -1   9   -1.90    1.00
  -3   1  -9   -0.70    1.00
   3  -1   9    0.80    1.40
  -4   1  -9    2.40    1.30
   4  -1   9   -0.50    1.30
  11   0  -9    2.30    1.60
  11   0  -9    1.80    1.40
 -11   0   9    6.00    2.60
 -11   0   9    2.30    1.50
 -11   0   9    3.30    1.50
  10   0  -9    1.30    1.10
  10   0  -9    2.30    1.60
  10   0  -9    5.70    1.60
 -10   0   9    2.40    2.20
 -10   0   9    3.20    1.50
 -10   0   9    2.60    1.30
   9   0  -9    2.30    1.20
   9   0  -9    0.80    1.30
   9   0  -9    2.10    0.90
  -9   0   9    0.30    2.00
  -9   0   9    2.80    1.30
  -9   0   9    2.80    1.30
   8   0  -9    3.20    1.00
   8   0  -9    3.10    1.50
   8   0  -9    5.50    1.30
  -8   0   9    7.10    2.40
  -8   0   9    5.20    1.30
  -8   0   9    3.70    1.20
   7   0  -9   18.90    2.60
   7   0  -9   16.00    2.10
   7   0  -9   17.90    1.80
  -7   0   9   17.90    2.80
  -7   0   9   18.00    2.80
   6   0  -9    0.60    0.70
   6   0  -9    0.90    1.00
  -6   0   9   -1.40    1.50
  -6   0   9    1.50    1.60
   5   0  -9    1.40    1.00
   5   0  -9    1.20    0.80
  -5   0   9   -0.50    1.50
  -5   0   9    1.60    1.40
   4   0  -9    1.00    0.90
   4   0  -9    1.70    0.80
  -4   0   9    1.20    1.50
  -4   0   9    3.50    1.60
   3   0  -9    1.20    0.90
   3   0  -9    0.40    0.80
  -3   0   9    1.20    1.40
  -3   0   9    2.10    1.40
   2   0  -9    7.20    1.30
   2   0  -9    8.70    1.40
  -2   0   9    5.80    1.70
  -2   0   9    5.40    1.60
   1   0  -9    7.60    1.50
   1   0  -9    9.50    1.30
   1   0  -9   12.50    1.70
  -1   0   9   11.80    1.60
  -1   0   9   12.50    2.00
  -1   0   9   11.40    1.60
   0   0  -9    0.10    1.00
   0   0  -9    0.50    0.90
   0   0   9    0.90    0.90
   0   0   9    0.60    1.00
  -1   0  -9    1.80    1.30
  -1   0  -9    2.30    1.20
   1   0   9    2.10    1.20
  -2   0  -9   10.10    2.00
   2   0   9   13.60    2.00
  -3   0  -9    2.50    1.40
   3   0   9   -1.20    1.10
  -4   0  -9    2.80    1.40
   4   0   9   -0.30    1.40
  11  -1  -9    4.80    1.60
  11  -1  -9    0.20    1.60
 -11   1   9    2.90    2.50
 -11   1   9    3.30    1.50
 -11   1   9    5.90    1.70
  10  -1  -9   -1.50    1.30
  10  -1  -9    2.40    1.30
 -10   1   9    1.60    1.20
 -10   1   9    0.30    1.20
 -10   1   9   -1.50    2.10
   9  -1  -9    0.50    1.00
   9  -1  -9    0.90    1.30
  -9   1   9    0.40    1.20
  -9   1   9    2.70    2.30
   8  -1  -9    8.60    1.70
   8  -1  -9    9.50    1.30
  -8   1   9    9.90    2.40
   7  -1  -9    6.80    1.10
   7  -1  -9    6.20    1.50
  -7   1   9    9.80    2.30
  -7   1   9    7.70    2.40
   6  -1  -9   -0.60    0.60
   6  -1  -9   -1.20    0.90
  -6   1   9   -0.60    1.40
  -6   1   9    1.10    1.50
   5  -1  -9    3.00    1.10
   5  -1  -9    1.40    0.80
  -5   1   9    1.80    1.50
  -5   1   9    1.30    1.50
   4  -1  -9    6.90    1.20
   4  -1  -9    3.90    1.20
  -4   1   9    5.70    1.70
  -4   1   9    5.30    1.80
   3  -1  -9   10.20    1.30
   3  -1  -9    8.30    1.40
  -3   1   9   10.60    2.00
  -3   1   9   10.10    1.90
   2  -1  -9   40.60    2.80
   2  -1  -9   38.50    2.30
   2  -1  -9   41.40    2.60
  -2   1   9   42.70    3.00
  -2   1   9   40.00    2.40
  -2   1   9   41.10    2.50
  -2   1   9   43.70    3.00
   1  -1  -9    6.70    1.50
   1  -1  -9    8.80    1.40
   1  -1  -9    7.50    1.40
  -1   1   9    5.30    1.30
  -1   1   9   12.00    1.90
  -1   1   9    8.90    1.50
   0  -1  -9   10.30    1.90
   0  -1  -9   13.40    1.70
   0   1   9   11.90    1.70
   0   1   9   14.20    1.90
  -1  -1  -9    1.50    1.30
   1   1   9    1.30    1.20
  -2  -1  -9   -0.30    1.20
   2   1   9    1.30    1.30
  -3  -1  -9    9.00    2.10
   3   1   9   11.90    2.00
  -4  -1  -9    8.40    2.00
   4   1   9   11.40    2.10
  11  -2  -9    0.20    1.40
 -11   2   9   -1.70    1.90
  10  -2  -9    4.10    1.70
 -10   2   9    0.80    2.30
   9  -2  -9    1.70    1.30
  -9   2   9    1.60    2.00
   8  -2  -9   13.60    2.10
  -8   2   9   19.20    3.10
   7  -2  -9    3.00    1.20
  -7   2   9    1.30    1.70
  -7   2   9    3.10    1.80
   6  -2  -9    2.00    0.70
   6  -2  -9    0.80    1.00
  -6   2   9   -1.20    1.40
  -6   2   9    2.30    1.60
   5  -2  -9    3.80    1.30
   5  -2  -9    5.20    1.00
  -5   2   9    6.60    2.00
  -5   2   9    4.30    1.70
   4  -2  -9   21.90    1.60
   4  -2  -9   20.70    2.10
  -4   2   9   18.40    2.60
  -4   2   9   22.10    1.90
  -4   2   9   20.30    2.60
   3  -2  -9   14.20    1.80
   3  -2  -9    9.10    1.30
  -3   2   9   12.80    2.00
  -3   2   9   16.70    2.40
  -3   2   9   14.90    1.60
  -3   2   9   13.60    1.60
   2  -2  -9   17.90    1.90
   2  -2  -9   17.80    1.70
   2  -2  -9   16.40    2.10
  -2   2   9   16.20    1.80
  -2   2   9   16.40    2.30
  -2   2   9   16.80    2.20
  -2   2   9   19.00    1.90
   1  -2  -9    3.10    1.40
   1  -2  -9    2.60    1.00
   1  -2  -9    1.00    0.90
  -1   2   9    4.50    1.60
  -1   2   9    1.20    0.90
  -1   2   9    1.20    1.00
  -1   2   9    2.30    1.30
   0  -2  -9   12.40    2.10
   0   2   9   16.10    1.90
   0   2   9   13.40    1.80
  -1  -2  -9    0.10    1.00
   1   2   9    0.50    1.00
  -2  -2  -9   -0.20    1.30
   2   2   9    2.10    1.20
  -3  -2  -9    8.00    2.10
   3   2   9    7.80    1.70
  11  -3  -9   -1.60    1.30
 -11   3   9    0.40    2.20
  10  -3  -9   -0.90    1.20
 -10   3   9   -0.30    2.10
   9  -3  -9   -1.70    1.10
  -9   3   9   -2.80    1.90
   8  -3  -9    1.90    1.30
  -8   3   9    0.20    2.00
   7  -3  -9    0.40    1.10
  -7   3   9    5.20    2.00
   6  -3  -9    8.30    1.70
   6  -3  -9    5.60    1.70
  -6   3   9   10.30    2.30
  -6   3   9    8.80    2.20
   5  -3  -9    6.00    1.60
   5  -3  -9    7.90    1.60
  -5   3   9    6.10    1.90
  -5   3   9    5.10    1.90
  -5   3   9    5.60    1.30
   4  -3  -9    0.40    1.30
   4  -3  -9   -0.10    0.80
  -4   3   9   -0.90    1.20
  -4   3   9    1.20    1.50
  -4   3   9    0.60    0.80
   3  -3  -9    0.30    0.90
   3  -3  -9    2.70    0.80
   3  -3  -9    1.70    1.30
  -3   3   9    4.30    1.70
  -3   3   9    4.10    1.10
  -3   3   9    3.00    0.90
  -3   3   9    2.40    1.50
  -3   3   9    3.90    1.10
   2  -3  -9    3.40    0.90
   2  -3  -9    1.80    1.20
   2  -3  -9    0.90    1.00
   2  -3  -9    2.10    1.30
  -2   3   9    3.70    1.40
  -2   3   9    4.00    1.60
  -2   3   9    2.10    1.00
  -2   3   9    1.20    1.10
  -2   3   9    2.60    1.00
   1  -3  -9   10.10    1.80
   1  -3  -9   11.90    2.00
  -1   3   9   16.10    1.80
  -1   3   9   13.60    2.10
  -1   3   9   18.70    2.30
  -1   3   9   15.00    2.10
  -1   3   9   12.00    1.60
   0  -3  -9    2.20    1.30
   0  -3  -9   -2.10    1.00
   0   3   9    0.80    1.00
   0   3   9    0.90    1.00
  -1  -3  -9   -0.10    1.30
   1   3   9    0.00    0.90
  -2  -3  -9    1.60    1.50
   2   3   9    2.60    1.20
  -3  -3  -9    9.50    2.10
  10  -4  -9    2.40    1.70
 -10   4   9    0.90    2.40
   9  -4  -9    0.20    1.30
  -9   4   9    0.20    2.10
   8  -4  -9    1.60    1.20
   8  -4  -9    2.10    1.50
  -8   4   9    2.20    2.20
   7  -4  -9    3.40    1.50
   7  -4  -9    1.20    1.30
  -7   4   9    0.10    1.20
  -7   4   9    4.90    2.00
   6  -4  -9    5.50    1.80
   6  -4  -9    5.00    1.40
  -6   4   9    5.80    2.40
  -6   4   9    4.60    2.00
  -6   4   9    3.80    1.40
   5  -4  -9    9.80    1.90
   5  -4  -9    8.00    1.60
  -5   4   9   11.10    2.30
  -5   4   9    8.90    1.60
   4  -4  -9    3.90    1.50
   4  -4  -9    0.90    1.00
  -4   4   9    2.70    1.60
  -4   4   9    1.10    1.00
   3  -4  -9   -0.60    0.80
   3  -4  -9   -1.20    1.10
  -3   4   9   -1.00    0.80
  -3   4   9   -0.30    0.90
  -3   4   9   -2.20    1.20
   2  -4  -9   -1.00    1.10
   2  -4  -9   -0.90    1.00
   2  -4  -9   -0.40    1.10
  -2   4   9    0.20    0.70
  -2   4   9   -1.20    0.90
  -2   4   9   -0.10    0.90
  -2   4   9    0.90    1.30
   1  -4  -9   -0.80    1.10
   1  -4  -9    0.60    1.30
  -1   4   9    0.40    1.00
  -1   4   9   -0.10    0.80
  -1   4   9    0.90    1.20
  -1   4   9    1.20    0.90
  -1   4   9    2.20    1.30
   0  -4  -9    2.90    1.50
   0  -4  -9    1.70    1.30
   0   4   9    4.50    1.70
   0   4   9    2.90    1.10
  -1  -4  -9    1.00    1.20
  -1  -4  -9    1.40    1.50
   1   4   9    1.90    1.70
  -2  -4  -9    4.90    2.00
   2   4   9    7.90    2.30
  10  -5  -9    0.40    1.20
 -10   5   9    2.40    2.40
   9  -5  -9    2.00    1.50
   9  -5  -9    0.40    1.50
  -9   5   9    0.80    2.00
   8  -5  -9   -1.10    1.20
   8  -5  -9    1.80    1.40
  -8   5   9   -2.60    1.40
  -8   5   9    3.40    2.10
   7  -5  -9   10.80    2.00
   7  -5  -9   10.30    2.10
  -7   5   9   11.20    2.20
  -7   5   9   16.50    2.80
   6  -5  -9    5.60    1.70
   6  -5  -9    1.50    1.20
  -6   5   9    4.00    1.60
   5  -5  -9   22.00    2.50
   5  -5  -9   16.90    2.40
  -5   5   9   17.60    2.20
   4  -5  -9    4.90    1.70
   4  -5  -9    4.90    1.40
  -4   5   9    5.10    2.10
  -4   5   9    3.60    1.40
   3  -5  -9    3.30    1.20
   3  -5  -9    0.20    1.20
  -3   5   9    1.20    1.10
  -3   5   9    2.20    1.30
  -3   5   9    4.00    1.60
   2  -5  -9    7.70    1.60
   2  -5  -9    6.00    1.60
   2  -5  -9    6.40    1.90
  -2   5   9    5.70    1.50
  -2   5   9    6.40    1.70
  -2   5   9    5.50    1.50
   1  -5  -9    4.60    1.50
   1  -5  -9    2.50    1.50
  -1   5   9    3.80    1.40
  -1   5   9    3.90    1.50
  -1   5   9    7.90    1.80
   0  -5  -9    0.40    1.20
   0  -5  -9    2.30    1.50
   0   5   9   -1.20    1.20
  -1  -5  -9    3.30    1.60
  -1  -5  -9    2.80    1.40
   1   5   9    5.00    1.90
  -2  -5  -9    3.10    1.80
   2   5   9    4.40    2.00
   9  -6  -9    2.30    1.60
   9  -6  -9    1.50    1.40
  -9   6   9   -5.10    1.80
  -9   6   9    0.10    1.80
   8  -6  -9   -0.90    1.40
   8  -6  -9    1.90    1.40
  -8   6   9   -2.90    1.50
   7  -6  -9    1.20    1.30
   7  -6  -9   -0.30    1.30
  -7   6   9   -0.80    1.50
   6  -6  -9   12.50    2.10
   6  -6  -9   11.60    2.20
  -6   6   9   10.50    2.10
   5  -6  -9    1.20    1.20
   5  -6  -9    3.00    1.50
  -5   6   9   -0.50    1.20
   4  -6  -9    2.30    1.40
   4  -6  -9    1.20    1.50
  -4   6   9    1.40    1.30
   3  -6  -9    1.70    1.30
   3  -6  -9    0.80    1.50
  -3   6   9    3.10    1.40
   2  -6  -9    1.30    1.40
   2  -6  -9   -0.50    1.30
  -2   6   9   -0.20    1.10
  -2   6   9    2.40    1.40
   1  -6  -9    1.50    1.40
   1  -6  -9    0.90    1.40
  -1   6   9    0.30    1.30
  -1   6   9    1.30    1.20
   0  -6  -9    3.90    1.90
   0  -6  -9    6.00    1.80
   0   6   9    9.10    2.10
   0   6   9    5.40    1.90
  -1  -6  -9   -2.50    1.10
  -1  -6  -9   -0.70    1.30
   1   6   9    0.00    1.70
   8  -7  -9    1.40    1.30
   8  -7  -9   -0.90    1.40
  -8   7   9   -2.80    1.70
   7  -7  -9    1.80    1.60
   7  -7  -9    1.00    1.20
  -7   7   9   -2.00    1.50
   6  -7  -9    1.60    1.20
   6  -7  -9    2.00    1.50
  -6   7   9    0.70    1.70
   5  -7  -9    0.20    1.40
   5  -7  -9    1.30    1.20
  -5   7   9    2.90    1.70
   4  -7  -9    4.70    1.80
   4  -7  -9    4.10    1.60
  -4   7   9    2.80    1.60
   3  -7  -9   -0.10    1.30
  -3   7   9    2.90    1.60
   2  -7  -9    2.20    1.60
   2  -7  -9    1.00    1.50
  -2   7   9    0.50    1.30
  -2   7   9    1.80    1.30
   1  -7  -9    2.20    1.80
   1  -7  -9    0.10    1.40
  -1   7   9   -1.00    1.40
  -1   7   9    1.40    1.50
   0  -7  -9    8.60    2.00
   0  -7  -9    7.00    2.20
   0   7   9   11.30    2.30
   0   7   9    8.90    2.20
   7  -8  -9   -0.20    1.10
   7  -8  -9    0.20    1.50
  -7   8   9    0.00    1.70
   6  -8  -9    1.20    1.30
   6  -8  -9    2.10    1.60
  -6   8   9    0.80    1.70
   5  -8  -9    1.10    1.20
   5  -8  -9   -0.90    1.30
  -5   8   9    0.40    1.70
   4  -8  -9   -0.50    1.30
  -4   8   9   -2.00    1.30
   3  -8  -9   -2.10    1.20
  -3   8   9   -0.80    1.20
   2  -8  -9   -3.30    1.00
  -2   8   9    0.80    1.40
  -2   8   9   -1.80    1.30
   5   7 -10    1.50    1.60
  -5  -7  10    0.70    1.40
  -5  -7  10    3.70    2.20
  -5  -7  10    1.00    1.30
   4   7 -10    0.00    1.50
  -4  -7  10    1.70    1.70
  -4  -7  10   -1.10    1.30
  -4  -7  10    0.30    1.40
   3   7 -10    0.20    1.40
  -3  -7  10    0.40    1.40
  -3  -7  10    2.10    1.50
   2   7 -10    3.60    1.70
  -2  -7  10    9.60    2.20
  -2  -7  10    2.40    1.60
   1   7 -10    3.00    1.90
  -1  -7  10    3.10    1.60
   7   6 -10   -2.00    1.40
  -7  -6  10    0.70    1.40
  -7  -6  10    2.80    2.00
  -7  -6  10   -0.30    1.20
   6   6 -10   -1.20    1.50
  -6  -6  10    1.30    1.70
  -6  -6  10    1.50    1.40
  -6  -6  10    0.00    1.20
   5   6 -10    2.80    1.70
  -5  -6  10    1.30    1.30
  -5  -6  10    2.60    2.00
  -5  -6  10    3.70    1.50
   4   6 -10    1.80    1.50
  -4  -6  10    2.20    1.80
   3   6 -10    2.90    1.60
  -3  -6  10    4.90    1.80
   2   6 -10   13.90    2.30
  -2  -6  10   11.80    2.00
  -2  -6  10    9.20    2.20
   1   6 -10    1.20    1.60
  -1  -6  10    1.20    1.40
   0   6 -10   -2.10    1.30
   0  -6  10   -1.20    1.40
  -1   6 -10    2.20    1.60
   1  -6  10    3.40    1.70
   8   5 -10    4.30    1.60
   8   5 -10    3.70    1.80
   8   5 -10    1.20    1.50
  -8  -5  10    2.60    1.50
  -8  -5  10    4.30    1.70
  -8  -5  10    7.50    2.50
   7   5 -10    1.60    1.60
   7   5 -10   -0.20    1.20
  -7  -5  10    3.80    2.20
  -7  -5  10   -0.30    1.10
  -7  -5  10    0.10    1.20
   6   5 -10    2.20    1.70
  -6  -5  10    4.90    1.50
  -6  -5  10    1.20    1.30
  -6  -5  10    5.10    2.10
   5   5 -10    0.70    1.40
  -5  -5  10   -0.80    1.70
   4   5 -10    4.50    1.60
  -4  -5  10    5.40    2.00
   3   5 -10    0.70    1.30
  -3  -5  10    2.00    1.60
   2   5 -10    4.80    1.60
  -2  -5  10    6.20    1.90
  -2  -5  10    6.00    1.70
   1   5 -10    0.80    1.40
  -1  -5  10    3.00    1.60
   0   5 -10    1.40    1.40
   0  -5  10    2.50    1.50
  -1   5 -10    1.90    1.50
   1  -5  10    1.40    1.50
   8   4 -10    5.40    1.60
   8   4 -10    7.50    1.80
   8   4 -10    7.30    1.90
  -8  -4  10    6.20    1.60
  -8  -4  10    7.00    2.70
   7   4 -10   -0.50    1.30
   7   4 -10    0.90    1.10
   7   4 -10   -1.60    1.00
  -7  -4  10   -0.80    1.00
  -7  -4  10   -1.70    1.60
  -7  -4  10   -0.50    1.10
   6   4 -10    3.10    1.40
   6   4 -10    3.50    1.50
  -6  -4  10    3.90    2.00
   5   4 -10    5.80    1.80
  -5  -4  10    6.00    1.90
  -5  -4  10    6.00    2.20
   4   4 -10    3.50    1.50
  -4  -4  10    3.60    2.00
   3   4 -10    0.60    1.30
  -3  -4  10    3.40    1.90
   2   4 -10    8.70    1.90
  -2  -4  10    9.70    2.10
   1   4 -10    0.60    1.30
  -1  -4  10    1.70    1.30
   0   4 -10    1.10    1.40
   0  -4  10   -0.40    1.10
  -1   4 -10    2.40    1.50
   1  -4  10    4.30    1.70
  -2   4 -10    0.40    1.40
   2  -4  10   -0.80    1.40
   9   3 -10    0.50    1.20
   9   3 -10    0.50    1.20
   9   3 -10    0.20    1.30
  -9  -3  10   -1.70    2.30
  -9  -3  10    0.40    1.20
   8   3 -10   -0.90    1.10
   8   3 -10    0.70    1.60
   8   3 -10    1.60    1.20
  -8  -3  10    0.10    2.00
  -8  -3  10    0.80    2.10
   7   3 -10    3.00    1.40
   7   3 -10    2.30    1.30
  -7  -3  10    3.50    2.00
   6   3 -10    2.60    1.20
   6   3 -10    1.20    1.10
  -6  -3  10    0.60    1.70
   5   3 -10   10.40    1.80
   5   3 -10   12.30    1.80
  -5  -3  10   12.20    2.40
  -5  -3  10   12.80    2.40
   4   3 -10    0.60    0.90
   4   3 -10    0.30    1.10
  -4  -3  10    0.40    1.50
   3   3 -10    9.90    1.90
  -3  -3  10   11.00    2.30
   2   3 -10    0.80    1.10
  -2  -3  10   -1.00    1.40
   1   3 -10    5.70    1.60
  -1  -3  10    2.00    1.30
   0   3 -10   -0.80    1.20
   0  -3  10    0.60    1.30
  -1   3 -10    3.90    1.60
   1  -3  10    3.10    1.50
  -2   3 -10    3.50    1.60
   2  -3  10    1.50    1.60
   9   2 -10    2.50    1.40
   9   2 -10    3.00    1.40
  -9  -2  10    3.90    2.20
   8   2 -10   -0.10    1.30
   8   2 -10    0.50    1.00
  -8  -2  10    1.60    1.90
   7   2 -10   -1.40    1.00
   7   2 -10    1.00    1.00
  -7  -2  10   -0.80    1.80
   6   2 -10    1.40    1.10
   6   2 -10    1.40    1.00
  -6  -2  10   -1.50    1.70
  -6  -2  10   -0.80    1.80
   5   2 -10    0.30    1.00
   5   2 -10   -0.40    0.90
  -5  -2  10    1.80    1.70
  -5  -2  10   -0.90    1.60
   4   2 -10    2.20    1.10
   4   2 -10    2.50    1.20
  -4  -2  10    3.20    1.80
  -4  -2  10    1.50    1.60
   3   2 -10   19.40    2.10
   3   2 -10   22.30    2.00
  -3  -2  10   21.50    2.70
   2   2 -10    1.80    1.20
  -2  -2  10    0.70    1.40
   1   2 -10    1.50    1.30
  -1  -2  10    0.00    1.10
   0   2 -10   -0.60    1.10
   0  -2  10    1.30    1.30
  -1   2 -10   -0.20    1.30
   1  -2  10    1.40    1.30
  -2   2 -10    4.30    1.60
   2  -2  10    3.30    1.60
  10   1 -10   -1.00    0.80
  10   1 -10   -2.40    1.20
 -10  -1  10    0.70    2.40
   9   1 -10   -0.40    1.20
   9   1 -10    0.70    0.90
  -9  -1  10    1.30    2.40
   8   1 -10    2.30    1.40
   8   1 -10    1.20    1.00
  -8  -1  10    1.30    1.90
   7   1 -10   -0.40    1.10
   7   1 -10   -0.60    0.70
  -7  -1  10    0.80    2.00
   6   1 -10    0.60    0.90
   6   1 -10    0.20    1.00
  -6  -1  10   -0.80    1.70
  -6  -1  10   -0.20    1.70
   5   1 -10   -0.90    0.80
   5   1 -10    0.10    0.90
  -5  -1  10    0.60    1.70
  -5  -1  10   -1.50    1.60
   4   1 -10   25.70    2.40
   4   1 -10   26.30    2.30
  -4  -1  10   27.80    3.20
  -4  -1  10   25.00    3.00
   3   1 -10   13.10    1.80
   3   1 -10    8.10    1.40
  -3  -1  10   13.60    2.40
   2   1 -10    0.60    0.80
   2   1 -10    0.50    1.20
  -2  -1  10    3.00    1.60
   1   1 -10    1.90    1.20
  -1  -1  10    3.70    1.50
   0   1 -10    6.80    1.60
   0   1 -10    9.90    1.80
   0  -1  10    7.90    1.80
  -1   1 -10    3.70    1.40
  -1   1 -10    2.30    1.40
   1  -1  10    1.50    1.30
  -2   1 -10    0.40    1.10
   2  -1  10    1.00    1.40
  10   0 -10   -0.10    1.50
 -10   0  10   -0.20    2.30
   9   0 -10    0.70    1.20
  -9   0  10    2.00    2.10
   8   0 -10   -0.60    1.00
   8   0 -10   -0.50    0.80
  -8   0  10   -1.30    1.90
   7   0 -10    1.20    1.20
   7   0 -10    1.10    0.90
  -7   0  10   -0.30    1.60
   6   0 -10    0.20    1.00
   6   0 -10    1.60    1.00
  -6   0  10    0.80    1.70
  -6   0  10    0.70    1.70
   5   0 -10    0.20    0.90
   5   0 -10    0.50    0.90
  -5   0  10   -2.00    1.60
  -5   0  10    1.30    1.60
   4   0 -10    5.50    1.20
   4   0 -10    5.70    1.30
  -4   0  10    5.30    1.90
  -4   0  10    6.80    2.00
   3   0 -10    0.80    0.90
   3   0 -10    0.10    0.90
  -3   0  10   -1.90    1.30
  -3   0  10   -0.50    1.50
   2   0 -10    4.20    1.10
   2   0 -10    5.70    1.40
  -2   0  10    5.10    1.80
   1   0 -10    2.60    1.00
   1   0 -10    0.10    1.10
   1   0 -10   -0.10    1.00
  -1   0  10    1.00    1.20
   0   0 -10   13.50    1.90
   0   0 -10   15.70    2.20
   0   0  10   14.60    2.00
  -1   0 -10    0.70    1.20
  -1   0 -10   -0.50    1.10
   1   0  10    0.40    1.20
  -2   0 -10    0.00    1.10
   2   0  10    1.50    1.30
  10  -1 -10    6.90    1.90
 -10   1  10    6.90    2.80
   9  -1 -10    0.80    1.20
  -9   1  10   -0.50    2.00
   8  -1 -10    0.30    1.10
  -8   1  10    1.70    2.10
   7  -1 -10    3.00    1.60
   7  -1 -10    4.90    1.50
  -7   1  10    4.00    2.10
   6  -1 -10   20.50    2.40
   6  -1 -10   14.60    1.70
  -6   1  10   17.50    3.00
  -6   1  10   13.90    2.70
   5  -1 -10   16.30    2.00
   5  -1 -10   15.20    1.70
  -5   1  10   15.90    2.70
  -5   1  10   13.60    2.60
   4  -1 -10    0.20    0.90
   4  -1 -10    0.00    0.80
  -4   1  10   -1.40    1.40
  -4   1  10   -0.80    1.50
   3  -1 -10   17.50    2.00
   3  -1 -10   17.70    1.80
  -3   1  10   16.60    2.50
  -3   1  10   17.50    2.50
   2  -1 -10   12.80    1.70
   2  -1 -10   11.00    1.70
  -2   1  10    9.20    1.60
  -2   1  10    6.90    1.90
   1  -1 -10    0.10    0.90
   1  -1 -10   -0.20    1.20
  -1   1  10   -1.20    1.00
  -1   1  10   -0.20    1.00
   0  -1 -10    2.50    1.20
   0  -1 -10   -1.00    1.00
   0   1  10    1.00    1.20
  -1  -1 -10    1.00    1.40
   1   1  10    2.60    1.30
  -2  -1 -10    1.90    1.50
   2   1  10    1.40    1.30
  10  -2 -10   -0.30    1.30
 -10   2  10   -4.00    2.10
   9  -2 -10   -0.50    1.10
  -9   2  10    0.30    2.20
   8  -2 -10    5.30    1.70
  -8   2  10    4.20    2.30
   7  -2 -10   -0.10    1.10
  -7   2  10    0.60    1.70
   6  -2 -10   16.30    2.10
  -6   2  10   17.20    2.90
   5  -2 -10    2.30    1.10
  -5   2  10    0.60    1.80
  -5   2  10    4.20    1.80
   4  -2 -10    6.20    1.10
   4  -2 -10    6.00    1.40
  -4   2  10    6.80    2.10
  -4   2  10    4.10    1.80
  -4   2  10    6.00    1.20
   3  -2 -10    9.00    1.60
   3  -2 -10    9.80    1.40
  -3   2  10   10.20    1.50
  -3   2  10    8.20    2.00
  -3   2  10   10.10    2.10
   2  -2 -10   -0.80    0.80
   2  -2 -10    0.90    1.20
   2  -2 -10    0.90    0.90
  -2   2  10    2.20    1.00
  -2   2  10   -0.20    0.80
  -2   2  10   -2.10    1.30
   1  -2 -10    6.80    1.40
   1  -2 -10    7.70    1.80
  -1   2  10   11.90    1.80
  -1   2  10    6.50    1.60
   0  -2 -10   -0.50    1.10
   0   2  10    1.10    1.10
  -1  -2 -10    0.00    1.20
   1   2  10    0.00    1.10
  -2  -2 -10    6.40    2.00
   2   2  10    5.00    1.50
  10  -3 -10    1.40    1.50
 -10   3  10    0.50    2.30
   9  -3 -10   -0.30    1.30
  -9   3  10    2.20    2.30
   8  -3 -10   -0.30    1.10
  -8   3  10    0.80    1.90
   7  -3 -10   -0.10    1.00
  -7   3  10    0.80    1.70
   6  -3 -10    9.00    1.80
  -6   3  10   11.90    2.60
   5  -3 -10    4.10    1.30
  -5   3  10    4.60    2.20
  -5   3  10    5.90    2.00
   4  -3 -10   14.40    2.40
   4  -3 -10   12.10    1.80
  -4   3  10   12.60    2.50
  -4   3  10   17.10    2.80
   3  -3 -10    4.30    1.30
   3  -3 -10    2.10    1.50
  -3   3  10    1.40    1.60
  -3   3  10   -0.10    1.60
   2  -3 -10   -0.90    1.10
   2  -3 -10    0.90    1.00
  -2   3  10   -0.20    0.80
  -2   3  10   -0.50    1.00
  -2   3  10    0.00    1.50
  -2   3  10    0.00    0.90
  -2   3  10   -0.30    0.80
   1  -3 -10    8.40    2.00
  -1   3  10    7.10    1.40
  -1   3  10    5.20    1.70
  -1   3  10    6.20    1.50
   0  -3 -10    0.10    1.20
   0   3  10   -1.40    1.00
   0   3  10   -1.60    1.30
  -1  -3 -10   12.80    2.50
   1   3  10    9.30    2.50
  10  -4 -10    1.50    1.40
 -10   4  10   -2.60    1.80
   9  -4 -10   -1.70    1.20
  -9   4  10    1.30    2.10
   8  -4 -10    2.80    1.50
  -8   4  10   -0.40    2.10
   7  -4 -10    3.70    1.50
   7  -4 -10    4.70    1.90
  -7   4  10    6.90    2.40
   6  -4 -10   13.60    2.40
   6  -4 -10   19.00    2.40
  -6   4  10   12.90    2.60
   5  -4 -10    0.50    1.50
   5  -4 -10   -0.90    1.00
  -5   4  10    1.40    1.60
   4  -4 -10   -1.10    1.40
   4  -4 -10    0.40    1.00
  -4   4  10    1.10    1.60
  -4   4  10   -0.90    0.90
   3  -4 -10    0.90    1.10
   3  -4 -10   -2.10    1.20
  -3   4  10    0.50    1.50
  -3   4  10    0.30    1.00
   2  -4 -10    3.20    1.60
   2  -4 -10    2.40    1.20
   2  -4 -10    5.30    1.70
  -2   4  10    2.90    1.40
  -2   4  10    5.70    1.90
  -2   4  10    4.50    2.70
  -2   4  10    5.50    1.50
   1  -4 -10   -1.10    1.40
   1  -4 -10   -1.00    1.30
  -1   4  10    1.20    1.30
  -1   4  10    1.10    1.10
   0  -4 -10    0.80    1.60
   0   4  10    0.80    1.50
  -1  -4 -10    4.30    1.90
   1   4  10    5.80    2.10
   9  -5 -10    0.10    1.30
  -9   5  10    2.90    2.30
   8  -5 -10    0.00    1.50
   8  -5 -10   -0.90    1.30
  -8   5  10    2.60    2.00
   7  -5 -10   27.00    3.00
   7  -5 -10   23.10    3.00
  -7   5  10   28.00    3.70
   6  -5 -10    5.20    2.00
   6  -5 -10   10.60    2.00
  -6   5  10   12.20    2.60
   5  -5 -10    5.10    1.50
   5  -5 -10   10.50    2.10
  -5   5  10    5.20    1.70
  -5   5  10    7.60    2.20
   4  -5 -10    9.70    2.10
   4  -5 -10    7.30    1.60
  -4   5  10    7.00    1.70
   3  -5 -10    5.90    1.60
   3  -5 -10    3.00    1.60
  -3   5  10    4.90    1.40
   2  -5 -10    1.60    1.60
   2  -5 -10    2.60    1.60
  -2   5  10    1.00    1.60
  -2   5  10    4.80    1.60
  -2   5  10    0.70    1.20
   1  -5 -10    6.50    2.10
   1  -5 -10    5.10    1.70
  -1   5  10    6.40    1.70
  -1   5  10    8.60    2.00
   0  -5 -10   -0.20    1.40
   0  -5 -10   -1.70    1.30
   0   5  10    0.00    1.20
   0   5  10    0.40    1.60
   8  -6 -10    3.20    1.60
   8  -6 -10    1.30    1.60
  -8   6  10    6.70    2.50
   7  -6 -10   10.20    2.00
   7  -6 -10    5.80    2.00
  -7   6  10   13.70    2.70
   6  -6 -10    1.20    1.60
   6  -6 -10    1.90    1.40
  -6   6  10    1.00    1.60
   5  -6 -10    7.20    1.70
   5  -6 -10    6.90    2.00
  -5   6  10    4.10    1.70
   4  -6 -10    5.20    1.90
   4  -6 -10    1.70    1.40
  -4   6  10    2.90    1.60
   3  -6 -10    1.00    1.60
  -3   6  10    1.30    1.40
   2  -6 -10    1.50    1.60
  -2   6  10    2.70    1.50
   1  -6 -10    2.60    1.70
   1  -6 -10    1.20    1.50
  -1   6  10   -0.40    1.50
  -1   6  10    2.00    1.50
   7  -7 -10   -1.00    1.20
   7  -7 -10   -4.00    1.10
  -7   7  10   -3.70    1.50
   6  -7 -10    2.40    1.80
   6  -7 -10    3.10    1.50
  -6   7  10    1.60    1.70
   5  -7 -10    4.00    1.50
   5  -7 -10    7.30    2.00
  -5   7  10    4.40    1.90
   4  -7 -10    0.10    1.30
   4  -7 -10   -0.20    1.60
  -4   7  10   -0.20    1.40
   3  -7 -10    4.60    1.90
  -3   7  10    6.70    1.80
   4   6 -11    1.60    1.70
  -4  -6  11    2.90    1.80
   3   6 -11   -0.40    1.40
  -3  -6  11    1.20    1.50
  -3  -6  11    5.20    1.80
   6   5 -11    2.90    1.80
  -6  -5  11    3.50    2.10
   5   5 -11    0.50    1.40
  -5  -5  11    1.10    1.70
   4   5 -11    1.40    1.60
  -4  -5  11    1.20    1.60
   3   5 -11    3.10    1.80
  -3  -5  11    2.20    1.70
   2   5 -11    0.40    1.30
  -2  -5  11    3.70    1.70
   1   5 -11   -2.20    1.30
  -1  -5  11    0.20    1.60
   7   4 -11   -1.20    2.10
   7   4 -11    4.30    1.80
  -7  -4  11    1.20    2.00
   6   4 -11   11.50    2.20
  -6  -4  11    7.10    2.60
   5   4 -11    7.70    1.80
  -5  -4  11    4.40    2.20
   4   4 -11    2.60    1.70
  -4  -4  11    0.70    1.80
   3   4 -11    1.20    1.40
  -3  -4  11    0.80    1.70
   2   4 -11    0.20    1.40
  -2  -4  11   -0.30    1.30
   1   4 -11    1.40    1.40
  -1  -4  11   -0.30    1.50
   0   4 -11    0.10    1.30
   0  -4  11   -0.90    1.50
   8   3 -11    1.10    1.40
   8   3 -11    0.40    1.20
  -8  -3  11   -1.80    1.80
   7   3 -11    7.80    1.80
   7   3 -11    7.10    1.80
  -7  -3  11   10.10    2.70
   6   3 -11    0.00    1.10
   6   3 -11    0.60    1.10
  -6  -3  11    3.10    2.00
   5   3 -11    0.70    1.30
  -5  -3  11    2.60    2.00
   4   3 -11    0.10    1.30
  -4  -3  11   -0.80    1.60
   3   3 -11   -0.10    1.20
  -3  -3  11   -2.00    1.40
   2   3 -11    2.80    1.40
  -2  -3  11    0.90    1.30
   1   3 -11    2.10    1.50
  -1  -3  11    1.90    1.40
   0   3 -11    1.10    1.50
   0  -3  11   -1.00    1.30
   8   2 -11    1.90    1.40
   8   2 -11    2.90    1.20
  -8  -2  11    4.90    2.60
   7   2 -11    8.30    1.80
   7   2 -11   10.30    1.80
  -7  -2  11   12.30    3.00
   6   2 -11   -1.40    1.00
   6   2 -11    0.80    1.20
  -6  -2  11    1.60    1.90
   5   2 -11    3.80    1.30
   5   2 -11    4.50    1.40
  -5  -2  11    1.80    2.00
   4   2 -11    7.30    1.70
  -4  -2  11    4.00    2.10
   3   2 -11    3.10    1.40
  -3  -2  11    3.70    2.00
   2   2 -11    6.40    1.70
  -2  -2  11   10.00    2.00
   1   2 -11   10.00    2.00
  -1  -2  11    6.30    1.80
   0   2 -11    3.40    1.50
   0  -2  11    4.60    1.70
  -1   2 -11    1.40    1.40
   1  -2  11    1.90    1.70
   9   1 -11    1.20    1.40
   9   1 -11    1.50    1.00
  -9  -1  11    0.20    2.20
   8   1 -11    1.90    1.40
   8   1 -11    1.10    1.00
  -8  -1  11    1.80    2.20
   7   1 -11    5.30    1.40
   7   1 -11    5.10    1.60
  -7  -1  11    5.30    2.30
   6   1 -11    6.30    1.50
   6   1 -11    4.90    1.50
  -6  -1  11    3.50    2.10
   5   1 -11   13.00    1.90
   5   1 -11   14.00    2.00
  -5  -1  11   12.90    2.70
  -5  -1  11   12.80    2.60
   4   1 -11   -0.80    0.80
   4   1 -11    0.40    1.00
  -4  -1  11   -1.50    1.70
   3   1 -11   -0.90    0.90
  -3  -1  11   -0.20    1.60
   2   1 -11    2.70    1.30
  -2  -1  11    3.50    1.40
   1   1 -11    9.80    1.80
  -1  -1  11    8.80    1.90
   0   1 -11   -1.00    1.10
   0   1 -11   -0.90    1.30
   0  -1  11    1.20    1.40
  -1   1 -11    0.00    1.40
   1  -1  11    0.10    1.60
   9   0 -11    1.10    1.30
  -9   0  11    5.20    2.60
   8   0 -11    0.00    1.20
  -8   0  11   -0.60    1.90
   7   0 -11   -1.40    0.80
   7   0 -11    0.60    1.20
  -7   0  11    0.50    1.90
   6   0 -11    0.80    1.10
   6   0 -11    1.90    1.20
  -6   0  11   -2.80    1.80
   5   0 -11    1.90    1.10
   5   0 -11    1.90    1.10
  -5   0  11    1.10    1.90
  -5   0  11   -0.40    2.10
   4   0 -11    8.00    1.50
   4   0 -11    6.40    1.40
  -4   0  11    5.30    2.10
   3   0 -11   -0.80    0.90
   3   0 -11   -0.20    0.80
  -3   0  11   -1.40    1.60
   2   0 -11    4.40    1.40
  -2   0  11    1.10    1.20
   1   0 -11    0.60    1.20
  -1   0  11    0.70    1.20
   0   0 -11    4.10    1.60
   0   0 -11    6.00    1.70
   0   0  11    5.80    1.60
  -1   0 -11    2.60    1.40
   1   0  11    2.50    1.60
   9  -1 -11    0.00    1.30
  -9   1  11    1.10    2.50
   8  -1 -11   -1.30    0.90
  -8   1  11   -0.30    2.10
   7  -1 -11    0.10    1.10
  -7   1  11    0.10    1.90
   6  -1 -11   -1.30    0.90
  -6   1  11   -1.50    1.90
   5  -1 -11    7.30    1.40
   5  -1 -11    7.40    1.60
  -5   1  11    6.00    2.20
   4  -1 -11    3.30    1.20
   4  -1 -11    4.20    1.20
  -4   1  11    1.80    1.90
   3  -1 -11    1.10    1.10
   3  -1 -11    0.00    0.90
  -3   1  11    0.20    1.60
   2  -1 -11    2.00    1.10
   2  -1 -11    1.00    1.00
  -2   1  11    1.80    1.20
   1  -1 -11    1.40    1.40
   1  -1 -11    2.40    1.20
  -1   1  11    1.60    1.20
   0  -1 -11    3.50    1.60
   0   1  11    5.60    1.70
   9  -2 -11    1.10    1.50
  -9   2  11    0.50    2.40
   8  -2 -11    2.50    1.30
  -8   2  11    1.00    2.10
   7  -2 -11    0.70    1.20
  -7   2  11    1.40    2.20
   6  -2 -11    0.40    1.00
  -6   2  11    0.50    1.90
   5  -2 -11    1.30    1.10
  -5   2  11    1.20    1.80
   4  -2 -11    1.60    1.20
  -4   2  11   -1.00    1.60
   3  -2 -11    1.10    1.10
  -3   2  11   -1.70    1.50
   2  -2 -11    4.90    1.40
   2  -2 -11    3.50    1.20
  -2   2  11    8.50    1.60
   1  -2 -11    0.30    1.50
  -1   2  11   -0.60    1.00
   0  -2 -11   -0.70    1.40
   0   2  11   -0.20    1.30
   9  -3 -11    0.60    1.30
  -9   3  11    0.20    2.10
   8  -3 -11   -1.40    1.00
  -8   3  11   -1.30    1.90
   7  -3 -11    3.10    1.30
  -7   3  11   -0.40    1.90
   6  -3 -11    1.30    1.20
  -6   3  11   -2.80    1.60
   5  -3 -11   -1.00    0.90
  -5   3  11   -1.50    1.70
   4  -3 -11   -0.70    0.90
  -4   3  11   -2.40    1.50
   3  -3 -11    4.30    1.40
  -3   3  11    6.90    1.60
  -3   3  11    4.10    2.00
  -2   3  11    2.50    1.20
   1  -3 -11    0.00    1.30
  -1   3  11   -1.00    1.10
  -1   3  11    0.80    1.60
   8  -4 -11    0.50    1.40
  -8   4  11    1.60    2.10
   7  -4 -11   -1.60    1.00
  -7   4  11   -0.40    2.00
   6  -4 -11   -1.40    0.90
  -6   4  11   -0.20    1.90
   5  -4 -11    3.30    1.40
  -5   4  11    2.60    1.90
   4  -4 -11    0.10    1.00
  -4   4  11    0.00    1.60
   3  -4 -11    2.20    1.30
  -3   4  11    0.80    1.80
   1  -4 -11    0.90    1.50
   7  -5 -11    1.80    1.80
   7  -5 -11    2.90    1.40
  -7   5  11    6.60    2.40
   6  -5 -11    0.20    1.20
   6  -5 -11    0.50    1.60
  -6   5  11    3.40    2.10
   5  -5 -11   -0.70    1.70
   5  -5 -11    1.00    1.20
  -5   5  11    3.40    2.00
   4  -5 -11   -2.30    1.40
   4  -5 -11    0.70    1.20
  -4   5  11    1.20    1.60
   3  -5 -11   -0.80    1.50
  -3   5  11    3.50    1.70
   6   3 -12    3.20    1.60
  -6  -3  12    1.60    2.30
   5   3 -12    1.30    1.40
  -5  -3  12    1.80    2.10
   4   3 -12    0.20    1.20
  -4  -3  12   -1.80    1.70
   3   3 -12   -0.90    1.10
  -3  -3  12   -1.30    1.40
   7   2 -12    3.60    1.40
   7   2 -12    5.70    1.70
  -7  -2  12    3.10    2.40
   6   2 -12   -0.10    1.10
  -6  -2  12    0.00    2.00
   5   2 -12   -1.40    1.20
  -5  -2  12    3.50    2.00
   4   2 -12   -1.60    1.10
  -4  -2  12    2.80    1.90
   3   2 -12    0.50    1.30
   2   2 -12    1.00    1.50
  -2  -2  12   -1.90    1.40
   7   1 -12   -0.10    1.10
   7   1 -12    0.50    1.20
  -7  -1  12   -0.70    2.10
   6   1 -12   -0.10    1.10
   6   1 -12    0.80    1.10
  -6  -1  12    1.70    2.00
   5   1 -12    7.40    1.70
  -5  -1  12    2.60    2.20
   4   1 -12    5.20    1.60
  -4  -1  12   -1.10    1.80
   3   1 -12    0.00    1.20
   2   1 -12    4.80    1.50
  -2  -1  12    1.50    1.60
   7   0 -12   -0.40    1.10
  -7   0  12    0.60    2.20
   6   0 -12    8.50    1.70
  -6   0  12    5.80    2.30
   5   0 -12    4.90    1.40
   5   0 -12    6.40    1.50
  -5   0  12    4.10    2.30
   4   0 -12    1.80    1.70
   4   0 -12    0.40    1.10
  -4   0  12    0.70    1.70
   3   0 -12    0.00    1.10
  -3   0  12    0.80    1.30
   2   0 -12    8.40    1.80
  -2   0  12    5.80    1.70
   7  -1 -12   -0.30    1.10
  -7   1  12    1.20    2.10
   6  -1 -12    1.00    1.10
  -6   1  12    1.30    2.20
   5  -1 -12    1.00    1.20
  -5   1  12   -1.80    1.80
   4  -1 -12    2.60    1.20
  -4   1  12    1.50    2.00
   3  -1 -12   -0.30    1.40
  -3   1  12    0.40    1.20
   2  -1 -12    3.00    1.40
  -2   1  12    1.60    1.40
   7  -2 -12   -1.00    1.10
  -7   2  12    0.20    2.10
   6  -2 -12    0.40    1.10
  -6   2  12   -1.00    1.90
   5  -2 -12    1.40    1.30
  -5   2  12    2.50    2.00
   4  -2 -12    0.60    1.10
  -4   2  12    1.10    1.80
   3  -2 -12   -0.20    0.90
  -3   2  12    1.60    1.30
   6  -3 -12    3.10    1.40
  -6   3  12    4.60    2.40
   5  -3 -12    3.90    1.40
  -5   3  12    4.20    2.20
   4  -3 -12    0.30    1.00
  -4   3  12   -2.10    1.50
_computing_structure_solution     'SHELXT 2014/4 (Sheldrick, 2014)'
;
_shelx_hkl_checksum              13489
_shelx_res_file
;
    shelx.res created by SHELXL-2014/7
TITL EL16_D334_DRX30_a.res in P-1
CELL  0.71073   7.8989   8.0880   8.2052   90.297  113.319   98.488
ZERR     2.00   0.0003   0.0003   0.0003    0.002    0.002    0.002
LATT   1
SFAC  C    H    N    O
UNIT  16   22   10   2
MERG   2
SHEL 50 0.78
EQIV $1 x, y+1, z
HTAB C5 O1_$1
FMAP   2
PLAN   10
ACTA
BOND   $H
L.S.  10
TEMP    23.00
WGHT    0.065600    0.154900
FVAR       1.30051   0.47932
N1    3    0.295731    0.497634    0.515985    11.00000    0.04473    0.04471 =
         0.04040    0.00631    0.01457    0.01148
N2    3    0.433256    0.528173    0.689762    11.00000    0.04145    0.03490 =
         0.04138    0.00258    0.01647    0.00774
N3    3    0.500837    0.250551    0.780177    11.00000    0.04372    0.03818 =
         0.04679    0.00290    0.01504    0.01301
N4    3    0.662638    0.678890    0.911066    11.00000    0.05344    0.04536 =
         0.05814   -0.00714    0.02195   -0.00014
N5    3    0.673422    0.510467    0.939175    11.00000    0.04433    0.04902 =
         0.04590   -0.00250    0.01509    0.00583
O1    4    0.299409    0.007595    0.676352    11.00000    0.07047    0.03700 =
         0.08915    0.00470    0.02038    0.00647
C1    1    0.325270    0.159748    0.698384    11.00000    0.04900    0.03832 =
         0.04713    0.00560    0.01854    0.00630
C2    1    0.166637    0.258407    0.636277    11.00000    0.03912    0.04631 =
         0.05039    0.00353    0.02009    0.00407
AFIX  23
H2A   2    0.048930    0.181780    0.593136    11.00000   -1.20000
H2B   2    0.172823    0.327912    0.735808    11.00000   -1.20000
AFIX   0
C3    1    0.173359    0.367444    0.490796    11.00000    0.03796    0.04319 =
         0.04443    0.00263    0.01740    0.01310
C4    1    0.535080    0.424156    0.805852    11.00000    0.03929    0.03933 =
         0.03991    0.00106    0.01831    0.00909
C5    1    0.520748    0.684909    0.762742    11.00000    0.05387    0.03629 =
         0.05874    0.00101    0.02378    0.00453
AFIX  43
H5    2    0.483614    0.783328    0.712769    11.00000   -1.20000
AFIX   0
C6    1    0.029396    0.323446    0.306992    11.00000    0.04699    0.06660 =
         0.04858    0.00078    0.01122    0.00882
AFIX   3
H6A   2    0.037755    0.206513    0.276429    11.00000   -1.50000
H6B   2    0.045825    0.403922    0.228561    11.00000   -1.50000
H6C   2   -0.094866    0.313049    0.306901    11.00000   -1.50000
AFIX   0
C7    1    0.659781    0.161516    0.875988    11.00000    0.05634    0.05117 =
         0.05496    0.00339    0.01019    0.02030
AFIX  23
H7A   2    0.722287    0.209420    0.997740    11.00000   -1.20000
H7B   2    0.610738    0.044981    0.879595    11.00000   -1.20000
AFIX   0
PART    1
C8A   1    0.790090    0.167872    0.802252    21.00000    0.08952    0.09677 =
         0.09136    0.01692    0.04450    0.05244
AFIX  33
H8A1  2    0.887629    0.107667    0.871732    21.00000   -1.50000
H8A2  2    0.730759    0.117827    0.682704    21.00000   -1.50000
H8A3  2    0.842495    0.282540    0.801046    21.00000   -1.50000
AFIX   0
PART    2
C8B   1    0.759091    0.125601    0.749709   -21.00000    0.08889    0.07510 =
         0.12291    0.03918    0.07623    0.04582
AFIX  33
H8B1  2    0.861800    0.068036    0.811913   -21.00000   -1.50000
H8B2  2    0.671334    0.057217    0.646413   -21.00000   -1.50000
H8B3  2    0.804668    0.229660    0.713836   -21.00000   -1.50000
AFIX   0
HKLF 4
REM  EL16_D334_DRX30_a.res in P-1
REM R1 =  0.0450 for    1746 Fo > 4sig(Fo)  and  0.0537 for all    2105 data
REM    137 parameters refined using      0 restraints
END
WGHT      0.0656      0.1553
REM Highest difference peak  0.315,  deepest hole -0.165,  1-sigma level  0.038
Q1    1   0.6717  0.1820  0.7578  11.00000  0.05    0.32
Q2    1   0.5254  0.2643  0.6843  11.00000  0.05    0.26
Q3    1   0.4308  0.2128  0.6755  11.00000  0.05    0.25
Q4    1   0.3579  0.0313  0.5991  11.00000  0.05    0.24
Q5    1   0.6792  0.0765  0.9651  11.00000  0.05    0.23
Q6    1   0.7451  0.0880  0.9384  11.00000  0.05    0.22
Q7    1   0.2545  0.2198  0.6540  11.00000  0.05    0.20
Q8    1   0.1701  0.3148  0.5643  11.00000  0.05    0.18
Q9    1   0.6473  0.4733  0.8381  11.00000  0.05    0.18
Q10   1   0.4923  0.4648  0.7271  11.00000  0.05    0.17
;
_shelx_res_checksum              43865
loop_
_space_group_symop_operation_xyz
'x, y, z'
'-x, -y, -z'
loop_
_atom_site_type_symbol
_atom_site_label
_atom_site_fract_x
_atom_site_fract_y
_atom_site_fract_z
_atom_site_U_iso_or_equiv
_atom_site_adp_type
_atom_site_calc_flag
_atom_site_occupancy
_atom_site_disorder_assembly
_atom_site_disorder_group
N N1 0.29573(18) 0.49763(16) 0.51599(17) 0.0436(3) Uani d 1 . .
N N2 0.43326(18) 0.52817(15) 0.68976(17) 0.0391(3) Uani d 1 . .
N N3 0.50084(18) 0.25055(16) 0.78018(17) 0.0432(3) Uani d 1 . .
N N4 0.6626(2) 0.67889(18) 0.9111(2) 0.0534(4) Uani d 1 . .
N N5 0.67342(19) 0.51047(17) 0.93918(18) 0.0476(3) Uani d 1 . .
O O1 0.2994(2) 0.00760(15) 0.6764(2) 0.0695(4) Uani d 1 . .
C C1 0.3253(2) 0.15975(19) 0.6984(2) 0.0451(4) Uani d 1 . .
C C2 0.1666(2) 0.2584(2) 0.6363(2) 0.0449(4) Uani d 1 . .
H H2A 0.0489 0.1818 0.5931 0.054 Uiso calc 1 . .
H H2B 0.1728 0.3279 0.7358 0.054 Uiso calc 1 . .
C C3 0.1734(2) 0.36744(19) 0.4908(2) 0.0409(3) Uani d 1 . .
C C4 0.5351(2) 0.42416(18) 0.80585(19) 0.0384(3) Uani d 1 . .
C C5 0.5207(2) 0.6849(2) 0.7627(2) 0.0496(4) Uani d 1 . .
H H5 0.4836 0.7833 0.7128 0.059 Uiso calc 1 . .
C C6 0.0294(2) 0.3234(2) 0.3070(2) 0.0566(5) Uani d 1 . .
H H6A 0.0378 0.2065 0.2764 0.085 Uiso d 1 . .
H H6B 0.0458 0.4039 0.2286 0.085 Uiso d 1 . .
H H6C -0.0949 0.3130 0.3069 0.085 Uiso d 1 . .
C C7 0.6598(3) 0.1615(2) 0.8760(3) 0.0567(5) Uani d 1 . .
H H7A 0.7223 0.2094 0.9977 0.068 Uiso calc 1 A 1
H H7B 0.6107 0.0450 0.8796 0.068 Uiso calc 1 A 1
C C8A 0.790(3) 0.168(3) 0.802(3) 0.086(3) Uani d 0.48(6) B 1
H H8A1 0.8876 0.1077 0.8717 0.129 Uiso calc 0.48(6) B 1
H H8A2 0.7308 0.1178 0.6827 0.129 Uiso calc 0.48(6) B 1
H H8A3 0.8425 0.2825 0.8010 0.129 Uiso calc 0.48(6) B 1
C C8B 0.759(3) 0.126(3) 0.750(4) 0.081(4) Uani d 0.52(6) B 2
H H8B1 0.8618 0.0680 0.8119 0.122 Uiso calc 0.52(6) B 2
H H8B2 0.6713 0.0572 0.6464 0.122 Uiso calc 0.52(6) B 2
H H8B3 0.8047 0.2297 0.7138 0.122 Uiso calc 0.52(6) B 2
loop_
_atom_site_aniso_label
_atom_site_aniso_U_11
_atom_site_aniso_U_22
_atom_site_aniso_U_33
_atom_site_aniso_U_12
_atom_site_aniso_U_13
_atom_site_aniso_U_23
N1 0.0447(7) 0.0447(7) 0.0404(7) 0.0115(6) 0.0146(6) 0.0063(5)
N2 0.0414(7) 0.0349(6) 0.0414(7) 0.0077(5) 0.0165(5) 0.0026(5)
N3 0.0437(7) 0.0382(7) 0.0468(7) 0.0130(5) 0.0150(6) 0.0029(5)
N4 0.0534(8) 0.0454(8) 0.0581(9) -0.0001(6) 0.0219(7) -0.0071(6)
N5 0.0443(7) 0.0490(8) 0.0459(7) 0.0058(6) 0.0151(6) -0.0025(6)
O1 0.0705(9) 0.0370(7) 0.0891(10) 0.0065(6) 0.0204(8) 0.0047(6)
C1 0.0490(9) 0.0383(8) 0.0471(8) 0.0063(6) 0.0185(7) 0.0056(6)
C2 0.0391(8) 0.0463(9) 0.0504(9) 0.0041(6) 0.0201(7) 0.0035(7)
C3 0.0380(7) 0.0432(8) 0.0444(8) 0.0131(6) 0.0174(6) 0.0026(6)
C4 0.0393(7) 0.0393(8) 0.0399(7) 0.0091(6) 0.0183(6) 0.0011(6)
C5 0.0539(10) 0.0363(8) 0.0587(10) 0.0045(7) 0.0238(8) 0.0010(7)
C6 0.0470(9) 0.0666(12) 0.0486(10) 0.0088(8) 0.0112(8) 0.0008(8)
C7 0.0563(11) 0.0512(10) 0.0550(10) 0.0203(8) 0.0102(8) 0.0034(8)
C8A 0.090(6) 0.097(8) 0.091(7) 0.052(6) 0.044(6) 0.017(6)
C8B 0.089(6) 0.075(6) 0.123(10) 0.046(4) 0.076(7) 0.039(6)
loop_
_atom_type_symbol
_atom_type_description
_atom_type_scat_dispersion_real
_atom_type_scat_dispersion_imag
_atom_type_scat_source
C C 0.0033 0.0016 'International Tables Vol C Tables 4.2.6.8 and 6.1.1.4'
H H 0.0000 0.0000 'International Tables Vol C Tables 4.2.6.8 and 6.1.1.4'
N N 0.0061 0.0033 'International Tables Vol C Tables 4.2.6.8 and 6.1.1.4'
O O 0.0106 0.0060 'International Tables Vol C Tables 4.2.6.8 and 6.1.1.4'
loop_
_geom_angle_atom_site_label_1
_geom_angle_atom_site_label_2
_geom_angle_atom_site_label_3
_geom_angle
C3 N1 N2 115.11(13)
C5 N2 C4 104.34(13)
C5 N2 N1 122.76(13)
C4 N2 N1 131.62(12)
C1 N3 C4 123.12(13)
C1 N3 C7 119.04(14)
C4 N3 C7 116.85(13)
C5 N4 N5 107.22(13)
C4 N5 N4 106.80(13)
O1 C1 N3 121.73(16)
O1 C1 C2 122.02(15)
N3 C1 C2 116.25(13)
C3 C2 C1 111.53(13)
C3 C2 H2A 109.3
C1 C2 H2A 109.3
C3 C2 H2B 109.3
C1 C2 H2B 109.3
H2A C2 H2B 108.0
N1 C3 C6 117.64(15)
N1 C3 C2 123.54(14)
C6 C3 C2 118.82(14)
N5 C4 N2 110.65(13)
N5 C4 N3 124.87(14)
N2 C4 N3 124.40(13)
N4 C5 N2 110.98(15)
N4 C5 H5 124.5
N2 C5 H5 124.5
C3 C6 H6A 105.8
C3 C6 H6B 110.7
H6A C6 H6B 115.5
C3 C6 H6C 110.0
H6A C6 H6C 103.1
H6B C6 H6C 111.4
C8A C7 N3 114.7(8)
N3 C7 C8B 109.6(7)
C8A C7 H7A 108.6
N3 C7 H7A 108.6
C8A C7 H7B 108.6
N3 C7 H7B 108.6
H7A C7 H7B 107.6
C7 C8A H8A1 109.5
C7 C8A H8A2 109.5
H8A1 C8A H8A2 109.5
C7 C8A H8A3 109.5
H8A1 C8A H8A3 109.5
H8A2 C8A H8A3 109.5
C7 C8B H8B1 109.5
C7 C8B H8B2 109.5
H8B1 C8B H8B2 109.5
C7 C8B H8B3 109.5
H8B1 C8B H8B3 109.5
H8B2 C8B H8B3 109.5
loop_
_geom_bond_atom_site_label_1
_geom_bond_atom_site_label_2
_geom_bond_distance
N1 C3 1.275(2)
N1 N2 1.4018(18)
N2 C5 1.360(2)
N2 C4 1.3651(19)
N3 C1 1.368(2)
N3 C4 1.3888(19)
N3 C7 1.485(2)
N4 C5 1.295(2)
N4 N5 1.392(2)
N5 C4 1.303(2)
O1 C1 1.218(2)
C1 C2 1.503(2)
C2 C3 1.501(2)
C2 H2A 0.9700
C2 H2B 0.9700
C3 C6 1.487(2)
C5 H5 0.9300
C6 H6A 0.9954
C6 H6B 0.9488
C6 H6C 0.9724
C7 C8A 1.381(17)
C7 C8B 1.58(2)
C7 H7A 0.9700
C7 H7B 0.9700
C8A H8A1 0.9600
C8A H8A2 0.9600
C8A H8A3 0.9600
C8B H8B1 0.9600
C8B H8B2 0.9600
C8B H8B3 0.9600
loop_
_geom_hbond_atom_site_label_D
_geom_hbond_atom_site_label_H
_geom_hbond_atom_site_label_A
_geom_hbond_site_symmetry_A
_geom_hbond_distance_DH
_geom_hbond_distance_HA
_geom_hbond_distance_DA
_geom_hbond_angle_DHA
C5 H5 O1 1_565 0.93 2.44 3.280(2) 151

_cod_database_fobs_code 1544771
