#------------------------------------------------------------------------------
#$Date: 2016-12-10 04:30:31 +0200 (Sat, 10 Dec 2016) $
#$Revision: 189036 $
#$URL: file:///home/coder/svn-repositories/cod/cif/1/54/47/1544765.cif $
#------------------------------------------------------------------------------
#
# This file is available in the Crystallography Open Database (COD),
# http://www.crystallography.net/. The original data for this entry
# were provided by IUCr Journals, http://journals.iucr.org/.
#
# The file may be used within the scientific community so long as
# proper attribution is given to the journal article from which the
# data were obtained.
#
data_1544765
loop_
_publ_author_name
'Sharmila, N.'
'Sundar, T. V.'
'Sakthivel, P.'
'Venkatesan, P.'
_publ_section_title
;
 Ethyl
 2,2-dimethyl-4-oxo-6-phenyl-3,4-dihydro-2<i>H</i>-pyran-5-carboxylate
;
_journal_coeditor_code           BV4006
_journal_issue                   12
_journal_name_full               IUCrData
_journal_page_first              x161924
_journal_paper_doi               10.1107/S2414314616019246
_journal_volume                  1
_journal_year                    2016
_chemical_formula_iupac          'C16 H18 O4'
_chemical_formula_moiety         'C16 H18 O4'
_chemical_formula_sum            'C16 H18 O4'
_chemical_formula_weight         274.30
_chemical_melting_point          353
_chemical_name_systematic
;
Ethyl 2,2-dimethyl-4-oxo-6-phenyl-3,4-dihydro-2<i>H</i>-pyran-5-carboxylate
;
_space_group_crystal_system      monoclinic
_space_group_IT_number           4
_space_group_name_Hall           'P 2yb'
_space_group_name_H-M_alt        'P 1 21 1'
_symmetry_space_group_name_Hall  'P 2yb'
_symmetry_space_group_name_H-M   'P 1 21 1'
_atom_sites_solution_hydrogens   geom
_atom_sites_solution_primary     direct
_atom_sites_solution_secondary   difmap
_audit_creation_method           SHELXL-2014
_cell_angle_alpha                90
_cell_angle_beta                 97.4600(10)
_cell_angle_gamma                90
_cell_formula_units_Z            2
_cell_length_a                   10.4566(2)
_cell_length_b                   5.98210(10)
_cell_length_c                   12.2040(3)
_cell_measurement_reflns_used    4503
_cell_measurement_temperature    296(2)
_cell_measurement_theta_max      27.14
_cell_measurement_theta_min      2.75
_cell_volume                     756.93(3)
_computing_cell_refinement
;
SAINT (Bruker, 2008)
;
_computing_data_collection
;
SMART (Bruker, 2008)
;
_computing_data_reduction
;
SAINT (Bruker, 2008)
;
_computing_molecular_graphics
;
<i>QMOL</i> (Gans & Shalloway, 2001), Mercury (Macrae <i>et al.</i>,
2008), ORTEPIII (Burnett & Johnson, 1996)
and <i>MOPAC</i> (Stewart, 2012)
;
_computing_publication_material
;
WinGX (Farrugia, 2012) and PLATON (Spek, 2009)
;
_computing_structure_refinement
;
SHELXL2014 (Sheldrick, 2015)
;
_computing_structure_solution
;
SHELXS97 (Sheldrick, 2008)
;
_diffrn_ambient_temperature      296(2)
_diffrn_measured_fraction_theta_full 0.999
_diffrn_measured_fraction_theta_max 0.958
_diffrn_measurement_device_type  'Bruker SMART CCD area detector'
_diffrn_measurement_method       '\f and \w scans'
_diffrn_radiation_monochromator  Graphite
_diffrn_radiation_type           MoK\a
_diffrn_radiation_wavelength     0.71073
_diffrn_reflns_av_R_equivalents  0.0215
_diffrn_reflns_limit_h_max       13
_diffrn_reflns_limit_h_min       -14
_diffrn_reflns_limit_k_max       8
_diffrn_reflns_limit_k_min       -8
_diffrn_reflns_limit_l_max       15
_diffrn_reflns_limit_l_min       -17
_diffrn_reflns_number            9344
_diffrn_reflns_theta_full        25.242
_diffrn_reflns_theta_max         31.248
_diffrn_reflns_theta_min         1.683
_exptl_absorpt_coefficient_mu    0.086
_exptl_absorpt_correction_type   none
_exptl_crystal_colour            colourless
_exptl_crystal_density_diffrn    1.204
_exptl_crystal_description       prism
_exptl_crystal_F_000             292
_exptl_crystal_size_max          0.180
_exptl_crystal_size_mid          0.160
_exptl_crystal_size_min          0.100
_refine_diff_density_max         0.166
_refine_diff_density_min         -0.178
_refine_ls_abs_structure_details
;
Flack <i>x</i> determined using 1007 quotients [(I+)-(I-)]/[(I+)+(I-)]
(Parsons <i>et al.</i>,  2013)
;
_refine_ls_abs_structure_Flack   0.3(4)
_refine_ls_extinction_method     none
_refine_ls_goodness_of_fit_ref   1.046
_refine_ls_hydrogen_treatment    constr
_refine_ls_matrix_type           full
_refine_ls_number_parameters     181
_refine_ls_number_reflns         4067
_refine_ls_number_restraints     1
_refine_ls_restrained_S_all      1.045
_refine_ls_R_factor_all          0.0638
_refine_ls_R_factor_gt           0.0420
_refine_ls_shift/su_max          0.000
_refine_ls_shift/su_mean         0.000
_refine_ls_structure_factor_coef Fsqd
_refine_ls_weighting_details
'w=1/[\s^2^(Fo^2^)+(0.0573P)^2^+0.0653P] where P=(Fo^2^+2Fc^2^)/3'
_refine_ls_weighting_scheme      calc
_refine_ls_wR_factor_gt          0.1075
_refine_ls_wR_factor_ref         0.1215
_reflns_number_gt                2956
_reflns_number_total             4067
_reflns_threshold_expression     'I > 2\s(I)'
_cod_data_source_file            bv4006sup1.cif
_cod_data_source_block           I
_cod_database_code               1544765
_shelx_space_group_comment
;
The symmetry employed for this shelxl refinement is uniquely defined
by the following loop, which should always be used as a source of
symmetry information in preference to the above space-group names.
They are only intended as comments.
;
_shelx_estimated_absorpt_t_min   0.985
_shelx_estimated_absorpt_t_max   0.991
_shelx_hkl_file
;
  -2   0   0  188.42    5.17
   2   0   0  182.80    5.17
   2   0   0  183.84    5.16
  -2   0   0  191.69    5.43
   2   0   0  193.38    5.05
   3   0   0  298.64    7.99
   3   0   0  309.65    8.34
  -3   0   0  305.58    8.33
   3   0   0  306.42    8.11
  -3   0   0  306.31    8.32
  -3   0   0  300.79    8.70
   3   0   0  316.08    8.34
  -4   0   0  962.38   24.55
   4   0   0  913.68   24.52
   4   0   0  991.41   24.56
   4   0   0  944.35   24.20
  -4   0   0  908.69   24.49
   4   0   0  941.97   23.67
  -4   0   0  933.84   25.56
  -5   0   0   76.56    2.86
   5   0   0   75.24    2.87
   5   0   0   72.98    2.51
   5   0   0   75.96    2.69
  -5   0   0   81.52    2.94
  -5   0   0   72.99    3.09
   5   0   0   83.43    2.95
  -6   0   0  365.23   10.80
  -6   0   0  354.17   10.22
   6   0   0  351.76   10.28
   6   0   0  362.01    9.78
   6   0   0  366.25    9.86
   7   0   0   25.96    1.41
  -7   0   0   27.07    1.81
  -7   0   0   21.30    2.04
   7   0   0   25.45    1.78
   7   0   0   26.59    1.65
  -8   0   0    9.65    1.66
   8   0   0    8.05    0.99
   8   0   0    8.48    1.34
  -8   0   0    6.71    1.34
   8   0   0    8.94    1.22
   9   0   0  162.72    5.93
   9   0   0  166.66    5.58
  -9   0   0  148.08    6.17
  -9   0   0  165.04    5.86
 -10   0   0   60.41    3.46
 -10   0   0   67.37    3.97
  10   0   0   60.01    3.16
  10   0   0   62.70    3.48
  11   0   0  221.12    7.97
 -11   0   0  219.73    7.90
  11   0   0  219.75    7.49
 -11   0   0  220.37    8.43
 -12   0   0   -0.49    1.37
  12   0   0   -0.91    1.27
 -12   0   0   -1.50    1.70
 -13   0   0   -0.19    1.94
  13   0   0   -0.81    1.53
 -14   0   0    4.99    2.54
   0  -1   0   -4.05    0.52
   0  -1   0   -5.22    0.38
  -1  -1   0 4670.47  119.93
   1  -1   0 4850.04  118.59
   1  -1   0 4577.05  123.66
   1   1   0 4720.10  122.07
  -1  -1   0 4673.55  124.09
   1   1   0 4675.35  122.32
  -1   1   0 4594.04  123.62
  -2   1   0 4679.45  117.99
  -2   1   0 4429.09  113.44
  -2   1   0 4334.18  113.90
   2  -1   0 4586.72  113.18
  -2   1   0 4364.97  109.98
   2  -1   0 4486.56  114.20
  -2  -1   0 4431.04  113.82
   2  -1   0 4473.16  110.74
   2  -1   0 4369.52  113.88
   2   1   0 4524.15  114.18
   2   1   0 4569.54  113.77
  -2  -1   0 4504.60  113.93
  -2  -1   0 4447.43  117.89
  -3  -1   0 1439.44   36.19
   3   1   0 1420.47   36.21
  -3   1   0 1402.94   34.95
  -3   1   0 1362.82   36.17
  -3  -1   0 1391.05   36.20
  -3  -1   0 1471.46   37.79
   3  -1   0 1363.41   36.17
  -3   1   0 1430.56   37.80
   3  -1   0 1408.05   36.21
   3  -1   0 1395.98   34.94
   3  -1   0 1451.56   36.15
  -4   1   0 1584.19   41.61
   4  -1   0 1516.72   39.80
  -4  -1   0 1561.03   39.79
  -4  -1   0 1560.85   39.82
  -4   1   0 1501.25   39.80
   4  -1   0 1530.87   39.76
   4  -1   0 1510.82   38.39
   4  -1   0 1616.98   39.77
   4   1   0 1547.54   39.85
  -4  -1   0 1565.83   41.54
   5  -1   0 1214.42   31.18
   5  -1   0 1233.61   32.37
  -5  -1   0 1243.70   32.37
   5   1   0 1248.92   31.77
  -5  -1   0 1225.73   33.77
  -5   1   0 1208.35   32.37
   5  -1   0 1227.20   32.27
   5   1   0 1269.91   32.46
  -5  -1   0 1301.47   32.41
   5  -1   0 1294.41   32.33
  -5   1   0 1243.31   33.84
  -6  -1   0    5.32    1.16
   6  -1   0    4.19    0.91
  -6   1   0    6.44    1.27
   6   1   0    4.90    0.55
  -6  -1   0    3.70    0.93
  -6   1   0    4.62    0.95
   6   1   0    5.42    0.99
   6  -1   0    3.82    0.77
  -6  -1   0    4.90    0.99
   6  -1   0    3.84    0.87
   6  -1   0    3.31    0.85
  -7  -1   0   63.38    2.83
  -7   1   0   62.87    3.28
   7   1   0   63.74    2.87
   7  -1   0   61.36    2.57
  -7  -1   0   62.13    3.13
   7  -1   0   61.13    2.66
   7   1   0   63.81    2.74
  -7   1   0   62.96    2.84
   7  -1   0   64.61    2.85
  -8  -1   0    0.85    0.97
   8  -1   0    1.33    0.83
   8  -1   0    3.64    1.05
   8   1   0    3.26    0.94
  -8  -1   0    0.75    1.22
   8  -1   0    2.64    0.83
  -8   1   0    2.07    1.06
  -8   1   0    3.48    1.41
   8   1   0    2.75    0.98
  -9  -1   0   71.37    3.43
   9  -1   0   71.48    3.43
  -9   1   0   67.67    3.94
  -9   1   0   65.50    3.41
   9  -1   0   65.16    3.04
  -9  -1   0   73.45    3.86
   9   1   0   73.89    3.32
   9   1   0   68.11    3.48
   9  -1   0   67.95    3.13
 -10   1   0   21.09    2.57
  10  -1   0   20.39    2.19
 -10  -1   0   21.65    2.48
  10   1   0   20.59    2.23
  10  -1   0   20.70    1.89
  10  -1   0   20.81    1.89
  10   1   0   18.71    1.95
 -10  -1   0   19.08    2.21
  11   1   0    0.30    1.10
  11  -1   0   -1.73    1.09
 -11  -1   0    1.78    1.72
 -11  -1   0   -0.39    1.36
 -11   1   0    2.88    1.83
  12  -1   0    1.92    1.50
 -12   1   0   -0.94    1.74
 -12  -1   0    3.32    1.98
 -12  -1   0    2.22    1.53
 -13  -1   0    3.72    2.22
 -13   1   0    4.07    2.32
 -14   1   0    1.27    2.43
 -14  -1   0    3.12    2.26
   0  -2   0 6228.62  160.42
   0  -2   0 6484.04  167.43
  -1   2   0  858.80   23.23
   1  -2   0  848.16   22.36
   1  -2   0  837.10   23.24
  -1  -2   0  869.26   23.20
  -1  -2   0  880.13   22.15
  -2  -2   0 1466.94   39.52
  -2  -2   0 1546.94   37.73
   2  -2   0 1448.91   38.09
   2   2   0 1463.14   37.77
  -2   2   0 1504.87   36.81
  -2   2   0 1471.53   39.62
  -2   2   0 1458.37   37.78
   3   2   0  301.25    8.20
  -3  -2   0  299.63    8.02
  -3   2   0  300.78    8.92
  -3  -2   0  294.89    8.82
  -3  -2   0  311.67    8.03
   3  -2   0  302.16    8.64
  -3   2   0  304.50    7.86
  -3   2   0  303.27    8.19
   4  -2   0  177.56    4.77
  -4  -2   0  174.99    5.82
   4  -2   0  188.68    5.12
   4  -2   0  179.51    4.79
  -4   2   0  182.50    5.94
   4   2   0  175.59    5.30
  -4  -2   0  179.98    5.18
   4  -2   0  173.21    5.69
  -4   2   0  173.86    5.29
  -4  -2   0  182.98    5.17
   5  -2   0  342.83    9.25
   5  -2   0  360.39    9.71
  -5  -2   0  364.10    9.82
  -5  -2   0  344.74   10.53
  -5   2   0  340.67    9.92
  -5   2   0  347.47   10.67
   5  -2   0  353.17    9.77
   5  -2   0  363.22   10.27
  -5  -2   0  371.77    9.82
   5   2   0  351.79    9.95
   6  -2   0  290.44    8.08
   6  -2   0  310.68    8.59
  -6   2   0  293.06    9.43
  -6  -2   0  303.82    8.62
  -6  -2   0  293.60    9.27
   6  -2   0  289.39    8.56
   6   2   0  298.40    8.79
  -6   2   0  290.38    8.78
  -6  -2   0  305.88    8.63
   6  -2   0  306.15    9.01
  -7   2   0   11.07    1.74
   7  -2   0   11.54    1.43
   7  -2   0   12.63    1.12
  -7  -2   0   11.10    1.36
   7   2   0   12.05    1.43
   7  -2   0   10.43    1.29
  -7   2   0   11.65    1.45
  -7  -2   0   12.67    1.62
   8  -2   0   96.96    4.06
   8   2   0   95.74    3.83
  -8   2   0   96.96    4.54
  -8  -2   0   93.62    4.33
   8  -2   0   98.32    3.53
   8  -2   0   96.52    3.87
  -8  -2   0   96.07    3.86
   9  -2   0   22.77    1.74
  -9  -2   0   28.29    2.50
  -9  -2   0   23.49    2.09
  -9   2   0   27.22    2.70
   9  -2   0   23.18    2.12
   9  -2   0   28.04    2.13
 -10  -2   0    5.72    1.74
  10  -2   0    2.34    1.37
 -10  -2   0    0.41    1.29
 -10   2   0    4.34    1.93
  10  -2   0    1.58    1.25
 -11  -2   0   23.96    2.36
 -11  -2   0   25.29    2.79
 -11   2   0   26.10    3.00
  11  -2   0   22.97    2.30
  11  -2   0   20.23    2.20
 -12  -2   0   11.01    2.24
 -12   2   0    9.40    2.54
 -13  -2   0    6.55    2.31
 -13   2   0    6.60    2.53
 -14  -2   0   -0.46    2.05
   0  -3   0   -2.31    0.64
   0  -3   0    1.45    0.81
  -1   3   0  308.09    9.04
  -1  -3   0  313.32    8.53
   1  -3   0  281.84    8.69
  -1  -3   0  305.50    9.03
   1  -3   0  306.01    9.09
  -2   3   0  384.16   11.54
  -2  -3   0  417.63   10.74
  -2  -3   0  386.92   11.48
   2  -3   0  403.66   11.30
   2  -3   0  392.66   11.62
   3   3   0  143.35    4.22
   3  -3   0  147.09    5.04
  -3  -3   0  146.70    5.01
  -3   3   0  143.87    4.21
  -3   3   0  143.63    5.07
  -4   3   0   37.78    2.34
  -4  -3   0   39.12    2.27
   4  -3   0   36.92    2.25
   4   3   0   36.61    1.70
  -4   3   0   36.25    1.74
  -5   3   0  122.60    4.15
  -5  -3   0  120.05    3.56
  -5   3   0  120.70    4.81
   5  -3   0  125.78    4.75
   5   3   0  126.47    4.12
  -5  -3   0  121.11    3.56
  -5  -3   0  127.50    4.74
  -6   3   0    0.90    1.19
  -6  -3   0   -0.66    0.61
   6  -3   0   -0.41    0.92
  -6  -3   0    0.48    1.01
  -6  -3   0   -0.83    0.63
  -7  -3   0  206.70    7.35
  -7  -3   0  215.76    6.39
  -7   3   0  201.23    7.55
   7  -3   0  219.38    7.36
  -8  -3   0   62.53    3.50
  -8   3   0   60.84    3.73
  -8  -3   0   66.10    2.90
   8  -3   0   61.29    3.52
   8  -3   0   60.91    2.28
   9  -3   0   17.27    1.40
  -9  -3   0   20.57    1.86
  -9  -3   0   18.04    2.30
   9  -3   0   22.17    2.41
  -9   3   0   20.86    2.64
  10  -3   0   25.52    2.61
 -10   3   0   32.33    3.17
 -10  -3   0   27.15    2.81
 -10  -3   0   30.56    2.22
 -11   3   0    1.62    1.98
 -11  -3   0    3.93    1.81
  11  -3   0   -1.83    1.29
 -12  -3   0    5.74    2.12
 -12   3   0    4.95    2.45
  12  -3   0    7.54    1.96
 -13  -3   0    4.57    2.24
 -13   3   0    2.99    2.58
   0  -4   0  387.69   11.05
   0  -4   0  377.76   11.47
  -1  -4   0    4.28    1.01
   1  -4   0    6.93    1.27
   1  -4   0    5.80    1.28
  -1  -4   0    4.43    1.16
  -1   4   0    6.58    1.29
  -2  -4   0   64.02    3.08
   2  -4   0   62.58    3.15
   2  -4   0   68.65    3.22
  -2   4   0   61.83    3.13
  -2  -4   0   67.58    2.74
   3  -4   0  116.76    4.70
  -3  -4   0  117.67    4.62
  -3   4   0  125.90    4.87
  -4   4   0  127.34    5.14
   4  -4   0  129.06    5.19
  -4  -4   0  133.31    5.09
  -5  -4   0   55.27    3.14
  -5   4   0   46.85    3.09
   5  -4   0   47.23    3.12
   6  -4   0  114.95    5.03
  -6  -4   0  116.67    4.93
  -6   4   0  104.40    4.96
  -7  -4   0   26.58    2.62
  -7   4   0   30.26    2.80
   7  -4   0   31.37    2.81
  -8  -4   0   78.22    4.22
  -8   4   0   74.47    4.36
   8  -4   0   71.03    4.19
  -9   4   0   30.14    3.19
   9  -4   0   35.21    3.13
  -9  -4   0   35.65    3.09
  -9  -4   0   36.63    1.79
  10  -4   0    6.75    1.93
 -10   4   0    4.57    2.16
 -10  -4   0    6.15    1.15
 -10  -4   0    4.97    1.91
 -11   4   0   -0.15    2.00
 -11  -4   0   -0.99    1.54
  11  -4   0    3.33    1.85
 -12   4   0    4.34    2.66
  12  -4   0    1.64    1.88
 -12  -4   0    2.40    2.01
 -13  -4   0    6.11    2.43
   0  -5   0   -1.33    0.93
   0  -5   0    1.21    1.17
  -1   5   0    3.05    1.43
   1  -5   0    1.15    1.21
  -1  -5   0    4.43    1.21
  -1  -5   0    4.45    1.44
   1  -5   0    3.29    1.37
  -2  -5   0   41.12    2.90
  -2   5   0   41.27    2.89
   2  -5   0   39.47    2.80
   2  -5   0   40.78    2.97
   3  -5   0   99.34    4.58
  -3  -5   0   98.44    4.48
  -3   5   0   94.29    4.56
  -4  -5   0   53.62    3.31
   4  -5   0   43.75    3.11
  -4   5   0   46.48    3.20
  -5  -5   0  105.63    4.73
   5  -5   0   92.49    4.73
  -5   5   0   86.05    4.61
   6  -5   0   16.06    2.35
  -6  -5   0   23.68    2.62
  -6   5   0   21.79    2.64
   7  -5   0   76.07    4.50
  -7   5   0   71.45    4.37
  -7  -5   0   77.60    4.36
   8  -5   0   24.84    2.98
  -8   5   0   22.37    3.03
  -8  -5   0   28.34    2.98
   9  -5   0    7.63    2.24
  -9  -5   0    7.33    2.10
  -9   5   0    8.54    2.47
  10  -5   0    9.98    2.47
 -10  -5   0    9.81    2.32
 -10   5   0    3.01    2.30
  11  -5   0    5.16    2.39
 -11   5   0    3.07    2.57
 -11  -5   0    4.49    2.36
 -12  -5   0    2.97    2.45
  12  -5   0    2.11    2.12
   0  -6   0   30.12    2.75
   0   6   0   29.18    2.74
   0  -6   0   28.16    2.54
   1  -6   0   11.37    2.09
  -1  -6   0    9.61    1.96
   1  -6   0    9.90    1.88
  -1   6   0    9.32    2.08
  -2  -6   0   19.39    2.42
  -2   6   0   23.56    2.65
   2  -6   0   16.33    2.28
   2  -6   0   21.97    2.59
  -3   6   0   15.38    2.34
  -3  -6   0   15.63    2.28
   3  -6   0   10.35    2.08
  -4   6   0   13.04    2.32
   4  -6   0   14.00    2.37
  -4  -6   0   13.34    2.20
  -5  -6   0   26.24    2.88
  -5   6   0   25.77    2.98
   5  -6   0   19.19    2.61
  -6  -6   0   16.26    2.56
   6  -6   0   16.28    2.64
  -6   6   0   17.72    2.75
  -7  -6   0   15.16    2.59
  -7   6   0   20.28    3.04
   7  -6   0   16.77    2.75
  -8   6   0   -1.26    1.98
   8  -6   0    0.24    1.86
  -8  -6   0    1.59    2.03
   9  -6   0    7.94    2.59
  -9  -6   0    8.96    2.57
  -9   6   0    8.60    2.70
  10  -6   0    8.36    2.70
 -10   6   0    5.27    2.73
 -10  -6   0    9.04    2.71
   0   7   0    0.03    1.71
   0  -7   0   -1.22    1.59
   1  -7   0   -1.09    1.51
  -1   7   0   -1.24    1.66
   1   7   0    1.19    1.79
   1  -7   0   -0.97    1.66
  -1  -7   0   -1.78    1.53
  -2   7   0    2.17    1.84
   2  -7   0   -0.67    1.64
  -2  -7   0   -0.86    1.52
   2  -7   0   -0.52    1.71
   3  -7   0    2.31    1.88
  -3  -7   0    1.45    1.79
  -3   7   0    2.19    1.98
   4  -7   0    0.98    1.92
  -4   7   0    1.07    2.01
  -5   7   0    7.08    2.47
   5  -7   0    5.99    2.29
   6  -7   0   17.76    3.15
  -6   7   0   13.41    2.89
   7  -7   0    0.22    2.13
  -7   7   0   -0.55    2.33
   8  -7   0    7.62    2.68
  -8   7   0    0.42    2.61
   9  -7   0   -1.10    2.15
 -14   0   1    1.04    2.30
 -13   0   1   -0.78    1.93
  13   0  -1   -0.97    1.46
 -12   0   1    0.41    1.41
 -12   0   1   -2.25    1.64
  12   0  -1    0.40    1.30
 -11   0   1    6.82    2.12
 -11   0   1    0.11    1.52
  11   0  -1    5.50    1.74
  11   0  -1    1.55    1.17
 -10   0   1   54.07    3.65
 -10   0   1   53.25    3.21
  10   0  -1   51.04    3.16
  10   0  -1   56.66    2.97
  -9   0   1  107.72    4.89
  -9   0   1  103.71    4.35
   9   0  -1  104.59    4.41
   9   0  -1  105.48    3.76
   9   0  -1  103.47    4.10
   8   0  -1  315.83    8.92
  -8   0   1  320.10   10.16
  -8   0   1  314.00    9.52
   8   0  -1  312.31    9.58
   8   0  -1  312.52    9.11
   7   0  -1   10.44    1.25
  -7   0   1    8.24    1.43
   7   0  -1    9.92    1.07
   7   0  -1   10.60    0.97
  -7   0   1    9.32    1.19
  -6   0   1    7.05    0.99
   6   0  -1    5.70    0.75
   6   0  -1    6.87    0.96
  -6   0   1    8.78    1.27
   6   0  -1    6.98    0.84
  -5   0   1   65.45    2.60
   5   0  -1   63.55    2.40
   5   0  -1   69.19    2.61
   5   0  -1   70.51    2.65
  -5   0   1   71.34    2.92
  -5   0   1   72.65    2.70
   5   0  -1   65.50    2.31
   4   0  -1  381.56   10.18
  -4   0   1  385.33   10.47
  -4   0   1  391.92   10.97
   4   0  -1  389.57   10.43
   4   0  -1  377.12   10.03
   4   0  -1  392.53   10.49
  -4   0   1  371.27   10.41
  -3   0   1 1434.15   35.73
  -3   0   1 1429.56   36.99
   3   0  -1 1440.31   36.78
  -3   0   1 1462.33   38.51
  -3   0   1 1462.87   36.99
   3   0  -1 1473.48   36.97
   3   0  -1 1407.73   37.00
   3   0  -1 1445.88   35.76
   2   0  -1   88.57    2.54
  -2   0   1   91.59    2.84
   2   0  -1   87.30    2.65
   2   0  -1   89.72    2.58
  -2   0   1   88.56    2.55
   2   0  -1   89.57    2.68
  -2   0   1   88.31    2.65
  -1   0   1 6161.66  160.90
  -1   0   1 6437.60  167.13
  -1   0   1 6373.48  155.69
   1   0  -1 6009.35  160.94
   1   0  -1 6287.52  160.30
   1   0  -1 6312.05  155.92
   0   0  -1  246.70    6.13
   0   0  -1  246.58    6.34
   0   0  -1  250.21    6.29
   0   0   1  210.37    6.59
  -1   0  -1 2845.09   69.25
   1   0   1 2814.61   68.90
  -1   0  -1 2440.00   71.46
   2   0   1 7652.05  193.07
   2   0   1 7599.08  192.96
  -2   0  -1 6895.41  192.27
  -2   0  -1 7974.00  200.55
  -2   0  -1 7808.94  193.02
  -3   0  -1  633.64   16.30
  -3   0  -1  596.77   16.23
  -3   0  -1  619.08   16.96
   3   0   1  604.63   16.27
   3   0   1  645.83   16.30
   4   0   1  515.25   13.37
  -4   0  -1  506.94   14.27
  -4   0  -1  493.01   13.65
  -4   0  -1  502.95   13.66
   4   0   1  499.86   13.69
   4   0   1  532.89   13.73
  -5   0  -1   51.16    2.20
   5   0   1   49.96    2.20
  -5   0  -1   46.98    2.40
   5   0   1   48.39    1.87
   5   0   1   54.13    2.33
  -6   0  -1    1.04    0.69
   6   0   1   -0.79    0.45
   6   0   1    0.70    0.48
   6   0   1   -0.28    0.58
  -6   0  -1    0.21    0.83
   7   0   1   91.32    3.43
  -7   0  -1   90.73    3.65
  -7   0  -1   89.37    3.94
   7   0   1   92.80    3.68
   8   0   1  215.41    6.64
   8   0   1  208.41    6.97
  -8   0  -1  205.93    6.92
  -8   0  -1  205.67    7.37
  -9   0  -1    0.71    1.25
   9   0   1    0.94    0.98
   9   0   1   -0.07    1.11
  -9   0  -1    0.79    1.56
  10   0   1   52.15    3.21
 -10   0  -1   51.75    3.55
 -10   0  -1   52.02    3.22
  10   0   1   57.18    3.04
 -11   0  -1   -2.86    1.31
  11   0   1   -0.56    1.30
 -11   0  -1    1.12    1.75
  11   0   1   -0.34    1.04
 -12   0  -1    1.40    1.96
 -12   0  -1    1.91    1.63
  12   0   1    2.70    1.55
 -13   0  -1    3.85    2.12
 -14   0  -1    1.48    2.21
 -14  -1   1    2.29    2.12
 -14   1   1    0.89    2.47
 -13  -1   1    0.85    1.99
 -13   1   1    0.05    2.07
 -12   1   1    5.67    2.26
 -12  -1   1    4.88    1.75
  12  -1  -1    6.99    1.83
 -12  -1   1    7.64    2.26
 -11  -1   1   15.87    2.55
  11  -1  -1   17.56    2.17
  11   1  -1   15.36    1.90
 -11   1   1   15.78    2.50
 -11  -1   1   16.09    2.18
 -10  -1   1   43.35    2.95
  10   1  -1   42.28    2.91
  10  -1  -1   42.51    2.55
  10  -1  -1   42.82    2.63
  10   1  -1   48.26    2.86
  10  -1  -1   48.81    3.01
 -10  -1   1   50.59    3.44
 -10   1   1   46.57    3.40
  -9  -1   1   50.77    3.34
  -9   1   1   53.48    3.46
   9  -1  -1   53.52    2.73
   9  -1  -1   48.16    2.84
   9  -1  -1   54.22    2.69
  -9  -1   1   55.39    2.96
  -9   1   1   55.88    3.06
   9   1  -1   59.58    3.09
   9   1  -1   59.06    2.91
  -8  -1   1   27.49    2.42
   8  -1  -1   33.68    1.90
  -8  -1   1   28.93    2.01
   8   1  -1   32.43    2.11
  -8   1   1   34.44    2.20
   8  -1  -1   30.32    2.06
   8   1  -1   29.82    1.98
  -8   1   1   30.60    2.54
   8  -1  -1   31.64    1.96
  -7  -1   1   51.20    2.46
   7  -1  -1   50.11    2.46
  -7  -1   1   48.18    2.78
   7   1  -1   49.08    1.78
   7  -1  -1   47.81    2.21
   7   1  -1   50.67    2.49
  -7  -1   1   52.91    2.56
   7  -1  -1   51.81    2.46
   7  -1  -1   50.00    2.36
   7   1  -1   49.56    2.34
  -7   1   1   44.64    2.80
  -7   1   1   49.98    2.53
  -6  -1   1  293.62    8.53
   6  -1  -1  294.51    8.60
  -6  -1   1  286.75    9.09
   6  -1  -1  309.76    8.54
  -6   1   1  287.22    9.08
   6   1  -1  292.52    7.84
   6   1  -1  296.74    8.64
   6  -1  -1  284.93    8.47
  -6  -1   1  314.07    8.64
  -6   1   1  286.06    8.57
   6  -1  -1  286.82    8.11
   6   1  -1  295.12    8.28
  -5   1   1 2123.19   52.09
   5  -1  -1 2228.65   53.87
  -5   1   1 2111.32   56.20
  -5   1   1 2043.08   53.89
  -5  -1   1 2172.20   53.92
   5   1  -1 2056.47   53.93
   5  -1  -1 2074.98   52.01
   5  -1  -1 2093.92   53.92
   5  -1  -1 2101.13   53.80
  -5  -1   1 2068.27   56.20
  -5  -1   1 2086.12   53.87
   5   1  -1 2133.56   52.16
   5   1  -1 2037.72   53.30
   4  -1  -1  745.04   18.96
  -4  -1   1  760.58   19.74
  -4   1   1  766.98   19.05
  -4   1   1  721.77   19.70
  -4  -1   1  742.67   19.70
   4  -1  -1  723.26   19.71
   4  -1  -1  754.81   19.73
  -4  -1   1  730.94   20.66
   4   1  -1  752.00   19.77
   4   1  -1  784.09   19.11
   4  -1  -1  806.98   19.72
  -4   1   1  740.61   20.64
   4   1  -1  755.33   19.30
   3  -1  -1  942.91   23.15
   3   1  -1  884.09   23.20
  -3  -1   1  869.94   23.15
   3   1  -1  880.51   22.96
  -3   1   1  909.05   22.38
   3  -1  -1  855.87   23.21
  -3  -1   1  876.31   23.16
  -3  -1   1  919.18   24.29
  -3   1   1  924.95   24.27
   3  -1  -1  925.01   22.38
  -3   1   1  871.66   23.17
   3  -1  -1  905.82   23.18
   2  -1  -1  305.28    8.20
  -2  -1   1  310.09    8.74
   2   1  -1  322.44    8.13
  -2   1   1  316.21    8.25
  -2   1   1  310.22    7.91
   2  -1  -1  311.33    7.90
  -2   1   1  329.30    8.71
   2   1  -1  293.58    8.23
  -2  -1   1  300.73    8.20
  -2   1   1  304.81    8.21
   2   1  -1  315.19    8.26
   2  -1  -1  298.62    8.36
  -2  -1   1  305.01    8.21
  -1  -1   1 4630.57  125.39
  -1   1   1 4901.29  122.03
  -1   1   1 4978.68  127.25
  -1  -1   1 4737.20  125.31
  -1   1   1 4852.59  123.41
   1   1  -1 4762.77  123.01
   1   1  -1 4898.58  123.21
   1  -1  -1 4732.27  121.44
  -1  -1   1 4692.53  126.32
   0  -1  -1 9223.87  237.40
   0   1  -1 9260.08  251.56
   0  -1  -1 9895.90  249.39
   0  -1   1 9408.41  247.50
   0   1  -1 8924.23  252.02
  -1  -1  -1 1985.08   50.66
   1  -1   1 1913.92   48.57
  -1  -1  -1 1929.01   49.62
   1  -1   1 1796.96   49.22
  -1  -1  -1 1923.40   48.70
   1  -1   1 1837.12   50.60
   1   1   1 1963.03   48.93
   1   1   1 1964.00   48.87
  -1   1  -1 1872.21   50.60
  -1   1  -1 1900.07   48.87
  -1   1  -1 1899.27   47.46
  -1  -1  -1 1932.83   49.49
   2  -1   1 1210.10   31.39
  -2  -1  -1 1252.94   31.34
   2  -1   1 1223.27   30.30
  -2   1  -1 1232.12   32.74
  -2  -1  -1 1289.89   31.41
  -2   1  -1 1193.23   31.33
  -2  -1  -1 1061.66   32.52
   2  -1   1 1233.98   30.32
   2  -1   1 1202.38   31.29
   2   1   1 1272.16   31.38
  -2   1  -1 1229.25   31.34
   2   1   1 1277.52   31.39
  -3   1  -1  589.33   15.99
  -3  -1  -1  598.04   15.85
  -3  -1  -1  576.25   15.13
   3   1   1  591.41   15.21
   3  -1   1  542.37   15.12
  -3  -1  -1  589.71   15.17
   3  -1   1  582.51   15.11
   3  -1   1  561.94   14.55
  -3   1  -1  558.47   15.16
   3  -1   1  576.83   15.24
   4  -1   1  406.51   11.19
  -4   1  -1  408.77   11.84
  -4  -1  -1  409.27   11.17
   4  -1   1  432.03   11.17
   4  -1   1  398.96   11.16
   4  -1   1  407.07   10.69
   4   1   1  415.55   11.23
  -4  -1  -1  409.15   11.69
  -4  -1  -1  420.47   11.17
  -4   1  -1  396.62   11.18
  -5   1  -1   14.36    1.46
   5  -1   1   13.47    1.23
  -5  -1  -1   16.70    1.52
   5  -1   1   12.11    1.07
   5  -1   1   13.48    1.20
  -5   1  -1   12.86    1.23
  -5  -1  -1   12.33    1.22
   5   1   1   14.47    1.26
  -5  -1  -1   12.89    1.20
   5  -1   1   13.76    1.21
   6  -1   1  758.66   20.41
  -6  -1  -1  743.63   21.26
  -6   1  -1  747.68   21.39
   6  -1   1  823.02   20.42
   6  -1   1  749.77   20.22
  -6  -1  -1  780.07   20.37
  -6   1  -1  735.38   20.40
  -6  -1  -1  758.03   20.37
   6  -1   1  750.70   19.58
   6   1   1  758.57   20.49
  -7  -1  -1    9.02    1.24
   7   1   1   12.22    1.35
   7  -1   1    8.68    1.02
  -7   1  -1    6.68    1.16
   7  -1   1    6.28    1.12
  -7   1  -1   11.08    1.60
  -7  -1  -1    7.27    1.42
   7  -1   1   10.97    1.16
   8   1   1  236.72    7.11
   8  -1   1  216.40    6.85
  -8   1  -1  229.47    7.41
  -8   1  -1  223.22    7.89
   8  -1   1  222.07    7.33
   8  -1   1  228.93    7.03
   8   1   1  227.43    7.44
  -8  -1  -1  214.09    7.79
  -8  -1  -1  236.84    7.36
  -9   1  -1  186.20    6.65
  -9  -1  -1  179.15    6.97
  -9   1  -1  178.60    7.09
   9  -1   1  187.89    6.17
  -9  -1  -1  188.51    6.54
   9   1   1  196.68    6.43
   9  -1   1  194.24    6.66
   9  -1   1  185.35    6.19
   9   1   1  194.75    6.76
  10   1   1    6.09    1.40
 -10  -1  -1    3.51    1.44
  10  -1   1    1.71    1.36
  10  -1   1    2.83    1.15
 -10  -1  -1    4.55    1.76
 -10   1  -1    6.92    1.90
 -11   1  -1   25.06    2.88
  11   1   1   26.90    2.36
 -11  -1  -1   25.79    2.79
 -11  -1  -1   25.20    2.51
  11  -1   1   25.65    2.48
 -12  -1  -1   -0.33    1.40
  12  -1   1    0.94    1.43
 -12  -1  -1    1.98    1.87
 -12   1  -1   -1.07    1.75
 -13   1  -1    1.40    2.18
 -13  -1  -1    3.21    2.07
 -14   1  -1   -0.72    2.29
 -14  -1  -1    1.07    2.27
 -14   2   1    9.30    2.98
 -14  -2   1    3.36    2.34
 -13   2   1    4.46    2.45
 -13  -2   1    3.74    2.15
 -12  -2   1   -0.40    1.64
 -12   2   1    1.66    2.06
 -11  -2   1   23.54    2.74
  11  -2  -1   26.87    2.43
 -11  -2   1   27.12    2.44
  11  -2  -1   24.98    2.37
 -11   2   1   21.13    2.91
 -10   2   1   14.78    2.49
 -10  -2   1   18.38    2.07
 -10  -2   1   16.73    2.30
  10  -2  -1   16.80    1.96
  10  -2  -1   13.81    1.85
  -9   2   1   43.07    3.25
   9  -2  -1   45.32    2.70
   9  -2  -1   38.21    2.16
  -9  -2   1   39.19    2.91
   9  -2  -1   39.05    2.47
  -9  -2   1   39.98    2.54
  -8  -2   1   35.98    2.26
   8   2  -1   37.58    2.26
   8  -2  -1   35.30    1.91
   8  -2  -1   37.17    2.41
  -8  -2   1   35.57    2.64
  -8   2   1   36.00    2.80
   8  -2  -1   35.57    2.20
   7  -2  -1  248.75    7.66
  -7  -2   1  255.13    7.70
   7   2  -1  256.09    7.89
  -7   2   1  253.79    7.90
  -7   2   1  250.54    8.45
   7   2  -1  270.54    7.67
   7  -2  -1  265.11    8.07
  -7  -2   1  243.29    8.35
   7  -2  -1  254.72    7.24
  -6  -2   1  425.36   11.57
   6  -2  -1  435.50   11.50
   6  -2  -1  412.96   10.95
  -6   2   1  410.02   12.43
   6  -2  -1  415.58   11.94
  -6   2   1  401.86   11.68
  -6  -2   1  404.88   12.41
   6  -2  -1  417.00   11.52
   6   2  -1  408.09   11.69
  -6  -2   1  423.63   11.56
  -5   2   1   69.83    3.19
   5   2  -1   75.44    2.81
  -5  -2   1   73.02    2.68
   5  -2  -1   67.37    3.01
  -5  -2   1   72.63    3.21
   5  -2  -1   74.37    2.62
   5  -2  -1   71.41    2.36
  -5   2   1   71.38    2.77
  -5  -2   1   76.55    2.71
   4  -2  -1  120.31    3.26
  -4  -2   1  120.60    4.27
   4   2  -1  116.65    3.76
  -4  -2   1  119.71    3.64
  -4   2   1  119.13    4.22
  -4  -2   1  120.70    3.64
   4  -2  -1  115.42    3.54
   4  -2  -1  115.87    4.10
  -4   2   1  114.77    3.72
  -3  -2   1  516.82   13.27
   3   2  -1  506.16   13.43
   3  -2  -1  501.05   13.84
  -3   2   1  515.51   12.90
  -3   2   1  512.54   14.29
  -3  -2   1  498.28   13.26
   3   2  -1  535.71   13.23
  -3   2   1  503.50   13.40
  -3  -2   1  496.33   14.32
   2  -2  -1   72.98    2.78
   2   2  -1   80.79    2.38
  -2  -2   1   77.05    2.89
  -2   2   1   82.23    2.85
  -1  -2   1 1136.20   30.25
  -1   2   1 1147.35   30.10
   1  -2  -1 1088.98   28.97
   0  -2  -1 1065.58   31.13
   0  -2   1 1232.41   31.44
   0  -2   1 1185.05   30.05
   0  -2  -1 1187.73   29.99
  -1  -2  -1  721.07   18.97
   1  -2   1  749.72   19.32
  -1   2  -1  723.70   20.06
   1  -2   1  744.59   20.14
  -2   2  -1  738.42   18.95
   2   2   1  741.94   18.94
  -2  -2  -1  751.86   18.90
  -2   2  -1  740.43   18.27
   2  -2   1  711.83   20.19
  -2   2  -1  718.31   20.15
  -2   2  -1  748.54   18.32
   2  -2   1  718.54   19.40
  -3   2  -1  359.54    9.65
  -3  -2  -1  364.78    9.43
  -3  -2  -1  351.11   10.19
  -3   2  -1  346.65    9.22
   3  -2   1  359.16   10.07
   3   2   1  361.93    9.64
   3  -2   1  366.83    9.39
  -3  -2  -1  352.91    9.43
  -3   2  -1  345.93   10.40
   4   2   1 2540.94   63.75
   4  -2   1 2466.13   61.43
  -4   2  -1 2398.75   63.69
   4  -2   1 2431.25   63.90
  -4  -2  -1 2472.26   66.37
  -4  -2  -1 2550.96   63.64
   4  -2   1 2546.01   63.52
  -4  -2  -1 2524.54   63.57
  -4   2  -1 2482.35   66.62
   4  -2   1 2548.19   61.44
  -5  -2  -1  683.86   17.85
  -5   2  -1  659.08   18.04
  -5  -2  -1  678.33   17.86
  -5   2  -1  677.28   19.14
  -5  -2  -1  676.80   18.86
   5  -2   1  642.51   17.04
   5  -2   1  701.49   17.82
   5   2   1  673.14   18.05
   5  -2   1  654.33   18.26
   5  -2   1  681.73   17.11
  -6  -2  -1   28.52    1.75
   6   2   1   27.33    1.78
   6  -2   1   26.72    1.49
   6  -2   1   28.05    1.74
  -6  -2  -1   29.43    1.77
   6  -2   1   27.97    1.91
  -6   2  -1   25.56    1.85
  -6  -2  -1   26.69    1.99
  -6   2  -1   27.82    2.24
   7  -2   1   71.60    3.21
  -7  -2  -1   68.39    2.97
   7  -2   1   66.17    2.95
   7   2   1   67.22    3.08
  -7   2  -1   67.63    3.56
  -7  -2  -1   67.64    3.32
  -7   2  -1   68.00    3.12
   7  -2   1   67.74    2.64
  -8  -2  -1   75.24    3.25
   8  -2   1   66.01    2.81
   8  -2   1   68.08    3.30
  -8  -2  -1   62.11    3.49
  -8   2  -1   67.63    3.77
   8  -2   1   68.90    3.17
  -9  -2  -1   40.47    2.96
   9  -2   1   43.64    2.35
  -9   2  -1   39.63    3.27
   9  -2   1   46.52    2.78
  -9  -2  -1   43.14    2.63
   9  -2   1   45.55    2.69
  10  -2   1    1.73    1.24
  10  -2   1    0.68    1.14
 -10   2  -1    0.82    1.80
 -10  -2  -1    0.21    1.19
 -10  -2  -1    0.34    1.40
 -11  -2  -1    3.37    1.47
 -11  -2  -1    1.42    1.60
 -11   2  -1    1.02    1.93
  11  -2   1    3.42    1.42
 -12   2  -1    0.18    2.09
 -12  -2  -1    1.95    1.74
 -13   2  -1    0.81    2.28
 -13  -2  -1    0.84    1.95
 -14  -2  -1    5.49    2.51
 -13   3   1    0.17    2.40
 -13  -3   1    3.13    2.15
 -12  -3   1    4.04    1.92
 -12   3   1    0.64    2.08
  12  -3  -1    0.14    1.48
  11  -3  -1   32.09    2.92
 -11   3   1   34.26    3.46
 -11  -3   1   31.19    3.12
 -10  -3   1    8.79    1.95
 -10   3   1    5.51    2.00
 -10  -3   1    8.15    1.50
  10  -3  -1    6.99    1.77
   9  -3  -1  116.55    3.73
   9  -3  -1  114.66    5.08
  -9   3   1   99.75    5.18
  -9  -3   1  121.71    4.43
  -9  -3   1  107.93    5.09
   8  -3  -1   12.53    1.88
  -8  -3   1   11.25    1.47
  -8   3   1   14.13    2.13
   8  -3  -1   11.26    0.99
  -8  -3   1   16.06    2.06
  -7  -3   1   -0.89    1.14
  -7  -3   1   -0.03    0.82
  -7   3   1    0.12    1.28
   7  -3  -1    0.82    1.08
  -6  -3   1  145.00    5.61
  -6   3   1  153.99    5.73
  -6  -3   1  148.71    4.58
  -6  -3   1  149.67    4.59
   6  -3  -1  157.90    5.65
  -5  -3   1    9.42    1.41
  -5   3   1    7.00    0.95
  -5  -3   1    6.22    0.69
   5   3  -1    7.24    0.92
   5  -3  -1    6.69    1.24
  -5   3   1    4.84    1.25
  -5  -3   1    5.64    0.65
  -4   3   1   12.76    1.01
  -4   3   1   12.56    1.45
   4   3  -1   11.34    1.01
   4   3  -1   14.60    0.87
  -4  -3   1   13.34    1.47
   4  -3  -1   14.35    1.49
   3   3  -1   51.57    1.93
  -3   3   1   55.66    2.59
   3  -3  -1   53.15    2.56
  -3   3   1   55.51    1.91
  -3  -3   1   50.80    2.57
   2  -3  -1  130.94    4.56
  -2  -3   1  131.04    4.64
  -2   3   1  130.82    4.52
   2  -3  -1  140.41    4.63
  -1  -3   1  734.09   21.23
   1  -3  -1  751.51   20.41
  -1   3   1  782.37   21.09
  -1  -3   1  800.37   20.27
   1  -3  -1  769.93   21.12
   0  -3   1 1966.22   50.74
   0  -3  -1 1984.96   50.70
   0  -3   1 1984.41   52.98
   1  -3   1  291.46    8.97
   1  -3   1  292.46    8.57
  -1   3  -1  289.87    8.86
  -1  -3  -1  297.85    8.22
  -2  -3  -1  393.52   10.27
   2  -3   1  384.16   11.30
  -2  -3  -1  350.31   10.87
  -2   3  -1  391.27   11.28
   2  -3   1  377.36   10.88
  -3   3  -1  525.97   14.17
  -3  -3  -1  545.84   15.20
   3   3   1  519.30   14.14
  -3  -3  -1  560.63   14.09
  -3   3  -1  536.19   15.54
   4   3   1  158.58    4.81
  -4   3  -1  156.93    4.86
   4  -3   1  152.45    5.48
  -4   3  -1  157.28    5.65
  -4  -3  -1  158.07    5.40
  -5  -3  -1  126.83    3.76
   5  -3   1  129.02    4.92
  -5  -3  -1  129.68    4.76
  -5  -3  -1  133.84    3.79
  -5   3  -1  124.77    5.07
  -6  -3  -1   14.84    1.71
  -6   3  -1   14.42    1.91
  -6  -3  -1   15.54    1.23
   6  -3   1   12.27    1.67
  -6  -3  -1   13.13    1.16
   7  -3   1   34.24    2.48
  -7  -3  -1   31.12    1.82
  -7  -3  -1   31.36    2.42
  -7   3  -1   30.08    2.72
  -8  -3  -1   55.29    3.36
  -8  -3  -1   55.90    2.68
   8  -3   1   53.74    2.17
  -8   3  -1   56.39    3.73
   8  -3   1   54.46    3.31
   9  -3   1  102.95    3.58
  -9   3  -1  102.16    5.21
   9  -3   1  111.13    4.90
  -9  -3  -1  107.72    4.19
  -9  -3  -1  103.50    4.87
  10  -3   1   24.86    2.59
 -10  -3  -1   26.84    2.15
 -10  -3  -1   23.23    2.59
 -10   3  -1   25.55    2.98
  11  -3   1   10.38    1.99
 -11  -3  -1    8.07    2.04
 -11   3  -1   10.46    2.51
 -12   3  -1    1.21    2.20
 -12  -3  -1   -1.20    1.64
 -13   3  -1    1.97    2.47
 -13  -3  -1    1.14    1.94
  13  -4  -1   10.96    2.70
 -13  -4   1    9.19    2.74
 -12  -4   1   -0.42    1.95
 -12   4   1   -0.95    2.38
  12  -4  -1    2.89    1.92
 -11   4   1    0.71    2.01
 -11  -4   1    2.20    1.94
  11  -4  -1    0.19    1.60
 -10  -4   1    6.69    2.07
 -10  -4   1    7.82    1.23
  10  -4  -1    7.90    2.07
 -10   4   1    8.61    2.41
  -9   4   1    1.23    1.90
  -9  -4   1    3.73    0.91
   9  -4  -1    0.93    1.55
  -9  -4   1    4.99    1.86
  -8  -4   1   33.71    3.01
  -8   4   1   31.31    2.98
   8  -4  -1   27.77    2.78
  -7   4   1   30.91    2.86
  -7  -4   1   29.03    2.73
   7  -4  -1   28.41    2.63
   6  -4  -1   48.11    3.10
  -6  -4   1   48.41    3.19
  -6   4   1   47.04    3.09
   5  -4  -1    5.11    1.48
  -5  -4   1    4.75    1.39
  -5   4   1    7.61    1.57
   4  -4  -1   16.33    1.97
  -4  -4   1   20.17    2.00
  -4   4   1   16.99    1.86
  -3   4   1  124.70    4.76
   3  -4  -1  121.89    4.78
  -3  -4   1  124.50    4.83
  -2  -4   1  187.76    6.39
  -2   4   1  184.70    6.23
   2  -4  -1  184.76    6.32
   2  -4  -1  178.63    6.21
   1  -4  -1  109.20    4.17
  -1  -4   1  102.07    4.21
   1  -4  -1  103.93    4.05
  -1   4   1  103.06    4.06
   0  -4   1   52.93    2.88
   0  -4  -1   55.28    2.74
   0  -4   1   52.45    2.65
   0  -4  -1   56.07    2.66
   1  -4   1  303.76    9.51
  -1  -4  -1  295.11    9.16
   1  -4   1  292.83    9.07
  -1   4  -1  295.52    9.41
  -1  -4  -1  310.91    8.79
  -2  -4  -1  198.73    5.96
  -2  -4  -1  199.21    6.49
   2  -4   1  189.75    6.78
   2  -4   1  193.25    6.57
  -2   4  -1  185.76    6.71
  -3  -4  -1   93.14    3.86
  -3  -4  -1   94.35    3.25
  -3   4  -1   95.11    2.89
  -3   4  -1   92.47    4.16
   3  -4   1   90.07    4.12
   3  -4   1   90.14    4.02
  -4  -4  -1  243.01    7.88
  -4   4  -1  232.86    8.14
   4  -4   1  239.50    8.06
  -5   4  -1  222.38    7.92
   5  -4   1  211.50    7.69
  -5  -4  -1  229.05    7.55
   6  -4   1   32.28    2.70
  -6  -4  -1   33.74    2.63
  -6   4  -1   33.27    2.85
   7  -4   1   43.74    3.12
  -7  -4  -1   40.51    3.06
  -7   4  -1   42.52    3.28
  -8  -4  -1   40.41    3.13
  -8   4  -1   47.86    3.59
   8  -4   1   38.15    3.19
  -9   4  -1   38.75    3.54
   9  -4   1   41.80    3.29
  -9  -4  -1   37.63    3.02
  -9  -4  -1   35.58    1.79
 -10  -4  -1    9.07    1.27
 -10   4  -1    7.66    2.34
  10  -4   1    7.12    2.05
 -10  -4  -1   11.47    2.18
 -11   4  -1    2.08    2.20
 -11  -4  -1   -0.93    1.58
 -12   4  -1    4.31    2.62
 -12  -4  -1    6.27    2.26
 -13  -4  -1    1.05    2.03
 -12  -5   1   -0.90    2.13
  12  -5  -1    0.68    2.01
  11  -5  -1   14.53    2.87
 -11   5   1   15.64    3.13
 -11  -5   1    7.82    2.44
  10  -5  -1    7.19    2.29
 -10   5   1    4.96    2.31
 -10  -5   1    5.71    2.23
  -9  -5   1    9.33    2.33
  -9   5   1    4.91    2.27
   9  -5  -1    6.65    2.14
  -8   5   1   55.08    4.02
   8  -5  -1   50.57    4.01
  -8  -5   1   55.46    3.92
  -7  -5   1    0.56    1.75
  -7   5   1    0.50    1.75
   7  -5  -1    5.17    1.94
  -6   5   1   71.99    4.24
   6  -5  -1   80.89    4.48
  -6  -5   1   82.00    4.43
   5  -5  -1    8.36    1.87
  -5  -5   1   12.12    2.13
  -5   5   1    7.50    1.87
  -4   5   1   27.98    2.62
   4  -5  -1   28.31    2.64
  -4  -5   1   28.07    2.63
  -3   5   1  118.02    4.96
  -3  -5   1  116.27    5.03
   3  -5  -1  114.85    5.01
  -2  -5   1   47.29    3.06
   2  -5  -1   48.91    3.00
  -2   5   1   46.57    2.92
   2  -5  -1   38.21    2.77
   1  -5  -1   32.05    2.41
  -1   5   1   33.94    2.49
   1  -5  -1   33.58    2.55
  -1  -5   1   35.57    2.74
   0  -5   1   18.68    1.96
   0  -5   1   22.27    2.23
   0  -5  -1   15.35    1.99
   0  -5  -1   19.36    1.89
   1  -5   1  259.44    8.53
   1  -5   1  265.94    8.91
  -1  -5  -1  255.39    8.52
  -1   5  -1  248.50    8.76
  -1  -5  -1  264.55    8.16
   2  -5   1  102.17    4.54
  -2   5  -1   97.93    4.68
   2  -5   1  102.38    4.79
  -2  -5  -1  101.39    4.42
  -2  -5  -1  108.82    4.04
   3  -5   1   61.27    3.66
  -3  -5  -1   63.80    3.47
  -3   5  -1   64.04    3.71
   3  -5   1   57.02    3.47
   4  -5   1   90.41    4.48
  -4   5  -1   88.42    4.49
  -4  -5  -1   85.06    4.19
  -5   5  -1    8.38    1.95
   5  -5   1    3.87    1.68
  -5  -5  -1    4.91    1.65
   6  -5   1    8.11    1.98
  -6  -5  -1   10.77    2.07
  -6   5  -1   12.46    2.35
   7  -5   1   13.50    2.33
  -7  -5  -1   10.73    2.12
  -7   5  -1    8.99    2.30
  -8  -5  -1   12.94    2.27
   8  -5   1   11.29    2.37
  -8   5  -1   13.01    2.61
   9  -5   1    1.05    1.84
  -9   5  -1   -0.47    2.01
  -9  -5  -1    1.35    1.72
  10  -5   1    8.33    2.37
 -10   5  -1    7.82    2.68
 -10  -5  -1    5.92    2.20
 -11  -5  -1    6.24    2.40
 -11   5  -1    2.22    2.56
  11  -6  -1   -0.70    2.17
 -10  -6   1    1.45    2.39
 -10   6   1    1.13    2.45
  10  -6  -1    2.27    2.31
  -9   6   1    0.67    2.28
  -9  -6   1    2.18    2.20
   9  -6  -1    2.10    2.12
   8  -6  -1   11.62    2.59
  -8  -6   1   18.23    2.93
  -8   6   1    8.05    2.74
   7  -6  -1    2.65    1.91
  -7  -6   1    2.12    1.93
  -7   6   1    0.66    1.97
  -6  -6   1   -0.40    1.72
   6  -6  -1    3.85    1.89
  -6   6   1    4.51    2.03
  -5  -6   1   15.17    2.47
   5  -6  -1   11.70    2.29
  -5   6   1   17.21    2.56
  -4  -6   1   31.89    3.02
   4  -6  -1   22.91    2.75
  -4   6   1   32.85    2.95
  -3   6   1   29.28    2.77
  -3  -6   1   24.82    2.77
   3  -6  -1   27.22    2.79
  -2  -6   1   40.74    3.24
  -2   6   1   42.63    3.16
   2  -6  -1   45.95    3.29
   2  -6  -1   47.23    3.25
   1  -6  -1    3.90    1.56
  -1   6   1    3.50    1.68
   1  -6  -1    1.84    1.51
  -1  -6   1    2.26    1.67
   0   6  -1   29.05    2.74
   0   6   1   27.77    2.67
   0  -6  -1   24.19    2.36
   0  -6  -1   27.09    2.61
   0  -6   1   24.40    2.72
  -1  -6  -1   16.24    2.14
   1  -6   1   15.77    2.40
  -1   6  -1   15.34    2.34
  -1  -6  -1   15.01    1.93
   2  -6   1   13.16    2.34
   2  -6   1   13.52    2.25
  -2   6  -1   15.56    2.41
  -2  -6  -1   18.93    2.24
  -3   6  -1    3.31    1.85
  -3  -6  -1    4.73    1.67
   3  -6   1    6.38    1.82
   4  -6   1   11.47    2.27
  -4   6  -1   14.86    2.49
  -4  -6  -1   12.06    2.08
  -5   6  -1    2.97    1.88
   5  -6   1    3.38    1.76
  -5  -6  -1    3.86    1.75
  -6  -6  -1   15.50    2.47
   6  -6   1   13.49    2.56
  -6   6  -1   16.80    2.76
  -7   6  -1    7.71    2.51
   7  -6   1    7.87    2.41
   8  -6   1   -1.73    1.74
  -8   6  -1   -0.40    2.11
  -9   6  -1    8.56    2.92
 -10   6  -1    9.25    3.18
   9  -7  -1   -0.74    2.28
   8  -7  -1   -0.30    2.21
   7  -7  -1    6.50    2.52
  -7   7   1   10.26    2.80
  -7  -7   1   12.14    2.90
   6  -7  -1    2.69    2.18
  -6  -7   1   -0.15    1.92
  -6   7   1   -0.49    2.11
  -5  -7   1    9.34    2.50
   5  -7  -1    7.26    2.41
  -5   7   1    8.55    2.50
  -4   7   1   15.29    2.68
  -4  -7   1    7.16    2.27
   4  -7  -1   11.17    2.46
  -3  -7   1   12.93    2.52
   3  -7  -1   10.47    2.32
   2  -7  -1    9.49    2.10
  -2  -7   1    6.05    2.10
   1  -7  -1   13.17    2.29
  -1  -7   1   13.68    2.55
   1   7  -1   11.32    2.43
   0  -7   1    0.53    1.76
   0   7  -1   -0.92    1.79
  -1   7  -1    4.61    2.18
   1  -7   1    2.55    2.03
  -2   7  -1   16.76    2.73
   2  -7   1   12.94    2.55
  -3   7  -1    2.45    1.92
  -4   7  -1    2.77    2.24
  -5   7  -1    1.09    2.19
  -6   7  -1    3.52    2.30
  -7   7  -1    1.64    2.53
  -8   7  -1    2.46    2.57
   6  -8  -1    6.38    2.76
   5  -8  -1    1.83    2.42
   4  -8  -1   -0.14    2.04
   3  -8  -1    1.61    2.23
   2  -8  -1    5.62    2.32
  -2   8  -1    7.25    2.77
  -3   8  -1   -0.58    2.20
  -4   8  -1   -3.37    2.31
  -5   8  -1   -0.59    2.63
 -14   0   2    2.82    2.39
  13   0  -2    6.34    1.90
 -13   0   2   14.15    2.79
  12   0  -2    1.37    1.39
 -12   0   2    1.40    1.48
 -12   0   2    3.96    2.10
 -11   0   2    2.06    1.52
  11   0  -2   -1.12    1.00
 -11   0   2    1.04    1.88
  11   0  -2    0.11    1.37
  10   0  -2    7.85    1.40
  10   0  -2    5.49    1.58
 -10   0   2    9.11    2.18
 -10   0   2    5.83    1.71
   9   0  -2   71.54    3.46
   9   0  -2   69.64    3.17
  -9   0   2   75.44    3.54
  -9   0   2   71.06    3.91
   9   0  -2   74.46    3.00
  -8   0   2    8.88    1.65
  -8   0   2    8.42    1.31
   8   0  -2    6.86    1.23
   8   0  -2    8.63    1.10
   8   0  -2    9.03    1.12
   7   0  -2   94.62    3.70
  -7   0   2   95.68    4.06
   7   0  -2   93.03    3.44
  -7   0   2   96.28    3.70
   7   0  -2   96.16    3.32
  -6   0   2  117.36    4.16
   6   0  -2  119.88    3.96
  -6   0   2  128.48    4.62
   6   0  -2  120.32    3.87
   6   0  -2  126.41    4.26
   5   0  -2   33.39    1.70
   5   0  -2   29.60    1.47
   5   0  -2   29.40    1.45
  -5   0   2   31.71    1.63
   5   0  -2   30.36    1.60
  -5   0   2   28.73    1.90
  -5   0   2   36.13    1.63
  -4   0   2  610.39   16.10
   4   0  -2  597.63   15.86
   4   0  -2  630.85   16.08
   4   0  -2  612.47   16.11
  -4   0   2  608.05   16.79
  -4   0   2  602.44   15.48
   4   0  -2  600.05   15.48
  -4   0   2  588.56   16.03
  -3   0   2  944.23   24.57
   3   0  -2  930.60   23.69
   3   0  -2  947.40   24.41
   3   0  -2  961.21   24.55
  -3   0   2  958.81   25.59
  -3   0   2  921.74   24.53
   3   0  -2  951.94   24.59
  -3   0   2  970.06   23.73
   2   0  -2 9851.30  240.22
   2   0  -2 9678.39  248.25
   2   0  -2 9787.22  248.19
   2   0  -2 9848.38  247.29
  -2   0   2 9409.99  247.63
  -2   0   2 9999.98  257.46
  -2   0   2 9726.74  239.56
   1   0  -2 1299.90   33.29
  -1   0   2 1285.86   32.15
   1   0  -2 1273.65   33.18
   1   0  -2 1345.89   32.21
  -1   0   2 1290.96   34.58
   0   0   2  127.47    3.72
   0   0  -2  125.69    3.53
   0   0  -2  125.33    3.68
   0   0  -2  128.58    3.71
  -1   0  -2 2060.29   49.31
   1   0   2 2047.68   47.65
   1   0   2 1690.42   49.13
  -2   0  -2   13.95    0.84
   2   0   2   15.12    0.92
  -2   0  -2   15.35    0.93
  -2   0  -2   17.25    0.95
   2   0   2   15.67    0.88
  -2   0  -2   11.89    0.82
  -3   0  -2  594.67   15.56
  -3   0  -2  592.46   16.15
   3   0   2  608.27   15.57
   3   0   2  569.03   15.53
  -3   0  -2  572.93   15.51
  -4   0  -2  476.74   13.64
   4   0   2  471.16   13.11
  -4   0  -2  473.65   13.11
   4   0   2  512.61   13.19
  -4   0  -2  483.41   13.10
   5   0   2   27.91    1.61
  -5   0  -2   26.16    1.77
  -5   0  -2   26.99    1.63
  -6   0  -2   59.45    2.60
   6   0   2   55.30    2.58
  -6   0  -2   54.89    2.89
  -7   0  -2  320.70   10.18
  -7   0  -2  330.66    9.74
   7   0   2  325.63    9.79
  -8   0  -2  742.84   21.42
  -8   0  -2  717.04   20.45
   8   0   2  750.87   20.63
   8   0   2  762.53   19.79
  -9   0  -2  199.36    7.35
   9   0   2  205.98    6.64
   9   0   2  196.88    6.98
  -9   0  -2  185.84    6.80
  10   0   2   16.89    2.08
 -10   0  -2   17.43    2.16
  10   0   2   14.62    1.74
 -10   0  -2   13.49    2.22
 -11   0  -2   -1.95    1.31
  11   0   2   -0.31    1.21
 -11   0  -2    0.90    1.72
  12   0   2    2.65    1.56
 -12   0  -2   -1.30    1.87
 -12   0  -2   -0.86    1.42
 -13   0  -2   -0.10    1.98
 -14   0  -2   10.81    2.86
 -14  -1   2    7.99    2.67
 -14   1   2    4.96    2.52
 -13  -1   2    6.04    2.33
 -13   1   2    4.91    2.27
 -12   1   2    9.66    2.45
  12  -1  -2    5.89    1.69
 -12  -1   2    3.74    2.09
 -12  -1   2    5.83    1.79
  11  -1  -2   45.95    3.05
 -11  -1   2   47.99    3.14
 -11   1   2   45.60    3.64
 -11  -1   2   39.42    3.46
  11   1  -2   47.41    2.98
 -10   1   2  201.80    7.53
  10   1  -2  199.25    6.72
  10  -1  -2  196.37    6.96
 -10  -1   2  188.51    6.81
  10  -1  -2  182.17    6.36
 -10  -1   2  193.92    7.50
  10  -1  -2  194.98    6.58
  10   1  -2  192.30    6.99
  -9   1   2    9.29    1.58
  -9   1   2    4.32    1.62
   9   1  -2    8.13    1.45
   9   1  -2    8.37    1.28
   9  -1  -2    5.49    1.21
   9  -1  -2    4.54    1.04
   9  -1  -2    7.97    1.44
  -9  -1   2    5.25    1.39
  -9  -1   2    5.37    1.72
   8   1  -2   43.62    2.31
   8  -1  -2   41.50    2.28
  -8   1   2   39.95    2.80
   8  -1  -2   40.75    2.14
  -8  -1   2   38.90    2.78
  -8   1   2   46.16    2.56
   8   1  -2   42.20    2.43
  -8  -1   2   40.63    2.39
   8  -1  -2   42.04    2.39
  -7   1   2   12.57    1.38
  -7  -1   2    9.58    1.48
  -7  -1   2    9.03    1.23
   7   1  -2   12.80    1.34
   7  -1  -2   10.96    1.09
   7  -1  -2   13.47    1.27
   7  -1  -2   10.33    1.25
   7   1  -2   10.72    0.93
  -7   1   2   10.32    1.56
   7   1  -2   11.27    1.16
  -7  -1   2   11.34    1.32
   6  -1  -2  116.20    4.05
   6  -1  -2  127.49    4.08
  -6   1   2  110.64    4.04
   6   1  -2  116.54    3.91
   6  -1  -2  111.86    3.99
   6   1  -2  116.58    3.51
   6   1  -2  117.37    4.10
  -6  -1   2  121.74    4.15
  -6  -1   2  119.84    4.49
  -6  -1   2  111.89    4.01
   6  -1  -2  116.77    3.80
  -6   1   2  116.60    4.45
   5   1  -2   63.24    2.54
  -5  -1   2   63.87    2.50
  -5   1   2   61.32    2.82
   5   1  -2   63.04    2.38
  -5   1   2   65.63    2.56
   5  -1  -2   62.78    2.52
   5  -1  -2   62.01    2.50
  -5  -1   2   64.88    2.56
  -5  -1   2   62.17    2.79
   5  -1  -2   56.78    2.51
   5   1  -2   64.32    2.12
  -5   1   2   65.61    2.47
   5  -1  -2   63.52    2.30
  -4   1   2  128.20    4.23
   4   1  -2  124.46    3.97
   4  -1  -2  126.30    3.92
   4   1  -2  123.54    3.60
  -4   1   2  127.71    3.96
   4  -1  -2  126.56    3.71
  -4  -1   2  128.59    3.96
   4   1  -2  123.74    3.77
   4  -1  -2  118.60    3.96
  -4  -1   2  123.62    4.27
  -4  -1   2  122.67    3.91
  -4   1   2  133.34    3.81
   4  -1  -2  123.53    3.91
   3   1  -2 1178.56   28.87
  -3  -1   2 1135.38   29.83
   3   1  -2 1174.86   29.66
  -3   1   2 1183.39   31.11
  -3  -1   2 1184.41   31.24
  -3   1   2 1164.94   28.83
   3   1  -2 1119.67   29.88
  -3   1   2 1138.94   29.85
  -3  -1   2 1181.17   29.87
   3  -1  -2 1177.20   29.87
   3  -1  -2 1116.06   29.86
   3  -1  -2 1171.69   28.82
  -2  -1   2 2891.88   74.86
  -2  -1   2 2935.60   74.90
  -2  -1   2 2931.75   77.90
   2  -1  -2 2986.36   74.96
   2   1  -2 2961.49   74.69
   2  -1  -2 2958.27   72.55
  -2   1   2 3013.46   74.84
   2  -1  -2 2824.98   74.71
  -2  -1   2 2864.71   72.40
   2   1  -2 2843.70   74.85
   2   1  -2 2987.22   72.43
  -2   1   2 3055.75   77.87
   2   1  -2 3029.76   74.83
  -2   1   2 2997.32   72.39
   1  -1  -2 6856.95  184.74
   1  -1  -2 7261.53  180.92
  -1   1   2 7767.45  193.48
  -1   1   2 7255.19  179.01
   1   1  -2 7384.45  185.37
  -1  -1   2 7146.11  185.19
  -1  -1   2 7229.13  185.72
  -1  -1   2 7359.50  192.05
   1   1  -2 7580.62  184.64
   1   1  -2 7321.04  179.56
  -1  -1   2 6999.37  179.71
  -1   1   2 7337.63  185.01
   1  -1  -2 7402.02  186.30
   1   1  -2 7067.21  185.18
   0  -1   2 5085.91  126.89
   0  -1   2 5337.29  134.62
   0   1   2 5269.81  130.12
   0  -1  -2 4999.71  130.59
   0  -1   2 4853.17  130.10
   0   1  -2 4941.95  129.99
   0  -1  -2 5162.55  130.22
   0  -1  -2 5145.94  131.15
   0   1  -2 5189.20  126.40
   1  -1   2 4491.38  110.70
  -1   1  -2 4415.76  110.53
  -1  -1  -2 4507.46  114.40
  -1  -1  -2 4661.88  119.71
   1   1   2 4404.12  114.04
  -1  -1  -2 4680.36  114.61
  -1   1  -2 4362.89  114.12
   1  -1   2 4329.85  114.08
  -1  -1  -2 4511.01  114.72
   1   1   2 4779.01  114.17
   1  -1   2 4470.12  118.49
  -1   1  -2 4360.65  118.44
  -2   1  -2 3696.93   96.64
  -2  -1  -2 3987.50  100.78
  -2  -1  -2 3793.57   96.60
  -2   1  -2 3718.84  100.53
   2  -1   2 3791.16   96.61
   2  -1   2 3782.01   93.49
   2   1   2 3793.37   96.65
  -2  -1  -2 3830.74   96.70
  -2  -1  -2 3905.29   96.87
   3  -1   2 2570.81   62.79
  -3  -1  -2 2241.77   65.15
   3  -1   2 2422.77   60.67
  -3  -1  -2 2532.87   62.83
  -3   1  -2 2437.86   62.84
  -3  -1  -2 2489.83   62.75
  -3  -1  -2 2512.44   62.53
   3   1   2 2486.61   62.85
  -3   1  -2 2483.41   65.46
   4   1   2   23.29    1.39
  -4   1  -2   19.58    1.59
  -4  -1  -2   21.97    1.04
   4  -1   2   20.54    1.37
  -4   1  -2   20.53    1.37
  -4  -1  -2   21.05    1.52
  -4  -1  -2   20.54    1.31
  -4  -1  -2   21.35    1.36
   4  -1   2   19.22    1.31
   5  -1   2  177.95    5.31
  -5  -1  -2  178.80    5.86
   5   1   2  182.24    5.70
   5  -1   2  172.84    5.62
  -5   1  -2  174.14    5.67
   5  -1   2  192.71    5.67
  -5  -1  -2  179.70    5.60
  -5  -1  -2  178.54    5.61
  -5   1  -2  172.57    6.06
  -5  -1  -2  199.15    5.10
  -6  -1  -2  322.86    8.13
  -6   1  -2  280.07    9.31
  -6  -1  -2  302.35    8.79
  -6   1  -2  298.40    8.91
   6  -1   2  317.24    8.86
  -6  -1  -2  285.78    9.15
   6  -1   2  289.41    8.36
   6  -1   2  296.04    8.82
  -6  -1  -2  293.06    8.77
   6   1   2  296.60    8.90
   7   1   2  106.01    4.04
  -7   1  -2  101.81    4.03
  -7  -1  -2  103.01    3.92
  -7   1  -2   96.00    4.30
   7  -1   2   95.20    3.87
   7  -1   2   99.79    3.62
  -7  -1  -2   94.32    4.22
   8  -1   2  150.94    5.46
  -8  -1  -2  138.25    5.74
   8  -1   2  138.51    4.98
  -8   1  -2  146.11    5.88
  -8   1  -2  155.01    5.59
  -8  -1  -2  152.75    5.42
   8   1   2  151.66    5.54
   9  -1   2   87.39    3.68
   9  -1   2   88.53    4.09
  -9  -1  -2   85.83    4.37
  -9   1  -2   88.25    4.58
  -9   1  -2   87.63    4.16
  -9  -1  -2   92.72    4.08
   9   1   2   96.10    4.26
 -10  -1  -2   56.27    3.65
  10   1   2   59.86    3.24
 -10   1  -2   56.21    3.75
  10  -1   2   51.31    2.87
 -10  -1  -2   56.25    3.27
  10  -1   2   52.22    3.21
 -11  -1  -2   10.60    2.21
 -11   1  -2    9.66    2.30
 -11  -1  -2   10.22    1.91
  11  -1   2   12.38    1.99
  12  -1   2    7.81    1.93
 -12  -1  -2   10.29    2.37
 -12   1  -2    8.33    2.39
 -12  -1  -2    9.07    1.97
 -13   1  -2    0.67    2.09
 -13  -1  -2    6.77    2.32
 -14  -1  -2    3.03    2.37
 -14   1  -2    5.19    2.65
 -14  -2   2   15.88    3.09
 -14   2   2   14.22    3.15
 -13   2   2    6.20    2.51
 -13  -2   2    5.31    2.36
 -12  -2   2   11.88    2.42
 -12   2   2   10.95    2.51
 -11  -2   2    2.77    1.77
  11  -2  -2    0.83    1.27
 -11   2   2    2.11    1.93
 -11  -2   2   -2.29    1.20
  11  -2  -2   -0.86    1.09
 -10  -2   2   44.07    3.36
 -10   2   2   44.87    3.50
 -10  -2   2   47.39    2.97
  10  -2  -2   48.17    2.90
  10  -2  -2   49.16    3.00
  -9  -2   2   43.12    2.74
   9  -2  -2   49.48    2.46
  -9   2   2   47.92    3.41
   9  -2  -2   52.10    2.97
  -9  -2   2   52.57    3.36
   9  -2  -2   49.70    2.76
   8  -2  -2   80.30    3.63
  -8  -2   2   77.63    3.90
   8  -2  -2   77.73    3.04
  -8   2   2   75.19    3.97
   8  -2  -2   76.94    3.34
  -8  -2   2   76.66    3.38
   8   2  -2   86.59    3.52
  -7   2   2   57.44    3.13
   7   2  -2   57.47    2.73
  -7   2   2   58.79    2.78
   7   2  -2   60.48    2.67
  -7  -2   2   58.57    2.65
   7  -2  -2   53.29    2.53
   7  -2  -2   54.61    2.31
   7  -2  -2   55.41    2.86
  -7  -2   2   57.66    3.17
   6  -2  -2   27.41    1.61
   6   2  -2   32.26    1.81
  -6  -2   2   29.83    1.70
  -6   2   2   30.73    1.88
  -6  -2   2   30.58    1.75
  -6   2   2   27.72    2.11
   6  -2  -2   25.56    1.93
  -6  -2   2   25.70    2.11
   6   2  -2   32.30    1.73
   6  -2  -2   30.84    1.48
  -5  -2   2   20.48    1.34
  -5   2   2   20.18    1.70
   5  -2  -2   21.12    1.66
   5  -2  -2   19.62    1.08
  -5   2   2   18.04    1.33
  -5  -2   2   21.00    1.75
   5  -2  -2   21.73    1.25
   5   2  -2   24.16    1.37
  -5  -2   2   20.25    1.32
   5   2  -2   19.32    1.34
   5   2  -2   19.58    0.92
   4  -2  -2  737.16   19.52
   4   2  -2  735.92   18.81
   4   2  -2  726.37   19.22
   4  -2  -2  724.09   18.99
  -4   2   2  747.47   20.21
  -4  -2   2  748.80   19.09
   4   2  -2  730.29   18.56
  -4  -2   2  729.35   20.32
  -4  -2   2  727.08   19.05
  -4   2   2  691.02   19.12
   4  -2  -2  724.07   18.23
  -3   2   2   14.31    0.91
  -3  -2   2   14.18    0.84
  -3   2   2   14.36    1.25
  -3  -2   2   14.70    1.36
   3   2  -2   14.64    0.93
   3  -2  -2   11.23    1.10
   3   2  -2   13.90    0.97
   3   2  -2   14.62    0.90
  -3   2   2   15.24    0.96
   3  -2  -2   13.00    0.72
  -3  -2   2   15.31    0.84
  -2   2   2  285.39    8.34
   2   2  -2  303.37    7.99
  -2  -2   2  289.32    8.63
   2  -2  -2  279.54    8.25
   2   2  -2  292.90    7.90
  -2   2   2  305.34    7.52
   2   2  -2  293.97    7.56
   1   2  -2 2928.52   73.61
   1  -2  -2 2876.88   75.58
  -1   2   2 2940.99   78.60
  -1  -2   2 3021.34   78.90
   1  -2  -2 2989.43   78.63
   1   2  -2 3114.07   75.80
   0  -2  -2  594.00   15.38
   0   2   2  552.70   14.67
   0  -2   2  557.20   15.77
   0   2  -2  563.36   14.67
   1   2   2   45.96    1.53
   1  -2   2   45.23    2.16
  -1   2  -2   46.11    1.59
  -1   2  -2   42.96    1.38
  -1  -2  -2   46.89    1.72
  -1   2  -2   45.77    2.11
  -1  -2  -2   43.74    1.68
  -2   2  -2  688.89   19.90
   2  -2   2  714.35   19.15
   2  -2   2  697.30   19.96
   2   2   2  731.92   18.75
  -2   2  -2  725.12   18.77
  -2  -2  -2  727.19   18.62
  -2   2  -2  730.80   18.11
  -2  -2  -2  755.96   19.57
  -3  -2  -2 1168.40   29.69
   3  -2   2 1137.60   30.16
  -3   2  -2 1127.05   31.42
   3  -2   2 1131.35   28.64
  -3  -2  -2 1158.82   29.48
   3  -2   2 1164.85   29.61
   3  -2   2 1145.11   28.62
   3   2   2 1183.04   29.86
  -3  -2  -2 1188.05   29.66
  -3   2  -2 1142.83   29.86
   4  -2   2  765.17   19.12
   4  -2   2  720.25   19.07
   4   2   2  769.43   20.14
  -4  -2  -2  781.41   19.92
  -4  -2  -2  772.60   20.92
   4  -2   2  723.33   20.34
  -4  -2  -2  774.95   19.95
  -4   2  -2  770.73   21.33
   4  -2   2  772.14   19.87
  -4   2  -2  755.85   20.15
   5   2   2  179.21    5.58
   5  -2   2  176.47    5.04
  -5  -2  -2  184.14    5.42
   5  -2   2  167.75    5.70
  -5   2  -2  169.55    6.09
   5  -2   2  175.70    5.30
  -5  -2  -2  179.32    5.76
  -5   2  -2  170.48    5.54
  -5  -2  -2  174.12    5.33
   5  -2   2  164.40    4.95
   6  -2   2   99.90    3.45
   6  -2   2  105.11    3.65
  -6   2  -2   99.93    3.86
  -6  -2  -2  103.00    3.67
   6  -2   2  100.74    3.94
  -6  -2  -2  102.96    3.71
   6  -2   2   98.29    3.34
  -6   2  -2   97.81    4.25
  -6  -2  -2   97.16    3.95
   6   2   2  103.48    3.88
  -7  -2  -2   83.67    3.71
   7  -2   2   81.94    3.53
  -7  -2  -2   82.09    3.35
   7  -2   2   77.77    2.97
  -7   2  -2   75.78    3.94
   7   2   2   86.49    3.56
  -8   2  -2  317.71   10.55
  -8  -2  -2  314.33   10.22
  -8  -2  -2  327.38    9.63
   8  -2   2  309.21    9.01
  -9  -2  -2   39.63    2.90
  -9   2  -2   40.76    3.28
   9  -2   2   35.75    2.16
  -9  -2  -2   37.39    2.52
 -10  -2  -2   11.50    1.74
 -10   2  -2    8.98    2.10
 -10  -2  -2   11.16    2.06
 -11   2  -2    0.17    1.75
 -11  -2  -2    0.51    1.32
 -11  -2  -2    1.09    1.66
 -12   2  -2   -0.04    2.02
 -12  -2  -2    0.02    1.69
 -13  -2  -2    8.26    2.49
 -13   2  -2   12.46    2.97
 -14  -2  -2   -0.08    2.12
 -13   3   2    3.33    2.43
 -13  -3   2    5.02    2.39
 -12   3   2    5.07    2.41
  12  -3  -2   10.42    2.10
 -12  -3   2    7.19    2.29
 -11   3   2    9.69    2.40
  11  -3  -2    9.42    1.96
 -11  -3   2    7.76    2.19
  10  -3  -2   13.96    2.12
  10  -3  -2   19.82    1.86
 -10  -3   2   16.28    2.39
 -10  -3   2   19.06    1.94
 -10   3   2   19.05    2.69
  -9   3   2   28.31    2.87
  -9  -3   2   35.50    2.95
  -9  -3   2   34.87    2.28
   9  -3  -2   34.39    2.82
   9  -3  -2   32.42    1.71
   9  -3  -2   34.22    2.12
   8  -3  -2   41.30    1.80
   8  -3  -2   50.83    3.11
  -8  -3   2   45.26    3.13
  -8  -3   2   45.81    2.40
  -8   3   2   41.75    3.12
   8  -3  -2   43.86    2.22
  -7  -3   2   31.09    1.84
  -7   3   2   31.38    2.55
   7  -3  -2   26.64    1.58
   7  -3  -2   29.28    2.35
  -7  -3   2   34.03    2.57
  -6  -3   2   87.06    3.03
  -6   3   2   81.50    3.85
  -6  -3   2   85.85    2.99
  -6  -3   2   86.93    4.02
   6  -3  -2   93.78    3.98
   5  -3  -2  127.16    4.69
   5   3  -2  126.01    3.98
  -5  -3   2  118.52    3.59
   5   3  -2  129.47    3.57
  -5   3   2  120.17    4.62
   5   3  -2  113.66    4.03
  -5  -3   2  116.70    4.78
  -5  -3   2  118.16    3.57
  -4   3   2  136.28    4.19
  -4   3   2  137.42    4.82
  -4  -3   2  131.14    4.93
   4   3  -2  130.73    4.20
   4  -3  -2  129.43    4.78
   4   3  -2  134.20    3.99
   3   3  -2  169.21    4.92
   3  -3  -2  166.52    5.57
  -3  -3   2  160.57    5.71
   3   3  -2  169.43    4.98
  -3   3   2  172.55    5.54
   2  -3  -2   75.81    3.08
   2   3  -2   75.28    2.43
  -2   3   2   73.14    2.93
  -2  -3   2   77.01    3.21
  -1  -3   2  783.46   22.31
  -1   3   2  817.59   21.93
   1  -3  -2  795.29   21.31
   1  -3  -2  821.05   21.97
   0  -3  -2  349.58    9.60
   0  -3   2  330.51   10.02
   0  -3  -2  317.20    9.31
  -1  -3  -2  452.57   12.27
  -1  -3  -2  425.32   11.76
   1  -3   2  425.98   12.76
  -2   3  -2   10.01    0.81
  -2   3  -2   10.39    1.41
  -2   3  -2    9.69    0.76
   2   3   2   10.74    0.84
   2  -3   2   10.20    1.24
   2  -3   2    9.54    1.41
  -2  -3  -2   12.89    1.16
  -2  -3  -2   10.02    0.90
   3  -3   2  244.24    7.70
  -3   3  -2  249.57    6.72
  -3  -3  -2  244.99    7.47
  -3   3  -2  240.37    6.99
   3   3   2  248.16    6.96
  -3  -3  -2  248.75    6.79
  -3   3  -2  249.52    8.03
   4  -3   2  391.60   11.85
   4   3   2  411.50   11.24
  -4   3  -2  419.02   11.33
  -4   3  -2  408.66   12.36
  -5  -3  -2  108.92    3.42
  -5   3  -2  104.42    4.66
  -5  -3  -2  113.85    3.45
  -5  -3  -2  114.47    4.31
   5  -3   2  113.78    4.51
   5  -3   2  116.19    3.40
   6  -3   2   68.06    3.43
  -6   3  -2   67.70    3.71
   6  -3   2   70.93    2.57
  -6  -3  -2   68.25    2.58
  -6  -3  -2   63.89    3.20
  -7  -3  -2   33.45    1.91
   7  -3   2   35.89    2.56
  -7  -3  -2   29.39    2.44
   7  -3   2   31.54    1.44
  -7   3  -2   35.71    2.85
   8  -3   2  135.22    5.52
  -8  -3  -2  131.22    5.45
   8  -3   2  132.15    4.16
  -8   3  -2  135.55    5.99
  -8  -3  -2  140.32    4.79
   9  -3   2   38.43    1.96
  -9   3  -2   36.17    3.34
  -9  -3  -2   38.77    2.91
  -9  -3  -2   41.20    2.42
 -10  -3  -2   14.10    2.15
 -10   3  -2   11.03    2.41
 -10  -3  -2   14.46    1.76
 -11   3  -2    2.39    2.08
 -11  -3  -2    1.48    1.68
 -12  -3  -2   -2.42    1.50
 -12   3  -2    1.39    2.27
 -13  -3  -2    1.03    1.93
 -13   3  -2   -1.39    2.47
  13  -4  -2    2.20    2.11
 -13   4   2    0.55    2.60
 -13  -4   2    6.97    2.69
  12  -4  -2    5.93    2.15
 -12   4   2    7.74    2.66
 -12  -4   2    8.14    2.50
 -11   4   2    3.14    2.24
 -11  -4   2    3.00    2.02
  11  -4  -2    0.34    1.53
 -10   4   2   10.61    2.37
  10  -4  -2    8.30    2.02
 -10  -4   2    8.08    2.32
 -10  -4   2    9.36    1.32
  -9   4   2   15.36    2.64
  -9  -4   2   28.83    3.05
  -9  -4   2   26.80    1.58
   9  -4  -2   25.97    2.74
  -8   4   2   41.31    3.16
   8  -4  -2   41.95    3.27
  -8  -4   2   39.51    3.28
   7  -4  -2   46.17    3.19
  -7  -4   2   43.72    3.26
  -7   4   2   44.18    3.11
  -6  -4   2    5.98    1.62
  -6   4   2    4.24    1.54
   6  -4  -2    6.01    1.57
  -5   4   2   85.62    3.98
   5  -4  -2   83.79    4.02
  -5  -4   2   86.85    4.20
  -4  -4   2  216.37    7.65
   4   4  -2  233.72    6.54
  -4   4   2  221.89    7.42
   4  -4  -2  215.17    7.47
  -3  -4   2   72.08    3.53
   3  -4  -2   69.44    3.40
  -3   4   2   75.70    3.33
  -2  -4   2   23.90    2.12
   2  -4  -2   24.75    1.96
  -2   4   2   28.58    1.99
  -1   4   2  188.66    6.13
   1  -4  -2  192.04    6.21
   1  -4  -2  186.11    6.15
  -1  -4   2  178.69    6.47
   0  -4  -2  132.25    4.68
   0  -4  -2  138.97    4.78
   0  -4   2  131.82    5.17
  -1   4  -2   20.90    1.98
   1  -4   2   21.00    2.03
  -1  -4  -2   17.20    1.68
  -1  -4  -2   17.79    1.56
  -2  -4  -2  149.00    5.15
  -2  -4  -2  146.81    4.75
  -2   4  -2  148.11    5.68
   2  -4   2  146.18    5.69
  -3   4  -2  316.01    9.99
  -3  -4  -2  306.14    8.58
   3  -4   2  296.76    9.95
  -3  -4  -2  299.87    9.29
   4  -4   2  122.26    5.02
  -4   4  -2  115.29    5.10
   5  -4   2  229.08    8.19
  -5   4  -2  241.73    8.50
  -5  -4  -2  246.36    7.96
  -6   4  -2   -0.05    1.43
   6  -4   2    1.84    1.30
  -6  -4  -2   -0.42    1.06
  -7  -4  -2   30.84    2.62
  -7   4  -2   28.30    2.94
   7  -4   2   29.94    2.77
  -8  -4  -2   40.37    3.01
  -8   4  -2   42.95    3.52
   8  -4   2   41.43    3.27
  -9  -4  -2    4.28    1.62
  -9   4  -2    5.28    2.15
  -9  -4  -2    4.54    0.97
 -10   4  -2   10.77    2.62
 -10  -4  -2    8.54    1.97
 -11  -4  -2   -2.17    1.51
 -11   4  -2    0.59    2.18
 -12  -4  -2    3.81    1.94
 -12   4  -2    2.38    2.48
 -13  -4  -2    0.68    2.02
 -12   5   2   -3.37    2.46
  12  -5  -2    0.94    2.05
 -12  -5   2   -0.34    2.15
 -11   5   2    4.68    2.54
  11  -5  -2    4.85    2.33
 -11  -5   2    7.54    2.60
 -10   5   2    1.92    2.33
  10  -5  -2    6.18    2.25
 -10  -5   2    3.17    2.19
  -9  -5   2   25.58    3.09
   9  -5  -2   23.85    2.99
  -9   5   2   20.66    2.95
  -8  -5   2   47.66    3.78
   8  -5  -2   44.24    3.60
  -8   5   2   38.02    3.42
  -7   5   2   43.10    3.39
   7  -5  -2   41.82    3.47
  -7  -5   2   47.73    3.60
   6  -5  -2    4.31    1.75
  -6  -5   2    6.95    2.04
  -6   5   2    4.52    1.74
  -5  -5   2  131.27    5.61
   5  -5  -2  125.04    5.55
  -5   5   2  117.27    5.25
   4  -5  -2   35.87    2.83
  -4   5   2   34.35    2.78
  -4  -5   2   35.52    2.96
   3  -5  -2   70.59    3.78
  -3  -5   2   72.65    3.90
  -3   5   2   69.72    3.55
   2  -5  -2    4.88    1.49
  -2   5   2    6.42    1.45
  -2  -5   2    5.45    1.67
   1  -5  -2   15.61    1.78
  -1   5   2   17.85    1.92
   1  -5  -2   15.96    1.87
  -1  -5   2   20.85    2.26
   0  -5   2   55.23    3.35
   0   5   2   54.15    2.94
   0  -5  -2   53.29    2.90
   0  -5  -2   52.86    2.94
  -1  -5  -2   79.89    3.58
  -1   5  -2   76.40    3.97
  -1  -5  -2   73.06    3.36
   1  -5   2   71.94    3.96
  -2  -5  -2   11.88    1.64
   2  -5   2   13.23    2.15
  -2  -5  -2   11.51    1.48
  -2   5  -2   13.96    2.14
   3  -5   2   35.14    2.77
   3  -5   2   36.10    3.01
  -3   5  -2   38.41    3.02
  -3  -5  -2   33.71    2.49
   4  -5   2   34.37    3.00
  -4   5  -2   44.58    3.30
  -5   5  -2   29.21    2.91
  -5  -5  -2   24.79    2.35
   5  -5   2   25.49    2.74
  -6  -5  -2   93.44    4.49
   6  -5   2   83.14    4.71
  -6   5  -2   88.24    4.92
  -7  -5  -2   21.29    2.49
  -7   5  -2   16.72    2.75
   7  -5   2   17.88    2.59
  -8   5  -2    3.53    2.05
  -8  -5  -2    0.55    1.45
  -9  -5  -2    8.02    2.10
  -9   5  -2    5.40    2.47
 -10   5  -2   -0.81    2.29
 -11   5  -2   -2.53    2.47
  11  -6  -2   -2.47    2.00
 -10  -6   2    0.36    2.31
 -10   6   2   -0.68    2.42
  10  -6  -2   -0.03    2.16
  -9  -6   2   -0.57    2.13
  -9   6   2   -5.32    2.02
   9  -6  -2    0.19    1.83
  -8  -6   2   29.75    3.46
   8  -6  -2   22.26    3.18
  -8   6   2   21.44    3.17
  -7   6   2   22.07    3.00
   7  -6  -2   27.14    3.32
  -7  -6   2   27.19    3.32
   6  -6  -2   28.26    3.11
  -6   6   2   25.46    2.92
  -6  -6   2   28.48    3.24
  -5   6   2   -2.83    1.42
  -5  -6   2    0.73    1.68
   5  -6  -2    0.70    1.62
  -4  -6   2    7.85    2.09
   4  -6  -2    6.14    1.92
  -4   6   2    6.94    1.91
  -3  -6   2    0.17    1.62
   3  -6  -2   -0.03    1.44
  -3   6   2   -0.85    1.36
  -2  -6   2   30.42    2.99
   2  -6  -2   27.17    2.73
  -2   6   2   27.36    2.61
   1  -6  -2   17.80    2.21
   1  -6  -2    9.96    1.68
  -1  -6   2   14.60    2.33
  -1   6   2   19.67    2.23
   0  -6   2    5.60    1.98
   0  -6  -2    4.12    1.52
   0  -6  -2    7.64    1.72
   0   6   2    5.34    1.71
   0   6  -2    7.10    1.97
   1  -6   2   28.11    3.00
  -1  -6  -2   28.33    2.55
  -1  -6  -2   31.63    2.50
  -1   6  -2   25.31    2.84
   2  -6   2   53.81    3.81
  -2   6  -2   48.81    3.68
  -3   6  -2   10.29    2.31
   3  -6   2   11.47    2.45
  -4   6  -2    8.00    2.20
  -5   6  -2    6.26    2.16
  -6   6  -2    2.70    2.11
  -7   6  -2   10.39    2.61
  -8   6  -2   -0.76    2.22
  -9   6  -2    5.18    2.70
   9  -7  -2    2.99    2.52
  -9  -7   2    6.12    2.84
  -8  -7   2    3.39    2.56
   8  -7  -2    4.84    2.55
   7  -7  -2    9.61    2.73
  -7  -7   2    8.69    2.71
  -6  -7   2   -0.06    2.07
   6  -7  -2   -0.73    1.88
   5  -7  -2   17.48    3.00
  -5  -7   2   20.20    3.15
   4  -7  -2    2.74    1.96
  -4  -7   2    4.48    2.26
  -3  -7   2    1.39    1.95
   3  -7  -2   -1.50    1.59
   2  -7  -2    4.86    1.93
  -2  -7   2    1.87    1.85
  -1  -7   2    8.34    2.30
   1  -7  -2    7.09    1.97
   1   7  -2   10.51    2.31
   0   7  -2    0.72    1.83
   0  -7   2   -0.71    1.71
  -1   7  -2   24.39    3.18
   1  -7   2   22.38    3.13
   2  -7   2    0.72    2.00
  -2   7  -2   -0.06    1.83
  -3   7  -2    1.07    2.12
  -4   7  -2   -1.34    1.94
  -5   7  -2   -0.98    1.98
  -6   7  -2   -0.60    2.20
  -7   7  -2    0.87    2.37
   6  -8  -2    2.20    2.41
   5  -8  -2   -0.45    2.20
   4  -8  -2   -2.65    1.85
  -4  -8   2    0.28    2.26
   3  -8  -2    0.11    2.07
  -3  -8   2    3.03    2.32
   2  -8  -2   13.97    2.73
  -2  -8   2    5.58    2.64
   2   8  -2   11.45    2.76
  -1  -8   2    1.96    2.41
   1   8  -2    1.65    2.36
   0  -8   2    2.37    2.46
   0   8  -2    0.57    2.38
   1  -8   2   -1.81    2.12
  -1   8  -2   -0.58    2.17
  -2   8  -2    7.45    2.67
  -3   8  -2    2.34    2.48
  -4   8  -2   -1.05    2.30
  -5   8  -2    1.35    2.71
 -14   0   3    2.18    2.44
  13   0  -3    9.93    2.10
 -13   0   3    3.99    2.31
 -12   0   3    4.95    2.19
  12   0  -3    5.14    1.70
 -12   0   3    0.54    1.50
  11   0  -3  121.67    4.89
  11   0  -3  114.79    5.20
 -11   0   3  119.85    5.77
 -11   0   3  127.14    5.36
 -10   0   3  280.21    9.35
  10   0  -3  296.56    9.52
  10   0  -3  297.22    8.97
 -10   0   3  291.19   10.07
  -9   0   3   24.10    2.14
   9   0  -3   27.88    2.16
   9   0  -3   26.02    1.98
   9   0  -3   28.81    1.85
  -9   0   3   28.47    2.63
   8   0  -3   -0.13    0.81
  -8   0   3   -1.26    1.12
   8   0  -3    1.37    0.72
  -8   0   3   -0.34    0.91
   8   0  -3    0.28    0.72
  -7   0   3   -0.99    0.68
   7   0  -3    0.83    0.65
  -7   0   3    1.28    1.06
   7   0  -3   -0.44    0.57
   7   0  -3   -0.18    0.64
   6   0  -3   47.61    2.16
   6   0  -3   57.25    2.21
   6   0  -3   47.57    2.34
  -6   0   3   51.02    2.35
  -6   0   3   46.01    2.57
  -6   0   3   51.09    2.31
   5   0  -3  105.81    3.71
   5   0  -3  106.17    3.52
   5   0  -3  110.08    3.51
  -5   0   3  106.24    3.68
  -5   0   3  105.63    3.95
  -5   0   3  112.67    3.58
   5   0  -3  113.86    3.74
   4   0  -3  291.88    8.02
   4   0  -3  285.74    7.79
   4   0  -3  283.79    8.15
  -4   0   3  282.36    8.11
  -4   0   3  290.25    8.17
  -4   0   3  298.85    7.84
  -4   0   3  279.10    8.48
   4   0  -3  299.75    8.13
  -3   0   3 3760.71   96.76
   3   0  -3 3554.97   93.09
   3   0  -3 3772.04   90.05
   3   0  -3 3648.42   92.82
  -3   0   3 3557.25   93.03
  -3   0   3 3754.41   90.01
  -3   0   3 3620.57   93.07
   2   0  -3 2499.04   61.66
   2   0  -3 2429.48   59.71
  -2   0   3 2429.83   59.69
  -2   0   3 2474.42   64.15
  -2   0   3 2408.69   61.73
  -2   0   3 2361.88   61.73
   2   0  -3 2382.12   61.76
   1   0  -3   21.30    1.12
  -1   0   3   14.84    0.95
  -1   0   3   19.85    0.94
   1   0  -3   18.56    0.97
   1   0  -3   20.60    0.94
  -1   0   3   19.70    0.92
   0   0   3 7025.48  173.79
   0   0  -3 6644.78  162.01
   0   0   3 6656.71  160.90
   0   0   3 5986.00  166.27
   0   0  -3 6489.85  166.61
   0   0  -3 6604.02  167.02
  -1   0  -3  215.04    6.13
  -1   0  -3  223.68    6.08
  -1   0  -3  219.10    6.06
   1   0   3  221.61    5.84
   1   0   3  205.98    6.04
  -2   0  -3  236.57    6.71
  -2   0  -3  232.50    6.71
   2   0   3  241.22    6.73
  -2   0  -3  243.62    6.67
  -3   0  -3  365.81   10.16
   3   0   3  362.97   10.20
  -3   0  -3  367.36   10.19
   3   0   3  379.81   10.24
  -3   0  -3  363.44   10.51
  -3   0  -3  381.89   10.05
   4   0   3    8.41    0.98
  -4   0  -3    7.92    1.05
  -4   0  -3    8.82    1.01
  -4   0  -3    8.92    0.97
   4   0   3    9.84    1.01
  -5   0  -3  312.01    9.09
  -5   0  -3  311.48    9.44
   5   0   3  314.14    9.13
  -6   0  -3   42.44    2.28
  -6   0  -3   38.04    2.37
   6   0   3   44.13    2.32
   7   0   3  701.22   19.15
  -7   0  -3  686.81   19.79
  -7   0  -3  682.53   19.01
  -8   0  -3  490.51   15.08
  -8   0  -3  510.28   14.51
   8   0   3  497.60   14.57
  -9   0  -3   69.95    3.98
   9   0   3   67.70    3.58
   9   0   3   65.65    3.27
  -9   0  -3   64.96    3.49
 -10   0  -3    9.92    2.06
  10   0   3    8.88    1.83
  10   0   3    7.21    1.50
 -10   0  -3    9.64    1.86
 -11   0  -3    8.39    1.87
 -11   0  -3    8.82    2.15
  11   0   3    7.75    1.85
  12   0   3    1.87    1.59
 -12   0  -3    0.19    1.44
 -12   0  -3    0.26    1.90
 -13   0  -3    2.21    2.26
 -14   0  -3    0.68    2.38
 -14   1   3   12.37    2.97
 -14  -1   3   11.48    2.91
 -13   1   3    1.19    2.25
 -13  -1   3    1.70    2.10
 -12   1   3    8.00    2.38
  12  -1  -3    8.71    1.87
 -12  -1   3   11.12    2.05
 -12  -1   3    7.33    2.24
  11  -1  -3   38.91    2.87
 -11  -1   3   42.00    2.97
 -11   1   3   40.70    3.51
 -11  -1   3   42.71    3.46
  11   1  -3   43.63    2.86
  10  -1  -3  103.16    4.54
 -10   1   3   93.68    4.97
 -10  -1   3  100.57    5.04
  10  -1  -3   96.43    4.05
  10  -1  -3  106.79    4.36
 -10  -1   3  104.89    4.55
  10   1  -3  101.67    4.31
  10   1  -3  104.37    4.60
  -9  -1   3   22.93    2.11
   9  -1  -3   18.24    1.88
  -9   1   3   23.76    2.45
  -9   1   3   21.50    2.11
   9  -1  -3   19.44    1.68
   9   1  -3   21.35    2.02
   9  -1  -3   20.74    1.84
  -9  -1   3   21.56    2.38
   9   1  -3   20.99    1.86
  -8   1   3   -0.05    0.91
   8  -1  -3    1.74    0.91
   8   1  -3    1.47    0.83
   8  -1  -3    1.09    0.76
   8   1  -3    2.92    0.68
  -8  -1   3    0.89    0.96
  -8  -1   3    1.88    1.23
  -8   1   3    3.68    1.45
   8   1  -3    0.99    0.87
   8  -1  -3    3.05    0.95
   7  -1  -3   92.93    3.64
  -7   1   3   95.70    4.00
   7   1  -3   95.60    3.14
   7   1  -3   96.50    3.53
   7  -1  -3   94.71    3.59
   7   1  -3   93.56    3.69
   7  -1  -3   86.83    3.33
  -7  -1   3   95.59    4.07
  -7   1   3   95.46    3.71
  -7  -1   3   88.06    3.58
   6  -1  -3  398.41   11.46
   6  -1  -3  435.53   11.47
   6   1  -3  403.83   10.96
   6  -1  -3  410.20   11.46
   6   1  -3  407.73   11.53
  -6  -1   3  402.05   12.13
   6  -1  -3  394.37   10.93
   6   1  -3  412.87   11.08
  -6   1   3  398.77   12.00
  -6  -1   3  429.85   11.56
  -6   1   3  388.96   11.45
  -6  -1   3  406.06   11.46
  -5  -1   3   32.78    1.99
   5  -1  -3   30.91    1.50
  -5  -1   3   28.35    1.68
  -5   1   3   29.01    1.66
   5   1  -3   31.06    1.55
   5   1  -3   29.61    1.64
   5  -1  -3   29.62    1.63
   5  -1  -3   27.54    1.64
  -5   1   3   29.15    1.88
   5   1  -3   28.66    1.37
  -5  -1   3   29.70    1.65
  -4  -1   3  382.16   11.10
  -4  -1   3  383.91   10.51
   4   1  -3  393.67   10.13
   4  -1  -3  376.73   10.57
   4   1  -3  386.96   10.26
  -4  -1   3  376.80   10.45
   4   1  -3  380.80   10.55
  -4   1   3  376.81   10.89
   4  -1  -3  378.71   10.46
  -4  -1   3  392.64   10.09
  -4   1   3  372.50   10.48
  -4   1   3  390.27   10.11
   4  -1  -3  379.57   10.03
  -3  -1   3  795.79   19.71
   3  -1  -3  781.84   20.54
  -3  -1   3  806.20   20.48
   3   1  -3  783.03   20.31
   3   1  -3  768.01   20.47
  -3  -1   3  754.94   20.38
  -3   1   3  796.54   19.73
   3  -1  -3  783.28   19.68
   3   1  -3  801.89   19.75
  -3   1   3  800.96   21.20
   3  -1  -3  791.62   20.42
  -3  -1   3  778.46   21.41
  -3   1   3  738.24   20.39
  -2  -1   3 1904.53   48.36
   2   1  -3 1934.63   46.78
  -2  -1   3 1886.77   46.74
  -2   1   3 1910.86   50.20
   2   1  -3 1901.98   48.43
   2  -1  -3 1819.93   48.37
   2   1  -3 1900.53   48.29
   2  -1  -3 1872.78   46.75
   2  -1  -3 1929.16   48.39
  -2  -1   3 1884.54   48.37
  -2   1   3 1912.37   46.75
  -2  -1   3 1893.62   50.40
  -1   1   3 3125.35   80.58
   1  -1  -3 3010.12   74.30
  -1  -1   3 3001.19   79.83
  -1   1   3 3096.81   74.21
   1   1  -3 3065.64   76.63
  -1  -1   3 2925.37   74.17
  -1   1   3 3059.04   76.70
  -1  -1   3 2949.04   76.72
   1   1  -3 3059.52   74.22
  -1  -1   3 2995.69   76.73
   1   1  -3 2982.58   76.75
   1  -1  -3 2923.67   76.60
   1  -1  -3 3089.46   76.81
   0  -1   3   40.78    1.41
   0  -1  -3   41.78    1.49
   0   1  -3   43.04    1.47
   0   1   3   37.74    1.46
   0  -1   3   40.04    1.79
   0  -1   3   40.17    1.54
   0   1  -3   43.03    1.60
   0  -1  -3   45.21    1.69
   0   1   3   44.38    1.58
   0   1  -3   45.53    1.78
  -1  -1  -3  669.16   17.02
  -1   1  -3  633.38   16.44
   1  -1   3  642.30   17.84
  -1  -1  -3  694.98   17.56
   1  -1   3  653.30   16.40
  -1  -1  -3  676.78   17.01
   1  -1   3  631.18   17.00
  -1   1  -3  622.55   17.79
  -1   1  -3  631.43   17.06
  -1  -1  -3  669.86   17.00
   2  -1   3 1437.08   37.24
   2  -1   3 1468.65   35.98
  -2  -1  -3 1485.31   37.22
  -2  -1  -3 1486.18   37.05
  -2  -1  -3 1474.48   37.26
  -2  -1  -3 1479.77   38.54
  -2   1  -3 1429.20   36.02
  -2   1  -3 1416.04   37.29
   2   1   3 1430.54   37.27
  -2   1  -3 1402.57   38.83
  -3  -1  -3 1639.45   40.54
   3  -1   3 1594.11   39.13
  -3   1  -3 1487.58   42.18
   3   1   3 1559.10   40.55
  -3  -1  -3 1578.71   41.92
   3  -1   3 1571.59   40.48
  -3   1  -3 1520.36   40.54
  -3  -1  -3 1580.50   40.46
  -3  -1  -3 1642.79   40.18
  -4  -1  -3 1397.62   36.77
  -4  -1  -3 1384.55   38.12
   4  -1   3 1423.37   35.56
  -4   1  -3 1396.72   36.91
  -4  -1  -3 1451.47   36.37
   4   1   3 1422.04   36.92
  -4   1  -3 1371.78   38.45
   4  -1   3 1499.04   36.88
  -4  -1  -3 1460.65   36.87
  -5   1  -3  117.76    4.15
  -5  -1  -3  112.13    4.00
  -5   1  -3  111.36    4.38
  -5  -1  -3  111.45    4.13
  -5  -1  -3  122.94    3.60
   5  -1   3  123.38    4.14
   5   1   3  117.71    4.15
  -5  -1  -3  111.67    4.03
   6  -1   3  142.87    4.75
  -6   1  -3  131.86    4.70
  -6   1  -3  124.03    4.95
   6  -1   3  120.19    4.57
  -6  -1  -3  126.23    4.54
  -6  -1  -3  126.92    4.58
  -6  -1  -3  128.36    4.77
  -6  -1  -3  140.87    4.06
   6   1   3  132.19    4.71
  -7  -1  -3    3.59    1.18
   7   1   3    4.47    1.19
  -7  -1  -3    1.95    1.32
   7  -1   3    6.53    1.03
  -7   1  -3    2.33    1.28
  -7   1  -3    1.04    1.03
   7  -1   3    3.32    1.11
   8  -1   3  782.24   21.61
   8  -1   3  749.06   20.57
  -8  -1  -3  789.73   21.50
   8   1   3  800.04   21.77
  -8   1  -3  777.08   21.63
  -8  -1  -3  802.79   22.45
  -8   1  -3  764.64   22.59
  -9  -1  -3   46.43    3.32
   9  -1   3   41.94    2.51
   9   1   3   51.06    3.12
   9  -1   3   48.16    2.96
  -9  -1  -3   49.47    2.94
  -9   1  -3   45.14    2.98
  -9   1  -3   42.79    3.37
 -10  -1  -3   21.47    2.26
 -10   1  -3   23.34    2.73
  10   1   3   19.67    2.02
  10  -1   3   24.03    2.37
 -10  -1  -3   21.98    2.63
 -11  -1  -3   10.45    1.93
 -11  -1  -3    8.26    2.10
 -11   1  -3    9.25    2.30
  11  -1   3    9.11    1.93
 -12   1  -3    1.15    2.05
 -12  -1  -3    3.63    2.08
 -13   1  -3   -0.27    2.15
 -13  -1  -3    2.99    2.14
 -14  -1  -3    7.34    2.66
 -14  -2   3    2.34    2.49
 -14   2   3    3.72    2.67
 -13   2   3    0.72    2.15
 -13  -2   3    8.27    2.56
 -12  -2   3    3.59    2.17
  12  -2  -3    3.46    1.50
 -12   2   3    5.87    2.33
 -11  -2   3    2.63    1.90
 -11  -2   3    1.54    1.45
  11  -2  -3    1.12    1.28
 -11   2   3    1.45    1.86
  11  -2  -3    3.81    1.42
  10  -2  -3  112.99    4.72
  10  -2  -3  119.74    4.98
 -10   2   3  109.38    5.37
 -10  -2   3  112.79    5.46
 -10  -2   3  116.03    4.82
  -9   2   3   56.08    3.55
  -9  -2   3   54.04    3.58
  -9  -2   3   55.13    2.96
   9  -2  -3   54.48    2.62
   9  -2  -3   64.18    3.31
   9  -2  -3   55.70    2.97
   8  -2  -3   15.83    1.75
  -8  -2   3   16.21    2.04
   8  -2  -3   14.43    1.58
  -8  -2   3   15.75    1.70
   8  -2  -3   13.85    1.32
   8   2  -3   17.65    1.65
  -8   2   3   17.92    2.11
   7   2  -3   58.30    2.64
  -7  -2   3   58.68    3.21
   7  -2  -3   53.29    2.53
  -7  -2   3   52.40    2.58
  -7   2   3   54.88    3.09
   7  -2  -3   53.63    2.29
  -7   2   3   52.17    2.71
   7   2  -3   58.50    2.74
   7  -2  -3   56.13    2.89
   6  -2  -3    9.30    1.04
   6   2  -3    8.47    1.07
  -6   2   3    7.16    1.31
   6  -2  -3    8.16    1.21
  -6   2   3    9.03    1.12
   6  -2  -3    7.42    0.84
  -6  -2   3    9.04    1.40
   6   2  -3    8.93    1.00
  -6  -2   3    7.76    1.07
   6   2  -3    9.36    0.76
  -6  -2   3    9.44    1.10
   5   2  -3  177.80    5.72
   5  -2  -3  190.21    5.58
   5   2  -3  195.02    5.58
  -5  -2   3  197.04    5.66
   5  -2  -3  185.44    5.23
  -5  -2   3  186.80    5.65
   5   2  -3  184.05    5.31
   5  -2  -3  189.69    6.03
  -5   2   3  186.05    6.11
  -5   2   3  174.94    5.66
  -5  -2   3  183.91    6.32
  -4  -2   3   20.05    1.26
   4  -2  -3   19.98    1.15
   4   2  -3   18.11    1.29
  -4  -2   3   19.49    1.23
   4  -2  -3   19.16    1.47
  -4  -2   3   19.66    1.68
   4   2  -3   22.31    1.23
  -4   2   3   20.32    1.29
  -4   2   3   22.82    1.56
   4  -2  -3   19.71    0.97
   4   2  -3   19.82    1.23
   3   2  -3   88.41    2.77
  -3   2   3   84.41    3.07
   3   2  -3   91.19    2.95
   3  -2  -3   88.04    3.19
   3  -2  -3   82.76    2.63
  -3  -2   3   84.93    3.36
  -3  -2   3   84.93    2.76
  -3  -2   3   83.60    2.73
   3   2  -3   86.47    2.88
   2  -2  -3  238.48    7.22
  -2   2   3  258.34    6.61
   2  -2  -3  246.25    6.63
  -2   2   3  249.53    7.14
  -2  -2   3  249.49    7.61
   2   2  -3  258.30    7.08
   2   2  -3  251.75    6.96
  -2  -2   3  245.63    6.71
  -2  -2   3  242.13    6.70
   2   2  -3  260.25    6.64
   1   2  -3  562.53   14.54
  -1  -2   3  516.98   14.10
  -1  -2   3  551.85   15.28
   1  -2  -3  517.21   14.51
  -1   2   3  537.32   14.67
   1   2  -3  557.68   13.69
   1   2  -3  561.09   14.28
   0   2  -3  484.06   13.14
   0  -2  -3  494.17   13.37
   0  -2  -3  520.40   13.56
   0  -2   3  499.96   14.18
   0   2  -3  507.87   12.66
   1  -2   3  681.96   17.86
  -1  -2  -3  690.89   18.08
   1   2   3  685.20   18.01
  -1   2  -3  678.77   18.05
  -1  -2  -3  691.96   17.99
  -1  -2  -3  750.69   18.63
   1  -2   3  689.46   19.25
  -1   2  -3  669.88   17.35
  -2  -2  -3  286.44    7.59
  -2  -2  -3  263.94    7.41
   2  -2   3  280.76    7.47
  -2  -2  -3  293.48    7.83
  -2   2  -3  276.21    7.73
   2   2   3  270.45    7.66
  -2  -2  -3  290.71    7.45
  -2   2  -3  261.11    8.36
   2  -2   3  270.22    7.06
   2  -2   3  270.13    8.43
  -2   2  -3  277.51    7.41
  -3  -2  -3 1304.82   33.29
  -3  -2  -3 1267.06   31.92
  -3  -2  -3 1235.42   31.95
   3  -2   3 1210.90   30.75
   3   2   3 1237.04   32.15
   3  -2   3 1254.08   31.93
  -3  -2  -3 1255.25   31.74
  -3   2  -3 1237.68   33.82
   3  -2   3 1182.72   30.75
  -3   2  -3 1227.56   32.18
   4   2   3  181.50    5.64
  -4   2  -3  178.13    5.67
   4  -2   3  177.48    5.08
  -4   2  -3  176.41    6.15
  -4  -2  -3  182.41    5.45
   4  -2   3  182.25    5.12
   4  -2   3  185.88    5.44
  -4  -2  -3  183.82    5.71
  -4  -2  -3  185.68    5.04
  -4  -2  -3  184.50    5.43
  -5  -2  -3   23.84    1.55
  -5   2  -3   24.74    2.07
   5  -2   3   21.65    1.42
   5  -2   3   23.88    1.33
   5  -2   3   27.34    1.66
  -5  -2  -3   23.16    1.68
  -5   2  -3   23.42    1.75
  -5  -2  -3   22.41    1.53
   5   2   3   23.90    1.65
  -6   2  -3   30.41    2.09
  -6  -2  -3   30.23    2.11
   6  -2   3   30.57    1.62
  -6   2  -3   30.15    2.38
  -6  -2  -3   30.43    1.88
   6   2   3   30.00    2.00
  -7  -2  -3   21.92    2.14
  -7  -2  -3   26.24    1.93
  -7   2  -3   25.13    2.43
   7  -2   3   21.84    1.54
  -8  -2  -3    1.08    1.37
   8  -2   3    3.80    1.01
  -8  -2  -3    1.96    1.23
  -8   2  -3    6.54    1.80
  -9   2  -3   51.93    3.63
  -9  -2  -3   57.15    3.06
   9  -2   3   55.11    2.74
  -9  -2  -3   55.49    3.35
 -10   2  -3    4.82    1.91
 -10  -2  -3    5.05    1.44
 -10  -2  -3    6.23    1.79
 -11  -2  -3    0.21    1.24
 -11   2  -3    0.03    1.77
 -11  -2  -3    1.34    1.56
 -12   2  -3    4.05    2.25
 -12  -2  -3    3.75    1.98
 -13   2  -3   -2.34    2.23
 -13  -2  -3   -0.16    1.92
 -13  -3   3   -1.32    2.10
 -13   3   3   -2.01    2.08
 -12   3   3    1.79    2.16
  12  -3  -3   -1.13    1.36
 -12  -3   3    1.15    1.84
  11  -3  -3    4.84    1.78
 -11  -3   3    9.00    2.30
 -11   3   3    7.73    2.39
  10  -3  -3   11.18    1.52
 -10   3   3   14.50    2.49
  10  -3  -3    9.25    1.85
 -10  -3   3   12.54    1.74
 -10  -3   3    8.34    2.15
  -9  -3   3   16.42    2.42
  -9  -3   3   18.83    1.84
   9  -3  -3   17.82    1.63
   9  -3  -3   15.05    2.10
   9  -3  -3   16.73    1.30
  -9   3   3   20.70    2.56
  -8  -3   3   53.25    3.42
   8  -3  -3   49.62    2.41
   8  -3  -3   49.26    1.97
  -8   3   3   48.09    3.24
  -8  -3   3   51.44    2.64
   8  -3  -3   51.19    3.18
   7  -3  -3   67.66    3.50
  -7  -3   3   69.69    2.88
   7  -3  -3   67.06    2.66
  -7   3   3   68.33    3.55
  -7  -3   3   69.28    3.76
  -6  -3   3   49.25    2.13
   6  -3  -3   51.29    2.83
  -6  -3   3   49.82    2.12
  -6  -3   3   49.67    3.07
   6  -3  -3   45.41    1.88
  -6   3   3   46.86    2.80
  -5  -3   3   51.41    2.97
  -5  -3   3   53.73    2.01
  -5  -3   3   53.14    2.03
   5   3  -3   58.46    2.14
   5  -3  -3   57.93    2.96
  -5   3   3   54.80    2.83
   5   3  -3   56.38    2.37
  -4  -3   3   48.02    2.74
   4   3  -3   52.68    2.09
   4  -3  -3   50.69    2.65
   4   3  -3   51.89    2.13
   4   3  -3   50.08    2.17
  -4   3   3   48.08    2.12
  -4   3   3   50.20    2.48
   3  -3  -3  380.27   11.22
   3   3  -3  406.90   10.29
  -3  -3   3  375.87   11.71
   3   3  -3  392.40   10.69
  -3   3   3  397.15   11.30
   3   3  -3  398.65   10.79
   2   3  -3  137.31    4.38
  -2  -3   3  129.64    4.85
   2  -3  -3  132.50    4.58
  -2   3   3  130.29    4.32
   2   3  -3  136.48    4.06
   2   3  -3  133.28    3.78
  -1  -3   3  463.87   13.79
  -1   3   3  468.06   13.12
   1  -3  -3  456.13   13.06
   1   3  -3  490.97   11.98
   1   3  -3  475.99   12.52
   1  -3  -3  485.56   13.18
   0  -3  -3  711.69   19.61
   0   3  -3  723.28   19.18
   0  -3   3  728.82   20.81
   0  -3  -3  793.40   20.16
   0   3  -3  748.62   18.45
   0   3   3  735.54   19.12
   1  -3   3  290.51    9.36
  -1  -3  -3  301.01    8.51
   1   3   3  302.28    8.15
  -1   3  -3  309.01    7.84
  -1  -3  -3  313.28    8.68
  -1   3  -3  296.45    8.23
   2   3   3  515.38   13.75
  -2  -3  -3  504.47   13.81
  -2   3  -3  524.43   13.84
  -2   3  -3  522.24   13.27
  -2  -3  -3  536.90   14.41
   2  -3   3  521.82   15.19
  -2   3  -3  503.00   15.08
  -3   3  -3   36.87    2.50
  -3  -3  -3   39.38    1.72
   3  -3   3   36.68    2.50
  -3   3  -3   40.02    1.99
   3   3   3   39.21    1.87
  -3  -3  -3   42.69    2.02
  -3   3  -3   38.28    1.84
  -4  -3  -3  131.31    4.46
  -4  -3  -3  125.90    3.71
  -4  -3  -3  123.00    3.57
  -4   3  -3  133.62    4.41
   4   3   3  123.18    4.23
  -4   3  -3  124.12    5.03
  -5   3  -3  150.37    6.02
   5  -3   3  162.33    4.68
  -5  -3  -3  160.82    4.69
  -5  -3  -3  154.07    4.66
  -6  -3  -3   16.21    1.28
  -6   3  -3   19.00    2.21
  -6  -3  -3   16.93    1.68
   6  -3   3   15.09    0.93
  -7   3  -3    2.96    1.58
  -7  -3  -3    4.25    1.34
   7  -3   3    3.38    0.72
  -7  -3  -3    4.09    1.04
   8  -3   3   74.80    2.78
  -8   3  -3   77.78    4.39
  -8  -3  -3   76.05    3.27
  -8  -3  -3   73.90    3.78
  -9   3  -3    0.17    1.56
  -9  -3  -3    3.42    1.49
  -9  -3  -3   -0.32    1.10
 -10  -3  -3    1.53    1.18
 -10  -3  -3    0.82    1.42
 -10   3  -3   -1.76    1.59
 -11   3  -3    7.80    2.42
 -11  -3  -3    8.22    2.10
 -12  -3  -3    0.25    1.73
 -12   3  -3    1.22    2.36
 -13  -3  -3    2.46    2.05
  13  -4  -3    4.55    2.29
 -13   4   3   -0.93    2.46
 -12   4   3   -2.04    2.18
 -12  -4   3   -1.66    1.93
  12  -4  -3   -2.94    1.44
 -11  -4   3    5.47    2.28
 -11   4   3    0.92    2.22
  11  -4  -3    3.63    1.83
 -10  -4   3    1.70    1.03
  10  -4  -3    2.65    1.62
 -10  -4   3    5.54    2.14
 -10   4   3    2.89    2.13
  -9   4   3    5.02    2.00
  -9  -4   3    7.46    1.09
  -9  -4   3    5.93    2.12
   9  -4  -3    9.00    2.05
   8  -4  -3   37.29    3.13
  -8   4   3   36.93    3.09
  -8  -4   3   38.58    3.26
   7  -4  -3   22.15    2.39
  -7  -4   3   30.37    2.82
  -7   4   3   23.16    2.48
  -6  -4   3  207.07    7.79
  -6   4   3  211.66    7.45
   6  -4  -3  216.03    7.63
  -5   4   3   53.15    3.01
  -5  -4   3   45.81    3.18
   5  -4  -3   53.74    3.14
  -4  -4   3   97.83    4.47
  -4   4   3   99.52    4.09
   4  -4  -3   92.12    4.22
   4   4  -3  103.27    3.60
  -3   4   3  120.50    4.47
   3  -4  -3  114.35    4.64
   3   4  -3  124.66    4.20
  -3  -4   3  117.06    4.93
   2   4  -3  168.55    4.53
   2  -4  -3  167.26    5.74
  -2  -4   3  156.88    6.01
  -2   4   3  157.13    5.40
   1  -4  -3   87.98    3.43
   1   4  -3   86.13    2.51
   1  -4  -3   89.01    3.62
  -1  -4   3   79.87    3.89
  -1   4   3   87.02    3.36
   0   4   3  145.06    4.83
   0  -4  -3  148.70    5.03
   0  -4  -3  145.71    4.89
   0  -4   3  138.95    5.53
  -1  -4  -3   65.33    2.84
   1  -4   3   64.73    3.47
  -1   4  -3   65.92    3.44
  -1  -4  -3   67.65    2.90
  -1   4  -3   64.27    2.09
   2  -4   3   57.23    3.39
  -2  -4  -3   63.68    2.86
  -2  -4  -3   63.08    2.63
  -2   4  -3   62.24    3.46
  -3  -4  -3  677.36   18.41
  -3   4  -3  657.11   19.26
  -3  -4  -3  645.55   17.37
   3  -4   3  635.02   19.29
  -4  -4  -3   57.56    2.89
  -4   4  -3   57.10    3.57
  -5  -4  -3    8.95    1.49
  -5   4  -3    9.10    1.88
  -7  -4  -3    6.27    1.53
  -7   4  -3    4.47    1.92
  -8  -4  -3   15.79    1.13
  -8   4  -3   16.23    2.51
  -8  -4  -3   16.24    2.08
  -9  -4  -3    1.60    0.83
  -9  -4  -3    1.70    1.52
  -9   4  -3   -0.07    1.80
 -10  -4  -3    7.00    1.98
 -10   4  -3    4.98    2.42
 -11   4  -3   10.89    2.77
 -12   4  -3   -0.98    2.54
  12  -5  -3    3.76    2.20
 -12   5   3   -2.43    2.34
 -11  -5   3    2.15    2.32
  11  -5  -3    3.64    2.16
 -11   5   3   -1.79    2.34
  10  -5  -3    7.13    2.27
 -10   5   3   -0.14    2.05
 -10  -5   3    9.28    2.59
  -9  -5   3    1.04    2.08
  -9   5   3   -0.39    2.03
   9  -5  -3    1.28    1.76
  -8   5   3    7.42    2.15
   8  -5  -3    9.08    2.20
  -8  -5   3   10.73    2.46
   7  -5  -3   35.82    3.30
  -7   5   3   33.53    3.12
  -7  -5   3   43.05    3.51
   6  -5  -3   16.61    2.32
  -6   5   3   21.84    2.50
  -6  -5   3   19.68    2.69
   5  -5  -3  118.98    5.41
  -5   5   3  115.34    5.10
  -5  -5   3  124.27    5.56
   4  -5  -3   -0.55    1.17
  -4   5   3    0.50    1.31
  -4  -5   3    0.95    1.59
  -3  -5   3  115.56    5.18
   3  -5  -3  112.27    4.93
  -3   5   3  115.54    4.62
   3   5  -3  110.51    4.29
   2  -5  -3   35.51    2.66
  -2   5   3   39.97    2.54
  -2  -5   3   37.05    3.11
  -1  -5   3  106.88    4.94
   1  -5  -3  107.43    4.37
   1  -5  -3  106.33    4.47
  -1   5   3  103.72    4.25
   0  -5  -3  179.11    6.02
   0  -5  -3  162.58    5.95
   0   5   3  173.07    5.93
   0  -5   3  169.13    6.70
  -1  -5  -3    2.30    1.16
   1  -5   3    0.52    1.50
  -1   5  -3    0.29    1.39
  -1  -5  -3   -0.28    1.02
  -2  -5  -3   50.46    2.58
   2  -5   3   49.82    3.44
  -2   5  -3   42.12    3.25
  -2  -5  -3   50.55    2.83
  -3  -5  -3   49.41    2.80
   3  -5   3   40.84    3.34
  -3   5  -3   44.99    3.36
  -4  -5  -3   10.11    1.66
  -4   5  -3    9.44    2.16
  -5   5  -3   31.07    3.15
  -6   5  -3    4.17    2.00
  -7   5  -3   -0.69    1.64
  -8   5  -3   32.73    3.64
  -9   5  -3    5.43    2.56
 -10   5  -3    7.77    2.87
  11  -6  -3   -1.44    1.98
 -10  -6   3   10.07    2.96
  10  -6  -3   15.59    3.13
  -9  -6   3   12.91    3.08
   9  -6  -3   11.96    2.79
   8  -6  -3   29.18    3.51
  -8  -6   3   33.73    3.85
   7  -6  -3    4.38    2.01
  -7  -6   3    4.82    2.32
   6  -6  -3    7.17    2.07
  -6  -6   3    4.97    2.31
  -5  -6   3   -0.82    1.79
   5  -6  -3    1.45    1.52
  -4  -6   3    1.08    1.69
   4  -6  -3    0.63    1.51
   3  -6  -3    5.81    1.83
  -3  -6   3    4.59    1.89
  -2  -6   3   29.84    3.00
   2  -6  -3   23.88    2.56
   1  -6  -3   13.76    2.03
  -1  -6   3    9.70    2.15
   0   6  -3   77.04    4.26
   0  -6  -3   73.52    3.79
   0  -6   3   66.58    4.26
   1  -6   3   48.37    3.69
  -1   6  -3   46.81    3.59
   2  -6   3   49.71    3.90
  -2   6  -3   52.37    3.89
   3  -6   3   12.90    2.57
  -3   6  -3   11.11    2.43
  -4   6  -3   -0.14    1.84
  -5   6  -3   -2.45    1.60
  -6   6  -3    4.16    2.29
  -7   6  -3    1.80    2.23
  -8   6  -3   -4.24    2.12
  -9   6  -3    0.46    2.55
   9  -7  -3    1.53    2.49
   8  -7  -3    1.79    2.31
  -8  -7   3    3.01    2.64
   7  -7  -3   10.76    2.86
  -7  -7   3   11.30    3.03
   6  -7  -3    6.08    2.45
  -6  -7   3    1.63    2.37
  -5  -7   3    9.94    2.80
   5  -7  -3   10.81    2.63
   4  -7  -3   16.39    2.80
  -4  -7   3   21.38    3.19
  -3  -7   3   17.01    2.87
   3  -7  -3    8.99    2.27
  -2  -7   3   -1.31    1.87
   2  -7  -3    1.93    1.75
   1  -7  -3   -0.38    1.51
  -1  -7   3    0.48    2.01
   0   7  -3    0.95    1.96
   0  -7   3    2.67    2.13
   1  -7   3   27.21    3.39
  -1   7  -3   19.64    3.05
  -2   7  -3    2.63    2.15
   2  -7   3    4.32    2.39
  -3   7  -3    0.85    2.02
  -4   7  -3   -0.41    2.14
  -5   7  -3    0.15    2.19
  -6   7  -3   -1.00    2.31
  -7   7  -3    0.09    2.45
   5  -8  -3    2.76    2.35
  -5  -8   3    6.65    2.80
  -4  -8   3    0.26    2.27
   4  -8  -3    0.33    2.13
   3  -8  -3    1.90    2.15
  -3  -8   3   -0.19    2.31
   2   8  -3    1.51    2.33
  -2  -8   3    1.20    2.34
   1   8  -3   -0.19    2.19
  -1  -8   3    0.30    2.36
   0  -8   3    3.57    2.55
   0   8  -3    6.51    2.70
   1  -8   3    3.93    2.49
  -1   8  -3   -1.41    2.20
   2  -8   3    3.93    2.51
  -2   8  -3    9.16    3.01
  -3   8  -3    7.26    2.92
  -4   8  -3    6.30    2.91
 -14   0   4   12.11    2.87
 -13   0   4    0.88    2.18
  13   0  -4    3.50    1.74
 -12   0   4    5.90    1.87
  12   0  -4    0.58    1.33
 -12   0   4    0.84    1.87
  11   0  -4   43.98    2.79
  11   0  -4   39.91    2.91
 -11   0   4   38.40    3.44
 -11   0   4   42.82    3.03
 -10   0   4   35.64    2.68
  10   0  -4   27.42    2.26
 -10   0   4   31.62    3.07
  10   0  -4   39.51    2.66
   9   0  -4   -1.08    0.89
   9   0  -4   -0.61    0.69
   9   0  -4    0.61    0.82
  -9   0   4   -1.74    1.02
  -9   0   4    0.07    1.36
  -8   0   4   24.85    2.31
  -8   0   4   22.87    2.03
   8   0  -4   30.23    1.83
   8   0  -4   20.77    1.76
   8   0  -4   22.28    1.91
  -7   0   4   13.52    1.48
  -7   0   4   16.45    1.76
   7   0  -4   14.51    1.32
   7   0  -4   16.46    1.51
  -7   0   4   16.02    1.45
   7   0  -4   16.91    1.36
  -6   0   4  983.39   26.25
   6   0  -4  970.19   25.28
  -6   0   4 1030.65   25.39
   6   0  -4  985.15   25.98
  -6   0   4  983.16   27.38
   6   0  -4 1000.72   26.32
  -5   0   4  241.95    7.37
   5   0  -4  233.79    6.70
   5   0  -4  228.19    7.01
  -5   0   4  232.69    6.99
   5   0  -4  235.27    6.86
  -5   0   4  236.42    6.73
   4   0  -4    6.79    0.82
  -4   0   4    7.91    0.95
  -4   0   4    4.07    0.73
  -4   0   4    4.98    0.78
   4   0  -4    4.68    0.78
  -4   0   4    4.64    0.86
   4   0  -4    4.52    0.70
  -3   0   4  527.72   14.57
  -3   0   4  546.09   15.05
   3   0  -4  556.86   14.61
   3   0  -4  558.20   14.04
  -3   0   4  531.80   14.51
   3   0  -4  548.57   14.56
  -3   0   4  548.22   14.04
  -2   0   4 1548.70   38.07
   2   0  -4 1556.89   39.40
   2   0  -4 1513.89   39.42
   2   0  -4 1539.58   38.08
  -2   0   4 1573.91   39.45
  -2   0   4 1478.20   40.78
  -1   0   4    8.94    0.87
  -1   0   4   11.59    0.90
   1   0  -4   13.16    1.04
   1   0  -4   10.69    0.85
   1   0  -4   10.44    0.92
  -1   0   4   11.71    0.86
   0   0  -4 3389.84   82.29
   0   0   4 3352.64   85.05
   0   0  -4 3271.07   85.06
   0   0   4 3383.50   82.23
   0   0   4 3399.32   88.35
   0   0  -4 3293.00   84.87
  -1   0  -4  830.32   21.24
  -1   0  -4  848.34   22.00
   1   0   4  837.46   22.00
   1   0   4  849.88   22.66
   1   0   4  864.95   21.28
  -1   0  -4  827.19   22.63
  -1   0  -4  847.39   22.03
   2   0   4  207.13    5.99
  -2   0  -4  203.63    5.94
  -2   0  -4  193.82    5.90
   2   0   4  200.62    5.68
  -2   0  -4  201.06    5.89
  -3   0  -4 3343.50   84.12
  -3   0  -4 3318.64   84.42
  -3   0  -4 3206.39   84.33
   3   0   4 3418.04   84.45
  -3   0  -4 3274.93   87.58
  -4   0  -4  108.32    3.90
  -4   0  -4  111.90    3.98
  -4   0  -4  110.36    3.72
  -5   0  -4  637.04   16.58
  -5   0  -4  614.19   16.88
   5   0   4  621.22   16.95
  -5   0  -4  592.29   17.37
  -6   0  -4    3.89    1.17
   6   0   4    2.24    0.96
  -6   0  -4    3.73    1.08
  -6   0  -4    3.31    0.89
  -7   0  -4  268.78    8.81
  -7   0  -4  275.69    8.03
  -7   0  -4  258.47    8.44
   7   0   4  263.85    8.56
  -8   0  -4  411.54   11.51
  -8   0  -4  389.24   12.06
   8   0   4  393.62   12.20
  -8   0  -4  410.04   12.61
   9   0   4  136.06    5.56
  -9   0  -4  139.32    5.85
  -9   0  -4  129.54    5.40
 -10   0  -4    3.56    1.54
  10   0   4    2.79    1.21
 -10   0  -4    4.97    1.97
  10   0   4    4.06    1.57
 -11   0  -4    0.65    1.75
  11   0   4    1.90    1.54
 -11   0  -4    5.16    1.70
 -12   0  -4   13.47    2.75
  12   0   4   15.81    2.54
 -13   0  -4    3.84    2.56
 -14   1   4    2.15    2.58
 -14  -1   4   -3.38    2.23
 -13  -1   4   10.52    2.75
 -13   1   4    7.22    2.55
 -12   1   4   16.02    2.71
  12  -1  -4   16.34    2.24
 -12  -1   4   14.39    2.70
 -12  -1   4   13.76    2.23
 -11  -1   4   28.52    3.11
  11   1  -4   28.73    2.47
  11  -1  -4   30.83    2.45
 -11  -1   4   29.48    2.67
 -11   1   4   25.35    2.97
  11  -1  -4   26.58    2.44
  10   1  -4   87.64    3.91
  10  -1  -4   80.65    3.62
  10  -1  -4   82.89    3.84
 -10   1   4   78.37    4.46
  10   1  -4   83.76    4.09
 -10  -1   4   87.44    4.08
  10  -1  -4   84.94    4.00
 -10  -1   4   74.75    4.43
  -9   1   4   30.30    2.39
   9  -1  -4   25.54    2.10
  -9  -1   4   23.18    2.54
   9  -1  -4   23.20    1.84
  -9  -1   4   22.31    2.14
   9   1  -4   24.35    2.10
  -9   1   4   24.92    2.57
   9   1  -4   24.28    2.02
   9  -1  -4   30.66    2.24
  -8  -1   4   45.72    2.67
   8   1  -4   50.13    2.22
  -8   1   4   46.87    2.70
   8   1  -4   48.49    2.70
   8   1  -4   51.11    2.59
   8  -1  -4   46.57    2.60
  -8   1   4   49.98    3.14
   8  -1  -4   52.61    2.63
  -8  -1   4   51.30    3.07
   8  -1  -4   47.37    2.39
  -7   1   4   27.66    2.35
   7  -1  -4   30.79    2.01
  -7  -1   4   25.18    1.93
   7   1  -4   27.60    1.83
   7  -1  -4   26.26    1.69
  -7  -1   4   27.68    2.27
   7   1  -4   30.89    1.66
   7  -1  -4   27.81    1.90
  -7   1   4   31.44    2.09
   7   1  -4   29.45    1.97
  -6  -1   4   45.09    2.62
   6  -1  -4   47.49    2.30
   6   1  -4   48.33    2.09
   6  -1  -4   46.53    2.33
   6  -1  -4   47.46    2.11
  -6   1   4   47.65    2.32
  -6  -1   4   48.12    2.33
   6   1  -4   46.00    2.33
   6   1  -4   47.04    2.20
  -6  -1   4   47.87    2.42
  -6   1   4   49.48    2.61
  -5  -1   4   14.64    1.29
  -5  -1   4   16.79    1.58
  -5  -1   4   14.21    1.25
  -5  -1   4   13.31    1.25
   5  -1  -4   15.40    1.33
   5  -1  -4   15.28    1.26
   5   1  -4   12.68    1.13
   5   1  -4   13.73    1.16
   5   1  -4   13.02    1.16
  -5   1   4   13.54    1.21
  -5   1   4   15.76    1.44
   5  -1  -4   16.62    1.15
  -4  -1   4  200.24    6.48
   4  -1  -4  206.13    5.83
   4  -1  -4  206.09    6.22
   4   1  -4  210.14    5.90
   4   1  -4  205.90    5.98
  -4   1   4  204.32    6.10
  -4   1   4  208.71    5.89
   4   1  -4  201.62    6.17
  -4  -1   4  210.10    6.19
  -4   1   4  202.79    6.30
  -4  -1   4  208.45    5.87
   4  -1  -4  203.71    6.09
  -4  -1   4  199.08    6.04
   3   1  -4  907.12   23.94
   3  -1  -4  936.35   23.90
   3  -1  -4  887.15   23.98
   3  -1  -4  915.93   23.03
  -3  -1   4  930.01   23.05
  -3  -1   4  909.59   24.95
  -3   1   4  924.40   24.67
   3   1  -4  882.70   23.79
   3   1  -4  943.99   23.11
  -3  -1   4  911.75   23.86
  -3   1   4  924.85   23.08
  -3  -1   4  916.43   23.93
  -2   1   4 1924.20   50.17
  -2  -1   4 1840.26   48.38
   2  -1  -4 1886.20   48.50
   2  -1  -4 1949.28   48.47
   2   1  -4 1868.05   48.51
  -2   1   4 1915.47   46.83
   2   1  -4 1935.46   46.85
  -2  -1   4 1831.35   50.41
  -2  -1   4 1894.60   46.79
  -2  -1   4 1881.59   48.46
   2  -1  -4 1901.18   46.80
   2   1  -4 1899.59   48.42
  -1  -1   4  512.92   13.85
   1  -1  -4  521.58   13.81
  -1  -1   4  528.24   13.32
   1   1  -4  507.15   13.89
   1   1  -4  534.37   14.02
   1  -1  -4  525.94   13.99
   1  -1  -4  502.44   13.29
  -1  -1   4  525.97   14.51
  -1   1   4  543.98   13.41
   1   1  -4  528.59   13.38
   0   1  -4  380.89   10.65
   0  -1   4  401.47   11.15
   0   1  -4  390.07   10.79
   0  -1  -4  386.16   10.68
   0   1  -4  381.23   10.20
   0  -1  -4  402.73   10.58
   0  -1   4  393.03   10.16
   0  -1   4  391.86   10.59
   0   1   4  413.61   10.28
   1   1   4  603.97   14.89
  -1   1  -4  576.29   15.55
  -1   1  -4  567.05   16.05
   1  -1   4  579.30   14.80
  -1  -1  -4  601.70   15.65
  -1  -1  -4  577.12   15.35
   1  -1   4  590.73   15.41
   1  -1   4  582.00   16.10
  -1   1  -4  555.94   15.42
  -1  -1  -4  603.81   15.39
  -1   1  -4  568.59   14.88
  -1  -1  -4  573.14   15.36
  -2   1  -4  542.94   14.48
   2  -1   4  559.54   15.01
  -2   1  -4  557.80   15.07
  -2  -1  -4  580.29   15.03
   2  -1   4  551.68   15.69
  -2  -1  -4  580.06   15.24
  -2   1  -4  560.93   15.15
  -2  -1  -4  591.58   15.00
  -2   1  -4  541.00   15.64
   2  -1   4  558.75   14.42
  -2  -1  -4  560.70   14.84
   3   1   4  844.39   22.54
  -3  -1  -4  859.74   22.19
   3  -1   4  894.53   22.55
  -3  -1  -4  865.99   22.45
  -3   1  -4  819.42   23.41
  -3  -1  -4  848.06   23.05
  -3  -1  -4  865.43   22.48
   3  -1   4  859.08   21.70
  -3   1  -4  827.29   22.53
   4  -1   4  237.60    6.83
  -4  -1  -4  216.40    6.69
  -4  -1  -4  227.30    6.72
  -4   1  -4  221.62    7.15
  -4   1  -4  215.58    6.80
  -4  -1  -4  229.43    6.41
   4   1   4  219.16    6.80
   4  -1   4  222.48    6.47
  -5  -1  -4   83.87    3.35
   5  -1   4   81.44    3.22
   5   1   4   83.13    3.38
  -5   1  -4   79.44    3.54
  -5  -1  -4   83.59    3.28
   5  -1   4   85.85    3.40
  -5   1  -4   79.84    3.36
  -5  -1  -4   91.28    3.00
  -5  -1  -4   87.89    3.37
  -6  -1  -4    9.79    1.03
   6   1   4    9.13    1.28
  -6   1  -4    7.49    1.28
   6  -1   4    9.12    1.20
  -6   1  -4    6.38    1.38
  -6  -1  -4   12.67    1.51
  -6  -1  -4    9.01    1.27
  -7   1  -4  461.97   14.42
  -7  -1  -4  493.67   13.78
   7   1   4  483.23   13.94
  -7  -1  -4  476.86   14.15
  -7   1  -4  468.03   13.83
   8  -1   4  142.66    5.16
  -8  -1  -4  151.53    5.62
  -8  -1  -4  155.47    5.94
   8   1   4  150.18    5.78
  -8   1  -4  138.18    5.61
  -8   1  -4  147.69    6.06
  -9  -1  -4    4.58    1.66
  -9   1  -4    2.72    1.60
  -9  -1  -4    5.32    1.43
   9  -1   4    4.86    1.15
 -10  -1  -4    1.88    1.62
 -10  -1  -4    1.41    1.33
 -10   1  -4   -0.45    1.60
 -11  -1  -4    5.40    1.75
 -11   1  -4    6.40    2.25
 -11  -1  -4    5.61    2.08
 -12   1  -4    4.92    2.32
 -12  -1  -4    9.23    2.49
 -13  -1  -4   10.38    2.63
 -13   1  -4    3.03    2.41
 -14   2   4   -0.66    2.35
 -13   2   4    0.90    2.27
 -13  -2   4   -0.27    2.16
 -12  -2   4    2.37    2.20
  12  -2  -4    5.17    1.69
 -12   2   4    5.52    2.35
 -11  -2   4    6.21    1.68
  11  -2  -4    7.42    1.64
 -11  -2   4    7.48    2.29
 -11   2   4    3.81    2.16
  11  -2  -4    6.25    1.58
  10  -2  -4   27.15    2.35
  10  -2  -4   30.52    2.58
 -10  -2   4   28.44    2.45
 -10  -2   4   34.41    3.24
 -10   2   4   31.79    3.08
   9  -2  -4  118.09    4.25
  -9  -2   4  118.89    5.44
  -9  -2   4  120.94    4.70
   9  -2  -4  113.73    4.60
  -9   2   4  118.35    5.17
   9  -2  -4  110.90    4.78
   8  -2  -4   41.96    2.20
   8  -2  -4   44.94    2.77
  -8  -2   4   44.22    3.06
   8  -2  -4   39.80    2.43
  -8  -2   4   40.80    2.56
  -8   2   4   40.19    2.92
   7   2  -4   40.42    2.37
  -7  -2   4   39.36    2.30
  -7  -2   4   37.21    2.74
   7   2  -4   46.01    2.36
   7  -2  -4   40.18    2.22
  -7   2   4   44.56    2.79
   7  -2  -4   41.20    2.48
   7  -2  -4   40.71    2.04
   6   2  -4    7.00    0.98
   6  -2  -4    7.09    0.99
   6   2  -4    6.01    1.02
  -6   2   4    8.38    1.37
   6  -2  -4    6.54    0.82
   6   2  -4    7.37    0.85
  -6  -2   4    6.77    1.36
  -6   2   4    5.30    1.04
   6  -2  -4    6.37    1.14
  -6  -2   4    6.81    1.06
   5  -2  -4  108.09    3.47
   5   2  -4  115.28    3.69
   5   2  -4  107.10    3.93
  -5  -2   4  110.23    3.85
   5   2  -4  118.00    3.82
  -5   2   4  109.50    3.93
   5  -2  -4  110.96    3.74
   5  -2  -4  116.84    4.24
  -5  -2   4  114.21    4.47
  -5   2   4  115.98    4.20
  -5  -2   4  114.84    3.85
   4   2  -4   50.12    2.07
   4  -2  -4   47.53    2.34
   4  -2  -4   47.36    1.74
  -4  -2   4   49.35    2.06
  -4  -2   4   47.27    2.02
   4   2  -4   47.08    2.03
  -4   2   4   46.92    2.09
  -4   2   4   47.75    2.27
  -4  -2   4   44.44    2.51
   4  -2  -4   47.27    1.96
   4   2  -4   50.76    2.22
  -3  -2   4  829.98   21.94
   3  -2  -4  841.03   22.44
   3   2  -4  829.80   22.17
   3  -2  -4  825.88   21.04
   3   2  -4  854.80   22.10
  -3  -2   4  847.98   23.37
   3  -2  -4  842.09   21.90
   3   2  -4  859.38   21.35
  -3  -2   4  851.13   22.00
  -3   2   4  858.88   22.84
  -2  -2   4  204.81    5.85
  -2  -2   4  205.36    6.62
  -2   2   4  218.49    6.02
   2  -2  -4  208.24    5.74
   2  -2  -4  204.29    6.30
  -2  -2   4  207.41    5.83
   2   2  -4  213.52    5.76
   2   2  -4  203.37    6.06
   2   2  -4  206.26    6.16
   1  -2  -4 2599.63   64.77
   1   2  -4 2514.14   64.91
   1   2  -4 2523.30   64.86
  -1  -2   4 2546.97   62.71
   1   2  -4 2605.92   62.66
  -1  -2   4 2558.33   64.74
  -1  -2   4 2545.66   67.75
  -1  -2   4 2522.72   64.74
   1  -2  -4 2562.37   64.82
   1  -2  -4 2470.93   64.89
   0  -2  -4 1176.16   29.56
   0  -2  -4 1180.84   29.60
   0  -2   4 1134.29   29.58
   0   2  -4 1138.73   28.70
   0  -2  -4 1149.78   29.90
   0  -2   4 1166.79   29.62
   0   2  -4 1161.24   30.07
   0  -2   4 1151.44   28.59
   0   2  -4 1129.64   29.79
   0  -2   4 1142.94   31.36
  -1  -2  -4  171.06    5.06
   1  -2   4  166.76    4.80
  -1   2  -4  167.51    4.75
   1  -2   4  166.57    4.46
  -1   2  -4  164.48    5.52
   1  -2   4  167.50    5.64
  -1   2  -4  163.54    5.00
  -1  -2  -4  172.30    4.73
  -1  -2  -4  167.72    4.72
   2  -2   4  680.57   17.80
  -2  -2  -4  714.03   18.32
  -2  -2  -4  690.53   17.82
  -2   2  -4  673.61   19.06
   2  -2   4  679.17   19.11
   2   2   4  668.83   17.98
  -2   2  -4  680.11   18.03
   2  -2   4  653.19   17.03
  -2  -2  -4  670.04   17.74
  -2  -2  -4  689.59   17.75
  -2   2  -4  667.96   17.36
  -3  -2  -4  556.22   15.00
  -3  -2  -4  544.08   14.53
  -3   2  -4  541.69   15.72
  -3  -2  -4  534.23   14.39
   3   2   4  561.09   14.81
   3  -2   4  546.30   14.57
  -3   2  -4  528.71   14.78
  -3  -2  -4  561.36   14.54
   3  -2   4  535.93   13.92
   4  -2   4    8.84    0.99
   4  -2   4    8.03    0.84
   4   2   4    9.68    1.12
  -4  -2  -4    8.27    0.97
  -4   2  -4    6.34    1.05
   4  -2   4    7.64    0.78
  -4  -2  -4    9.59    0.81
  -4  -2  -4    9.77    1.03
  -4  -2  -4    7.58    0.92
  -4   2  -4    8.43    1.32
  -5   2  -4  211.19    6.84
   5  -2   4  224.01    6.62
  -5  -2  -4  213.25    6.00
   5  -2   4  198.04    6.11
  -5   2  -4  207.29    7.31
  -5  -2  -4  221.07    6.59
   5   2   4  217.91    6.82
   5  -2   4  219.23    6.23
  -5  -2  -4  218.11    6.53
  -5  -2  -4  214.03    6.74
  -6   2  -4   43.42    2.87
   6  -2   4   37.81    1.95
  -6  -2  -4   45.65    2.34
  -6  -2  -4   39.71    2.40
  -6   2  -4   42.46    2.52
   6   2   4   47.01    2.54
  -7   2  -4  168.65    6.62
  -7  -2  -4  175.34    5.86
  -7  -2  -4  171.12    6.11
   7  -2   4  169.16    5.43
  -8  -2  -4  209.89    7.23
   8  -2   4  193.82    6.37
  -8  -2  -4  211.86    6.93
  -8   2  -4  203.85    7.73
  -9  -2  -4    9.60    1.89
  -9  -2  -4   13.38    1.80
  -9   2  -4   11.72    2.15
 -10  -2  -4   15.69    2.22
 -10   2  -4   13.18    2.36
 -10  -2  -4   13.94    1.97
 -11  -2  -4   55.23    3.81
 -11   2  -4   58.37    4.17
 -12   2  -4    7.46    2.49
 -12  -2  -4    0.89    1.79
 -13   2  -4    0.20    2.37
 -13  -2  -4    1.87    2.10
  13  -3  -4    7.65    2.13
 -13  -3   4    2.71    2.36
 -13   3   4   -1.44    2.31
  12  -3  -4    0.45    1.53
 -12   3   4    1.01    2.15
 -12  -3   4    0.34    2.09
 -11   3   4   18.22    2.79
  11  -3  -4   20.53    2.57
 -11  -3   4   23.95    3.07
 -10   3   4    0.05    1.78
  10  -3  -4    3.14    1.18
 -10  -3   4    3.21    1.45
  10  -3  -4    2.03    1.51
 -10  -3   4    3.90    1.98
   9  -3  -4    3.64    1.10
  -9   3   4   -0.87    1.65
  -9  -3   4    1.65    1.22
  -9  -3   4   -1.06    1.59
   9  -3  -4    3.08    1.45
   9  -3  -4    2.17    0.78
  -8  -3   4  109.89    5.17
  -8  -3   4  105.60    4.10
  -8   3   4  107.79    4.85
   8  -3  -4  106.24    4.78
   8  -3  -4  109.24    3.92
   8  -3  -4  105.23    3.38
   7  -3  -4  146.16    4.80
  -7  -3   4  153.26    6.22
   7  -3  -4  160.59    5.91
  -7   3   4  150.14    5.89
  -7  -3   4  148.68    5.05
  -6  -3   4  154.21    6.09
   6  -3  -4  154.74    4.69
  -6  -3   4  155.72    4.91
  -6   3   4  152.06    5.62
   6  -3  -4  161.23    5.82
  -5  -3   4   26.50    1.40
   5   3  -4   26.23    1.59
   5  -3  -4   24.43    1.14
  -5   3   4   24.73    2.00
  -5  -3   4   24.21    2.24
  -5  -3   4   26.12    1.40
   5  -3  -4   24.72    2.03
  -4  -3   4   81.52    3.82
  -4   3   4   91.57    3.45
   4   3  -4   89.88    3.07
   4   3  -4   89.45    3.25
   4  -3  -4   87.55    3.71
  -4  -3   4   84.46    2.68
   4   3  -4   84.45    3.15
  -4  -3   4   83.38    2.66
  -3   3   4   18.78    1.50
  -3  -3   4   21.04    1.89
   3   3  -4   18.44    1.44
   3  -3  -4   17.88    1.60
   3   3  -4   18.44    1.34
   3   3  -4   18.57    1.25
  -2   3   4  660.22   17.63
   2   3  -4  648.05   16.38
   2  -3  -4  604.60   17.48
   2   3  -4  670.18   17.11
  -2  -3   4  640.83   18.43
   2   3  -4  637.25   17.32
  -1  -3   4    7.30    1.33
   1  -3  -4    8.74    1.12
   1   3  -4    6.99    1.09
   1   3  -4    4.82    0.68
  -1   3   4    7.34    0.82
   1   3  -4    6.00    0.86
   0   3  -4  537.73   14.30
   0  -3  -4  564.88   14.66
   0  -3  -4  531.10   14.63
   0   3   4  530.86   14.60
   0   3  -4  541.21   13.70
   0  -3   4  515.00   15.57
  -1  -3  -4   57.07    2.38
  -1   3  -4   53.72    2.18
   1   3   4   51.01    2.11
  -1   3  -4   51.94    1.97
  -1  -3  -4   55.68    2.05
   1  -3   4   47.33    2.86
  -2   3  -4  350.58    9.41
  -2  -3  -4  378.16    9.99
   2   3   4  345.08    9.74
  -2  -3  -4  347.81    9.78
  -2   3  -4  350.43   10.88
  -2   3  -4  352.69    9.84
   2  -3   4  336.09   10.87
  -3   3  -4   88.87    4.01
  -3   3  -4   86.54    3.33
  -3   3  -4   92.90    3.20
   3   3   4   86.94    3.28
   3  -3   4   86.82    4.06
  -3  -3  -4   89.71    3.09
  -3  -3  -4   92.65    3.24
   4  -3   4  132.10    3.90
  -4  -3  -4  135.09    3.88
  -4  -3  -4  126.57    3.83
  -4   3  -4  126.51    5.21
  -4  -3  -4  133.18    4.47
  -4  -3  -4  122.31    3.94
  -5  -3  -4   26.23    1.53
  -5   3  -4   28.30    2.53
  -5  -3  -4   28.25    1.52
   5  -3   4   26.82    1.56
  -5  -3  -4   28.63    1.92
   6  -3   4    1.82    0.56
  -6  -3  -4    1.76    0.80
  -6  -3  -4    3.29    1.08
  -6   3  -4    1.90    1.43
  -7  -3  -4   -0.15    1.01
  -7  -3  -4   -1.30    0.78
  -7   3  -4   -0.42    1.41
   7  -3   4    0.18    0.63
   8  -3   4    6.61    1.00
  -8  -3  -4   12.66    1.76
  -8   3  -4    5.87    1.91
  -8  -3  -4    6.85    1.40
  -9   3  -4   22.74    2.86
  -9  -3  -4   24.46    2.02
  -9  -3  -4   21.57    2.30
 -10  -3  -4    2.89    1.66
 -10   3  -4    1.50    1.89
 -11  -3  -4    1.90    1.84
 -11   3  -4    2.50    2.26
 -12   3  -4    4.29    2.49
 -12  -3  -4    6.43    2.20
  13  -4  -4   -0.11    1.99
 -13   4   4   -0.29    2.46
 -12   4   4    1.19    2.29
 -12  -4   4   -0.80    2.14
  12  -4  -4    1.88    1.78
  11  -4  -4   -0.83    1.51
 -11  -4   4   -3.64    1.80
 -11   4   4   -0.41    2.06
  10  -4  -4    4.34    1.77
 -10   4   4    1.22    2.13
 -10  -4   4    4.13    2.30
 -10  -4   4    6.81    1.32
  -9  -4   4    7.48    1.16
   9  -4  -4    9.64    2.11
  -9   4   4    6.44    2.19
  -9  -4   4    7.33    2.19
  -8  -4   4   25.88    1.44
  -8   4   4   24.69    2.62
   8  -4  -4   23.59    2.60
  -8  -4   4   24.31    2.85
   7  -4  -4   39.08    2.99
  -7   4   4   41.51    3.06
  -7  -4   4   42.50    3.46
  -6  -4   4  285.06    9.94
   6  -4  -4  282.07    9.53
  -6   4   4  291.09    9.34
  -5  -4   4  281.52    9.90
  -5   4   4  299.69    9.36
   5  -4  -4  300.60    9.60
   4  -4  -4   72.98    3.69
  -4   4   4   72.61    3.30
   4   4  -4   73.43    3.06
  -4  -4   4   71.62    3.86
   3  -4  -4  238.13    7.89
  -3  -4   4  239.38    8.35
  -3   4   4  245.78    7.56
   3   4  -4  242.84    7.40
   2  -4  -4    2.68    1.07
   2   4  -4    3.08    1.01
  -2   4   4    1.36    0.90
  -2  -4   4    3.54    1.33
  -1   4   4  171.78    5.50
   1  -4  -4  174.30    5.88
  -1  -4   4  174.97    6.45
   0  -4   4  117.65    5.07
   0  -4  -4  134.93    4.32
   0   4   4  123.87    4.22
   0  -4  -4  126.14    4.54
  -1  -4  -4   40.28    2.00
   1  -4   4   33.16    2.72
  -1   4  -4   33.68    2.60
  -1  -4  -4   41.13    2.21
   2  -4   4   10.56    1.89
  -2  -4  -4   15.04    1.37
  -2   4  -4   12.96    1.94
  -2  -4  -4   14.62    1.36
  -3   4  -4   53.95    3.42
   3  -4   4   51.46    3.45
  -3  -4  -4   56.73    2.66
  -3  -4  -4   55.74    2.49
  -4   4  -4   28.38    2.72
  -4  -4  -4   24.16    1.97
  -5   4  -4  286.56   10.08
  -5  -4  -4  291.13    9.06
  -6   4  -4  118.15    5.72
  -6  -4  -4  124.32    4.89
  -7   4  -4    3.29    1.82
  -8  -4  -4    1.77    0.74
  -8   4  -4    4.65    1.97
  -9   4  -4   10.81    2.63
  -9  -4  -4   11.71    1.25
 -10   4  -4   12.30    2.76
 -11   4  -4   13.68    3.08
  12  -5  -4   -1.53    1.74
 -12   5   4   -2.91    2.34
 -11   5   4    4.23    2.61
  11  -5  -4    6.73    2.37
 -11  -5   4    5.40    2.57
 -10   5   4   12.82    2.95
 -10  -5   4   17.33    3.07
  10  -5  -4   18.43    2.88
   9  -5  -4   16.00    2.66
  -9   5   4   14.86    2.67
  -9  -5   4   21.97    3.14
  -8  -5   4    6.17    2.34
  -8   5   4    5.29    2.09
   8  -5  -4    2.01    1.75
  -7   5   4   30.28    2.82
   7  -5  -4   23.46    2.81
  -7  -5   4   27.36    3.18
  -6   5   4   45.03    3.16
   6  -5  -4   39.72    3.24
  -6  -5   4   43.37    3.48
  -5  -5   4    4.65    1.91
   5  -5  -4    4.59    1.66
  -5   5   4    5.82    1.66
  -4  -5   4   12.49    2.26
  -4   5   4   12.20    1.82
   4  -5  -4   11.12    1.92
   3   5  -4   23.51    2.03
  -3  -5   4   23.77    2.65
   3  -5  -4   18.06    2.20
   2  -5  -4  123.05    5.07
  -2  -5   4  117.17    5.43
   1  -5  -4   31.00    2.44
  -1  -5   4   34.04    3.03
   0  -5   4  176.70    7.04
   0  -5  -4  182.82    6.33
  -1  -5  -4   23.80    2.02
  -1   5  -4   29.30    2.81
   1  -5   4   24.54    2.76
   2  -5   4  143.35    6.22
  -2   5  -4  143.55    6.17
  -2  -5  -4  137.44    4.97
   3  -5   4   15.03    2.57
  -3   5  -4   17.60    2.52
  -4   5  -4   92.43    5.03
  -5   5  -4    1.77    1.72
  -6   5  -4    0.17    1.81
  -7   5  -4    9.42    2.49
  -8   5  -4   14.69    3.01
  -9   5  -4    7.56    2.65
 -10   5  -4    1.30    2.48
 -10  -6   4    5.31    2.81
  10  -6  -4    4.74    2.39
   9  -6  -4   23.92    3.33
  -9  -6   4   17.37    3.30
   8  -6  -4    4.07    2.20
  -8  -6   4    1.36    2.32
   7  -6  -4    7.10    2.25
  -7  -6   4   12.43    2.76
  -6  -6   4   -0.74    1.90
   6  -6  -4    4.48    1.87
  -5  -6   4    6.24    2.28
   5  -6  -4    6.69    2.00
   4  -6  -4    1.25    1.50
  -4  -6   4   -1.40    1.59
  -3  -6   4   32.87    3.22
   3  -6  -4   26.23    2.76
   2  -6  -4    0.44    1.35
  -2  -6   4    1.73    1.81
  -1  -6   4   43.98    3.53
   1  -6  -4   41.52    3.05
   0  -6   4    4.39    2.06
   0  -6  -4    4.05    1.58
   0   6  -4    5.31    1.98
  -1   6  -4   15.56    2.58
   1  -6   4   19.81    2.87
  -2   6  -4   43.57    3.67
   2  -6   4   40.83    3.70
  -3   6  -4   10.61    2.52
   3  -6   4   10.75    2.62
  -4   6  -4    5.37    2.35
  -5   6  -4    0.05    1.91
  -6   6  -4    0.77    2.19
  -7   6  -4    5.31    2.65
  -8   6  -4   -0.64    2.45
  -9   6  -4    1.89    2.69
   8  -7  -4   12.41    3.06
  -8  -7   4    8.54    3.02
   7  -7  -4   -0.28    2.12
  -7  -7   4    0.63    2.47
   6  -7  -4   25.15    3.36
  -6  -7   4   22.45    3.58
   5  -7  -4    5.76    2.28
  -5  -7   4    5.02    2.60
   4  -7  -4    3.10    1.99
  -4  -7   4   -0.24    2.23
  -3  -7   4    1.11    2.09
   3  -7  -4    0.99    1.73
  -2  -7   4    0.79    1.87
   2  -7  -4    0.78    1.55
   1  -7  -4   17.31    2.45
  -1  -7   4   16.85    2.96
   0   7  -4   22.34    3.15
   0  -7   4   23.49    3.30
  -1   7  -4   -1.62    1.94
   1  -7   4    0.90    2.17
   2  -7   4   13.08    2.93
  -2   7  -4    6.18    2.56
  -3   7  -4    9.69    2.75
  -4   7  -4   19.12    3.35
  -5   7  -4   -0.82    2.38
  -6   7  -4    6.39    2.86
   5  -8  -4    1.74    2.33
   4  -8  -4   -0.50    2.13
  -4  -8   4    5.13    2.72
   3  -8  -4    1.12    2.14
  -3  -8   4    1.63    2.45
   2   8  -4    2.16    2.40
  -2  -8   4    6.10    2.74
  -1  -8   4    3.82    2.66
   1   8  -4    2.01    2.44
   0  -8   4    4.49    2.72
   0   8  -4    3.01    2.53
   1  -8   4   12.67    3.29
  -1   8  -4    7.60    2.79
   2  -8   4    7.84    2.95
  -2   8  -4    4.79    2.78
  -3   8  -4    2.32    2.78
 -14   0   5    1.05    2.24
 -13   0   5   24.56    3.29
  12   0  -5    2.27    1.36
 -12   0   5    1.78    1.94
 -12   0   5    1.58    1.55
  11   0  -5   33.42    2.70
 -11   0   5   32.23    2.71
 -11   0   5   34.56    3.18
 -10   0   5    2.12    1.40
  10   0  -5    3.72    1.31
 -10   0   5    1.97    1.82
  10   0  -5    1.09    0.95
   9   0  -5   38.31    2.53
   9   0  -5   29.90    2.15
  -9   0   5   32.67    2.48
  -9   0   5   34.99    2.84
   9   0  -5   38.00    2.31
   8   0  -5   48.27    2.54
   8   0  -5   55.39    2.61
  -8   0   5   45.48    2.74
  -8   0   5   54.78    3.14
   8   0  -5   44.79    2.70
   7   0  -5   58.98    2.69
  -7   0   5   57.30    2.91
   7   0  -5   61.34    2.72
  -7   0   5   65.86    3.27
   7   0  -5   63.07    2.96
  -6   0   5  356.58    9.60
   6   0  -5  343.52    9.78
  -6   0   5  333.01   10.30
   6   0  -5  330.86    9.94
  -6   0   5  334.57    9.88
   6   0  -5  343.76    9.51
   5   0  -5  320.89    9.11
   5   0  -5  312.65    9.20
   5   0  -5  312.88    8.78
  -5   0   5  326.30    8.85
  -5   0   5  317.77    9.49
  -5   0   5  311.02    9.14
  -4   0   5  779.55   21.19
  -4   0   5  783.52   21.94
  -4   0   5  819.30   20.49
   4   0  -5  808.92   20.48
   4   0  -5  814.29   21.31
   4   0  -5  799.00   21.20
  -3   0   5  446.89   12.82
  -3   0   5  440.37   12.45
   3   0  -5  472.67   12.61
  -3   0   5  460.26   12.58
  -3   0   5  462.56   12.05
   3   0  -5  466.18   12.57
   3   0  -5  463.06   12.06
   2   0  -5  943.13   24.47
  -2   0   5  924.83   25.13
   2   0  -5  894.91   24.44
   2   0  -5  948.45   23.61
  -2   0   5  930.55   23.57
  -2   0   5  967.69   24.51
   1   0  -5   37.97    1.73
  -1   0   5   40.63    1.84
   1   0  -5   35.90    1.85
   1   0  -5   38.76    1.61
  -1   0   5   39.69    1.66
  -1   0   5   37.21    1.63
   0   0  -5  281.41    8.44
   0   0  -5  295.88    8.09
   0   0  -5  296.54    8.41
   0   0   5  308.79    8.49
   0   0   5  308.03    8.11
   0   0   5  301.14    8.42
   1   0   5    1.55    0.53
  -1   0  -5    1.14    0.44
  -1   0  -5    1.32    0.45
   1   0   5    0.12    0.47
  -1   0  -5    1.24    0.58
   1   0   5    0.32    0.46
  -1   0  -5    0.29    0.48
   2   0   5 3040.46   76.40
  -2   0  -5 2810.08   76.33
  -2   0  -5 2972.87   76.19
  -2   0  -5 3040.42   79.16
  -2   0  -5 3098.89   76.44
   3   0   5   34.57    1.83
  -3   0  -5   29.41    1.79
  -3   0  -5   29.24    1.77
  -4   0  -5    0.12    0.71
   4   0   5   -0.59    0.67
  -4   0  -5   -0.84    0.65
  -4   0  -5    1.46    0.70
  -5   0  -5   20.76    1.77
  -5   0  -5   20.56    1.73
  -5   0  -5   22.34    1.66
  -6   0  -5  330.24   10.23
  -6   0  -5  337.95   10.52
  -6   0  -5  351.88    9.92
  -7   0  -5    0.23    1.11
  -7   0  -5   -1.67    0.77
  -7   0  -5   -3.72    0.91
  -8   0  -5  207.68    7.60
  -8   0  -5  210.73    7.32
  -8   0  -5  212.30    6.81
  -9   0  -5   -0.18    1.24
  -9   0  -5    1.73    1.63
 -10   0  -5    2.47    1.51
 -10   0  -5   -0.07    1.60
 -11   0  -5   47.82    3.55
 -11   0  -5   43.40    3.84
 -12   0  -5   -0.42    2.13
 -13   0  -5   12.67    2.97
 -14  -1   5    4.55    2.71
 -14   1   5    8.10    2.80
 -13   1   5   -0.03    2.17
 -13  -1   5    0.20    2.23
 -12  -1   5   -0.95    1.54
 -12  -1   5    0.26    1.96
 -12   1   5    4.30    2.16
  12  -1  -5   -0.51    1.33
  11  -1  -5   12.17    1.87
 -11  -1   5   15.02    2.13
 -11   1   5   12.74    2.47
  11   1  -5   12.56    1.79
  11  -1  -5   15.63    1.94
 -11  -1   5   11.42    2.43
 -10   1   5   13.88    2.40
  10  -1  -5   22.10    2.13
 -10  -1   5   18.04    2.57
  10   1  -5   19.32    1.93
 -10  -1   5   19.35    2.11
  10  -1  -5   20.64    2.10
  10  -1  -5   14.25    1.63
   9  -1  -5    6.03    1.44
   9   1  -5    7.17    1.38
   9  -1  -5    7.43    1.42
   9   1  -5    8.53    1.52
   9  -1  -5    5.46    1.16
  -9  -1   5    9.12    1.69
  -9   1   5    8.12    1.68
  -9   1   5   10.13    1.97
  -9  -1   5    9.06    1.92
   8  -1  -5   53.81    2.83
   8   1  -5   50.06    2.83
   8   1  -5   49.59    2.66
  -8  -1   5   49.34    3.18
   8  -1  -5   47.23    2.48
   8  -1  -5   50.95    2.77
  -8   1   5   52.94    2.95
  -8   1   5   49.65    3.08
  -8  -1   5   47.92    2.83
   8   1  -5   51.58    2.46
  -7  -1   5  224.73    7.21
  -7   1   5  232.48    7.66
   7   1  -5  228.30    7.36
  -7   1   5  224.50    7.27
   7   1  -5  233.01    6.89
   7   1  -5  227.31    6.99
   7  -1  -5  220.79    6.83
   7  -1  -5  229.53    7.28
   7  -1  -5  231.74    7.25
  -7  -1   5  235.60    7.85
   6   1  -5  226.42    6.83
  -6  -1   5  230.42    7.61
   6  -1  -5  226.38    7.11
  -6  -1   5  243.30    7.28
  -6  -1   5  226.14    7.11
   6   1  -5  226.48    7.20
   6  -1  -5  230.57    7.22
  -6  -1   5  243.79    6.92
   6  -1  -5  225.06    6.75
  -6   1   5  227.98    7.39
  -6   1   5  224.84    7.15
   6   1  -5  231.56    6.87
   5   1  -5  156.56    4.89
  -5   1   5  160.82    5.24
   5  -1  -5  156.27    5.06
   5  -1  -5  159.67    4.84
  -5  -1   5  160.75    5.19
  -5  -1   5  150.29    5.40
  -5   1   5  148.39    5.06
   5  -1  -5  155.33    5.18
   5   1  -5  152.50    4.92
   5   1  -5  154.46    5.14
  -5  -1   5  155.02    5.03
  -5  -1   5  154.20    4.86
  -4  -1   5  787.28   20.29
  -4   1   5  796.83   21.70
   4  -1  -5  789.34   21.19
   4   1  -5  809.22   21.18
   4   1  -5  784.40   20.97
  -4  -1   5  789.56   22.00
   4  -1  -5  809.61   20.31
   4   1  -5  810.73   20.37
   4  -1  -5  783.53   21.05
  -4   1   5  777.96   21.05
  -4  -1   5  783.67   21.03
  -4  -1   5  809.71   21.14
   3  -1  -5  947.89   24.08
   3   1  -5  897.67   24.11
   3  -1  -5  913.97   23.17
   3   1  -5  921.73   23.24
  -3  -1   5  917.41   24.09
  -3  -1   5  902.19   25.04
  -3  -1   5  907.35   23.17
  -3   1   5  942.60   23.25
  -3  -1   5  904.13   24.01
  -3   1   5  923.83   24.69
   3  -1  -5  922.54   24.20
   3   1  -5  902.07   24.02
  -2  -1   5  353.63    9.88
  -2  -1   5  362.48    9.45
  -2   1   5  352.29    9.78
   2   1  -5  342.61    9.93
   2   1  -5  365.29    9.51
  -2  -1   5  357.15   10.30
   2  -1  -5  342.93    9.40
  -2   1   5  360.90    9.50
  -2  -1   5  352.56    9.79
   2  -1  -5  358.13    9.82
   2  -1  -5  365.00   10.06
   2   1  -5  361.27    9.96
   1  -1  -5  551.75   15.20
  -1  -1   5  564.53   14.50
   1   1  -5  538.64   15.19
   1   1  -5  562.17   15.14
  -1  -1   5  585.88   15.15
   1  -1  -5  570.77   15.05
  -1  -1   5  568.17   15.73
  -1   1   5  596.15   14.62
   1  -1  -5  555.40   14.48
   1   1  -5  560.07   14.56
   0   1  -5  154.09    4.50
   0   1  -5  147.48    4.84
   0   1  -5  149.97    4.72
   0  -1  -5  147.82    4.77
   0  -1   5  154.28    4.94
   0  -1  -5  153.71    4.64
   0  -1   5  149.78    4.42
   0   1   5  159.92    4.55
   0  -1   5  157.48    4.71
  -1   1  -5  161.80    5.19
  -1   1  -5  159.34    5.19
   1  -1   5  167.42    5.04
   1  -1   5  160.92    4.75
  -1  -1  -5  152.60    4.97
  -1  -1  -5  169.44    4.64
  -1   1  -5  156.43    5.03
  -1  -1  -5  161.47    4.95
  -1   1  -5  159.29    4.81
   1   1   5  174.19    4.88
  -1  -1  -5  172.90    5.03
   1  -1   5  162.53    5.24
  -2   1  -5  526.90   14.60
   2  -1   5  531.53   13.95
  -2  -1  -5  559.61   14.53
  -2   1  -5  532.48   14.04
   2  -1   5  544.28   14.58
  -2  -1  -5  520.16   14.37
  -2  -1  -5  526.58   14.48
  -2   1  -5  534.52   15.12
  -2  -1  -5  553.39   14.62
  -2   1  -5  522.57   14.65
   2  -1   5  543.65   15.18
   2   1   5  553.43   14.07
  -3   1  -5  903.96   24.55
  -3  -1  -5  937.59   25.04
  -3   1  -5  894.95   25.46
   3  -1   5  954.56   24.55
  -3  -1  -5  963.45   24.49
  -3  -1  -5  936.71   24.51
   3  -1   5  945.26   23.64
  -3   1  -5  888.99   24.55
  -3  -1  -5  928.46   24.23
   4  -1   5  263.82    7.82
  -4   1  -5  253.69    8.17
  -4  -1  -5  255.97    7.74
  -4   1  -5  265.26    7.93
  -4   1  -5  250.76    7.81
  -4  -1  -5  260.09    7.76
  -4  -1  -5  268.29    7.77
   4  -1   5  250.12    7.43
  -4  -1  -5  264.09    7.49
  -5   1  -5   99.60    4.16
  -5  -1  -5  100.26    3.90
  -5   1  -5  101.67    3.97
  -5  -1  -5  105.37    3.60
   5  -1   5  106.15    3.78
  -5   1  -5  102.95    4.01
  -6   1  -5  440.78   13.49
  -6  -1  -5  435.87   12.77
  -6  -1  -5  461.35   12.28
  -6  -1  -5  438.81   13.08
  -6   1  -5  439.35   12.97
   6   1   5  456.35   13.05
   7   1   5  329.16   10.17
  -7  -1  -5  315.97    9.88
  -7  -1  -5  322.12   10.10
  -7   1  -5  303.54   10.34
  -7   1  -5  330.98   10.13
  -8  -1  -5   26.70    2.37
   8   1   5   31.24    2.55
  -8   1  -5   32.14    2.85
  -8   1  -5   31.15    2.59
  -8  -1  -5   27.55    2.66
  -9   1  -5   33.53    3.01
  -9  -1  -5   34.93    3.03
  -9  -1  -5   37.43    2.72
   9  -1   5   31.19    2.31
 -10  -1  -5   -0.14    1.21
 -10  -1  -5    0.53    1.62
 -10   1  -5   -1.41    1.57
 -11   1  -5   15.88    2.79
 -11  -1  -5   14.37    2.65
 -11  -1  -5   11.38    2.16
 -12   1  -5   14.62    2.84
 -12  -1  -5    5.39    2.36
 -13   1  -5   -0.87    2.21
 -13  -1  -5    1.79    2.18
 -14   2   5    0.67    2.39
 -13  -2   5    4.56    2.53
 -13   2   5    6.95    2.52
  12  -2  -5   21.78    2.61
 -12  -2   5   24.81    3.22
 -12   2   5   14.31    2.76
  11  -2  -5   39.80    2.85
 -11   2   5   39.75    3.47
 -11  -2   5   35.63    2.90
 -11  -2   5   37.86    3.51
  11  -2  -5   40.80    3.02
  10  -2  -5   35.94    2.86
 -10  -2   5   29.64    2.53
  10  -2  -5   33.32    2.49
 -10  -2   5   27.31    3.08
 -10   2   5   31.70    3.09
  -9  -2   5   31.38    2.39
  -9   2   5   29.14    2.77
   9  -2  -5   27.58    2.00
   9  -2  -5   31.15    2.57
  -9  -2   5   33.02    3.03
   9  -2  -5   30.15    2.26
  -8  -2   5  163.97    5.87
   8  -2  -5  163.15    5.42
   8  -2  -5  166.63    5.82
  -8   2   5  165.37    6.40
  -8  -2   5  172.18    6.67
   8  -2  -5  186.82    6.35
  -7   2   5  167.25    6.07
  -7  -2   5  166.69    6.36
   7   2  -5  167.01    5.27
   7  -2  -5  162.60    5.57
   7  -2  -5  169.23    6.03
  -7  -2   5  165.46    5.67
   7  -2  -5  168.02    5.25
   7   2  -5  169.84    5.63
   6   2  -5  141.44    4.58
   6  -2  -5  138.55    4.99
   6   2  -5  129.50    4.70
  -6   2   5  127.49    4.66
   6   2  -5  132.40    4.38
   6  -2  -5  131.78    4.21
  -6  -2   5  130.81    4.58
  -6  -2   5  126.99    5.19
  -6   2   5  134.88    4.90
   6  -2  -5  127.83    4.49
   5   2  -5  139.99    4.84
  -5  -2   5  147.20    4.76
  -5  -2   5  145.99    5.37
  -5   2   5  131.14    4.72
  -5   2   5  144.97    4.90
   5   2  -5  144.30    4.61
   5   2  -5  137.35    4.58
  -5  -2   5  140.12    4.66
   5  -2  -5  139.54    4.29
   5  -2  -5  139.60    5.05
   5  -2  -5  148.35    4.63
   4  -2  -5  469.70   12.46
  -4   2   5  491.88   13.54
   4   2  -5  459.43   13.28
   4   2  -5  491.63   12.79
  -4  -2   5  496.95   13.14
  -4  -2   5  490.57   13.18
   4  -2  -5  494.35   13.06
  -4  -2   5  476.61   14.08
   4   2  -5  466.34   13.12
   4  -2  -5  479.45   13.57
  -3  -2   5  244.40    6.58
   3  -2  -5  232.09    6.44
   3   2  -5  257.56    7.22
  -3  -2   5  239.53    6.96
   3  -2  -5  237.72    6.81
  -3   2   5  232.61    6.97
   3   2  -5  252.66    6.83
   3  -2  -5  240.41    7.38
  -3  -2   5  240.25    6.88
  -3  -2   5  238.23    7.66
   3   2  -5  232.97    7.09
   2   2  -5 1509.37   38.24
   2   2  -5 1436.06   38.19
   2  -2  -5 1471.27   37.92
  -2   2   5 1505.74   39.22
   2   2  -5 1493.49   36.83
  -2  -2   5 1526.77   38.00
  -2  -2   5 1538.48   36.65
   2  -2  -5 1423.91   38.31
  -2  -2   5 1435.06   37.97
  -2  -2   5 1430.49   39.92
  -1  -2   5  324.06    9.00
   1   2  -5  323.68    9.26
   1  -2  -5  327.07    9.46
   1  -2  -5  351.65    9.00
   1   2  -5  331.04    8.85
  -1  -2   5  338.48    8.62
  -1  -2   5  324.76    9.94
   1   2  -5  320.27    9.49
  -1  -2   5  333.20    9.08
   0   2  -5   70.31    2.41
   0  -2  -5   69.76    2.32
   0  -2  -5   67.95    2.32
   0   2  -5   67.80    2.59
   0  -2   5   66.18    2.17
   0  -2   5   60.67    2.95
   0  -2  -5   67.43    2.72
   0   2  -5   67.47    2.85
   0  -2   5   67.78    2.41
  -1  -2  -5   37.20    1.80
  -1  -2  -5   35.65    1.54
   1  -2   5   35.14    1.44
  -1   2  -5   35.15    1.79
  -1  -2  -5   38.10    1.58
   1  -2   5   35.98    2.15
  -1   2  -5   35.53    1.62
   1  -2   5   34.88    1.66
  -1   2  -5   34.72    2.03
  -1   2  -5   34.87    2.03
   2  -2   5   55.74    2.79
  -2  -2  -5   58.09    2.32
  -2  -2  -5   55.38    2.21
   2  -2   5   54.74    2.05
   2  -2   5   54.72    2.30
  -2  -2  -5   56.48    2.19
  -2   2  -5   54.74    2.74
  -2   2  -5   56.56    2.29
  -2  -2  -5   63.30    1.99
  -2   2  -5   55.30    2.46
   3  -2   5  318.97    8.74
  -3  -2  -5  330.19    9.21
  -3   2  -5  314.19   10.05
  -3  -2  -5  321.65    9.06
   3   2   5  332.80    9.46
   3  -2   5  334.17    9.25
  -3   2  -5  320.79    9.45
  -3  -2  -5  328.99    9.18
  -3  -2  -5  332.58    9.15
   4  -2   5   53.90    2.46
  -4  -2  -5   51.79    2.28
  -4  -2  -5   52.23    2.34
   4  -2   5   51.66    2.17
  -4  -2  -5   47.31    2.09
  -4   2  -5   52.68    2.63
   4   2   5   53.69    2.56
  -4  -2  -5   53.04    2.33
  -4   2  -5   48.65    2.80
  -5  -2  -5   29.31    1.58
   5   2   5   32.88    2.12
  -5   2  -5   30.81    2.42
  -5   2  -5   33.73    2.21
  -5  -2  -5   32.83    2.01
  -5  -2  -5   29.21    1.86
  -6   2  -5   58.66    3.44
   6  -2   5   56.06    2.54
  -6  -2  -5   64.02    2.92
  -6  -2  -5   61.89    2.96
  -7  -2  -5  297.07    9.70
   7  -2   5  306.33    8.97
  -7  -2  -5  332.02    9.60
  -7   2  -5  309.56   10.46
   8  -2   5   30.67    2.06
  -8  -2  -5   35.17    2.62
  -8   2  -5   39.17    3.13
  -8  -2  -5   33.42    2.44
  -9   2  -5   41.18    3.44
  -9  -2  -5   44.82    2.89
  -9  -2  -5   46.06    3.12
 -10  -2  -5   26.82    2.77
 -10   2  -5   26.52    3.10
 -10  -2  -5   31.84    2.61
 -11  -2  -5    2.56    1.88
 -11   2  -5    2.70    2.09
 -12  -2  -5    6.91    2.30
 -12   2  -5    7.15    2.70
 -13  -2  -5    2.34    2.06
  13  -3  -5    0.24    1.63
 -13   3   5   -2.41    2.16
 -13  -3   5    1.62    2.45
 -12   3   5    8.75    2.69
 -12  -3   5    9.35    2.69
  12  -3  -5    6.81    1.95
  11  -3  -5    7.69    2.02
 -11  -3   5   14.27    2.73
 -11   3   5   13.97    2.59
 -10  -3   5   12.04    1.88
  10  -3  -5    6.71    1.43
 -10   3   5    5.22    2.12
  10  -3  -5   11.71    2.07
 -10  -3   5    8.21    2.34
  -9   3   5   42.96    3.26
   9  -3  -5   37.66    1.90
  -9  -3   5   39.10    2.53
  -9  -3   5   38.47    3.31
   9  -3  -5   34.61    2.23
   9  -3  -5   40.54    2.96
   8  -3  -5   36.44    2.84
  -8  -3   5   35.94    2.26
  -8  -3   5   32.40    3.13
  -8   3   5   30.43    2.86
   8  -3  -5   34.01    1.65
   8  -3  -5   34.17    2.01
  -7   3   5  269.24    8.98
  -7  -3   5  275.75    8.19
   7  -3  -5  269.94    7.96
   7  -3  -5  276.87    9.07
  -7  -3   5  273.51    9.54
  -6   3   5  452.70   13.44
  -6  -3   5  459.38   12.56
   6   3  -5  460.34   12.55
  -6  -3   5  448.96   14.07
   6  -3  -5  447.30   12.31
   6  -3  -5  459.87   13.52
  -5  -3   5  100.36    3.42
   5  -3  -5   99.27    4.25
  -5   3   5   97.31    3.94
  -5  -3   5  101.95    4.56
   5  -3  -5   96.70    3.13
   5   3  -5  103.51    3.70
  -5  -3   5   99.34    3.40
  -4   3   5   56.33    2.55
  -4  -3   5   54.07    3.09
  -4  -3   5   56.99    2.11
   4   3  -5   54.97    2.54
  -4  -3   5   53.65    2.07
   4  -3  -5   55.19    2.94
   4   3  -5   58.55    2.41
  -3  -3   5   11.40    0.87
   3   3  -5   13.49    1.31
   3   3  -5   14.06    1.23
   3   3  -5   13.35    1.22
  -3  -3   5   13.08    0.85
  -3  -3   5   10.86    1.61
  -3   3   5   12.63    1.18
   3  -3  -5   12.29    1.45
   2   3  -5  165.19    5.12
   2  -3  -5  154.40    5.47
   2   3  -5  162.74    4.81
  -2  -3   5  161.54    5.86
  -2   3   5  167.56    4.89
   2   3  -5  154.95    5.33
  -1  -3   5  303.45    9.47
   1   3  -5  297.66    8.06
   1   3  -5  296.80    8.85
   1   3  -5  298.13    8.48
   1  -3  -5  290.02    8.84
   0  -3  -5  142.73    4.89
   0   3  -5  148.74    4.39
   0   3  -5  146.91    4.68
   0   3  -5  150.57    5.19
   0  -3   5  146.01    5.50
  -1   3  -5   74.97    2.91
  -1  -3  -5   76.88    3.06
   1  -3   5   76.31    3.66
  -1   3  -5   78.20    3.57
  -1   3  -5   77.82    2.74
  -2   3  -5    3.65    0.84
  -2   3  -5    2.35    1.20
  -2  -3  -5    4.18    0.65
  -2   3  -5    3.46    0.78
  -2  -3  -5    3.37    0.85
   2  -3   5    1.32    1.21
  -3  -3  -5  449.87   12.30
  -3  -3  -5  448.56   11.88
  -3  -3  -5  439.47   11.89
  -3  -3  -5  465.87   12.59
   3  -3   5  446.26   13.80
   3  -3   5  455.57   11.99
  -3   3  -5  447.26   13.72
  -4  -3  -5  161.52    4.99
  -4  -3  -5  165.73    4.89
   4  -3   5  166.23    4.99
  -4  -3  -5  168.78    5.32
  -4  -3  -5  161.11    4.87
  -4   3  -5  160.59    6.28
   5  -3   5  113.42    3.48
  -5  -3  -5  123.21    3.99
  -5  -3  -5  126.57    4.39
  -5   3  -5  117.28    5.19
  -6  -3  -5   88.68    3.36
  -6  -3  -5   86.97    3.69
  -6   3  -5   87.93    4.54
   6  -3   5   88.51    2.92
   7  -3   5   75.13    2.84
  -7  -3  -5   80.11    3.68
  -7  -3  -5   84.89    3.42
  -7   3  -5   82.67    4.52
  -8  -3  -5   37.05    2.33
  -8   3  -5   39.32    3.37
  -9  -3  -5    4.34    1.30
  -9   3  -5    3.98    2.02
 -10   3  -5    4.85    2.15
 -11   3  -5   37.47    3.97
 -12   3  -5    3.34    2.53
  13  -4  -5   -0.70    1.76
 -13   4   5    0.31    2.49
 -12  -4   5    2.56    2.53
 -12   4   5    2.22    2.40
  12  -4  -5    6.03    2.21
 -11   4   5    2.88    2.25
  11  -4  -5    0.96    1.62
 -11  -4   5   -0.82    2.18
 -10  -4   5   24.79    3.26
  10  -4  -5   22.92    2.83
 -10   4   5   19.63    2.86
  -9   4   5    2.38    1.92
  -9  -4   5   -0.55    1.75
   9  -4  -5    1.17    1.54
  -9  -4   5   -0.93    0.84
   8  -4  -5    2.73    1.48
  -8  -4   5    1.66    1.87
  -8  -4   5    0.62    0.79
  -8   4   5    1.19    1.70
   7  -4  -5    9.38    1.89
  -7  -4   5    7.88    2.07
  -7   4   5    7.43    1.83
  -6  -4   5  109.83    5.34
  -6   4   5  109.77    4.64
   6  -4  -5  111.07    5.08
   5  -4  -5   75.98    4.08
  -5   4   5   80.47    3.63
  -5  -4   5   81.15    4.45
  -4   4   5   77.42    3.36
  -4  -4   5   69.80    4.03
   4  -4  -5   78.86    3.87
   4   4  -5   81.35    3.34
   3  -4  -5    9.47    1.58
   3   4  -5   13.31    1.50
  -3  -4   5    9.26    1.84
  -3   4   5    9.64    1.34
   2  -4  -5   93.21    4.00
  -2  -4   5   86.79    4.26
   2   4  -5   86.88    3.69
   1  -4  -5   24.91    2.10
  -1  -4   5   22.22    2.32
   1   4  -5   23.99    2.07
   0  -4  -5   75.19    3.36
   0  -4   5   72.04    3.81
   1  -4   5  148.25    6.10
  -1   4  -5  152.47    6.06
  -1  -4  -5  169.40    5.42
  -2   4  -5  107.00    4.98
   2  -4   5  108.54    5.06
  -2  -4  -5  119.72    4.16
  -3   4  -5    9.07    1.92
   3  -4   5   10.69    2.06
  -4   4  -5   88.04    4.65
  -5   4  -5   38.04    3.26
  -6   4  -5    7.08    1.95
  -7   4  -5    2.14    1.78
  -8  -4  -5    6.23    0.89
  -8   4  -5    4.79    2.04
  -9   4  -5   11.30    2.63
 -10   4  -5   31.48    3.80
 -11   4  -5    2.65    2.64
  12  -5  -5    0.23    1.98
  11  -5  -5    2.15    2.18
 -11  -5   5    3.68    2.58
  10  -5  -5    4.29    2.07
 -10  -5   5    0.88    2.40
   9  -5  -5    2.87    2.03
  -9  -5   5    1.01    2.19
   8  -5  -5    6.17    2.05
  -8  -5   5   11.27    2.66
   7  -5  -5    2.94    1.72
  -7  -5   5    2.23    1.95
   6  -5  -5    7.40    1.88
  -6  -5   5    5.60    2.08
   5  -5  -5   34.54    2.90
  -5  -5   5   38.67    3.32
  -4  -5   5    3.39    1.87
   4  -5  -5    6.45    1.75
   3  -5  -5   19.99    2.27
   3   5  -5   19.67    1.90
  -3  -5   5   17.94    2.45
   2  -5  -5    1.68    1.47
   2   5  -5    4.54    1.29
  -2  -5   5    1.03    1.58
   1  -5  -5  102.18    4.48
  -1  -5   5   86.44    4.71
   0  -5  -5    2.59    1.38
   0  -5   5   -0.83    1.51
  -1  -5  -5  122.55    4.76
  -1   5  -5  120.64    5.53
   1  -5   5  114.52    5.58
   2  -5   5   36.48    3.35
  -2   5  -5   41.65    3.41
   3  -5   5   10.12    2.34
  -3   5  -5   12.51    2.37
  -4   5  -5    2.21    1.78
  -5   5  -5    3.12    1.94
  -6   5  -5   20.78    3.00
  -7   5  -5   22.09    3.23
  -8   5  -5   12.33    2.91
  -9   5  -5   16.58    3.26
 -10   5  -5   -2.52    2.37
  10  -6  -5    4.98    2.48
  -9  -6   5    2.82    2.52
   9  -6  -5    5.74    2.38
  -8  -6   5    4.61    2.61
   8  -6  -5    8.00    2.53
  -7  -6   5    2.73    2.32
   7  -6  -5    3.04    2.01
   6  -6  -5    0.62    1.64
  -6  -6   5   -0.15    1.96
   5  -6  -5   10.02    2.23
  -5  -6   5    9.35    2.44
  -4  -6   5   17.09    2.82
   4  -6  -5   21.55    2.67
  -3  -6   5   11.77    2.42
   3  -6  -5    9.01    2.02
   2  -6  -5    1.71    1.56
   2   6  -5    1.84    1.36
  -2  -6   5    3.51    2.02
   1  -6  -5  102.78    4.84
  -1  -6   5  101.59    5.42
   0   6  -5   91.15    4.98
   0  -6   5   87.81    5.18
   0  -6  -5   96.89    4.49
   1  -6   5   41.35    3.89
  -1   6  -5   38.74    3.51
  -2   6  -5    2.56    2.00
   2  -6   5    1.05    2.05
  -3   6  -5   17.31    2.79
   3  -6   5   17.63    3.02
  -4   6  -5    3.04    2.16
  -5   6  -5    5.86    2.38
  -6   6  -5    6.64    2.58
  -7   6  -5    7.07    2.79
  -8   6  -5    5.29    2.79
   8  -7  -5   10.77    3.01
   7  -7  -5    0.50    2.18
  -7  -7   5    5.95    2.83
  -6  -7   5   10.30    2.97
   6  -7  -5    2.26    2.20
   5  -7  -5    3.49    2.20
  -5  -7   5    6.27    2.70
  -4  -7   5    0.55    2.28
   4  -7  -5    0.06    1.75
  -3  -7   5   -0.07    2.09
   3  -7  -5   -0.44    1.73
   2  -7  -5    6.16    2.04
  -2  -7   5   11.58    2.80
   1   7  -5    6.27    2.26
   1  -7  -5    4.53    1.89
  -1  -7   5    5.15    2.37
   0  -7   5    6.84    2.58
   0   7  -5   13.09    2.67
  -1   7  -5    1.55    2.16
   1  -7   5    0.64    2.20
  -2   7  -5   32.62    3.73
   2  -7   5   35.92    4.01
  -3   7  -5    5.03    2.60
  -4   7  -5    1.80    2.36
  -5   7  -5    1.17    2.37
  -6   7  -5    4.06    2.73
   4  -8  -5    1.49    2.22
  -3  -8   5    6.61    2.86
   3  -8  -5    3.74    2.36
  -2  -8   5    0.71    2.61
   2   8  -5    1.69    2.34
   1   8  -5   14.95    3.16
  -1  -8   5    5.74    2.95
   0  -8   5   -1.46    2.48
   0   8  -5   -0.84    2.25
  -1   8  -5    9.10    2.97
   1  -8   5    6.09    2.92
 -14   0   6    1.72    2.51
 -13   0   6    4.15    2.42
  12   0  -6    2.50    1.55
 -12   0   6    5.25    2.18
 -11   0   6   -2.13    1.56
  11   0  -6    1.33    1.33
 -11   0   6    1.17    1.51
 -10   0   6   11.09    2.17
 -10   0   6   14.49    1.95
  10   0  -6   10.15    1.48
  10   0  -6   12.28    1.72
  10   0  -6   15.10    1.92
   9   0  -6    6.98    1.49
   9   0  -6   10.05    1.42
  -9   0   6    5.55    1.74
   9   0  -6    7.48    1.30
  -9   0   6    8.71    1.61
  -8   0   6    2.07    1.46
   8   0  -6    1.07    0.98
   8   0  -6   -0.19    0.94
   8   0  -6   -0.63    0.82
  -8   0   6   -1.80    1.08
   7   0  -6  538.00   15.10
   7   0  -6  541.75   14.68
   7   0  -6  540.68   15.36
  -7   0   6  543.10   15.27
  -7   0   6  548.55   15.92
   6   0  -6   19.09    1.50
  -6   0   6   20.87    1.93
   6   0  -6   20.09    1.64
   6   0  -6   18.60    1.62
  -6   0   6   19.06    1.69
  -6   0   6   16.10    1.58
   5   0  -6    4.51    0.95
  -5   0   6    3.54    1.04
   5   0  -6    5.34    0.94
   5   0  -6    5.74    0.88
  -5   0   6    4.19    0.92
  -5   0   6    4.98    0.98
  -4   0   6   31.47    1.85
  -4   0   6   26.61    1.72
   4   0  -6   29.46    1.69
  -4   0   6   30.24    1.78
   4   0  -6   33.67    1.93
   4   0  -6   31.63    1.85
  -3   0   6 1993.19   48.60
   3   0  -6 1929.02   50.26
  -3   0   6 1931.66   51.99
   3   0  -6 1972.70   48.62
   3   0  -6 1939.29   50.31
   2   0  -6   26.10    1.76
   2   0  -6   27.95    1.52
   2   0  -6   30.59    1.69
  -2   0   6   28.52    1.59
  -2   0   6   28.89    1.61
   1   0  -6  562.34   14.59
  -1   0   6  575.10   15.39
   1   0  -6  538.22   15.20
  -1   0   6  578.12   14.62
   1   0  -6  550.88   15.18
   0   0  -6  298.09    8.21
   0   0   6  301.69    8.22
   0   0  -6  298.21    8.55
   0   0  -6  294.63    8.63
   0   0   6  298.39    8.48
  -1   0  -6  133.83    4.50
   1   0   6  141.22    4.36
   1   0   6  141.27    4.39
  -1   0  -6  136.41    4.59
  -1   0  -6  138.04    4.31
  -1   0  -6  133.41    4.28
  -2   0  -6    4.03    0.85
  -2   0  -6    3.96    0.77
  -2   0  -6    5.58    0.96
   2   0   6    4.01    0.79
   3   0   6  318.22    8.83
  -3   0  -6  312.81    9.16
  -3   0  -6  309.39    9.11
  -3   0  -6  306.71    9.22
  -4   0  -6  118.23    4.18
  -4   0  -6  122.81    4.10
  -4   0  -6   88.86    3.86
   5   0   6  225.02    6.80
  -5   0  -6  220.60    6.84
  -5   0  -6  207.32    6.94
  -5   0  -6  211.83    7.07
  -6   0  -6    0.34    0.86
  -6   0  -6    0.39    0.96
  -6   0  -6   -0.90    0.97
  -7   0  -6   23.33    2.22
  -7   0  -6   21.55    1.93
  -7   0  -6   18.67    2.16
  -8   0  -6  108.34    4.35
  -8   0  -6  105.68    4.98
  -8   0  -6  103.70    4.69
  -9   0  -6   10.00    1.87
  -9   0  -6   11.32    2.12
 -10   0  -6    5.54    2.00
 -10   0  -6    4.77    1.62
 -11   0  -6   30.77    3.12
 -11   0  -6   35.65    3.56
 -12   0  -6    0.91    2.19
 -13   0  -6    1.09    2.50
 -14  -1   6    5.16    2.81
 -14   1   6    0.25    2.36
 -13  -1   6   26.15    3.49
 -13   1   6   23.86    3.20
 -12   1   6   15.28    2.77
 -12  -1   6   20.51    2.56
 -12  -1   6   16.34    2.91
  11   1  -6    2.20    1.22
  11  -1  -6    4.09    1.42
 -11   1   6    4.14    1.98
 -11  -1   6    2.60    1.96
  11  -1  -6    6.26    1.59
 -11  -1   6    3.60    1.59
 -10  -1   6    1.57    1.33
  10  -1  -6    0.38    1.03
 -10   1   6   -1.65    1.52
  10   1  -6    2.79    1.13
  10  -1  -6    2.55    1.31
 -10  -1   6    1.20    1.72
  -9  -1   6    2.00    1.32
   9   1  -6    0.59    0.92
  -9  -1   6    1.78    1.59
   9   1  -6   -0.44    1.03
   9  -1  -6    0.29    0.85
   9  -1  -6    0.02    1.00
  -9   1   6    0.90    1.59
   9  -1  -6    2.33    1.24
   8  -1  -6  144.05    5.25
   8   1  -6  137.40    5.05
  -8   1   6  137.11    5.54
   8  -1  -6  142.67    5.29
  -8  -1   6  138.64    5.72
  -8   1   6  144.72    5.35
  -8  -1   6  138.28    5.26
   8   1  -6  133.99    5.29
   8   1  -6  146.36    4.95
   8  -1  -6  140.01    4.92
   7   1  -6  225.51    6.73
   7  -1  -6  224.58    7.12
  -7  -1   6  214.39    6.96
   7  -1  -6  209.97    6.93
  -7   1   6  197.07    6.94
   7   1  -6  210.97    6.69
   7   1  -6  218.29    7.11
   7  -1  -6  208.83    6.55
  -7   1   6  213.28    7.23
  -7  -1   6  207.90    7.43
  -6   1   6   58.61    2.81
  -6  -1   6   59.27    2.80
   6   1  -6   58.20    2.82
   6   1  -6   62.01    2.72
  -6   1   6   63.62    3.01
   6   1  -6   58.01    2.73
   6  -1  -6   61.05    2.94
   6  -1  -6   58.41    2.74
  -6  -1   6   58.20    3.12
   6  -1  -6   58.88    2.58
   5  -1  -6  251.40    7.73
   5  -1  -6  251.72    7.37
  -5   1   6  247.44    7.80
  -5  -1   6  252.94    7.72
  -5   1   6  256.86    7.78
   5   1  -6  256.23    7.48
   5  -1  -6  258.91    7.89
  -5  -1   6  259.89    7.45
  -5  -1   6  254.07    8.16
   5   1  -6  264.64    7.89
   5   1  -6  252.39    7.66
  -5  -1   6  264.06    7.87
   4   1  -6  610.51   15.76
  -4  -1   6  583.80   16.22
   4   1  -6  607.10   16.42
   4   1  -6  594.21   16.28
  -4   1   6  589.42   16.58
   4  -1  -6  597.24   15.65
   4  -1  -6  592.16   16.44
  -4  -1   6  586.68   16.99
  -4  -1   6  633.77   16.45
   4  -1  -6  598.05   16.28
  -4  -1   6  605.52   15.68
  -3  -1   6   98.44    3.61
   3  -1  -6  109.76    3.90
   3  -1  -6  102.03    3.42
  -3   1   6  103.45    3.41
  -3  -1   6  103.00    3.85
  -3  -1   6   99.91    3.43
  -3  -1   6  108.48    3.80
   3  -1  -6   99.43    3.60
   3   1  -6  106.12    3.76
   3   1  -6  105.16    3.52
   3   1  -6  100.35    3.74
  -2  -1   6 3287.21   80.51
  -2  -1   6 3377.96   83.39
  -2   1   6 3294.15   86.21
   2  -1  -6 3284.10   83.31
   2   1  -6 3316.19   80.61
   2   1  -6 3277.98   83.45
   2  -1  -6 3139.03   83.29
  -2  -1   6 3203.66   86.57
   2   1  -6 3228.50   83.28
   2  -1  -6 3279.96   80.55
   1  -1  -6  284.55    7.68
  -1  -1   6  285.19    8.09
  -1   1   6  294.40    7.80
  -1  -1   6  275.70    8.35
  -1  -1   6  281.34    7.66
   1   1  -6  267.35    8.17
   1  -1  -6  283.08    8.23
   1   1  -6  265.07    7.68
   1   1  -6  281.41    8.12
   1  -1  -6  272.90    7.97
  -1   1   6  276.85    7.66
   0  -1   6  230.24    7.07
   0  -1   6  236.48    6.51
   0   1  -6  222.09    6.84
   0   1   6  240.82    6.61
   0  -1  -6  227.00    6.75
   0   1  -6  232.76    7.06
   0  -1   6  232.94    6.83
   0  -1  -6  222.19    6.88
   0   1  -6  227.04    6.53
  -1  -1  -6   22.20    1.53
  -1   1  -6   23.73    1.42
  -1  -1  -6   24.75    1.55
  -1   1  -6   22.28    1.53
  -1   1  -6   24.04    1.70
  -1  -1  -6   26.00    1.50
   1  -1   6   23.97    1.64
   1  -1   6   24.11    1.48
  -1   1  -6   22.01    1.48
   1  -1   6   22.67    1.59
  -1  -1  -6   24.88    1.10
  -2  -1  -6  545.21   14.41
  -2  -1  -6  513.04   14.33
   2  -1   6  528.67   13.84
  -2   1  -6  532.66   14.92
  -2  -1  -6  549.27   14.36
  -2   1  -6  473.55   14.45
  -2   1  -6  509.32   13.88
  -2  -1  -6  529.47   14.31
   2  -1   6  539.48   14.99
   2  -1   6  545.08   14.46
  -2   1  -6  510.30   14.44
   3  -1   6  590.16   15.38
  -3  -1  -6  588.03   16.01
  -3   1  -6  566.75   16.09
  -3  -1  -6  590.63   16.07
  -3   1  -6  567.36   16.55
  -3   1  -6  568.10   16.07
  -3  -1  -6  578.01   15.77
  -3  -1  -6  606.06   15.99
   3  -1   6  601.34   16.08
  -4  -1  -6   14.73    1.27
  -4   1  -6   11.00    1.36
   4  -1   6   11.33    1.23
  -4   1  -6   12.48    1.39
  -4  -1  -6   11.21    1.31
   4  -1   6   12.25    1.38
  -4  -1  -6   12.67    1.26
  -4   1  -6   13.94    1.51
  -4  -1  -6   11.78    1.30
  -5   1  -6  124.08    4.79
  -5  -1  -6  122.24    4.20
  -5  -1  -6  113.71    4.40
  -5   1  -6  113.32    4.58
  -5  -1  -6  120.26    4.38
  -5   1  -6  116.53    4.49
  -6   1  -6   25.23    2.30
  -6  -1  -6   30.10    1.92
  -6  -1  -6   22.79    2.10
  -6   1  -6   26.09    2.15
  -6   1  -6   25.16    2.31
  -7   1  -6   88.51    4.39
  -7   1  -6   96.77    4.41
  -7  -1  -6   90.85    4.10
  -7   1  -6   89.81    4.00
  -7  -1  -6   99.98    4.23
  -8  -1  -6   18.71    2.04
  -8  -1  -6   21.95    2.28
  -8   1  -6   20.45    2.04
  -8   1  -6   19.77    2.37
  -9   1  -6   44.38    3.40
  -9   1  -6   38.68    2.85
  -9  -1  -6   39.87    3.20
  -9  -1  -6   44.75    2.97
 -10  -1  -6    2.69    1.52
 -10  -1  -6    5.09    1.96
 -10   1  -6    3.34    2.06
 -11   1  -6   78.42    5.03
 -11  -1  -6   76.65    4.85
 -12   1  -6    1.16    2.19
 -12  -1  -6    2.33    2.14
 -13   1  -6    0.24    2.40
 -13  -1  -6    1.43    2.30
 -14   2   6    2.96    2.57
 -13   2   6    1.98    2.29
 -13  -2   6    6.97    2.68
 -12   2   6    3.15    2.18
  12  -2  -6    2.02    1.55
 -12  -2   6    0.94    2.13
 -11  -2   6   11.63    2.07
 -11   2   6   10.25    2.41
 -11  -2   6   10.49    2.56
  11  -2  -6   10.76    1.85
  11  -2  -6    9.33    1.96
 -10   2   6    2.77    1.85
 -10  -2   6    2.96    1.42
  10  -2  -6    2.03    1.23
 -10  -2   6    1.23    1.93
  10  -2  -6    3.19    1.52
  -9   2   6   15.46    2.25
  -9  -2   6   11.73    2.26
   9  -2  -6   13.22    1.96
   9  -2  -6   12.35    1.43
  -9  -2   6   13.22    1.84
   9  -2  -6   15.75    1.77
  -8   2   6   34.09    2.89
  -8  -2   6   35.47    2.51
  -8  -2   6   36.60    2.99
   8  -2  -6   35.52    2.31
   8  -2  -6   35.92    2.13
   8  -2  -6   36.93    2.76
   7  -2  -6  188.20    6.81
   7   2  -6  203.64    6.50
   7  -2  -6  198.99    6.12
  -7   2   6  199.42    6.99
   7   2  -6  205.10    6.33
  -7  -2   6  203.73    6.63
   7  -2  -6  198.14    6.51
  -7  -2   6  190.56    7.28
   6  -2  -6  148.41    4.75
   6  -2  -6  150.68    5.09
  -6  -2   6  149.33    5.86
  -6   2   6  147.95    5.35
   6   2  -6  159.11    5.13
   6   2  -6  149.05    5.04
   6   2  -6  148.89    5.32
  -6  -2   6  150.06    5.12
   6  -2  -6  152.16    5.56
   5   2  -6   34.17    1.98
  -5   2   6   34.11    2.08
   5  -2  -6   34.78    1.72
   5  -2  -6   35.58    1.91
   5   2  -6   34.24    2.14
  -5  -2   6   36.00    1.91
   5  -2  -6   36.64    2.33
   5   2  -6   35.88    2.10
  -5  -2   6   30.95    1.97
  -5  -2   6   31.82    2.40
  -4  -2   6   57.52    2.52
  -4  -2   6   54.20    2.41
   4  -2  -6   54.01    2.32
   4   2  -6   58.01    2.62
   4  -2  -6   54.11    2.13
   4   2  -6   51.57    2.56
   4  -2  -6   53.52    2.76
   4   2  -6   55.71    2.45
  -4  -2   6   49.54    2.85
  -4  -2   6   53.62    2.30
  -4   2   6   57.01    2.43
  -3  -2   6   91.20    3.00
   3  -2  -6   89.49    3.12
   3   2  -6   84.64    3.37
  -3  -2   6   92.54    3.22
   3   2  -6   84.32    3.46
  -3   2   6   88.77    2.97
  -3  -2   6   90.14    3.27
   3  -2  -6   89.40    3.60
  -3  -2   6   79.10    3.65
   3   2  -6   89.19    3.15
   3  -2  -6   86.52    2.86
  -2  -2   6  279.40    9.05
   2   2  -6  293.41    8.69
   2  -2  -6  275.82    8.68
  -2  -2   6  298.17    8.36
  -2  -2   6  300.05    7.94
   2   2  -6  294.66    8.57
   2   2  -6  295.31    8.15
  -2  -2   6  301.86    8.33
   2  -2  -6  297.95    8.25
   1   2  -6  173.17    5.05
   1  -2  -6  162.17    5.46
  -1  -2   6  164.68    5.04
   1   2  -6  166.38    5.31
  -1  -2   6  171.99    5.15
   1  -2  -6  172.15    5.03
   1   2  -6  161.66    5.49
  -1  -2   6  165.06    4.77
  -1  -2   6  165.26    5.72
   0   2  -6    1.38    0.54
   0   2  -6    2.07    0.67
   0  -2   6    1.48    0.91
   0   2  -6    3.06    0.90
   0  -2   6    1.63    0.61
   0  -2  -6    2.12    0.57
   0  -2  -6    3.21    0.62
   0  -2   6    1.34    0.50
   0  -2  -6    1.22    0.68
   1  -2   6   44.78    1.83
  -1   2  -6   45.57    2.46
  -1   2  -6   39.64    2.11
  -1   2  -6   41.30    2.33
  -1   2  -6   45.14    2.03
   1  -2   6   44.53    2.06
  -1  -2  -6   47.61    2.00
  -1  -2  -6   47.32    2.20
   1  -2   6   47.90    2.57
  -1  -2  -6   47.77    1.97
  -2   2  -6  239.27    7.06
  -2   2  -6  225.26    7.54
   2  -2   6  238.95    7.18
  -2   2  -6  246.50    7.40
  -2  -2  -6  244.09    7.09
   2  -2   6  241.92    7.89
   2  -2   6  236.81    6.75
  -2  -2  -6  254.23    7.12
  -2  -2  -6  240.53    7.17
  -2  -2  -6  259.74    6.78
  -2   2  -6  236.19    7.81
  -3  -2  -6   63.81    2.60
  -3  -2  -6   63.50    2.62
   3  -2   6   61.78    2.46
   3  -2   6   62.27    2.70
  -3  -2  -6   60.98    2.59
  -3  -2  -6   63.21    2.32
  -3   2  -6   58.88    3.10
  -3   2  -6   63.10    2.90
  -3   2  -6   60.70    3.04
  -4   2  -6  168.06    5.98
  -4  -2  -6  175.62    5.36
  -4   2  -6  162.51    6.10
  -4   2  -6  163.55    5.77
  -4  -2  -6  171.97    5.29
  -4  -2  -6  173.32    5.51
  -5  -2  -6   94.33    3.44
  -5  -2  -6  102.96    3.87
  -5  -2  -6   96.93    3.71
  -5   2  -6   96.67    4.42
  -6  -2  -6   50.42    2.67
  -6   2  -6   52.86    3.36
  -6  -2  -6   47.46    2.68
  -7   2  -6  174.30    6.87
   7  -2   6  159.57    5.61
  -7  -2  -6  178.43    6.19
  -7  -2  -6  182.94    6.22
  -8   2  -6   64.72    3.96
  -8  -2  -6   65.95    3.33
  -8  -2  -6   54.61    3.18
  -9  -2  -6   21.50    2.39
  -9  -2  -6   19.92    2.13
  -9   2  -6   21.00    2.76
 -10   2  -6   18.08    2.83
 -10  -2  -6   20.89    2.58
 -10   2  -6   19.34    2.44
 -11   2  -6    6.02    2.35
 -12   2  -6   13.62    3.12
 -13   3   6    0.69    2.23
  13  -3  -6    2.06    1.86
 -13  -3   6   -0.86    2.47
 -12  -3   6    4.29    2.55
  12  -3  -6   -0.50    1.60
 -12   3   6    1.19    2.18
  11  -3  -6   -0.34    1.34
 -11  -3   6   -0.84    2.18
 -11   3   6   -0.70    1.93
  10  -3  -6   60.59    3.17
 -10   3   6   65.33    4.20
  10  -3  -6   66.08    4.02
 -10  -3   6   63.62    4.47
 -10  -3   6   67.66    3.50
  -9  -3   6   -1.05    1.14
  -9   3   6   -0.63    1.64
   9  -3  -6   -1.12    1.27
   9  -3  -6    0.61    0.94
  -9  -3   6   -2.35    1.82
   8  -3  -6   -0.97    0.76
  -8  -3   6    0.55    1.61
  -8   3   6   -0.01    1.55
   8  -3  -6   -0.10    0.59
  -8  -3   6   -1.54    1.07
   8  -3  -6    1.14    1.27
   7  -3  -6   41.66    2.17
   7  -3  -6   42.44    1.78
  -7  -3   6   38.28    3.18
  -7  -3   6   44.12    2.44
   7  -3  -6   42.94    3.08
  -7   3   6   37.75    2.93
   6  -3  -6  169.52    5.28
  -6   3   6  171.42    6.04
   6  -3  -6  171.90    6.42
  -6  -3   6  161.45    6.65
   6   3  -6  173.96    5.67
  -6  -3   6  176.01    5.56
  -5  -3   6   13.28    1.27
   5  -3  -6   11.27    1.00
  -5   3   6   10.46    1.48
   5   3  -6    8.46    1.33
  -5  -3   6    9.43    1.94
   5  -3  -6   11.63    1.65
  -4   3   6   41.91    2.20
   4  -3  -6   40.31    1.61
  -4  -3   6   38.24    2.79
  -4  -3   6   39.91    1.85
   4   3  -6   37.82    2.26
  -4  -3   6   40.10    1.89
   4  -3  -6   39.57    2.54
   3  -3  -6  108.17    3.20
  -3  -3   6  112.14    4.67
   3   3  -6  106.33    4.15
  -3   3   6  108.91    3.64
   3  -3  -6  107.50    4.39
  -3  -3   6  111.88    3.51
  -3  -3   6  112.35    3.51
   2  -3  -6   58.65    2.88
  -2  -3   6   55.24    3.04
   2   3  -6   55.14    2.78
  -2  -3   6   53.78    2.03
   2   3  -6   55.48    2.35
  -2  -3   6   54.75    2.05
  -1  -3   6   70.08    2.35
   1   3  -6   69.77    2.72
   1   3  -6   75.34    3.27
  -1  -3   6   68.86    2.38
   1  -3  -6   70.72    3.17
  -1  -3   6   70.57    3.50
   0   3  -6  177.51    6.04
   0   3  -6  176.79    5.32
   0  -3  -6  177.15    5.84
   0  -3   6  170.19    6.37
   0  -3   6  175.97    5.02
   0  -3   6  179.79    5.00
   1  -3   6  125.88    5.23
   1  -3   6  132.54    3.94
  -1   3  -6  124.60    4.90
  -1   3  -6  132.35    4.28
  -1  -3  -6  133.94    4.59
   1  -3   6  135.99    3.99
  -1  -3  -6  135.26    3.76
  -1   3  -6  129.26    5.14
  -2  -3  -6  247.02    7.43
   2  -3   6  240.12    8.41
   2  -3   6  246.77    6.97
  -2  -3  -6  257.76    6.84
  -2  -3  -6  249.82    6.83
  -2   3  -6  248.48    8.39
  -2   3  -6  238.44    8.03
   3  -3   6   26.49    2.55
  -3  -3  -6   25.77    1.76
  -3   3  -6   24.77    2.39
  -3  -3  -6   27.19    1.45
  -3  -3  -6   24.43    1.35
   3  -3   6   24.50    1.63
  -4   3  -6  190.64    7.08
  -4  -3  -6  190.28    5.67
   4  -3   6  180.49    5.17
  -4  -3  -6  192.70    5.81
  -5  -3  -6  120.12    4.12
  -5   3  -6  133.64    5.50
   5  -3   6  115.76    3.69
   6  -3   6   64.02    2.54
  -6  -3  -6   76.08    3.06
  -6   3  -6   69.19    4.12
  -7   3  -6  135.93    6.03
  -7  -3  -6  134.95    4.76
   7  -3   6  122.33    4.19
  -8   3  -6   40.09    3.47
  -8  -3  -6   44.56    2.61
  -9   3  -6    3.99    2.04
 -10   3  -6    5.47    2.37
 -11   3  -6   31.04    3.74
  13  -4  -6    0.14    1.94
 -12  -4   6   -0.35    2.44
  12  -4  -6    1.04    1.87
  11  -4  -6    4.42    2.11
 -11  -4   6    3.95    2.60
  10  -4  -6   -2.52    1.43
 -10  -4   6    0.33    2.09
  -9  -4   6    4.09    1.18
  -9  -4   6    6.44    2.43
   9  -4  -6    4.37    1.79
   8  -4  -6    6.96    1.92
  -8  -4   6    5.61    1.07
  -8  -4   6    4.98    2.18
   7  -4  -6   58.63    3.70
  -7  -4   6   56.77    3.97
  -7  -4   6   50.94    2.08
  -6  -4   6   27.62    2.98
   6  -4  -6   25.53    2.57
   5   4  -6   59.14    3.00
   5  -4  -6   57.71    3.56
  -5  -4   6   62.52    3.86
  -4  -4   6   10.60    2.13
   4  -4  -6   12.51    1.93
   4   4  -6   15.03    1.65
   3   4  -6    0.10    0.92
   3  -4  -6    0.22    1.06
  -3  -4   6   -1.37    1.38
   2  -4  -6    4.02    1.27
   2   4  -6    3.41    1.14
  -2  -4   6    5.64    1.65
   1  -4  -6   15.37    1.78
   1   4  -6   18.15    1.83
  -1  -4   6   12.28    2.01
   0  -4  -6    7.30    1.33
   0   4  -6    7.22    1.44
   0  -4   6    6.80    1.69
  -1  -4  -6  148.84    5.28
  -1   4  -6  152.53    6.11
   1  -4   6  154.43    6.21
   2  -4   6   20.40    2.54
  -2   4  -6   16.90    2.31
  -2  -4  -6   16.50    1.65
   3  -4   6  380.27   12.68
  -3   4  -6  385.04   12.55
  -4   4  -6  114.44    5.53
  -5   4  -6    7.42    1.94
  -6   4  -6   29.64    3.14
  -7   4  -6   10.88    2.33
  -7  -4  -6    9.76    0.92
  -8  -4  -6   17.44    1.40
  -8   4  -6   20.18    2.92
  -9   4  -6   12.29    2.78
 -10   4  -6   17.27    3.20
  11  -5  -6   -0.96    1.81
 -11  -5   6    6.01    2.71
 -10  -5   6    3.92    2.62
  10  -5  -6    2.29    2.19
  -9  -5   6    2.96    2.43
   9  -5  -6    5.14    2.12
   8  -5  -6    0.82    1.64
  -8  -5   6    0.63    2.11
  -7  -5   6    2.98    2.10
   7  -5  -6    1.86    1.64
  -6  -5   6    2.35    1.92
   6  -5  -6    2.19    1.56
  -5  -5   6    0.46    1.73
   5  -5  -6    1.77    1.48
  -4  -5   6   55.38    3.90
   4  -5  -6   55.73    3.57
   3   5  -6    9.09    1.59
   3  -5  -6    9.73    1.92
  -3  -5   6    9.12    2.23
  -2  -5   6    4.60    1.91
   2   5  -6    4.99    1.45
   2  -5  -6    4.41    1.58
   1  -5  -6   18.02    2.11
  -1  -5   6   13.39    2.38
   1   5  -6   15.75    2.00
   0   5  -6  176.35    6.65
   0  -5   6  171.42    7.20
   0  -5  -6  180.97    6.47
   1  -5   6   15.64    2.66
  -1  -5  -6   17.94    1.97
  -1   5  -6   20.09    2.60
   2  -5   6   56.99    4.09
  -2   5  -6   60.44    4.01
   3  -5   6   -1.07    1.85
  -3   5  -6    2.63    1.77
  -4   5  -6   11.00    2.45
  -5   5  -6   16.77    2.74
  -6   5  -6   18.68    2.90
  -7   5  -6   43.79    4.11
  -8   5  -6   18.30    3.20
  -9   5  -6    4.93    2.67
  10  -6  -6    4.94    2.52
   9  -6  -6   -2.05    2.00
  -9  -6   6   -3.60    2.31
   8  -6  -6    3.72    2.22
  -8  -6   6    4.69    2.67
   7  -6  -6    7.01    2.38
  -7  -6   6    7.24    2.76
   6  -6  -6    2.90    1.95
  -6  -6   6    6.41    2.43
   5  -6  -6   11.32    2.35
  -5  -6   6   20.26    3.07
  -4  -6   6    1.92    2.08
   4  -6  -6    2.23    1.67
  -3  -6   6   21.12    3.04
   3  -6  -6   19.85    2.59
   2   6  -6   58.82    3.51
  -2  -6   6   59.81    4.26
   2  -6  -6   53.81    3.68
   1   6  -6   12.37    2.07
   1  -6  -6   12.27    2.16
  -1  -6   6   16.80    2.88
   0  -6  -6    7.02    1.81
   0   6  -6   12.67    2.35
   0  -6   6    5.75    2.30
   0   6  -6    7.97    1.98
   1  -6   6    2.19    2.20
  -1   6  -6    7.71    2.23
   2  -6   6    0.29    2.10
  -2   6  -6    3.28    2.08
  -3   6  -6   18.59    3.06
   3  -6   6   19.44    3.20
  -4   6  -6    2.80    2.21
  -5   6  -6   11.33    2.76
  -6   6  -6   30.64    3.79
  -7   6  -6   12.14    3.10
   8  -7  -6    2.38    2.42
   7  -7  -6    1.01    2.33
   6  -7  -6   -1.01    1.88
  -6  -7   6   -3.66    2.25
   5  -7  -6   -2.69    1.65
  -5  -7   6    1.02    2.41
  -4  -7   6    1.31    2.33
   4  -7  -6    1.07    1.91
   3  -7  -6   11.05    2.39
  -3  -7   6    4.39    2.45
  -2  -7   6   12.88    2.90
   2  -7  -6   15.02    2.55
  -1  -7   6   13.91    2.96
   1   7  -6   10.62    2.18
   1   7  -6   13.08    2.73
   0   7  -6    7.26    2.02
   0   7  -6    4.27    2.34
   0  -7   6    3.50    2.48
   1  -7   6   19.46    3.39
  -1   7  -6   16.27    3.12
  -2   7  -6    4.56    2.49
   2  -7   6    7.72    2.84
  -3   7  -6   13.85    3.12
  -4   7  -6    5.26    2.64
  -5   7  -6    1.82    2.61
   3  -8  -6    6.40    2.45
  -1   8  -6    5.12    2.13
 -14   0   7    1.54    2.54
 -13   0   7    3.77    2.43
  12   0  -7   -0.83    1.31
 -12   0   7    1.00    2.02
 -11   0   7   -1.70    1.35
  11   0  -7    1.35    1.30
 -11   0   7    0.50    1.73
  10   0  -7    2.27    1.19
  10   0  -7    3.58    1.30
 -10   0   7    2.33    1.39
 -10   0   7    4.59    1.87
  10   0  -7    0.65    0.97
  -9   0   7    1.48    1.52
   9   0  -7    2.84    1.06
   9   0  -7    0.21    1.01
  -9   0   7   -1.72    1.11
   9   0  -7   -0.07    1.02
  -8   0   7    1.68    1.56
   8   0  -7   -0.16    0.98
   8   0  -7   -0.90    0.79
   8   0  -7   -0.36    0.86
  -8   0   7   -0.62    1.17
  -7   0   7  352.93   10.62
   7   0  -7  349.53   10.68
  -7   0   7  356.81   11.04
   7   0  -7  340.19   10.09
   7   0  -7  361.31   10.54
   6   0  -7  137.38    4.69
  -6   0   7  138.48    5.11
  -6   0   7  139.03    4.94
   6   0  -7  134.42    4.97
   6   0  -7  138.25    5.00
   5   0  -7   25.95    1.68
   5   0  -7   29.82    1.87
   5   0  -7   27.67    1.95
  -5   0   7   25.78    1.80
  -5   0   7   25.17    1.89
  -5   0   7   27.36    1.88
   4   0  -7   12.17    1.35
   4   0  -7   11.32    1.15
  -4   0   7    9.30    1.18
  -4   0   7   12.95    1.33
   4   0  -7   11.38    1.33
  -4   0   7   12.83    1.33
   3   0  -7  968.20   25.12
   3   0  -7  957.29   26.11
  -3   0   7 1003.58   25.16
   3   0  -7  986.71   26.11
  -3   0   7 1007.68   26.75
   2   0  -7   17.28    1.56
  -2   0   7   18.23    1.42
  -2   0   7   18.92    1.48
   2   0  -7   18.14    1.48
   2   0  -7   18.39    1.34
  -1   0   7   92.77    3.24
  -1   0   7   93.92    3.32
   1   0  -7   94.59    3.66
   1   0  -7   92.10    3.28
   1   0  -7   93.59    3.49
   0   0  -7  318.15    9.28
   0   0  -7  325.09    8.92
   0   0   7  309.65    9.15
   0   0  -7  321.81    9.12
   0   0   7  331.57    8.97
   0   0  -7  317.33    9.39
  -1   0  -7    7.78    0.97
  -1   0  -7    7.06    1.03
   1   0   7   11.54    1.08
  -1   0  -7    9.01    1.20
  -1   0  -7   11.51    1.01
   1   0   7    7.94    1.05
   2   0   7  841.47   21.27
  -2   0  -7  803.36   22.06
  -2   0  -7  806.33   22.02
  -2   0  -7  830.91   22.45
  -3   0  -7   28.89    1.80
   3   0   7   31.15    2.02
  -3   0  -7   28.76    1.99
  -3   0  -7   27.52    1.85
  -4   0  -7   27.18    1.98
  -4   0  -7   24.27    1.91
   4   0   7   23.99    1.92
  -5   0  -7   10.26    1.42
  -5   0  -7   10.51    1.45
  -5   0  -7    6.98    1.37
  -6   0  -7   60.14    3.16
  -6   0  -7   58.95    3.20
  -6   0  -7   56.60    2.95
  -7   0  -7   14.67    1.71
  -7   0  -7   12.19    1.83
  -7   0  -7    9.74    1.73
  -8   0  -7   13.41    1.94
  -8   0  -7   16.50    2.24
  -9   0  -7    1.51    1.36
  -9   0  -7   -1.33    1.56
 -10   0  -7   19.03    2.56
 -10   0  -7   25.06    2.93
 -11   0  -7   57.90    4.52
 -12   0  -7   -2.44    1.99
 -13   0  -7   10.15    2.98
 -14   1   7    1.74    2.43
 -13   1   7   -0.07    2.17
 -13  -1   7   -0.87    2.26
 -12  -1   7    2.23    2.23
 -12   1   7   -0.37    1.87
  11  -1  -7    2.59    1.42
 -11   1   7    2.37    1.84
 -11  -1   7    1.35    1.85
  11  -1  -7    1.48    1.35
 -11  -1   7    1.74    1.56
 -10   1   7    4.53    1.85
  10  -1  -7    4.81    1.52
  10   1  -7    4.62    1.27
 -10  -1   7    4.70    1.57
 -10  -1   7    4.02    1.91
  10  -1  -7    5.58    1.46
   9  -1  -7    4.71    1.33
   9  -1  -7    3.69    1.29
   9  -1  -7    4.25    1.12
   9   1  -7    6.15    1.29
   9   1  -7    5.61    1.41
  -9  -1   7    3.12    1.68
   9   1  -7    4.73    1.23
  -9  -1   7    4.14    1.46
  -9   1   7    6.28    1.73
   8  -1  -7  177.45    6.40
   8   1  -7  184.30    6.27
   8  -1  -7  174.96    6.06
  -8   1   7  182.50    6.53
   8   1  -7  181.02    6.57
   8   1  -7  195.18    6.24
  -8   1   7  181.97    6.66
  -8  -1   7  181.27    6.45
   8  -1  -7  190.35    6.60
  -8  -1   7  178.01    6.89
  -7  -1   7   11.00    1.59
   7  -1  -7    9.06    1.39
   7  -1  -7   10.51    1.57
   7   1  -7    8.98    1.41
   7  -1  -7    8.46    1.22
  -7   1   7    5.32    1.63
   7   1  -7   10.52    1.43
   7   1  -7   10.41    1.37
  -7  -1   7    7.62    1.80
  -7   1   7    9.73    1.63
   6   1  -7   94.64    3.58
   6   1  -7   87.07    3.73
   6  -1  -7   93.43    3.90
  -6   1   7   85.73    3.71
  -6  -1   7   88.73    3.65
   6   1  -7   89.19    3.65
  -6   1   7   87.16    3.69
  -6  -1   7   85.86    4.02
   6  -1  -7   90.51    3.67
   6  -1  -7   87.26    3.43
  -5  -1   7   42.01    2.32
   5  -1  -7   42.56    2.52
  -5   1   7   43.78    2.41
  -5  -1   7   46.75    2.36
   5   1  -7   46.04    2.28
  -5  -1   7   44.14    2.58
   5   1  -7   46.98    2.50
   5  -1  -7   45.93    2.20
   5  -1  -7   41.94    2.29
   5   1  -7   43.39    2.43
  -5   1   7   42.48    2.30
   4   1  -7  469.51   13.01
  -4   1   7  448.72   12.88
   4  -1  -7  450.63   12.30
  -4  -1   7  478.97   12.99
  -4  -1   7  446.58   12.79
   4  -1  -7  447.47   12.83
   4   1  -7  459.51   12.92
   4  -1  -7  451.23   13.03
   4   1  -7  458.15   12.40
  -4  -1   7  456.39   13.34
  -4  -1   7  461.19   12.33
   3  -1  -7  104.02    3.49
  -3  -1   7  103.49    3.54
  -3  -1   7  100.60    3.81
   3   1  -7   98.58    3.53
   3   1  -7  102.19    3.82
   3  -1  -7   95.15    3.90
   3   1  -7   97.39    3.83
  -3  -1   7  100.59    3.90
   3  -1  -7  103.89    3.68
  -3  -1   7   96.32    3.62
  -3   1   7   99.36    3.37
   2  -1  -7  120.59    3.99
   2  -1  -7  120.30    4.40
  -2  -1   7  124.38    4.35
   2   1  -7  121.21    4.31
   2   1  -7  115.71    4.40
  -2  -1   7  129.01    4.43
   2  -1  -7  126.47    4.21
   2   1  -7  125.72    4.08
  -2  -1   7  119.65    3.99
  -2   1   7  121.95    3.77
   1  -1  -7  106.36    3.79
  -1  -1   7  104.99    3.92
   1   1  -7  110.70    4.12
   1   1  -7  103.89    3.87
   1  -1  -7  109.48    4.02
   1   1  -7  105.98    3.65
   1  -1  -7  109.32    3.61
  -1  -1   7  108.45    3.92
  -1   1   7  108.24    3.23
   0   1  -7  283.39    7.96
   0  -1  -7  266.14    8.29
   0  -1   7  272.38    8.44
   0   1  -7  279.78    8.34
   0  -1  -7  284.35    8.21
   0  -1   7  293.13    8.32
   0   1  -7  282.23    8.50
  -1  -1  -7   27.28    1.24
  -1   1  -7   23.21    1.66
  -1  -1  -7   25.51    1.80
  -1  -1  -7   22.12    1.54
   1  -1   7   26.06    1.64
   1  -1   7   22.22    1.74
  -1   1  -7   26.75    1.71
  -1   1  -7   25.14    1.56
  -1   1  -7   28.33    1.98
   1  -1   7   24.64    1.79
   2  -1   7  121.94    4.45
  -2   1  -7  121.54    4.21
  -2   1  -7  116.83    4.40
   2  -1   7  122.37    4.16
  -2   1  -7  120.77    4.57
  -2   1  -7  127.46    4.51
  -2  -1  -7  120.19    4.34
  -2  -1  -7  129.04    3.94
  -2  -1  -7  125.94    4.38
   2  -1   7  123.71    4.54
  -2  -1  -7  136.10    4.47
  -3   1  -7   15.20    1.52
  -3   1  -7   19.10    1.70
  -3  -1  -7   17.09    1.55
  -3   1  -7   17.23    1.55
  -3  -1  -7   16.78    1.31
   3  -1   7   14.03    1.31
  -3  -1  -7   14.88    1.39
  -4  -1  -7   36.49    2.22
  -4   1  -7   41.49    2.47
  -4  -1  -7   38.12    2.21
  -4  -1  -7   42.19    2.20
  -4   1  -7   39.09    2.42
  -4   1  -7   39.84    2.47
  -5   1  -7   32.29    2.34
  -5  -1  -7   32.71    2.14
  -5  -1  -7   33.42    2.23
  -5   1  -7   34.59    2.45
  -5   1  -7   34.65    2.40
  -5  -1  -7   30.46    2.17
  -6   1  -7   24.40    2.30
  -6  -1  -7   21.83    1.89
  -6   1  -7   21.94    2.20
  -6  -1  -7   23.38    2.13
  -6  -1  -7   20.13    1.99
  -6   1  -7   19.70    1.96
  -7   1  -7   22.97    2.15
  -7   1  -7   26.29    2.48
  -7   1  -7   24.03    2.48
  -7  -1  -7   25.97    2.22
  -8  -1  -7    3.07    1.48
  -8   1  -7    1.20    1.55
  -8  -1  -7   -0.42    1.20
  -8   1  -7    2.89    1.35
  -9   1  -7    3.20    1.39
  -9  -1  -7    2.84    1.63
  -9  -1  -7    2.50    1.39
  -9   1  -7    3.44    1.83
 -10  -1  -7   32.89    2.97
 -10  -1  -7   37.41    3.62
 -10   1  -7   40.36    3.70
 -11   1  -7   61.05    4.70
 -11  -1  -7   67.33    4.68
 -12   1  -7   -2.91    2.09
 -14   2   7    2.79    2.58
 -13   2   7    5.10    2.49
 -13  -2   7   13.80    3.08
  12  -2  -7    2.98    1.66
 -12  -2   7    3.27    2.36
 -12   2   7    1.49    2.20
 -11  -2   7   -0.49    1.84
 -11   2   7    2.84    1.99
  11  -2  -7    1.05    1.57
  10  -2  -7   17.20    1.96
 -10  -2   7   11.71    2.43
 -10   2   7   14.79    2.43
  10  -2  -7   15.96    2.15
 -10  -2   7   13.59    2.01
   9  -2  -7   14.70    2.07
  -9   2   7   18.02    2.31
   9  -2  -7   11.17    1.69
  -9  -2   7   14.86    1.99
  -9  -2   7   17.41    2.53
  -8  -2   7    3.15    1.72
  -8  -2   7    2.84    1.42
   8  -2  -7    1.36    1.11
  -8   2   7    1.99    1.50
   8  -2  -7    3.20    1.35
   8  -2  -7    0.55    0.89
   7   2  -7  171.01    5.88
  -7  -2   7  181.63    6.90
   7  -2  -7  171.59    5.97
   7  -2  -7  175.72    5.63
  -7  -2   7  178.04    6.08
   7  -2  -7  177.39    6.50
  -7   2   7  176.33    6.30
   6  -2  -7  138.02    5.38
  -6   2   7  136.10    5.03
  -6  -2   7  134.55    5.54
   6  -2  -7  140.94    4.57
  -6  -2   7  135.48    4.93
   6   2  -7  140.26    4.93
   6   2  -7  141.40    4.99
   6  -2  -7  136.79    4.84
   5  -2  -7   -0.80    0.60
  -5   2   7    1.01    0.93
   5   2  -7   -0.90    0.70
  -5  -2   7   -2.00    0.81
   5   2  -7    0.69    0.86
   5  -2  -7   -0.52    0.69
  -5  -2   7   -0.58    1.23
   5   2  -7   -0.56    0.86
   5  -2  -7    0.84    0.95
   4   2  -7   99.68    3.94
  -4   2   7   99.08    3.48
   4  -2  -7  100.68    4.15
   4   2  -7   98.65    3.68
   4  -2  -7  102.21    3.43
  -4  -2   7   98.22    4.25
  -4  -2   7  101.74    3.76
   4   2  -7   98.52    3.93
   4  -2  -7  100.88    3.66
  -3  -2   7  453.88   12.74
   3   2  -7  458.95   13.09
  -3  -2   7  478.96   12.92
  -3  -2   7  456.95   12.26
   3  -2  -7  465.02   12.17
   3  -2  -7  458.89   12.72
   3   2  -7  473.23   13.12
   3  -2  -7  442.80   13.21
  -3  -2   7  452.00   13.65
   3   2  -7  474.86   12.52
  -3   2   7  463.17   12.67
   2   2  -7   56.16    2.82
   2   2  -7   60.29    2.52
  -2  -2   7   54.83    2.93
   2  -2  -7   60.13    2.46
   2   2  -7   60.28    2.72
  -2  -2   7   57.19    2.49
  -2  -2   7   55.70    2.51
  -2  -2   7   58.67    2.32
   2  -2  -7   57.85    2.85
  -1  -2   7  197.68    6.68
   1   2  -7  201.87    5.97
   1   2  -7  203.83    6.34
  -1  -2   7  192.85    5.70
   1   2  -7  196.03    6.52
  -1  -2   7  199.05    6.12
   1  -2  -7  199.73    5.99
  -1  -2   7  203.17    6.06
   1  -2  -7  189.60    6.34
   0  -2   7   69.14    3.27
   0  -2  -7   73.20    2.75
   0   2  -7   66.88    2.91
   0  -2  -7   68.85    3.02
   0  -2   7   70.61    2.85
   0  -2   7   65.09    2.52
   0  -2  -7   70.77    2.70
   0   2  -7   69.69    3.23
   0   2  -7   66.39    2.72
  -1  -2  -7   84.32    3.05
  -1   2  -7   80.27    3.25
   1  -2   7   76.65    2.81
  -1   2  -7   79.71    3.56
   1  -2   7   80.17    3.62
  -1   2  -7   77.39    3.04
  -1  -2  -7   76.69    2.97
  -1  -2  -7   76.34    3.20
   1  -2   7   81.38    3.17
  -1   2  -7   74.77    3.46
  -2  -2  -7  232.38    7.02
  -2   2  -7  220.02    7.40
  -2  -2  -7  231.32    6.88
  -2   2  -7  226.94    7.56
   2  -2   7  225.67    7.64
  -2   2  -7  235.90    6.91
  -2   2  -7  226.19    7.17
   2  -2   7  220.76    6.54
  -3   2  -7    6.75    1.45
  -3   2  -7   10.89    1.50
  -3  -2  -7    6.97    1.09
  -3   2  -7   10.33    1.38
  -3  -2  -7    9.06    1.20
  -4  -2  -7   41.53    2.19
  -4   2  -7   41.53    2.75
  -4   2  -7   42.66    2.69
  -4  -2  -7   36.04    2.17
  -5   2  -7  190.72    6.85
  -5  -2  -7  200.33    6.48
  -5  -2  -7  197.20    6.16
  -5   2  -7  194.68    7.21
  -6   2  -7   13.01    2.06
  -6   2  -7   13.63    1.90
  -6  -2  -7   11.71    1.70
  -7  -2  -7   42.91    2.68
  -7   2  -7   41.93    2.96
  -7   2  -7   42.71    3.22
  -8   2  -7    4.59    1.57
  -8  -2  -7    5.23    1.44
  -8   2  -7    2.99    1.72
  -9  -2  -7   -0.47    1.24
  -9   2  -7   -1.38    1.32
  -9   2  -7    1.37    1.72
 -10   2  -7   18.37    2.87
 -10   2  -7   15.25    2.29
 -11   2  -7    6.40    2.51
 -12   2  -7    4.20    2.78
  13  -3  -7    2.97    1.93
 -12   3   7    4.24    2.44
  12  -3  -7    2.80    1.81
 -12  -3   7    1.60    2.55
 -11  -3   7    4.19    2.53
 -11   3   7    6.38    2.29
  11  -3  -7    5.50    1.77
 -10  -3   7   -1.07    2.04
  10  -3  -7    2.55    1.76
 -10   3   7    0.19    1.90
  -9  -3   7   12.43    1.88
   9  -3  -7   12.95    2.15
  -9  -3   7   16.39    2.76
   9  -3  -7   12.32    1.60
  -9   3   7   15.15    2.37
   8  -3  -7   35.66    2.22
   8  -3  -7   37.77    3.08
   8  -3  -7   38.14    1.88
  -8  -3   7   35.91    3.29
  -8   3   7   34.58    2.92
  -8  -3   7   38.55    2.50
   7  -3  -7   10.32    1.27
  -7   3   7   10.94    1.87
  -7  -3   7   12.12    2.27
   7  -3  -7    9.57    1.87
  -7  -3   7   10.49    1.53
   7  -3  -7   10.74    0.99
   6  -3  -7  101.17    4.66
   6  -3  -7   96.95    3.12
  -6  -3   7  103.39    4.94
   6  -3  -7   99.26    3.61
   6   3  -7  106.45    4.15
  -6  -3   7  101.89    3.90
   5   3  -7   46.79    2.64
  -5  -3   7   46.32    3.28
   5  -3  -7   46.64    2.96
   5  -3  -7   43.81    2.03
  -5  -3   7   50.14    2.38
  -4  -3   7   27.70    2.50
   4  -3  -7   27.85    2.33
   4  -3  -7   24.46    1.38
   4   3  -7   22.51    2.00
  -4  -3   7   24.16    1.61
   3   3  -7   45.36    2.69
   3  -3  -7   46.80    2.81
   3  -3  -7   45.70    1.83
  -3  -3   7   48.77    2.13
  -3  -3   7   47.18    3.04
   2  -3  -7   26.28    1.27
   2  -3  -7   23.97    1.23
  -2  -3   7   26.73    1.49
  -2  -3   7   24.65    2.33
  -2  -3   7   23.83    1.50
   2   3  -7   26.57    2.08
   2  -3  -7   24.72    2.06
   1  -3  -7   27.61    2.04
  -1  -3   7   24.98    1.48
   1  -3  -7   25.58    1.28
   1  -3  -7   27.23    1.32
  -1  -3   7   27.05    1.53
  -1  -3   7   28.76    2.43
   1   3  -7   28.06    2.16
   0  -3   7  183.16    5.54
   0  -3   7  188.45    5.50
   0  -3   7  183.45    6.72
   0  -3  -7  194.03    5.34
   0  -3  -7  187.85    5.33
   0   3  -7  174.07    6.37
   0  -3  -7  187.15    6.20
   1  -3   7   33.94    2.66
  -1   3  -7   33.70    2.56
  -1  -3  -7   33.27    1.57
  -1  -3  -7   29.92    1.53
   1  -3   7   31.32    1.64
  -1   3  -7   33.20    2.48
  -1  -3  -7   32.11    2.13
   1  -3   7   29.83    1.72
  -2   3  -7  190.11    6.84
  -2  -3  -7  196.94    5.69
  -2   3  -7  192.64    7.08
  -2  -3  -7  197.85    6.27
   2  -3   7  188.71    7.11
  -3  -3  -7  134.27    4.24
  -3   3  -7  130.00    5.30
   3  -3   7  126.41    5.55
  -3   3  -7  128.53    5.51
  -3  -3  -7  133.83    4.60
  -4  -3  -7  206.58    6.22
  -4   3  -7  203.69    7.32
   4  -3   7  193.97    5.71
  -4   3  -7  210.03    7.65
   5  -3   7   79.30    2.94
  -5   3  -7   88.74    4.42
  -5  -3  -7   87.34    3.33
  -5   3  -7   85.47    4.43
  -6   3  -7   31.82    3.01
  -6  -3  -7   31.31    2.03
   6  -3   7   25.46    1.64
  -7  -3  -7   44.50    2.57
  -7   3  -7   42.45    3.45
  -8   3  -7   66.17    4.31
  -8  -3  -7   66.76    3.30
  -9   3  -7    1.63    2.09
  -9   3  -7    6.38    1.92
 -10   3  -7    2.25    1.86
 -10   3  -7    3.13    2.25
 -11   3  -7   19.39    2.89
 -11   3  -7   24.81    3.61
  12  -4  -7    2.32    2.04
  11  -4  -7    2.31    1.86
 -11  -4   7    4.10    2.73
 -10  -4   7   14.63    3.10
  10  -4  -7   13.09    2.45
  -9  -4   7   -1.66    2.23
   9  -4  -7    3.64    1.77
  -9  -4   7   -0.26    1.17
  -8  -4   7    8.85    1.30
   8  -4  -7    7.55    2.00
  -8  -4   7    8.50    2.50
  -7  -4   7   12.63    2.52
   7  -4  -7   14.70    2.25
  -7  -4   7   10.40    1.22
  -6  -4   7   56.87    4.02
   6  -4  -7   61.55    3.76
   5   4  -7    9.31    1.54
   5  -4  -7    9.72    1.89
  -5  -4   7   11.37    2.27
   4  -4  -7   35.68    2.80
   4   4  -7   35.61    2.50
  -4  -4   7   34.70    3.13
  -3  -4   7    5.94    1.86
   3  -4  -7    6.82    1.55
   3   4  -7    5.56    1.34
  -2  -4   7   39.52    3.07
   2   4  -7   33.72    2.49
   2  -4  -7   36.86    2.59
   1  -4  -7   77.04    3.65
   1   4  -7   70.33    3.62
  -1  -4   7   73.67    4.08
   0  -4  -7   69.17    3.39
   0  -4   7   65.16    3.87
   0   4  -7   63.26    3.50
  -1   4  -7   61.16    3.71
  -1  -4  -7   55.97    3.11
  -1   4  -7   66.65    3.56
   1  -4   7   55.18    3.72
  -2   4  -7  324.44   10.67
   2  -4   7  339.04   11.33
  -2  -4  -7  334.09    9.99
  -2   4  -7  330.66   11.22
  -3   4  -7   30.23    2.82
  -3   4  -7   30.66    3.01
   3  -4   7   32.87    3.28
  -4   4  -7    6.24    1.90
  -5   4  -7   20.89    2.66
  -6   4  -7   34.25    3.36
  -7  -4  -7   12.76    1.12
  -7   4  -7   16.94    2.70
  -8   4  -7   16.81    2.87
  -9   4  -7   15.09    2.92
 -10   4  -7    7.32    2.75
 -11   4  -7    2.17    2.22
  11  -5  -7    2.03    2.15
 -10  -5   7   -1.24    2.46
  10  -5  -7    0.42    1.93
   9  -5  -7    4.17    2.08
  -9  -5   7    3.96    2.69
   8  -5  -7    5.95    2.02
  -8  -5   7    3.94    2.52
   7  -5  -7    0.42    1.55
  -7  -5   7    0.29    2.09
  -6  -5   7    6.06    2.42
   6  -5  -7    8.41    2.09
  -5  -5   7   14.46    2.64
   5  -5  -7   17.27    2.40
   4   5  -7    4.59    1.44
  -4  -5   7    3.01    1.96
   4  -5  -7    2.29    1.59
  -3  -5   7   50.70    3.86
   3   5  -7   49.91    3.14
   3  -5  -7   53.09    3.56
   2   5  -7   54.63    3.40
  -2  -5   7   58.40    4.08
   2  -5  -7   62.04    3.67
  -1  -5   7    7.59    2.18
   1   5  -7    7.55    1.73
   1  -5  -7    8.30    1.76
   0  -5   7    9.62    2.40
   0  -5  -7   13.62    2.01
   0   5  -7   11.77    1.96
  -1   5  -7   90.60    4.84
  -1   5  -7   88.38    4.58
  -1  -5  -7   92.94    4.28
   1  -5   7   88.69    5.03
   2  -5   7   38.59    3.61
  -2   5  -7   38.75    3.19
  -2   5  -7   35.26    3.37
  -3   5  -7   43.35    3.72
   3  -5   7   46.81    3.94
  -4   5  -7    0.19    1.64
  -5   5  -7   35.08    3.54
  -6   5  -7   15.95    2.79
  -7   5  -7    6.07    2.43
  -8   5  -7    3.74    2.37
  -9   5  -7   12.72    3.21
  10  -6  -7    0.24    2.06
   9  -6  -7    1.05    1.98
   8  -6  -7    1.86    2.18
  -8  -6   7   -0.10    2.48
  -7  -6   7    7.18    2.85
   7  -6  -7    4.59    2.17
  -6  -6   7    5.74    2.57
   6  -6  -7    2.70    1.90
   5  -6  -7    1.49    1.77
  -5  -6   7    3.99    2.37
  -4  -6   7    4.56    2.18
   4  -6  -7    1.73    1.74
  -3  -6   7   12.07    2.77
   3  -6  -7   11.00    2.32
   2  -6  -7   27.74    2.97
   2   6  -7   25.37    2.63
  -2  -6   7   32.49    3.62
   1  -6  -7   40.17    3.50
   1   6  -7   32.02    2.96
  -1  -6   7   36.56    3.77
   0  -6  -7   13.93    2.30
   0   6  -7   13.60    2.19
   0   6  -7   11.48    2.41
   0  -6   7   12.48    2.81
  -1   6  -7    2.80    2.03
  -1   6  -7    3.10    1.64
   1  -6   7   -0.72    2.17
  -2   6  -7   17.58    2.58
   2  -6   7   18.61    3.24
  -2   6  -7   18.77    2.99
   3  -6   7   -3.64    1.94
  -3   6  -7    4.10    2.14
  -4   6  -7   10.40    2.71
  -5   6  -7    0.30    2.14
  -6   6  -7   10.99    2.89
  -7   6  -7    6.09    2.81
   7  -7  -7   -0.04    2.11
   6  -7  -7   -1.84    1.92
  -6  -7   7    2.50    2.78
  -5  -7   7    5.93    2.80
   5  -7  -7    4.94    2.27
  -4  -7   7   10.16    3.02
   4  -7  -7    3.15    2.10
  -3  -7   7   -0.77    2.07
   3  -7  -7    1.46    1.87
   2  -7  -7    2.98    1.89
  -2  -7   7    5.41    2.67
   1   7  -7    6.99    2.04
  -1  -7   7    4.35    2.50
   1   7  -7   10.24    2.53
   0   7  -7    3.01    2.29
   0  -7   7    5.37    2.68
   0   7  -7    5.89    2.00
   1  -7   7   18.80    3.54
  -1   7  -7   18.99    2.79
  -1   7  -7   15.72    3.10
   2  -7   7    1.72    2.69
  -2   7  -7   -1.34    2.24
  -2   7  -7    2.26    1.82
  -3   7  -7    1.17    2.42
  -4   7  -7    0.26    2.41
 -13   0   8    2.12    2.38
 -12   0   8   -1.70    1.84
  12   0  -8    0.31    1.41
 -11   0   8    1.55    1.56
  11   0  -8    1.02    1.30
 -11   0   8    2.04    1.90
 -10   0   8    2.41    1.43
  10   0  -8    4.89    1.41
  10   0  -8    2.68    1.31
 -10   0   8    7.21    2.05
   9   0  -8   49.46    2.92
  -9   0   8   42.75    3.18
   9   0  -8   43.57    2.89
   9   0  -8   40.04    2.57
  -9   0   8   42.36    2.88
   8   0  -8  159.17    5.74
   8   0  -8  153.81    5.81
   8   0  -8  150.18    5.40
  -8   0   8  148.03    5.69
  -8   0   8  147.73    5.92
  -7   0   8   43.78    2.73
  -7   0   8   38.12    2.83
   7   0  -8   39.11    2.39
   7   0  -8   44.12    2.67
   7   0  -8   42.99    2.74
  -6   0   8   -1.07    0.90
   6   0  -8   -0.01    0.84
   6   0  -8   -1.26    0.80
  -6   0   8   -1.88    1.02
   6   0  -8   -0.09    0.68
   5   0  -8   63.70    3.11
   5   0  -8   63.85    2.82
  -5   0   8   63.26    2.97
  -5   0   8   65.06    3.03
   5   0  -8   64.12    3.04
   4   0  -8  132.18    4.81
   4   0  -8  131.80    4.94
  -4   0   8  135.04    4.71
  -4   0   8  137.44    4.85
   4   0  -8  135.01    4.57
  -4   0   8  140.31    4.66
   3   0  -8   17.93    1.63
  -3   0   8   14.09    1.39
   3   0  -8   15.41    1.47
  -3   0   8   15.56    1.49
   3   0  -8   13.32    1.28
  -2   0   8  783.93   19.89
   2   0  -8  744.55   19.82
   2   0  -8  760.65   20.68
   2   0  -8  758.96   20.75
  -2   0   8  764.41   20.91
   1   0  -8  422.28   12.21
  -1   0   8  439.75   11.64
  -1   0   8  413.46   11.95
   1   0  -8  421.26   12.08
   1   0  -8  423.58   11.62
   0   0  -8   -0.34    0.60
   0   0  -8   -1.89    0.57
   0   0  -8    0.94    0.81
   0   0  -8   -0.34    0.56
   0   0   8    0.06    0.73
   0   0   8   -1.18    0.74
   1   0   8  191.21    5.93
  -1   0  -8  181.85    6.12
  -1   0  -8  191.16    6.31
  -1   0  -8  180.87    5.84
  -1   0  -8  195.63    5.89
  -2   0  -8   70.23    3.34
   2   0   8   75.91    3.17
  -2   0  -8   75.48    3.24
  -2   0  -8   76.60    3.01
  -3   0  -8   66.06    3.23
  -3   0  -8   69.45    3.22
  -3   0  -8   72.50    3.04
  -4   0  -8   24.76    1.98
  -4   0  -8   25.75    2.10
  -4   0  -8   27.84    2.00
  -5   0  -8   61.40    3.13
  -5   0  -8   56.56    3.12
  -6   0  -8   28.11    2.32
  -6   0  -8   31.18    2.42
  -6   0  -8   29.92    2.40
  -7   0  -8   17.17    2.16
  -7   0  -8   19.11    2.18
  -7   0  -8   17.16    1.94
  -8   0  -8   -1.03    1.46
  -8   0  -8    1.14    1.35
  -9   0  -8    0.92    1.72
  -9   0  -8    0.55    1.45
 -10   0  -8   24.37    2.94
 -10   0  -8   39.20    3.75
 -11   0  -8   14.15    2.84
 -14   1   8    3.35    2.54
 -13   1   8    1.45    2.29
 -13  -1   8    3.68    2.44
 -12  -1   8    1.29    2.14
 -12   1   8    1.59    2.10
  11  -1  -8    3.68    1.59
  11  -1  -8   -0.83    1.18
 -11  -1   8    1.34    1.92
 -11  -1   8   -0.84    1.42
 -11   1   8    0.86    1.79
  10  -1  -8    4.59    1.51
  10   1  -8    3.34    1.26
 -10  -1   8    3.19    1.53
 -10  -1   8    2.91    1.88
  10  -1  -8    1.80    1.26
 -10   1   8    3.40    1.75
   9  -1  -8    2.98    1.41
  -9  -1   8    3.23    1.75
  -9  -1   8    3.05    1.40
   9   1  -8    2.85    1.14
   9   1  -8    3.55    1.24
  -9   1   8    4.81    1.74
   9  -1  -8    4.68    1.36
   8  -1  -8   50.50    2.76
  -8  -1   8   51.86    3.39
  -8  -1   8   48.79    3.03
   8   1  -8   57.28    3.03
   8  -1  -8   57.56    3.26
   8   1  -8   56.41    3.05
   8  -1  -8   51.20    3.01
  -8   1   8   57.73    3.36
   8   1  -8   53.68    3.19
   7  -1  -8  177.27    6.22
  -7   1   8  185.02    6.43
   7   1  -8  175.65    5.96
   7   1  -8  175.76    6.13
   7  -1  -8  175.46    5.89
   7  -1  -8  174.18    6.40
   7   1  -8  172.31    6.29
  -7   1   8  171.69    6.26
  -7  -1   8  180.42    6.19
  -7  -1   8  170.15    6.57
  -6  -1   8  113.64    4.40
  -6   1   8  113.95    4.37
   6   1  -8  113.02    4.48
   6  -1  -8  113.82    4.12
   6  -1  -8  105.82    4.31
   6  -1  -8  107.73    4.57
  -6  -1   8  111.12    4.75
   6   1  -8  110.17    4.20
  -6   1   8  111.22    4.47
   6   1  -8  108.06    4.45
   5  -1  -8   -0.06    0.68
  -5   1   8   -2.61    0.79
   5  -1  -8   -0.79    0.86
   5   1  -8   -0.60    0.71
   5   1  -8   -0.20    0.88
  -5  -1   8   -0.14    0.87
   5  -1  -8    0.29    0.75
  -5   1   8   -0.96    0.81
   5   1  -8   -1.20    0.61
  -5  -1   8    1.73    1.16
   4   1  -8  307.02    9.17
   4   1  -8  297.64    8.67
  -4  -1   8  288.19    8.88
  -4   1   8  301.67    8.82
   4  -1  -8  298.29    9.00
  -4  -1   8  309.41    9.38
   4  -1  -8  294.35    9.20
   4   1  -8  294.42    9.12
   4  -1  -8  301.82    8.60
  -3  -1   8  129.09    4.33
   3  -1  -8  125.07    4.48
  -3   1   8  130.03    4.13
   3   1  -8  125.60    4.36
   3  -1  -8  124.68    4.26
   3   1  -8  132.44    4.71
  -3  -1   8  125.88    4.49
   3   1  -8  124.88    4.72
   3  -1  -8  127.68    4.75
  -3  -1   8  122.99    4.65
  -2  -1   8  256.98    7.47
  -2  -1   8  258.12    8.02
   2   1  -8  252.44    7.52
  -2  -1   8  275.50    8.02
   2   1  -8  254.30    8.03
   2  -1  -8  251.62    7.76
  -2   1   8  257.54    7.33
   2  -1  -8  255.60    8.05
   2   1  -8  260.32    7.98
   2  -1  -8  251.48    7.45
   1   1  -8  134.29    4.86
   1  -1  -8  124.52    4.68
  -1  -1   8  126.10    4.26
   1  -1  -8  122.76    4.45
   1   1  -8  128.00    4.33
   1  -1  -8  122.09    4.22
   1   1  -8  131.68    4.64
  -1   1   8  130.73    3.87
  -1  -1   8  125.92    4.57
  -1  -1   8  136.32    4.66
   0  -1  -8   55.27    1.88
   0  -1  -8   51.06    2.42
   0   1  -8   49.42    2.36
   0  -1   8   51.37    2.36
   0  -1   8   50.88    2.55
   0  -1   8   51.90    2.56
   0  -1  -8   48.63    2.57
   0   1  -8   46.96    2.67
   0   1  -8   49.20    2.51
  -1   1  -8   11.36    1.28
  -1  -1  -8   10.93    0.94
   1  -1   8   10.80    1.17
  -1  -1  -8   12.46    1.26
  -1  -1  -8   10.37    1.34
  -1   1  -8   10.96    1.29
   1  -1   8   12.72    1.45
  -1   1  -8    9.62    1.13
  -1   1  -8   10.00    1.40
  -2  -1  -8   30.36    2.08
  -2  -1  -8   30.84    1.56
  -2   1  -8   28.54    2.14
  -2   1  -8   28.28    2.00
  -2   1  -8   30.72    1.91
  -2   1  -8   29.54    2.01
  -2  -1  -8   30.59    1.91
  -3  -1  -8   23.53    1.97
  -3  -1  -8   23.40    1.79
  -3  -1  -8   24.17    1.55
  -3   1  -8   22.40    2.02
  -3   1  -8   22.81    1.92
  -3   1  -8   24.46    1.93
  -4   1  -8    1.72    1.12
  -4  -1  -8    2.05    1.03
  -4   1  -8    3.67    1.24
  -4  -1  -8    2.65    1.04
  -4   1  -8    1.06    1.04
  -4  -1  -8    3.82    0.94
  -5  -1  -8    0.35    0.97
  -5  -1  -8   -0.47    0.88
  -5   1  -8    0.97    1.12
  -5   1  -8    0.34    1.06
  -5   1  -8   -0.14    1.07
  -5  -1  -8   -0.37    0.90
  -6   1  -8   54.13    3.31
  -6   1  -8   52.46    3.25
  -6   1  -8   52.21    3.12
  -6  -1  -8   58.69    3.12
  -6  -1  -8   52.08    2.91
  -6  -1  -8   51.25    3.00
  -7  -1  -8    5.35    1.54
  -7   1  -8    7.71    1.80
  -7  -1  -8    3.20    1.38
  -7   1  -8    6.13    1.58
  -8   1  -8    9.17    2.08
  -8   1  -8    7.87    1.68
  -8  -1  -8   11.81    1.88
  -9   1  -8    2.24    1.89
  -9  -1  -8    7.22    1.79
 -10   1  -8   82.95    5.32
 -11   1  -8    4.36    2.52
 -12   1  -8    2.54    2.60
 -13  -2   8    2.41    2.48
 -13   2   8    3.44    2.35
 -12   2   8   -1.21    1.97
 -12  -2   8   -1.08    2.21
  12  -2  -8   -0.93    1.53
 -11   2   8    2.77    1.94
  11  -2  -8    2.04    1.60
 -11  -2   8    1.81    2.12
 -10  -2   8    0.36    1.75
  10  -2  -8   -0.45    1.38
  10  -2  -8    0.17    1.19
 -10  -2   8   -0.79    1.39
 -10   2   8   -1.92    1.62
   9  -2  -8   17.86    2.03
  -9   2   8   24.29    2.52
  -9  -2   8   23.78    2.39
  -9  -2   8   20.16    2.73
   9  -2  -8   22.88    2.45
  -8   2   8   57.04    3.30
  -8  -2   8   52.49    3.14
  -8  -2   8   51.01    3.58
   8  -2  -8   50.70    2.95
   8  -2  -8   53.71    3.33
   8  -2  -8   50.05    2.70
   8   2  -8   56.43    2.95
   7  -2  -8   56.38    2.69
   7  -2  -8   55.84    2.92
  -7   2   8   54.55    3.08
   7  -2  -8   55.95    3.44
  -7  -2   8   56.15    3.06
  -7  -2   8   54.80    3.56
   7   2  -8   55.66    3.06
  -6  -2   8   67.21    3.15
  -6  -2   8   61.50    3.73
   6  -2  -8   57.93    3.37
   6  -2  -8   63.93    3.00
   6   2  -8   68.49    3.30
  -6   2   8   63.70    3.01
   6  -2  -8   65.22    2.81
   5  -2  -8   44.37    2.38
  -5   2   8   46.67    2.34
   5   2  -8   46.27    2.57
   5  -2  -8   48.68    2.27
  -5  -2   8   43.77    3.00
  -5  -2   8   44.10    2.50
   5   2  -8   46.30    2.76
   5  -2  -8   46.69    2.87
   4   2  -8  425.23   11.69
   4  -2  -8  421.63   11.33
   4  -2  -8  416.15   11.86
   4   2  -8  406.80   12.12
   4  -2  -8  411.34   12.38
  -4  -2   8  412.96   12.78
  -4  -2   8  408.47   11.88
   4   2  -8  435.33   12.29
   3   2  -8   34.40    2.22
   3   2  -8   37.83    2.45
   3  -2  -8   32.37    1.78
   3  -2  -8   32.00    1.93
  -3  -2   8   32.61    2.06
  -3  -2   8   29.06    2.42
   3   2  -8   33.73    2.02
   3  -2  -8   28.11    2.22
  -2  -2   8   62.50    3.22
   2  -2  -8   61.60    2.70
   2   2  -8   67.12    3.04
   2   2  -8   61.53    2.75
  -2  -2   8   64.21    2.77
   2  -2  -8   59.99    3.11
   2   2  -8   63.34    3.15
  -1  -2   8   38.27    2.48
   1   2  -8   37.54    2.09
   1  -2  -8   36.10    2.01
   1   2  -8   37.28    2.27
   1  -2  -8   39.34    2.31
   1   2  -8   36.08    2.48
   0  -2  -8  412.28   11.97
   0   2  -8  412.23   11.45
   0   2  -8  410.25   12.21
   0  -2  -8  416.96   11.64
   0   2  -8  419.59   12.00
   0  -2   8  414.65   12.52
  -1   2  -8  190.51    6.56
  -1   2  -8  186.79    6.03
  -1  -2  -8  187.13    5.98
  -1  -2  -8  188.59    6.23
  -1   2  -8  192.66    6.36
  -1   2  -8  193.32    6.63
   1  -2   8  184.20    6.62
   2  -2   8  180.04    6.55
  -2   2  -8  185.16    6.48
  -2   2  -8  177.04    5.85
  -2   2  -8  178.73    6.16
  -2  -2  -8  175.99    5.78
  -2  -2  -8  185.82    6.02
  -2   2  -8  170.82    6.32
  -3  -2  -8  189.23    6.19
  -3  -2  -8  184.11    6.11
  -3   2  -8  194.26    6.92
  -3   2  -8  188.53    6.69
  -4  -2  -8  136.56    4.79
  -4   2  -8  142.85    5.55
  -4   2  -8  126.51    5.31
  -4  -2  -8  134.66    4.92
  -5   2  -8   48.55    3.15
  -5  -2  -8   52.42    2.70
  -5  -2  -8   56.74    2.90
  -5   2  -8   50.91    3.30
  -6   2  -8   78.85    4.04
  -6  -2  -8   74.80    3.58
  -6   2  -8   78.84    4.22
  -7   2  -8   38.44    3.12
  -7   2  -8   30.52    2.71
  -7  -2  -8   35.22    2.56
  -8  -2  -8    5.15    1.53
  -8   2  -8    5.71    1.64
  -8   2  -8    4.53    1.92
  -9   2  -8    3.98    2.05
  -9   2  -8    7.03    1.83
 -10   2  -8    5.24    2.33
 -11   2  -8   35.10    3.83
  13  -3  -8    1.96    1.86
  12  -3  -8    7.53    2.27
 -12  -3   8    4.57    2.90
 -11  -3   8   -0.69    2.23
  11  -3  -8    0.32    1.63
  10  -3  -8    9.01    2.12
 -10  -3   8   13.47    2.74
   9  -3  -8    3.71    1.77
  -9  -3   8    3.12    2.12
  -9  -3   8    1.37    1.45
   9  -3  -8    0.78    1.09
  -8  -3   8   43.84    3.63
  -8  -3   8   40.68    2.65
   8  -3  -8   41.23    2.39
   8  -3  -8   39.04    3.20
  -7  -3   8   28.82    2.24
   7  -3  -8   27.74    2.70
   7  -3  -8   25.03    1.84
  -7  -3   8   30.82    3.06
   7  -3  -8   27.41    1.60
  -6  -3   8    1.27    1.10
   6   3  -8    1.67    1.11
   6  -3  -8   -0.10    0.75
   6  -3  -8    0.78    0.64
   6  -3  -8    1.40    1.37
  -6  -3   8   -1.03    1.58
  -5  -3   8   27.98    2.82
   5  -3  -8   26.04    1.65
   5   3  -8   25.62    2.21
   5  -3  -8   26.45    2.48
  -5  -3   8   28.40    1.98
  -4  -3   8   67.73    3.88
  -4  -3   8   71.61    2.95
   4  -3  -8   68.63    3.62
   4   3  -8   66.39    3.36
   4  -3  -8   65.84    2.62
   3  -3  -8   70.42    2.72
   3   3  -8   79.23    3.68
  -3  -3   8   75.37    2.95
  -3  -3   8   76.09    3.96
   3  -3  -8   79.27    3.77
   2   3  -8    5.55    1.42
  -2  -3   8    4.64    0.99
   2  -3  -8    4.72    0.82
   2  -3  -8    5.44    1.32
  -2  -3   8    6.23    1.71
   1  -3  -8   46.24    2.77
   1  -3  -8   49.05    2.07
   1   3  -8   51.27    2.98
  -1  -3   8   53.04    2.33
  -1  -3   8   52.29    3.20
   0   3  -8  101.85    4.44
   0  -3   8   96.91    4.58
   0  -3  -8  102.44    3.46
   0  -3   8  105.77    3.61
   0  -3  -8  106.97    4.26
  -1   3  -8  156.19    6.06
  -1  -3  -8  148.88    5.38
  -1  -3  -8  155.56    4.80
   1  -3   8  154.06    6.13
  -1   3  -8  147.44    5.83
  -2   3  -8  261.16    9.03
   2  -3   8  263.28    9.11
  -2   3  -8  258.87    8.73
  -2  -3  -8  263.09    7.58
  -2  -3  -8  260.37    8.10
   3  -3   8   39.04    3.16
  -3   3  -8   40.46    3.15
  -3  -3  -8   38.14    1.99
  -3  -3  -8   38.51    2.42
  -3   3  -8   41.49    3.01
  -4   3  -8   59.12    3.68
  -4  -3  -8   53.91    2.54
  -4   3  -8   54.94    3.50
   5  -3   8   74.04    2.90
  -5   3  -8   79.41    4.24
  -5   3  -8   81.16    4.38
  -5  -3  -8   79.91    3.30
  -6  -3  -8   29.82    2.09
  -6   3  -8   30.06    2.83
  -6   3  -8   31.92    3.08
  -7   3  -8    4.06    1.72
  -7   3  -8    2.40    1.65
  -7  -3  -8    2.71    1.20
  -8   3  -8    5.45    1.84
  -8   3  -8   13.05    2.45
  -9   3  -8   -2.02    1.75
  -9   3  -8   -0.05    1.62
 -10   3  -8    7.69    2.75
 -10   3  -8    5.90    2.20
 -11   3  -8   10.69    3.05
  12  -4  -8    1.34    1.90
 -11  -4   8   -1.64    2.40
  11  -4  -8    2.41    1.95
 -10  -4   8   19.91    3.37
  10  -4  -8   12.52    2.57
  -9  -4   8    1.55    2.46
   9  -4  -8    3.30    1.82
  -8  -4   8    7.83    2.53
  -8  -4   8    8.55    1.39
   8  -4  -8    8.41    2.07
  -7  -4   8   -0.64    1.96
  -7  -4   8   -0.20    0.91
   7  -4  -8    1.63    1.56
  -6  -4   8   -1.10    1.83
  -6  -4   8    0.49    0.81
   6  -4  -8    1.81    1.51
   5  -4  -8    4.91    1.66
  -5  -4   8    5.10    0.84
   5   4  -8    3.34    1.39
  -5  -4   8    2.45    1.87
   4  -4  -8   36.54    2.92
  -4  -4   8   35.86    3.20
   4   4  -8   36.53    2.62
  -3  -4   8   66.28    4.02
   3   4  -8   63.77    3.46
   3  -4  -8   66.45    3.65
   2   4  -8    4.81    1.44
   2  -4  -8    5.07    1.46
  -2  -4   8    2.99    1.76
   1  -4  -8   17.50    2.05
   1   4  -8   17.75    2.06
  -1  -4   8   15.88    2.37
   0  -4   8   77.93    4.35
   0   4  -8   77.38    4.02
   0  -4  -8   80.09    3.86
   1  -4   8  153.09    6.52
  -1   4  -8  147.54    6.03
  -1  -4  -8  155.22    5.63
  -1   4  -8  148.06    6.29
  -2  -4  -8    6.12    1.43
   2  -4   8    8.27    2.22
  -2   4  -8    5.68    1.72
  -2   4  -8    9.40    2.09
   3  -4   8   34.51    3.37
  -3   4  -8   28.72    2.80
  -3   4  -8   34.90    3.16
  -4   4  -8    9.88    2.13
  -4   4  -8    9.22    2.02
  -5   4  -8    2.00    1.65
  -5   4  -8   -0.74    1.43
  -6   4  -8   -0.29    1.58
  -6  -4  -8   -0.82    0.60
  -6   4  -8   -1.10    1.48
  -7   4  -8    7.62    2.15
  -7  -4  -8    6.65    1.01
  -7   4  -8    6.30    2.18
  -8   4  -8   -3.53    1.47
  -8   4  -8    0.52    1.92
  -9   4  -8    1.18    2.23
  -9   4  -8    2.95    2.10
 -10   4  -8    6.27    2.37
  11  -5  -8    2.88    2.20
  10  -5  -8   -1.10    1.79
 -10  -5   8   -4.72    2.48
  -9  -5   8    8.94    2.99
   9  -5  -8    7.55    2.31
   8  -5  -8   -1.26    1.56
  -8  -5   8   -1.83    2.34
  -7  -5   8    5.78    2.67
   7  -5  -8    4.15    2.04
   6  -5  -8    8.49    2.14
  -6  -5   8    6.83    2.52
   5  -5  -8    0.45    1.58
  -5  -5   8   -2.13    1.86
   4  -5  -8   10.72    2.08
  -4  -5   8   11.28    2.58
   4   5  -8   11.68    1.87
   3  -5  -8   24.05    2.71
   3   5  -8   27.04    2.52
  -3  -5   8   31.76    3.35
  -2  -5   8   57.95    4.12
   2   5  -8   55.34    3.46
   2  -5  -8   58.55    3.69
   1  -5  -8    5.80    1.75
  -1  -5   8    6.31    2.28
   1   5  -8    7.34    1.82
   0   5  -8    1.42    1.51
   0   5  -8    2.58    1.48
   0  -5   8   -0.41    1.88
   0  -5  -8   -1.07    1.16
   1  -5   8   15.75    2.75
  -1   5  -8   11.11    2.06
  -1   5  -8   13.02    2.37
  -1  -5  -8   14.21    1.99
  -2   5  -8   12.19    2.37
   2  -5   8   12.16    2.62
  -2   5  -8   12.58    2.23
  -3   5  -8   16.65    2.50
  -3   5  -8   14.19    2.54
   3  -5   8   16.84    2.97
  -4   5  -8   -0.36    1.65
  -4   5  -8    1.55    1.60
  -5   5  -8    6.59    2.07
  -5   5  -8    2.53    1.93
  -6   5  -8   -0.05    1.73
  -6   5  -8    4.32    2.16
  -7   5  -8    6.68    2.54
  -7   5  -8    3.16    2.01
  -8   5  -8   24.38    3.54
  -8   5  -8   16.87    3.00
  -9   5  -8   10.20    2.74
   9  -6  -8    1.19    2.14
  -8  -6   8   -0.85    2.59
   8  -6  -8   -0.16    1.96
  -7  -6   8    4.48    2.83
   7  -6  -8   -1.52    1.84
  -6  -6   8    3.57    2.62
   6  -6  -8    3.50    2.08
  -5  -6   8    7.21    2.82
   5  -6  -8    9.49    2.43
   4  -6  -8   13.48    2.59
  -4  -6   8   17.52    3.19
   3  -6  -8   10.90    2.33
  -3  -6   8   10.88    2.79
  -2  -6   8    3.53    2.27
   2  -6  -8    1.64    1.76
   2   6  -8    2.64    1.60
   1  -6  -8    7.87    2.12
  -1  -6   8   11.33    2.75
   1   6  -8   10.70    2.07
   0  -6   8    5.87    2.45
   0   6  -8    3.09    1.87
   0   6  -8    0.24    1.56
  -1   6  -8    0.78    1.76
  -1   6  -8    1.44    1.63
   1  -6   8   -3.31    1.84
   2  -6   8   10.43    2.87
  -2   6  -8   11.33    2.27
  -2   6  -8    9.51    2.49
  -3   6  -8   17.84    2.79
   3  -6   8   23.81    3.61
  -3   6  -8   27.52    3.45
  -4   6  -8    6.06    2.52
  -4   6  -8    4.91    2.13
  -5   6  -8    1.09    1.97
  -5   6  -8   -1.07    2.09
  -6   6  -8    6.38    2.43
  -6   6  -8   10.83    3.02
  -7   6  -8   12.57    2.83
   6  -7  -8    0.24    2.20
   5  -7  -8    0.65    2.00
   4  -7  -8    2.94    2.14
  -4  -7   8    6.53    2.94
   3  -7  -8    5.14    2.21
  -3  -7   8   11.20    3.05
   2  -7  -8   10.38    2.41
  -2  -7   8   10.10    3.06
  -1  -7   8   31.02    4.05
   1   7  -8   23.41    3.31
   1   7  -8   22.17    2.91
   0   7  -8   15.69    2.60
   0   7  -8   10.93    2.79
   0  -7   8   15.52    3.49
   1  -7   8    0.13    2.74
  -1   7  -8    1.43    2.34
  -1   7  -8   -0.16    1.82
   2  -7   8   -1.39    2.72
  -2   7  -8   -4.80    2.10
  -2   7  -8    2.95    1.97
  -3   7  -8    0.87    1.98
  -4   7  -8    0.40    1.91
  -5   7  -8    1.89    2.07
 -13   0   9    2.61    2.28
 -12   0   9   -1.48    1.97
 -11   0   9   -2.31    1.66
  11   0  -9    0.03    1.30
  10   0  -9    1.15    1.33
 -10   0   9    1.48    1.51
 -10   0   9    2.38    1.83
  10   0  -9    6.20    1.61
   9   0  -9    0.96    1.22
  -9   0   9    1.66    1.58
   9   0  -9    2.09    1.11
  -9   0   9    2.57    1.41
   9   0  -9   -0.63    1.00
   8   0  -9   41.64    2.74
   8   0  -9   34.30    2.39
  -8   0   9   36.23    2.87
  -8   0   9   40.21    2.81
   8   0  -9   40.18    2.77
  -7   0   9    3.64    1.41
   7   0  -9    3.33    1.04
   7   0  -9    5.22    1.43
   7   0  -9    4.08    1.31
  -7   0   9    3.14    1.57
  -6   0   9   21.52    2.12
   6   0  -9   21.72    2.09
   6   0  -9   20.61    1.79
  -6   0   9   18.06    1.99
   6   0  -9   20.85    1.93
  -5   0   9  152.74    5.49
  -5   0   9  157.15    5.43
   5   0  -9  146.89    5.16
   5   0  -9  146.91    5.50
   5   0  -9  152.75    5.63
   4   0  -9   25.86    1.79
  -4   0   9   22.86    2.06
  -4   0   9   20.53    1.82
   4   0  -9   22.00    1.98
   4   0  -9   22.18    1.85
   3   0  -9   96.67    4.12
   3   0  -9   93.10    3.63
   3   0  -9   94.18    3.87
  -3   0   9   99.02    3.67
   2   0  -9  126.86    4.85
   2   0  -9  123.04    4.39
   2   0  -9  129.74    4.73
  -2   0   9  125.01    4.33
   1   0  -9   60.04    2.67
  -1   0   9   55.41    2.44
   1   0  -9   57.61    2.81
  -1   0   9   60.46    2.78
   1   0  -9   57.22    2.99
   0   0  -9   18.54    1.44
   0   0  -9   18.62    1.81
   0   0   9   13.10    1.34
   0   0  -9   17.38    1.61
   0   0  -9   17.22    1.53
  -1   0  -9   70.59    3.19
  -1   0  -9   63.18    3.33
  -1   0  -9   73.44    2.92
  -2   0  -9   67.58    3.53
  -2   0  -9   75.25    3.41
  -2   0  -9   83.81    3.25
  -3   0  -9   -0.70    0.95
  -3   0  -9   -0.60    0.84
  -3   0  -9    0.35    0.81
  -4   0  -9   37.81    2.38
  -4   0  -9   37.73    2.62
  -4   0  -9   36.73    2.49
  -5   0  -9   18.52    1.94
  -5   0  -9   17.17    1.93
  -5   0  -9   16.93    1.95
  -6   0  -9   95.10    4.43
  -6   0  -9   96.18    4.36
  -7   0  -9    3.48    1.45
  -7   0  -9    3.93    1.49
  -7   0  -9    2.88    1.57
  -8   0  -9   16.49    2.26
  -8   0  -9   25.75    2.72
  -9   0  -9    0.41    1.56
 -13   1   9    1.93    2.33
 -13  -1   9    0.61    2.19
 -12   1   9    1.46    2.08
 -12  -1   9   -0.67    1.95
  11  -1  -9    3.08    1.61
 -11  -1   9    3.28    2.05
 -11   1   9    3.60    2.03
  10  -1  -9   12.62    1.96
 -10   1   9    9.93    2.17
  10  -1  -9    9.42    1.74
 -10  -1   9    9.97    2.30
 -10  -1   9   11.52    2.05
   9   1  -9    1.47    1.09
  -9  -1   9    1.81    1.38
  -9  -1   9    2.10    1.79
  -9   1   9    2.73    1.70
   9  -1  -9    2.20    1.18
   9   1  -9    1.99    1.23
   9  -1  -9    2.83    1.43
   8  -1  -9   38.47    2.90
   8   1  -9   41.45    2.66
  -8  -1   9   41.82    3.16
   8  -1  -9   46.23    2.63
  -8   1   9   42.37    3.05
   8   1  -9   42.92    2.88
   8  -1  -9   41.68    2.72
  -8  -1   9   40.97    2.81
   8   1  -9   42.12    2.85
   7  -1  -9   87.85    4.11
   7  -1  -9   84.55    3.58
   7   1  -9   72.87    3.81
  -7  -1   9   81.69    3.82
   7   1  -9   83.57    3.87
  -7   1   9   84.54    3.89
   7   1  -9   80.05    3.67
  -7  -1   9   81.12    4.19
   7  -1  -9   79.92    3.78
   6  -1  -9   75.39    3.30
   6   1  -9   76.79    3.69
   6  -1  -9   80.62    3.93
   6   1  -9   77.00    3.45
   6  -1  -9   72.72    3.49
   6   1  -9   83.65    3.80
  -6  -1   9   77.35    3.60
  -6   1   9   76.28    3.47
  -6   1   9   80.33    3.81
  -6  -1   9   73.76    3.83
   5  -1  -9    1.29    1.13
   5   1  -9    3.83    1.23
   5  -1  -9    1.61    0.83
   5   1  -9    2.23    1.05
  -5  -1   9    3.27    1.41
   5   1  -9    0.98    0.86
  -5  -1   9    3.72    1.22
   5  -1  -9    3.31    1.11
  -5   1   9    2.56    1.28
  -5   1   9    2.93    1.13
  -4  -1   9  137.74    5.12
   4  -1  -9  134.17    4.86
   4   1  -9  136.43    5.05
  -4  -1   9  129.26    4.82
  -4   1   9  135.90    4.51
   4   1  -9  127.96    4.68
   4  -1  -9  134.67    4.60
   4  -1  -9  123.95    5.04
   4   1  -9  133.37    5.09
  -3  -1   9   31.95    2.25
   3   1  -9   34.67    2.38
   3   1  -9   30.11    2.11
   3  -1  -9   27.70    2.22
   3   1  -9   33.26    1.98
  -3  -1   9   29.34    2.05
   3  -1  -9   33.33    2.06
   3  -1  -9   29.22    1.85
   2   1  -9   65.59    3.19
   2   1  -9   67.82    3.35
   2  -1  -9   64.79    2.98
   2  -1  -9   69.84    3.37
  -2  -1   9   68.12    3.09
   2   1  -9   69.34    2.97
   2  -1  -9   64.88    2.83
   1   1  -9   92.38    3.64
   1  -1  -9   92.77    3.77
  -1  -1   9   93.57    3.76
   1  -1  -9   93.36    3.99
   1  -1  -9   92.43    3.52
   1   1  -9   96.34    4.12
   1   1  -9   94.17    3.91
   0  -1   9  273.58    8.50
   0   1  -9  268.67    8.47
   0  -1  -9  279.51    8.60
   0   1  -9  265.81    8.08
   0  -1  -9  272.52    8.35
   0   1  -9  267.11    8.66
  -1  -1  -9  135.14    5.13
  -1   1  -9  137.22    5.08
   1  -1   9  138.29    5.09
  -1  -1  -9  133.12    4.90
  -1   1  -9  141.55    4.87
  -1   1  -9  137.28    5.30
  -2   1  -9   41.51    2.50
  -2  -1  -9   37.48    2.58
  -2  -1  -9   39.58    2.34
  -2   1  -9   43.17    2.83
  -3   1  -9   83.67    3.81
  -3  -1  -9   84.99    3.74
  -3  -1  -9   92.52    3.91
  -3   1  -9   91.30    4.13
  -3   1  -9   86.74    3.91
  -4   1  -9   77.27    3.84
  -4   1  -9   81.95    3.82
  -4  -1  -9   75.67    3.58
  -4   1  -9   78.37    3.76
  -4  -1  -9   79.25    3.62
  -5   1  -9   82.06    3.98
  -5  -1  -9   77.07    3.76
  -5   1  -9   82.55    4.03
  -5  -1  -9   76.82    3.68
  -5   1  -9   78.55    3.92
  -6   1  -9   24.87    2.38
  -6  -1  -9   22.35    2.13
  -6  -1  -9   24.08    2.23
  -6   1  -9   24.23    2.48
  -7  -1  -9    2.60    1.24
  -7   1  -9    1.78    1.55
  -7   1  -9    3.09    1.45
  -8   1  -9   16.18    2.46
  -8  -1  -9   11.35    1.95
  -8   1  -9   14.65    2.08
  -9   1  -9   -1.97    1.75
 -10   1  -9    7.03    2.59
 -11   1  -9    6.17    2.72
  12  -2  -9    1.07    1.69
 -12  -2   9    2.03    2.45
  11  -2  -9    2.74    1.83
 -11  -2   9    1.81    2.21
 -10  -2   9   12.08    2.64
  10  -2  -9   15.38    2.31
   9  -2  -9    0.87    1.14
   9  -2  -9    0.78    1.43
  -9  -2   9    1.37    1.86
  -9  -2   9    1.04    1.40
  -8  -2   9   52.05    3.59
  -8  -2   9   51.61    3.12
   8   2  -9   50.26    3.02
   8  -2  -9   50.23    2.94
   8  -2  -9   45.79    3.35
   7  -2  -9  157.23    6.19
   7   2  -9  148.96    5.69
  -7  -2   9  146.25    6.24
  -7  -2   9  161.58    5.75
   7  -2  -9  148.86    5.21
   7  -2  -9  147.73    5.53
   6  -2  -9   38.50    2.37
  -6  -2   9   39.02    2.46
   6  -2  -9   34.83    2.80
  -6  -2   9   36.47    3.09
   6   2  -9   41.03    2.77
   6  -2  -9   37.52    2.19
   5   2  -9   34.34    2.55
   5  -2  -9   27.68    1.89
   5  -2  -9   29.79    2.06
  -5  -2   9   27.74    2.66
   5  -2  -9   32.49    2.59
  -5  -2   9   31.08    2.20
  -4  -2   9  115.05    4.96
   4  -2  -9  115.52    4.85
   4   2  -9  111.89    4.69
   4  -2  -9  116.36    4.32
  -4  -2   9  115.75    4.36
   4  -2  -9  120.56    4.11
   3  -2  -9   87.18    3.21
   3   2  -9   80.99    3.84
  -3  -2   9   79.70    3.94
   3   2  -9   83.15    3.48
  -3  -2   9   81.32    3.45
   3  -2  -9   86.64    3.42
   3  -2  -9   79.32    3.87
  -2  -2   9  145.28    5.14
   2   2  -9  154.59    5.69
   2   2  -9  150.39    5.15
  -2  -2   9  151.78    5.70
   2  -2  -9  151.94    5.62
   2  -2  -9  153.23    5.14
   1  -2  -9    9.39    1.48
  -1  -2   9    7.84    1.57
   1   2  -9    9.01    1.51
   1  -2  -9    9.26    1.27
   1   2  -9   10.03    1.33
   0   2  -9   35.45    2.27
   0  -2  -9   34.88    2.15
   0  -2   9   38.64    2.66
   0   2  -9   41.83    2.75
   0  -2  -9   39.32    2.51
  -1  -2  -9  787.49   21.07
   1  -2   9  774.72   22.25
  -1   2  -9  762.39   21.63
  -1  -2  -9  769.01   21.27
  -1   2  -9  783.44   20.67
  -1   2  -9  792.85   22.22
  -2   2  -9   74.22    3.98
  -2  -2  -9   81.97    3.44
   2  -2   9   82.24    4.21
  -2   2  -9   84.66    4.10
  -2  -2  -9   77.07    3.61
  -3  -2  -9   -0.39    0.90
  -3  -2  -9    1.20    1.06
  -3   2  -9   -1.12    1.12
  -3   2  -9   -1.53    1.14
  -4  -2  -9   16.58    1.75
  -4   2  -9   16.28    2.07
  -4   2  -9   20.20    2.28
  -4  -2  -9   16.89    1.74
  -5   2  -9   35.84    2.90
  -5  -2  -9   31.86    2.34
  -5   2  -9   28.37    2.66
  -6  -2  -9    7.34    1.52
  -6   2  -9    7.60    1.76
  -6   2  -9    8.57    1.94
  -7   2  -9   -0.72    1.29
  -7  -2  -9    0.04    1.09
  -7   2  -9   -0.83    1.46
  -8   2  -9    0.56    1.77
  -8   2  -9    3.49    1.59
  -9   2  -9    3.30    2.17
  -9   2  -9    6.71    1.92
 -10   2  -9   35.62    3.84
 -11   2  -9    2.68    2.45
 -12  -3   9    3.16    2.64
  12  -3  -9    1.37    1.88
 -11  -3   9    0.33    2.34
  11  -3  -9    4.77    1.95
 -10  -3   9   -2.72    2.09
  10  -3  -9   -1.92    1.51
   9  -3  -9   11.48    2.30
  -9  -3   9    9.35    2.56
  -8  -3   9   52.11    3.11
  -8  -3   9   51.78    3.95
   8  -3  -9   55.24    3.70
   8  -3  -9   45.76    2.68
   7  -3  -9   11.21    1.43
  -7  -3   9   10.90    2.47
  -7  -3   9   10.64    1.71
   7  -3  -9   11.33    2.07
   6  -3  -9   34.09    2.06
  -6  -3   9   33.48    2.33
   6  -3  -9   42.62    3.18
   6   3  -9   37.07    2.73
  -6  -3   9   34.80    3.29
   5   3  -9   32.67    2.63
   5  -3  -9   33.57    1.94
   5  -3  -9   30.68    2.80
  -5  -3   9   38.16    3.15
  -5  -3   9   35.10    2.30
   4  -3  -9   33.96    1.93
  -4  -3   9   37.90    3.11
   4   3  -9   37.45    2.68
   4  -3  -9   38.10    2.88
  -4  -3   9   37.94    2.28
  -3  -3   9  189.77    5.90
   3  -3  -9  175.92    6.60
   3   3  -9  178.94    6.52
   3  -3  -9  181.74    5.61
  -3  -3   9  172.68    6.86
   2  -3  -9   50.75    2.26
   2  -3  -9   54.75    3.12
   2   3  -9   53.67    3.16
  -2  -3   9   44.57    3.21
  -2  -3   9   47.32    2.39
  -1  -3   9   14.62    1.49
   1   3  -9   14.01    1.93
   1  -3  -9   15.64    1.87
   1  -3  -9   15.69    1.36
  -1  -3   9   14.23    2.18
   0  -3   9   54.96    2.61
   0  -3   9   58.42    3.54
   0  -3  -9   59.09    3.15
   0  -3  -9   56.47    2.49
   0   3  -9   57.39    3.36
  -1   3  -9  168.86    6.59
   1  -3   9  169.34    6.81
  -1  -3  -9  180.19    6.27
  -1   3  -9  189.86    6.91
  -1  -3  -9  182.92    5.62
  -2  -3  -9   63.92    2.81
   2  -3   9   74.03    4.14
  -2   3  -9   76.09    4.03
  -2   3  -9   73.45    4.06
  -2  -3  -9   70.48    3.39
  -3   3  -9   15.44    2.20
  -3   3  -9   14.45    2.11
  -3  -3  -9   15.33    1.68
  -3  -3  -9   14.12    1.41
  -4  -3  -9   60.51    2.84
  -4   3  -9   62.04    3.83
  -4   3  -9   66.57    3.98
  -5  -3  -9    4.84    1.17
  -5   3  -9    5.53    1.82
  -5   3  -9    4.30    1.76
  -6   3  -9    6.68    2.03
  -6  -3  -9    6.85    1.31
  -6   3  -9    4.81    1.75
  -7   3  -9    4.93    2.04
  -7   3  -9    4.62    1.76
  -8   3  -9   -0.12    1.54
  -8   3  -9    2.22    1.95
  -9   3  -9   -1.27    2.02
  -9   3  -9    0.56    1.68
 -10   3  -9    0.26    2.29
 -10   3  -9   -1.04    1.80
  12  -4  -9    1.44    2.09
 -11  -4   9    0.47    2.63
  11  -4  -9    1.26    1.91
 -10  -4   9    0.03    2.56
  10  -4  -9    1.01    1.89
   9  -4  -9   13.20    2.46
  -9  -4   9   14.17    3.17
  -8  -4   9    6.37    2.46
   8  -4  -9    6.35    2.04
   7  -4  -9   12.13    2.27
  -7  -4   9    6.66    2.48
  -7  -4   9    5.75    1.30
   6  -4  -9   26.61    2.81
  -6  -4   9   22.17    3.07
  -6  -4   9   19.67    1.66
  -5  -4   9   -0.91    0.83
  -5  -4   9    0.75    1.94
   5  -4  -9    1.28    1.35
   5   4  -9    1.40    1.33
   4   4  -9   42.14    2.99
   4  -4  -9   40.62    3.13
  -4  -4   9   44.44    3.52
  -4  -4   9   45.14    1.91
   3  -4  -9    4.13    1.59
  -3  -4   9    1.74    1.89
   3   4  -9    3.17    1.47
  -2  -4   9   91.11    4.85
   2  -4  -9   92.17    4.49
   2   4  -9   86.59    4.33
   1  -4  -9   10.22    1.79
  -1  -4   9    9.09    2.15
   1   4  -9    7.78    1.69
   0  -4   9   60.80    4.20
   0  -4  -9   74.72    3.69
   0   4  -9   67.84    3.87
   1  -4   9    3.82    1.97
  -1   4  -9    4.95    1.71
  -1  -4  -9    4.87    1.48
  -1   4  -9    5.30    1.85
  -2  -4  -9   21.31    2.06
   2  -4   9   23.37    2.91
  -2   4  -9   18.24    2.52
  -2   4  -9   20.21    2.47
  -3   4  -9    1.18    1.51
   3  -4   9    5.31    0.86
  -3   4  -9    5.30    1.88
   3  -4   9    1.92    1.94
  -4   4  -9   19.41    2.62
  -4   4  -9   23.57    2.84
  -5   4  -9    2.32    1.69
  -5   4  -9    2.10    1.70
  -5  -4  -9   -0.63    0.61
  -6   4  -9    1.08    1.66
  -6  -4  -9    0.37    0.71
  -6   4  -9   -0.32    1.56
  -7   4  -9   19.75    2.89
  -7   4  -9   25.01    3.18
  -8   4  -9   26.45    3.60
  -8   4  -9   26.52    3.29
  -9   4  -9    4.69    2.68
  -9   4  -9    7.70    2.43
 -10   4  -9   11.64    2.73
  10  -5  -9    5.70    2.40
   9  -5  -9    2.08    2.03
  -9  -5   9    2.48    2.84
  -8  -5   9    5.27    2.90
   8  -5  -9   10.19    2.55
  -7  -5   9   14.87    3.32
   7  -5  -9   20.46    2.88
   6  -5  -9    7.32    2.14
  -6  -5   9   10.50    2.88
  -5  -5   9   10.76    2.71
   5  -5  -9   10.02    2.23
  -4  -5   9   14.91    2.92
   4  -5  -9   12.78    2.29
   4   5  -9    9.01    1.90
  -3  -5   9    7.74    2.47
   3   5  -9    7.19    1.81
   3  -5  -9    9.56    2.00
   2  -5  -9    4.90    1.78
   2   5  -9    6.14    1.72
  -2  -5   9    2.99    2.21
   1   5  -9    5.92    1.73
  -1  -5   9   -0.66    1.93
   1  -5  -9    3.11    1.59
   0   5  -9   15.05    2.30
   0  -5  -9   14.22    2.11
   0  -5   9   21.09    3.03
   0   5  -9   14.18    2.39
   1  -5   9   23.24    3.13
  -1  -5  -9   19.61    2.24
  -1   5  -9   19.70    2.67
  -1   5  -9   16.84    2.51
  -2   5  -9   20.42    2.80
  -2   5  -9   18.50    2.54
   2  -5   9   14.61    2.84
  -3   5  -9   19.68    2.87
   3  -5   9   16.73    3.08
  -3   5  -9   22.41    2.79
  -4   5  -9    4.16    2.05
  -4   5  -9    6.54    2.09
  -5   5  -9    1.01    1.77
  -5   5  -9    1.54    1.83
  -6   5  -9    9.63    2.52
  -6   5  -9    8.57    2.67
  -7   5  -9    3.91    2.20
  -7   5  -9   -0.68    2.07
  -8   5  -9    5.05    2.37
   8  -6  -9    1.89    2.19
   7  -6  -9   15.59    2.89
  -7  -6   9   15.52    3.58
   6  -6  -9   -0.95    1.89
  -6  -6   9   -0.41    2.61
   5  -6  -9    3.89    2.21
  -5  -6   9    4.41    2.79
   4  -6  -9   -0.22    1.80
  -4  -6   9   -1.31    2.35
  -3  -6   9   13.17    3.08
   3  -6  -9   11.26    2.43
  -2  -6   9   -1.42    2.07
   2  -6  -9   -0.86    1.61
   2   6  -9    0.75    1.60
  -1  -6   9    1.45    2.42
   1  -6  -9    4.70    1.90
   1   6  -9    6.44    1.97
   0   6  -9    5.56    1.92
   0   6  -9    1.61    1.93
   0  -6   9    1.38    2.34
  -1   6  -9    5.72    2.02
  -1   6  -9    3.59    2.15
   1  -6   9    5.64    2.73
   2  -6   9    0.15    2.49
  -2   6  -9    2.99    1.85
  -2   6  -9    3.24    2.14
  -3   6  -9   -0.13    1.81
  -3   6  -9    1.31    1.84
   3  -6   9    1.45    2.56
  -4   6  -9    2.80    2.20
  -4   6  -9    4.16    2.20
  -5   6  -9   12.37    3.08
  -5   6  -9    8.36    2.57
  -6   6  -9    2.02    2.11
   5  -7  -9    0.62    1.96
   4  -7  -9    3.39    2.17
   3  -7  -9    2.41    2.05
  -2  -7   9   14.48    3.48
   2  -7  -9    9.64    2.51
  -1  -7   9    4.42    2.93
   1   7  -9    4.75    2.30
   1   7  -9    3.70    2.14
   0   7  -9    5.28    2.50
   0  -7   9   10.96    3.29
   0   7  -9    8.72    2.37
  -1   7  -9    2.66    2.09
  -2   7  -9    2.59    1.94
  -3   7  -9    1.52    2.00
 -13   0  10   -1.82    2.19
 -12   0  10   -0.14    2.05
 -11   0  10   15.32    2.70
 -10   0  10    5.85    2.07
  10   0 -10    5.10    1.63
  10   0 -10    6.11    1.70
  -9   0  10    2.22    1.71
   9   0 -10    2.20    1.27
  -9   0  10    1.70    1.44
   9   0 -10    3.41    1.46
  -8   0  10   -0.09    1.22
   8   0 -10   -0.05    1.08
   8   0 -10    1.02    1.25
   8   0 -10    1.03    0.92
  -8   0  10   -0.31    1.48
  -7   0  10   20.38    2.25
   7   0 -10   19.02    2.02
   7   0 -10   18.00    1.78
   7   0 -10   18.39    2.15
  -7   0  10   17.35    2.04
  -6   0  10   26.58    2.37
   6   0 -10   28.50    2.29
  -6   0  10   29.54    2.45
   6   0 -10   33.31    2.57
   6   0 -10   33.68    2.23
   5   0 -10   18.06    1.69
  -5   0  10   17.91    1.93
  -5   0  10   17.53    1.93
   5   0 -10   18.06    1.90
   5   0 -10   21.06    2.16
  -4   0  10  169.43    5.78
   4   0 -10  166.26    5.66
   4   0 -10  162.24    6.15
   4   0 -10  164.15    5.97
   3   0 -10  192.76    6.76
   3   0 -10  186.27    6.15
  -3   0  10  186.16    6.17
   3   0 -10  192.28    6.54
  -2   0  10   87.53    3.35
   2   0 -10   85.19    3.96
   2   0 -10   79.80    3.46
   2   0 -10   79.43    3.70
   1   0 -10   14.02    1.80
  -1   0  10   14.72    1.45
   1   0 -10   13.29    1.72
   1   0 -10   10.22    1.43
   0   0 -10  800.19   22.72
   0   0 -10  852.65   22.69
   0   0  10  833.55   22.73
   0   0 -10  824.72   21.75
   0   0 -10  807.94   22.60
  -1   0 -10    4.56    1.19
  -1   0 -10    3.92    1.26
  -1   0 -10    4.31    1.44
  -2   0 -10    2.71    1.14
  -2   0 -10    0.32    1.33
  -3   0 -10   11.50    1.85
  -3   0 -10   11.07    1.62
  -4   0 -10   50.89    3.21
  -4   0 -10   56.12    3.13
  -5   0 -10   95.46    4.52
  -5   0 -10   94.44    4.47
  -6   0 -10   37.45    2.83
  -6   0 -10   40.08    3.01
  -7   0 -10    3.46    1.55
  -7   0 -10    2.14    1.49
  -8   0 -10    0.10    1.48
 -13  -1  10    0.14    2.44
 -12  -1  10    1.72    2.36
 -11  -1  10    2.52    2.14
  11  -1 -10    2.43    1.66
 -10  -1  10   11.96    2.54
  10  -1 -10   21.23    2.50
  10  -1 -10   16.87    2.18
 -10  -1  10   19.01    2.42
  -9  -1  10    6.00    1.67
   9  -1 -10    3.92    1.64
  -9  -1  10    5.97    2.00
   9   1 -10    6.19    1.44
   9  -1 -10    5.48    1.49
   9   1 -10    4.74    1.48
  -8  -1  10   33.92    2.61
   8   1 -10   34.94    2.54
  -8  -1  10   35.37    2.95
   8   1 -10   39.16    2.82
   8  -1 -10   32.52    2.53
   8  -1 -10   34.88    2.84
   7  -1 -10    3.73    1.08
   7   1 -10    2.56    1.36
   7  -1 -10    2.89    1.46
  -7  -1  10    6.13    1.84
   7   1 -10    2.81    1.18
   7  -1 -10    3.12    1.24
   7   1 -10    3.57    1.12
  -7  -1  10    5.18    1.52
  -6  -1  10    6.90    1.73
   6  -1 -10    5.98    1.20
   6  -1 -10    4.95    1.33
  -6  -1  10    1.33    1.26
   6   1 -10    5.89    1.46
   6  -1 -10    5.15    1.51
   6   1 -10    6.48    1.46
   6   1 -10    3.99    1.15
   5   1 -10  150.07    5.54
   5   1 -10  166.56    6.06
   5   1 -10  160.62    6.02
   5  -1 -10  153.58    5.42
  -5  -1  10  158.79    6.01
  -5  -1  10  162.08    5.83
  -5   1  10  158.93    6.03
   5  -1 -10  149.53    5.70
   5  -1 -10  165.88    6.16
   4  -1 -10   58.28    3.33
  -4  -1  10   56.10    3.17
   4   1 -10   65.89    3.41
   4   1 -10   58.28    2.87
   4  -1 -10   60.96    2.86
   4   1 -10   58.33    3.15
  -4  -1  10   54.29    2.97
   4  -1 -10   57.57    2.98
   3   1 -10   38.12    2.72
   3  -1 -10   38.00    2.63
   3  -1 -10   36.32    2.35
   3   1 -10   37.96    2.53
  -3  -1  10   40.45    2.56
   3  -1 -10   39.92    2.25
   3   1 -10   36.22    2.31
  -3  -1  10   37.89    2.45
   2   1 -10   60.88    3.20
   2  -1 -10   62.97    2.84
   2   1 -10   56.51    2.85
  -2  -1  10   59.55    2.99
   2  -1 -10   58.98    2.95
   2  -1 -10   53.66    3.18
   2   1 -10   62.72    3.37
  -1  -1  10  110.91    4.21
   1   1 -10   99.77    4.30
   1  -1 -10   94.36    4.30
   1   1 -10  103.64    4.06
   1  -1 -10  100.66    4.18
   1   1 -10  111.51    4.64
   1  -1 -10  102.23    3.92
   0   1 -10   50.20    3.27
   0   1 -10   43.00    2.62
   0  -1 -10   43.67    2.66
   0  -1 -10   47.90    2.99
   0   1 -10   44.05    2.80
   0  -1  10   53.09    2.88
   0   1 -10   46.33    2.71
  -1   1 -10  735.19   20.68
  -1  -1 -10  731.79   20.38
  -1  -1 -10  720.55   20.21
  -1   1 -10  732.03   20.61
  -1   1 -10  712.69   20.37
   1  -1  10  745.45   20.80
  -1   1 -10  738.26   19.63
  -2  -1 -10   29.10    2.54
  -2  -1 -10   33.61    2.24
  -2   1 -10   35.42    2.44
  -2   1 -10   29.07    2.57
  -2   1 -10   20.63    2.04
  -3   1 -10   53.72    3.39
  -3  -1 -10   62.64    3.16
  -3  -1 -10   59.42    3.30
  -3   1 -10   59.03    3.28
  -4   1 -10    5.65    1.56
  -4  -1 -10    0.48    1.09
  -4   1 -10    2.90    1.33
  -4  -1 -10    2.82    1.32
  -4   1 -10    1.09    1.24
  -5   1 -10   68.38    3.71
  -5   1 -10   60.65    3.67
  -5  -1 -10   61.92    3.41
  -5  -1 -10   67.76    3.59
  -6   1 -10   18.23    2.31
  -6  -1 -10   22.10    2.24
  -6   1 -10   23.49    2.54
  -6  -1 -10   16.38    2.02
  -7   1 -10   17.30    2.41
  -7   1 -10   13.67    2.14
  -7  -1 -10   13.16    2.02
  -8   1 -10   30.02    3.07
  -8   1 -10   28.22    2.80
  -9   1 -10    3.62    2.12
  12  -2 -10    2.02    1.84
 -12  -2  10   -2.41    2.28
 -11  -2  10    4.27    2.40
  11  -2 -10    4.13    2.00
 -10  -2  10    3.36    2.22
  10  -2 -10    3.58    1.85
  -9  -2  10   -0.48    1.91
  -9  -2  10    5.74    1.67
   9  -2 -10    1.28    1.63
   8  -2 -10   16.96    1.93
  -8  -2  10   18.69    2.17
   8  -2 -10   15.85    2.37
  -8  -2  10   18.77    2.67
   8   2 -10   17.83    2.06
  -7  -2  10   15.01    1.99
  -7  -2  10   18.17    2.55
   7  -2 -10   15.71    2.27
   7  -2 -10   15.65    1.81
   7   2 -10   15.23    1.99
  -6  -2  10   54.12    3.68
   6  -2 -10   55.34    2.96
  -6  -2  10   54.41    3.09
   6  -2 -10   56.17    3.51
   6   2 -10   58.84    3.32
   6  -2 -10   60.02    2.87
   5  -2 -10    1.50    1.25
  -5  -2  10    2.01    1.69
   5  -2 -10    2.30    0.93
   5  -2 -10    4.81    1.20
  -5  -2  10    4.05    1.33
   5   2 -10    4.43    1.51
   4   2 -10   13.92    1.97
   4  -2 -10   16.25    1.99
  -4  -2  10   15.24    1.74
   4  -2 -10   15.67    1.60
   4  -2 -10   12.75    1.39
  -4  -2  10   14.90    2.16
  -3  -2  10   26.82    2.47
   3  -2 -10   21.35    1.83
  -3  -2  10   27.63    2.06
   3  -2 -10   26.10    1.81
   3   2 -10   24.69    2.33
   3  -2 -10   23.45    2.22
  -2  -2  10   10.44    1.51
   2   2 -10   11.78    1.76
   2  -2 -10   14.01    1.79
   2  -2 -10   10.46    1.46
  -2  -2  10   12.87    1.90
  -1  -2  10   35.72    2.61
   1  -2 -10   35.35    2.55
   1  -2 -10   31.44    2.16
   1   2 -10   35.39    2.67
   0  -2  10  242.15    8.37
   0   2 -10  253.80    8.36
   0  -2 -10  245.07    7.76
   0   2 -10  247.50    8.41
   0  -2 -10  247.08    8.16
  -1  -2 -10   76.75    3.48
   1  -2  10   78.89    4.09
  -1  -2 -10   81.24    3.81
  -1   2 -10   85.68    4.09
  -1   2 -10   77.04    4.19
  -2  -2 -10  212.22    7.15
  -2  -2 -10  203.62    6.87
  -2   2 -10  222.73    7.57
   2  -2  10  211.44    7.59
  -2   2 -10  190.73    7.43
  -3  -2 -10   44.32    2.79
  -3   2 -10   43.96    3.10
  -3  -2 -10   42.64    2.58
  -3   2 -10   42.19    3.03
  -4   2 -10   39.55    3.02
  -4  -2 -10   39.11    2.50
  -4   2 -10   38.39    2.99
  -4  -2 -10   38.90    2.64
  -5  -2 -10   63.11    3.30
  -5   2 -10   55.65    3.65
  -5   2 -10   65.98    3.90
  -6   2 -10    5.17    1.68
  -6  -2 -10    4.30    1.41
  -6   2 -10    5.81    1.81
  -7   2 -10    2.34    1.75
  -7   2 -10    1.80    1.59
  -8   2 -10   11.70    2.18
  -8   2 -10   15.66    2.71
  -9   2 -10    2.42    1.81
  -9   2 -10   -0.65    1.99
 -10   2 -10    0.81    2.37
  12  -3 -10    3.34    2.00
  11  -3 -10    1.57    1.92
 -11  -3  10    1.85    2.56
  10  -3 -10    1.05    1.87
 -10  -3  10    4.18    2.51
   9  -3 -10    9.64    2.28
  -9  -3  10   10.07    2.62
  -8  -3  10    9.43    2.48
   8  -3 -10   11.48    2.19
   7  -3 -10   51.47    2.79
  -7  -3  10   58.93    3.21
   7   3 -10   59.94    3.50
   7  -3 -10   60.20    3.89
  -7  -3  10   53.19    4.03
  -6  -3  10   25.90    2.17
   6  -3 -10   27.75    1.93
  -6  -3  10   25.90    3.02
   6  -3 -10   25.23    2.72
   6   3 -10   29.11    2.63
  -5  -3  10   60.03    4.05
   5  -3 -10   61.94    2.83
   5  -3 -10   64.35    3.83
   5   3 -10   59.24    3.51
  -5  -3  10   64.85    3.13
   4  -3 -10   30.40    1.88
  -4  -3  10   29.48    2.98
   4   3 -10   30.79    2.64
   4  -3 -10   28.90    2.69
  -4  -3  10   33.78    2.20
  -3  -3  10   17.95    1.76
   3  -3 -10   19.35    2.20
  -3  -3  10   18.48    2.45
   3  -3 -10   16.17    1.48
   3   3 -10   16.41    2.13
  -2  -3  10   72.39    4.05
  -2  -3  10   74.50    3.19
   2   3 -10   73.38    3.89
   2  -3 -10   69.58    3.77
   2  -3 -10   69.44    2.94
  -1  -3  10   12.27    1.50
   1  -3 -10   12.12    1.30
   1  -3 -10   12.18    1.79
  -1  -3  10   10.81    2.12
   1   3 -10   10.58    1.89
   0   3 -10   46.92    3.22
   0  -3  10   49.46    3.43
   0  -3 -10   42.93    2.87
   0   3 -10   50.42    3.37
   0  -3 -10   42.75    2.28
   0  -3  10   47.62    2.51
  -1   3 -10   49.65    3.35
  -1   3 -10   48.01    3.33
   1  -3  10   47.07    3.48
  -1  -3 -10   48.22    2.95
  -1  -3 -10   45.48    2.37
  -2  -3 -10  140.70    4.94
   2  -3  10  147.20    6.31
  -2   3 -10  156.26    6.29
  -2   3 -10  136.19    5.95
  -2  -3 -10  149.98    5.55
  -3   3 -10   23.72    2.60
  -3  -3 -10   24.16    2.19
  -3   3 -10   26.36    2.85
  -3  -3 -10   23.51    1.81
  -4  -3 -10   42.75    2.44
  -4   3 -10   40.31    3.27
  -4   3 -10   48.66    3.59
  -5  -3 -10    3.02    1.09
  -5   3 -10   -0.25    1.51
  -5   3 -10    3.12    1.73
  -6   3 -10    4.57    1.84
  -6   3 -10    5.03    2.06
  -7   3 -10    5.10    2.05
  -7   3 -10    7.16    2.26
  -8   3 -10    1.10    1.98
  -8   3 -10   -2.26    1.59
  -9   3 -10   13.61    3.03
  -9   3 -10   11.91    2.54
 -10   3 -10   10.17    2.67
  11  -4 -10    2.36    2.25
 -10  -4  10   11.26    3.27
  10  -4 -10    9.67    2.51
   9  -4 -10   15.43    2.81
  -9  -4  10   10.84    3.19
  -8  -4  10    6.23    2.72
   8  -4 -10    6.63    2.23
   7  -4 -10    2.53    1.82
  -7  -4  10    3.14    2.38
  -6  -4  10    4.48    2.31
   6  -4 -10    4.43    1.84
  -6  -4  10    3.90    1.21
  -5  -4  10    9.10    1.27
  -5  -4  10    9.37    2.47
   5  -4 -10    7.92    1.95
   5   4 -10    8.02    1.82
   4  -4 -10   16.43    2.33
   4   4 -10   16.16    2.17
  -4  -4  10   18.55    2.82
  -4  -4  10   16.99    1.52
  -3  -4  10   35.89    3.31
   3  -4 -10   32.47    2.92
   3   4 -10   35.48    2.90
  -2  -4  10   39.66    3.39
   2   4 -10   37.90    3.02
   2  -4 -10   38.54    2.98
   1  -4 -10    7.25    1.70
   1   4 -10    9.40    1.90
  -1  -4  10   10.84    2.28
  -1  -4  10    7.31    0.98
   0  -4 -10    1.49    1.24
   0   4 -10    0.92    1.44
   0  -4  10    0.31    0.70
   0  -4  10   -2.08    1.58
   0   4 -10    0.07    1.39
  -1   4 -10    1.66    1.55
   1  -4  10    3.59    1.97
  -1   4 -10    4.07    1.74
   1  -4  10    3.46    0.83
  -1  -4 -10    1.05    1.23
  -2   4 -10    2.89    1.62
  -2   4 -10    2.49    1.68
   2  -4  10    1.78    0.88
  -2  -4 -10   -0.53    1.09
   2  -4  10    3.35    2.01
  -3   4 -10   11.80    2.38
  -3   4 -10    7.90    2.10
   3  -4  10   12.69    2.55
   3  -4  10    8.61    1.13
  -4   4 -10   -0.90    1.42
  -4   4 -10   -0.45    1.54
  -4  -4 -10    0.68    0.67
  -5   4 -10   10.50    2.36
  -5  -4 -10   10.88    1.13
  -5   4 -10   18.23    2.72
  -6   4 -10   12.22    2.66
  -6   4 -10   12.57    2.51
  -7   4 -10    9.67    2.60
  -7   4 -10   12.43    2.61
  -8   4 -10   10.57    2.88
  -8   4 -10    8.51    2.49
  -9   4 -10    1.44    2.18
  10  -5 -10   -0.44    2.01
   9  -5 -10    2.24    2.12
  -8  -5  10   11.97    3.34
   8  -5 -10   15.12    2.94
  -7  -5  10    9.23    3.07
   7  -5 -10   14.11    2.67
  -6  -5  10   -1.69    2.41
   6  -5 -10    1.12    1.76
  -5  -5  10   10.04    2.77
   5  -5 -10    8.95    2.23
   4  -5 -10    8.50    2.09
   4   5 -10    3.21    1.77
  -4  -5  10    2.92    2.35
   3  -5 -10    9.15    2.10
  -3  -5  10   12.29    2.66
   3   5 -10    8.43    1.97
   2   5 -10   -0.06    1.47
   2  -5 -10   -0.09    1.46
  -2  -5  10    1.24    1.98
  -1  -5  10    2.49    2.10
   1  -5 -10   -0.33    1.28
   1   5 -10    0.75    1.49
   0  -5  10    1.80    2.05
   0   5 -10    1.60    1.67
   0   5 -10    1.81    1.63
   0  -5 -10    0.68    1.37
  -1   5 -10    2.42    1.79
   1  -5  10   -0.10    2.07
  -1   5 -10    4.87    1.85
  -2   5 -10   23.01    2.95
  -2   5 -10   15.86    2.60
   2  -5  10   20.52    3.27
  -3   5 -10    5.29    2.08
   3  -5  10    2.36    2.46
  -3   5 -10    7.46    2.23
  -4   5 -10   -0.78    1.63
  -4   5 -10   -0.67    1.75
  -5   5 -10    7.88    2.58
  -5   5 -10   12.41    2.67
  -6   5 -10    1.80    2.10
  -6   5 -10    0.49    2.37
  -7   5 -10    5.31    2.26
   8  -6 -10    0.89    2.16
   7  -6 -10   -0.23    2.19
   6  -6 -10    7.62    2.69
  -6  -6  10    6.69    3.24
   5  -6 -10    2.39    2.12
  -5  -6  10   -2.07    2.49
  -4  -6  10    1.11    2.70
   4  -6 -10    2.87    2.08
  -3  -6  10   -2.92    2.28
   3  -6 -10    1.95    1.84
  -2  -6  10   -1.48    2.24
   2  -6 -10    0.24    1.59
   2   6 -10   -0.39    1.65
   1   6 -10   14.81    2.53
  -1  -6  10   13.07    3.12
   1  -6 -10   19.77    2.62
   1   6 -10   15.54    2.61
   0   6 -10    1.58    1.83
   0   6 -10    2.26    1.89
   0  -6  10   -0.29    2.32
  -1   6 -10   -1.48    1.80
  -1   6 -10    2.84    1.98
   1  -6  10   -0.16    2.44
  -2   6 -10    1.99    2.13
  -2   6 -10    6.28    2.22
   2  -6  10    6.01    3.04
  -3   6 -10   -1.15    2.04
  -3   6 -10   -0.41    1.96
  -4   6 -10    4.09    2.30
  -4   6 -10    4.20    2.41
  -5   6 -10   10.82    2.85
   4  -7 -10    3.12    2.18
   3  -7 -10    1.77    2.11
   1   7 -10    6.03    2.30
   0   7 -10    0.13    1.93
  -1   7 -10   -2.53    1.89
  -2   7 -10    1.40    2.12
 -12   0  11    0.37    2.23
 -11   0  11    0.41    2.07
 -10   0  11    7.54    2.32
  10   0 -11    5.43    1.87
  10   0 -11    5.45    1.73
  -9   0  11   -2.53    1.70
   9   0 -11   -1.55    1.10
   9   0 -11   -1.19    1.29
  -9   0  11   -2.56    1.35
   8   0 -11   -1.41    1.13
  -8   0  11   -1.03    1.49
   8   0 -11    0.07    1.12
  -8   0  11    0.12    1.40
   7   0 -11    8.02    1.75
   7   0 -11   10.54    1.68
  -7   0  11   10.26    1.77
   7   0 -11    9.84    1.45
  -7   0  11   10.28    1.91
   6   0 -11   18.80    1.78
   6   0 -11   19.69    2.22
   6   0 -11   16.37    1.95
  -6   0  11   15.79    2.06
  -6   0  11   20.90    2.18
  -5   0  11   81.33    3.90
   5   0 -11   79.57    3.61
   5   0 -11   77.35    3.81
   5   0 -11   77.08    4.04
   4   0 -11   -0.05    0.87
   4   0 -11   -1.27    0.92
   4   0 -11    0.42    1.17
   3   0 -11  136.86    5.12
   3   0 -11  147.90    5.76
   3   0 -11  142.14    5.47
   2   0 -11   28.72    2.32
   2   0 -11   31.98    2.63
   2   0 -11   30.23    2.17
   1   0 -11  220.64    7.52
   1   0 -11  219.74    7.73
   1   0 -11  217.04    7.10
   0   0 -11   22.92    2.26
   0   0 -11   25.22    2.43
   0   0 -11   24.75    2.08
  -1   0 -11  384.24   11.83
  -1   0 -11  371.61   11.55
  -2   0 -11   31.71    2.71
  -2   0 -11   33.17    2.48
  -3   0 -11    6.36    1.54
  -3   0 -11    9.68    1.84
  -4   0 -11   94.36    4.44
  -5   0 -11   46.64    3.13
  -5   0 -11   47.70    3.38
  -6   0 -11    5.69    1.74
  -6   0 -11    4.50    1.63
  -7   0 -11    7.80    1.88
  -7   0 -11    5.66    1.85
 -12  -1  11   -2.85    2.27
 -11  -1  11    9.90    2.73
  11  -1 -11    8.12    2.10
 -10  -1  11    1.51    2.19
  10  -1 -11    2.90    1.87
   9   1 -11    1.43    1.40
  -9  -1  11    0.14    1.85
   9  -1 -11    3.25    1.65
  -9  -1  11    2.18    1.60
   9  -1 -11   -1.23    1.11
  -8  -1  11    2.49    1.80
   8   1 -11   -0.39    0.99
   8   1 -11    1.31    1.29
   8  -1 -11   -1.16    1.23
   8  -1 -11    0.29    1.10
  -8  -1  11   -0.26    1.28
   7   1 -11    1.43    1.02
   7   1 -11   -0.76    1.21
  -7  -1  11   -0.92    1.17
  -7  -1  11    0.35    1.53
   7  -1 -11    1.68    1.42
   7  -1 -11    1.27    1.20
   6   1 -11   12.95    1.62
   6  -1 -11   10.41    1.87
  -6  -1  11    9.91    1.72
   6  -1 -11   12.42    1.69
   6  -1 -11   12.32    1.53
  -6  -1  11   13.34    2.06
   6   1 -11   13.57    1.91
   5  -1 -11   47.95    3.21
  -5  -1  11   47.57    3.09
   5   1 -11   45.54    3.09
   5  -1 -11   49.46    2.72
   5  -1 -11   46.43    2.81
   5   1 -11   53.44    3.20
   5   1 -11   47.14    2.75
  -5  -1  11   50.58    2.99
   4   1 -11    5.99    1.28
   4   1 -11    6.45    1.60
   4  -1 -11    5.63    1.33
  -4  -1  11    6.54    1.69
   4  -1 -11    7.09    1.64
   4   1 -11    8.31    1.60
   4  -1 -11    7.96    1.30
  -4  -1  11    4.52    1.44
   3  -1 -11   56.05    3.37
   3   1 -11   58.79    3.26
   3   1 -11   55.17    2.99
  -3  -1  11   56.47    3.09
   3  -1 -11   52.50    3.00
   3  -1 -11   53.97    2.82
   3   1 -11   57.79    3.35
   2  -1 -11   13.16    1.55
   2   1 -11   15.92    2.06
   2  -1 -11   14.01    1.88
   2   1 -11    8.57    1.52
  -2  -1  11   13.48    1.78
   2  -1 -11   12.51    1.73
   2   1 -11   14.69    1.96
   1   1 -11  147.23    5.72
   1  -1 -11  142.00    5.71
  -1  -1  11  146.58    5.42
   1  -1 -11  148.43    5.53
   1   1 -11  150.06    5.89
   1   1 -11  143.48    5.37
   0   1 -11  402.55   11.95
   0  -1 -11  395.34   12.50
   0   1 -11  447.30   12.91
   0  -1 -11  398.42   12.28
   0  -1  11  413.25   12.48
   0   1 -11  426.32   12.43
   0   1 -11  402.53   12.48
  -1   1 -11   46.12    2.99
  -1  -1 -11   48.95    2.91
  -1  -1 -11   49.65    3.21
   1  -1  11   41.27    3.11
  -1   1 -11   45.91    3.39
  -1   1 -11   47.47    2.85
  -1   1 -11   49.83    3.05
  -2   1 -11   75.53    3.71
  -2  -1 -11   72.90    3.90
  -2   1 -11   73.82    3.81
  -2  -1 -11   77.73    3.68
  -2   1 -11   78.18    4.19
  -3   1 -11    8.71    1.83
  -3  -1 -11    7.33    1.65
  -3  -1 -11    9.52    1.57
  -3   1 -11    8.98    1.63
  -4   1 -11   16.14    2.17
  -4  -1 -11   18.27    2.19
  -4  -1 -11   19.34    2.11
  -5   1 -11   28.75    2.73
  -5  -1 -11   26.36    2.43
  -5  -1 -11   29.15    2.64
  -6  -1 -11    8.59    1.80
  -6   1 -11    7.50    1.89
  -7   1 -11    1.57    1.59
  -8   1 -11   -1.62    1.48
 -12  -2  11    2.05    2.54
  12  -2 -11    2.01    2.06
  11  -2 -11    7.34    2.26
 -11  -2  11    0.79    2.36
  10  -2 -11    4.50    1.87
 -10  -2  11    1.71    2.29
   9  -2 -11    4.87    1.97
  -9  -2  11    4.58    2.29
   8  -2 -11   16.75    1.96
  -8  -2  11   16.76    2.14
  -8  -2  11   15.04    2.73
   8  -2 -11   14.66    2.33
   8   2 -11   16.07    2.19
  -7  -2  11   51.03    3.12
   7   2 -11   49.39    3.27
  -7  -2  11   48.42    3.69
   7  -2 -11   49.07    2.94
   7  -2 -11   53.32    3.60
   6  -2 -11   25.91    2.15
  -6  -2  11   22.47    2.24
  -6  -2  11   28.67    2.94
   6   2 -11   26.19    2.54
   6  -2 -11   22.76    2.51
  -5  -2  11    2.61    1.30
   5  -2 -11    4.90    1.62
   5  -2 -11    2.05    1.05
  -5  -2  11    2.52    1.76
   5   2 -11    1.25    1.38
  -4  -2  11   47.25    2.85
   4  -2 -11   46.43    2.51
   4  -2 -11   46.31    3.10
   4  -2 -11   44.81    2.64
   4   2 -11   42.39    3.05
  -4  -2  11   44.83    3.20
   3  -2 -11    6.68    1.61
  -3  -2  11    6.21    1.79
  -3  -2  11    3.93    1.35
   3   2 -11    7.41    1.70
   3  -2 -11    6.28    1.33
  -2  -2  11   32.33    2.30
   2   2 -11   28.45    2.58
   2  -2 -11   26.86    2.47
  -2  -2  11   31.20    2.62
   2  -2 -11   25.76    2.09
   1   2 -11   78.36    4.11
   1  -2 -11   69.29    3.76
  -1  -2  11   74.94    3.84
   1  -2 -11   73.00    3.40
   0  -2 -11   41.81    2.91
   0  -2 -11   45.16    2.61
   0   2 -11   51.14    3.13
   0   2 -11   37.66    3.08
   0  -2  11   43.28    3.06
  -1  -2 -11  127.84    5.26
  -1  -2 -11  128.25    4.94
  -1   2 -11  121.60    5.49
   1  -2  11  126.33    5.42
  -1   2 -11  137.02    5.46
  -2   2 -11   45.93    3.49
  -2  -2 -11   59.14    3.07
  -2   2 -11   62.40    3.63
  -2  -2 -11   60.81    3.43
   2  -2  11   56.99    3.66
  -3   2 -11    2.08    1.44
  -3  -2 -11    3.00    1.25
  -3  -2 -11    2.78    1.36
  -3   2 -11    5.24    1.70
  -4  -2 -11   78.10    3.85
  -4   2 -11   84.73    4.53
  -4  -2 -11   83.43    4.06
  -4   2 -11   85.16    4.47
  -5   2 -11    1.83    1.65
  -5  -2 -11    3.69    1.30
  -5   2 -11    4.96    1.85
  -6   2 -11   13.37    2.39
  -6   2 -11    8.58    1.99
  -7   2 -11    6.22    2.24
  -7   2 -11   10.01    2.16
  -8   2 -11    1.44    1.99
  -8   2 -11    0.63    1.63
  -9   2 -11   16.28    3.17
  -9   2 -11   20.44    2.85
 -11  -3  11    0.84    2.53
  11  -3 -11    0.60    2.02
 -10  -3  11   16.93    3.21
  10  -3 -11   11.55    2.64
   9  -3 -11   15.22    2.67
  -9  -3  11   11.40    3.02
   8  -3 -11    6.49    2.02
  -8  -3  11    3.25    2.43
  -7  -3  11   17.68    2.90
   7   3 -11   15.08    2.21
   7  -3 -11   15.68    2.47
   6  -3 -11   13.59    1.56
   6   3 -11   19.97    2.33
  -6  -3  11   12.39    1.82
  -6  -3  11   14.25    2.71
   6  -3 -11   14.54    2.27
  -5  -3  11   12.46    2.48
  -5  -3  11   11.36    1.64
   5   3 -11    9.67    1.91
   5  -3 -11   10.02    1.98
   5  -3 -11    9.74    1.35
   4   3 -11   12.84    2.04
  -4  -3  11   12.87    2.35
   4  -3 -11   16.52    2.21
  -4  -3  11   12.76    1.66
   4  -3 -11   13.06    1.42
   3   3 -11    2.36    1.47
  -3  -3  11    1.55    1.70
   3  -3 -11    5.87    1.61
   3  -3 -11    0.54    0.92
  -3  -3  11    2.19    1.17
  -2  -3  11   -1.52    1.07
  -2  -3  11    2.97    1.78
   2  -3 -11    0.98    0.88
   2  -3 -11    1.97    1.32
   2   3 -11    1.41    1.39
   1   3 -11   25.12    2.57
  -1  -3  11   22.38    2.03
  -1  -3  11   31.12    2.90
   1  -3 -11   25.68    2.43
   1  -3 -11   20.10    1.76
   0  -3  11   89.74    3.80
   0  -3 -11   89.73    3.66
   0   3 -11   93.21    4.59
   0  -3 -11   89.21    4.29
   0  -3  11   95.44    4.74
   0   3 -11   90.70    4.70
  -1  -3 -11   59.18    3.39
   1  -3  11   58.98    3.87
  -1   3 -11   51.35    3.62
  -1  -3 -11   56.84    2.80
  -1   3 -11   59.47    3.82
  -2  -3 -11   52.39    3.19
  -2   3 -11   53.95    3.73
   2  -3  11   56.92    3.92
  -2   3 -11   53.65    3.71
  -2  -3 -11   54.29    2.74
  -3   3 -11    2.11    1.55
  -3  -3 -11    4.18    1.44
  -3   3 -11   -0.33    1.58
  -3  -3 -11    2.34    1.07
  -4  -3 -11   33.81    2.29
  -4   3 -11   37.37    3.24
  -4   3 -11   34.50    3.25
  -5   3 -11   19.45    2.51
  -5   3 -11   18.91    2.72
  -6   3 -11    3.63    1.79
  -6   3 -11    3.26    2.09
  -7   3 -11    8.05    2.45
  -7   3 -11    2.99    1.82
  -8   3 -11   14.52    2.68
  -8   3 -11   17.59    3.14
  -9   3 -11   17.98    3.40
  -9   3 -11   16.74    2.93
  10  -4 -11   -1.16    1.82
   9  -4 -11    5.53    2.38
  -9  -4  11   12.14    3.16
   8  -4 -11   14.81    2.71
  -8  -4  11   17.98    3.43
   7  -4 -11    7.11    2.17
  -7  -4  11    6.31    2.61
   6  -4 -11    0.60    1.57
  -6  -4  11    4.82    2.40
   5   4 -11    3.94    1.79
   5  -4 -11    6.68    2.02
  -5  -4  11    7.04    1.34
  -5  -4  11    6.92    2.39
  -4  -4  11   -1.41    1.98
   4   4 -11   -1.28    1.39
  -4  -4  11    0.21    0.95
   4  -4 -11    1.38    1.60
   3  -4 -11    4.44    1.76
   3   4 -11    8.38    1.92
  -3  -4  11    5.76    1.12
  -3  -4  11    5.09    2.23
   2  -4 -11    5.49    1.72
   2   4 -11    5.50    1.80
  -2  -4  11    5.96    1.07
  -2  -4  11    6.20    2.24
   1  -4 -11    6.43    1.68
   1   4 -11    5.14    1.77
  -1  -4  11    4.05    0.99
  -1  -4  11    1.92    1.99
   0  -4  11    9.39    2.40
   0   4 -11    7.50    2.01
   0   4 -11    6.74    1.95
   0  -4  11    6.53    1.11
   0  -4 -11    4.85    1.57
   1  -4  11   26.03    3.11
  -1   4 -11   23.67    2.68
   1  -4  11   19.92    1.60
  -1  -4 -11   19.77    2.25
  -1   4 -11   20.66    2.73
   2  -4  11    4.26    2.25
  -2   4 -11    3.14    1.88
  -2   4 -11    6.18    1.96
  -2  -4 -11    6.03    1.59
   2  -4  11    4.74    1.09
  -2  -4 -11    6.67    0.82
   3  -4  11   10.77    1.36
  -3   4 -11   11.04    2.47
  -3   4 -11   10.53    2.31
  -3  -4 -11   10.49    1.04
  -4   4 -11   11.75    2.42
  -4   4 -11   12.55    2.61
  -5   4 -11   16.76    2.88
  -5   4 -11   14.23    2.63
  -6   4 -11    2.05    2.17
  -6   4 -11    1.47    1.93
  -7   4 -11    8.11    2.58
  -7   4 -11    8.33    2.52
  -8   4 -11    3.20    2.23
   9  -5 -11    0.79    2.08
  -8  -5  11    3.83    2.91
   8  -5 -11    5.31    2.41
  -7  -5  11    6.63    3.03
   7  -5 -11    6.12    2.33
   6  -5 -11    2.64    1.92
  -6  -5  11   -0.27    2.48
   5  -5 -11    2.05    1.79
  -5  -5  11    0.84    2.36
  -4  -5  11    1.56    2.42
   4   5 -11   -0.56    1.58
   4  -5 -11    0.63    1.72
   3  -5 -11    5.25    1.88
  -3  -5  11    4.62    2.44
   3   5 -11    4.01    1.91
  -2  -5  11    6.75    2.48
   2  -5 -11    4.08    1.69
   2   5 -11    5.74    2.00
   1  -5 -11    2.90    1.61
   1   5 -11    0.23    1.60
   1   5 -11    1.99    1.80
  -1  -5  11    4.28    2.32
   0  -5  11    6.22    2.41
   0   5 -11    6.43    2.07
   0  -5 -11    3.92    1.76
   0   5 -11    8.08    2.15
  -1   5 -11    0.11    1.60
   1  -5  11   -0.80    2.12
  -1   5 -11   -0.53    1.63
   2  -5  11   23.38    3.55
  -2   5 -11   21.12    2.93
  -2   5 -11   21.54    3.12
  -3   5 -11    0.37    1.86
  -3   5 -11    1.98    2.08
  -4   5 -11   16.65    3.00
  -4   5 -11   18.25    2.99
  -5   5 -11    7.21    2.55
  -5   5 -11    1.30    2.05
  -6   5 -11    3.74    2.28
   7  -6 -11    6.42    2.74
   6  -6 -11    3.54    2.47
   5  -6 -11    1.56    2.10
   4  -6 -11    2.51    2.03
  -4  -6  11    1.07    2.62
  -3  -6  11    3.24    2.67
   3  -6 -11    3.71    2.03
  -2  -6  11   -1.23    2.44
   2   6 -11    2.93    1.97
   2  -6 -11    2.79    1.91
   1   6 -11    4.86    2.07
   1  -6 -11    2.04    1.88
  -1  -6  11    3.41    2.75
   1   6 -11    4.83    2.21
   0  -6  11    0.21    2.63
   0   6 -11    3.91    1.93
   0   6 -11    1.32    1.89
  -1   6 -11    2.92    2.11
  -1   6 -11    4.41    2.21
   1  -6  11   -1.82    2.56
   2  -6  11    8.27    3.25
  -2   6 -11    5.19    2.30
  -2   6 -11    3.87    2.27
  -3   6 -11    5.36    2.49
  -4   6 -11    7.04    2.57
  10   0 -12    8.86    2.11
   9   0 -12   12.88    2.22
   9   0 -12    5.87    1.78
  -8   0  12   20.02    2.52
   8   0 -12   22.42    2.50
   8   0 -12   26.68    2.69
  -7   0  12    1.90    1.48
   7   0 -12    2.02    1.48
   7   0 -12    3.36    1.41
   6   0 -12    4.44    1.41
   6   0 -12    7.79    1.77
  -6   0  12    7.87    1.74
   5   0 -12    9.94    1.80
   5   0 -12    8.94    1.65
  -5   0  12    8.62    1.74
   5   0 -12   10.12    1.49
   4   0 -12   -0.75    1.12
   4   0 -12    1.10    0.93
   4   0 -12    0.52    1.06
   3   0 -12   16.40    1.93
   3   0 -12   12.57    1.63
   3   0 -12   13.49    1.97
   2   0 -12   97.02    4.66
   2   0 -12   97.54    4.43
   2   0 -12   99.33    4.18
   1   0 -12    6.44    1.36
   1   0 -12    9.16    1.83
   1   0 -12    6.66    1.60
   0   0 -12   36.18    2.68
   0   0 -12   37.26    3.05
   0   0 -12   39.72    2.57
  -1   0 -12  111.50    4.87
  -1   0 -12  113.47    5.16
  -2   0 -12   31.89    2.83
  -2   0 -12   25.33    2.37
  -3   0 -12   51.99    3.28
  -3   0 -12   54.54    3.58
  -4   0 -12   16.61    2.30
  -4   0 -12   13.73    2.07
  -5   0 -12    9.77    1.88
  -5   0 -12    8.37    1.98
  -6   0 -12    2.35    1.77
  -6   0 -12    6.00    1.81
 -12  -1  12    4.31    2.60
 -11  -1  12   -1.13    2.20
  11  -1 -12   -1.75    1.68
  10  -1 -12    3.23    1.95
 -10  -1  12    1.33    2.26
  -9  -1  12   13.29    2.72
   9  -1 -12   15.16    2.40
   9   1 -12    8.84    2.07
  -8  -1  12    8.60    1.90
  -8  -1  12   10.99    2.36
   8   1 -12   10.59    1.98
   8  -1 -12    8.22    1.74
   8  -1 -12    7.81    1.95
   7  -1 -12    7.06    1.89
   7  -1 -12    5.09    1.44
  -7  -1  12    3.56    1.97
   7   1 -12    5.34    1.66
  -7  -1  12    2.38    1.56
   6  -1 -12    6.38    1.48
   6   1 -12    6.07    1.66
   6   1 -12    6.64    1.38
  -6  -1  12    9.31    1.78
   6  -1 -12    8.85    1.87
  -6  -1  12    8.60    1.95
   5   1 -12   12.93    2.02
  -5  -1  12   10.58    1.78
   5  -1 -12   13.95    2.03
  -5  -1  12   16.31    2.13
   5  -1 -12    9.44    1.65
   5   1 -12   10.79    1.58
   4  -1 -12   23.34    2.18
   4   1 -12   19.89    2.35
  -4  -1  12   25.67    2.40
   4  -1 -12   22.64    2.41
   4   1 -12   23.91    2.14
  -4  -1  12   22.74    2.24
   3   1 -12   17.52    2.09
   3   1 -12   18.52    1.86
   3  -1 -12   15.15    1.68
   3  -1 -12   20.01    2.23
  -3  -1  12   16.05    2.00
   3   1 -12   19.42    2.27
   3  -1 -12   16.02    1.89
   2  -1 -12   16.88    1.90
   2   1 -12   20.27    2.20
   2  -1 -12   16.54    1.73
   2   1 -12   17.95    1.85
   2   1 -12   15.71    2.14
   2  -1 -12   18.70    2.20
   1  -1 -12   22.33    2.11
   1   1 -12   31.34    2.89
   1   1 -12   29.21    2.50
   1   1 -12   30.42    2.33
   1  -1 -12   28.18    2.62
   0  -1 -12   48.98    2.98
   0  -1 -12   53.24    3.41
   0   1 -12   54.63    3.12
   0   1 -12   51.59    3.54
  -1  -1 -12   58.82    3.61
  -1   1 -12   64.22    3.36
  -1  -1 -12   56.24    3.25
  -1   1 -12   57.87    3.65
  -2  -1 -12    4.28    1.64
  -2   1 -12    3.93    1.67
  -2  -1 -12    3.04    1.27
  -3  -1 -12   78.59    3.92
  -3  -1 -12   79.44    4.25
  -3   1 -12   72.72    4.26
  -4   1 -12    1.40    1.53
  -4  -1 -12    0.18    1.47
  -4  -1 -12    1.16    1.21
  -5   1 -12    4.30    1.76
  -5  -1 -12    3.92    1.68
  -5  -1 -12    5.50    1.59
  -6   1 -12    2.73    1.76
  -7   1 -12    7.81    2.04
  11  -2 -12    2.82    2.04
 -11  -2  12   -1.24    2.42
  10  -2 -12   30.61    3.30
 -10  -2  12   22.28    3.43
  -9  -2  12   11.86    2.86
   9  -2 -12   14.22    2.59
   8   2 -12    3.65    1.59
  -8  -2  12   -1.04    2.02
   8  -2 -12    1.60    1.73
   7  -2 -12   -0.31    1.47
  -7  -2  12   -0.33    1.29
  -7  -2  12   -0.53    1.91
   7   2 -12   -0.14    1.39
  -6  -2  12    7.12    2.10
   6  -2 -12    9.78    2.00
   6   2 -12    7.00    1.81
  -6  -2  12    6.81    1.67
   6  -2 -12    5.86    1.45
  -5  -2  12   30.87    2.97
   5  -2 -12   30.62    2.33
   5   2 -12   28.54    2.67
   5  -2 -12   29.29    2.80
  -5  -2  12   28.43    2.42
  -4  -2  12    4.51    1.48
   4  -2 -12    3.25    1.54
  -4  -2  12    3.38    1.69
   4   2 -12    4.01    1.57
   4  -2 -12    3.24    1.20
   3   2 -12   19.18    2.27
   3  -2 -12   14.74    2.11
  -3  -2  12   12.56    1.83
  -3  -2  12   14.00    2.22
   3  -2 -12   14.36    1.77
  -2  -2  12   29.16    2.68
   2   2 -12   29.16    2.74
   2  -2 -12   32.57    2.70
  -2  -2  12   25.98    2.31
   2  -2 -12   23.31    2.12
   1   2 -12   36.39    3.14
  -1  -2  12   39.90    3.02
   1  -2 -12   39.92    2.60
   1  -2 -12   38.85    2.97
   0   2 -12   70.07    4.08
   0  -2 -12   66.01    3.71
   0  -2  12   62.00    3.74
   0  -2 -12   58.57    3.22
   0   2 -12   65.57    3.67
   1  -2  12  127.55    5.54
  -1   2 -12  129.74    5.45
  -1   2 -12  126.44    5.75
  -1  -2 -12  120.30    4.99
  -1  -2 -12  120.04    5.31
  -2  -2 -12    2.10    1.23
  -2  -2 -12    3.26    1.54
  -2   2 -12    5.09    1.71
  -2   2 -12    2.92    1.70
  -3  -2 -12   40.44    2.73
  -3   2 -12   41.34    3.38
  -3  -2 -12   39.26    3.01
  -3   2 -12   38.58    3.17
  -4  -2 -12   -0.13    1.40
  -4   2 -12   -0.16    1.50
  -4   2 -12    2.61    1.70
  -4  -2 -12    2.51    1.30
  -5   2 -12   18.38    2.57
  -5   2 -12   14.88    2.47
  -6   2 -12    9.59    2.23
  -7   2 -12    4.08    1.98
  -8   2 -12   25.59    3.12
  11  -3 -12   -0.83    2.07
 -10  -3  12    2.07    2.68
  10  -3 -12    3.07    2.15
  -9  -3  12   21.45    3.45
   9  -3 -12   14.37    2.70
   8  -3 -12    3.86    2.07
  -8  -3  12    0.98    2.29
  -7  -3  12   17.26    2.95
   7   3 -12   14.24    2.33
   7  -3 -12   16.85    2.66
   6  -3 -12   13.99    2.35
   6   3 -12    9.13    2.05
  -6  -3  12    8.14    2.45
   5   3 -12    1.04    1.49
   5  -3 -12    0.15    1.41
  -5  -3  12   -0.45    1.88
  -5  -3  12    0.26    1.11
   5  -3 -12    0.97    0.94
  -4  -3  12    3.77    2.10
  -4  -3  12    4.10    1.38
   4  -3 -12    4.89    1.70
   4  -3 -12    5.01    1.19
   4   3 -12    1.42    1.49
  -3  -3  12   -0.84    1.05
  -3  -3  12    0.53    1.77
   3  -3 -12    2.16    1.44
   3  -3 -12    0.59    0.93
   3   3 -12    5.60    1.73
   2  -3 -12    2.22    1.02
   2  -3 -12    0.87    1.38
  -2  -3  12    2.38    1.74
   2   3 -12    1.88    1.52
  -2  -3  12    1.39    1.28
   1  -3 -12   15.34    2.10
   1  -3 -12   11.48    1.49
   1   3 -12   12.37    2.19
  -1  -3  12   15.37    1.83
  -1  -3  12   13.25    2.32
   0   3 -12    2.01    1.64
   0  -3  12    2.34    1.77
   0   3 -12    4.03    1.71
   0  -3 -12    3.97    1.21
   0  -3 -12    2.24    1.41
   0  -3  12    0.57    1.16
  -1  -3 -12   43.15    2.51
   1  -3  12   41.74    3.48
  -1   3 -12   43.03    3.35
  -1  -3 -12   34.39    2.83
  -1   3 -12   36.79    3.31
   2  -3  12    5.09    2.06
  -2   3 -12    5.86    1.93
  -2   3 -12    2.78    1.75
  -2  -3 -12    2.54    1.11
  -2  -3 -12    2.48    1.48
  -3   3 -12    2.55    1.78
  -3   3 -12    1.43    1.71
  -3  -3 -12    2.17    1.46
  -4   3 -12   66.54    4.43
  -4   3 -12   74.45    4.60
  -5   3 -12   26.69    3.21
  -5   3 -12   16.30    2.63
  -6   3 -12   -0.42    1.65
  -6   3 -12   -0.42    1.77
  -7   3 -12    0.45    1.91
  -7   3 -12    2.92    1.95
  -8   3 -12   11.57    2.58
  -8   3 -12    8.33    2.88
  10  -4 -12    0.25    2.07
  -9  -4  12    0.49    2.68
   9  -4 -12    2.80    2.23
  -8  -4  12    4.43    2.71
   8  -4 -12    0.82    1.91
   7  -4 -12    4.93    2.06
  -7  -4  12    7.10    2.75
   6  -4 -12    4.94    1.91
  -6  -4  12    2.26    2.43
  -5  -4  12    3.27    2.37
   5  -4 -12    4.89    2.02
   5   4 -12    4.14    1.85
  -4  -4  12   15.70    2.95
   4   4 -12   10.56    2.18
   4  -4 -12   10.99    2.26
   3  -4 -12    0.65    1.52
  -3  -4  12   -0.86    1.92
   3   4 -12    0.54    1.59
   2  -4 -12    9.05    2.03
   2   4 -12   10.25    2.22
  -2  -4  12    9.02    1.35
  -2  -4  12    5.93    2.26
   1   4 -12    8.85    2.15
   1  -4 -12    9.30    1.89
  -1  -4  12    5.22    2.22
  -1  -4  12    6.15    1.31
   1   4 -12   13.58    2.29
   0  -4  12    1.79    1.11
   0  -4 -12    3.15    1.57
   0   4 -12    2.88    1.86
   0   4 -12    4.95    2.00
   0  -4  12    3.02    2.19
  -1   4 -12   26.77    3.09
  -1  -4 -12   20.35    2.40
  -1  -4 -12   18.24    1.34
  -1   4 -12   16.26    2.70
   1  -4  12   24.89    3.22
   2  -4  12   21.64    3.29
  -2   4 -12   31.22    3.30
  -2   4 -12   17.75    2.77
  -3   4 -12    6.73    2.30
  -3   4 -12    2.48    1.93
  -4   4 -12    7.46    2.26
  -4   4 -12    5.46    2.36
  -5   4 -12    9.45    2.60
  -5   4 -12    8.06    2.36
  -6   4 -12    2.22    2.02
  -6   4 -12   -0.46    2.08
  -7   4 -12    0.88    2.28
  -7   4 -12    3.82    2.22
   8  -5 -12    7.26    2.54
   7  -5 -12    9.19    2.61
  -7  -5  12    5.87    2.99
  -6  -5  12    2.89    2.82
   6  -5 -12    1.18    2.00
   5  -5 -12    1.97    1.91
  -5  -5  12    1.24    2.58
  -4  -5  12    0.73    2.38
   4  -5 -12    0.71    1.67
   4   5 -12    0.79    1.83
   3   5 -12    1.94    1.95
   3  -5 -12    5.77    2.04
  -3  -5  12    3.17    2.39
   2  -5 -12    3.41    1.80
   2   5 -12    3.49    1.95
  -2  -5  12    1.07    2.22
   1  -5 -12   -1.60    1.51
  -1  -5  12    2.66    2.25
   1   5 -12    0.59    1.77
   1   5 -12    1.92    1.82
   0  -5  12    1.77    2.32
   0   5 -12    0.77    1.79
   0  -5 -12    0.73    1.72
   0   5 -12    0.41    1.84
   1  -5  12   12.65    3.01
  -1   5 -12   10.05    2.50
  -1   5 -12    8.66    2.50
  -2   5 -12    7.20    2.36
  -2   5 -12   10.88    2.62
   2  -5  12   11.32    3.03
  -3   5 -12    2.07    2.32
  -3   5 -12   -1.29    1.84
  -4   5 -12   11.54    2.67
  -4   5 -12    2.57    2.28
  -5   5 -12    0.87    2.00
   5  -6 -12    7.92    2.59
   4  -6 -12    8.82    2.51
   3  -6 -12    4.92    2.26
   2  -6 -12    6.29    2.27
   2   6 -12    2.65    2.11
   1   6 -12    4.53    2.32
   0   6 -12    3.72    2.22
  -1   6 -12    7.67    2.45
  -2   6 -12   -2.34    1.88
  10   0 -13   12.22    2.48
   9   0 -13    1.84    1.82
   8   0 -13   12.30    2.29
   8   0 -13   16.71    2.35
   7   0 -13    5.11    1.78
   7   0 -13    4.45    1.58
   6   0 -13   16.30    2.29
  -6   0  13   19.54    2.39
   6   0 -13   15.24    2.11
  -5   0  13    7.06    1.79
   5   0 -13    5.23    1.47
   5   0 -13    5.87    1.74
   4   0 -13    7.33    1.64
   4   0 -13    4.63    1.64
   3   0 -13   41.73    2.76
   3   0 -13   39.86    2.87
   3   0 -13   42.40    3.24
   2   0 -13   47.64    3.50
   2   0 -13   49.76    3.01
   2   0 -13   45.91    3.07
   1   0 -13   40.30    2.97
   1   0 -13   39.65    3.22
   1   0 -13   43.44    2.78
   0   0 -13   11.84    2.08
   0   0 -13    7.56    1.73
  -1   0 -13    2.78    1.45
  -1   0 -13    4.74    1.68
  -2   0 -13    0.63    1.21
  -2   0 -13    1.83    1.55
  -3   0 -13    8.06    2.03
  -3   0 -13    8.29    1.79
  -4   0 -13   -0.26    1.16
  -4   0 -13   -2.14    1.39
  -5   0 -13   21.45    2.75
  -5   0 -13   26.92    2.82
  -6   0 -13    8.49    2.13
  11  -1 -13    1.62    2.08
  10  -1 -13    5.01    2.26
   9   1 -13   13.50    2.34
   9  -1 -13   11.19    2.40
   8  -1 -13    4.98    1.89
   8   1 -13    8.22    2.11
  -7  -1  13   -0.56    1.48
   7  -1 -13    2.88    1.65
   7   1 -13    3.93    1.69
   6   1 -13    2.61    1.51
   6  -1 -13    0.17    1.17
   6  -1 -13    3.09    1.63
  -6  -1  13    1.90    1.56
   5   1 -13   20.58    2.49
   5  -1 -13   18.76    2.12
  -5  -1  13   19.43    2.31
   5   1 -13   22.71    2.19
   5  -1 -13   19.13    2.43
   4   1 -13    0.95    1.44
   4  -1 -13    0.59    1.29
  -4  -1  13    0.04    1.31
   4  -1 -13    0.50    1.09
   4   1 -13   -0.97    0.91
   3  -1 -13   13.04    1.86
   3   1 -13   17.32    1.92
  -3  -1  13   13.07    2.04
   3  -1 -13   17.69    2.28
   3   1 -13   19.71    2.42
   2   1 -13   53.55    3.55
   2  -1 -13   51.48    3.41
   2  -1 -13   45.46    3.02
   2   1 -13   46.24    2.97
   1  -1 -13   48.71    3.49
   1   1 -13   55.82    3.72
   1  -1 -13   48.97    3.09
   1   1 -13   56.07    3.26
   0   1 -13   12.20    1.77
   0   1 -13   14.37    2.24
   0  -1 -13   11.96    1.87
   0  -1 -13   16.04    2.23
  -1  -1 -13    5.98    1.51
  -1  -1 -13    7.89    1.85
  -1   1 -13    3.64    1.71
  -2  -1 -13   10.04    1.87
  -2   1 -13   10.11    2.09
  -2  -1 -13    8.33    1.97
  -3  -1 -13   15.50    2.30
  -3  -1 -13   13.62    2.04
  -3   1 -13   13.04    2.27
  -4  -1 -13   24.11    2.51
  -4  -1 -13   25.93    2.86
  -4   1 -13   30.96    3.06
  -5  -1 -13   14.02    2.34
  -5   1 -13   10.48    2.22
  -6   1 -13    1.79    1.82
  -7   1 -13    1.23    1.78
  11  -2 -13    0.10    1.96
 -11  -2  13   -0.77    2.54
  10  -2 -13    5.22    2.11
 -10  -2  13   10.73    3.06
  -9  -2  13   10.69    2.95
   9  -2 -13    9.48    2.46
  -8  -2  13   -1.55    2.17
   8  -2 -13   -2.26    1.54
   8   2 -13   -0.21    1.60
   7   2 -13    0.05    1.57
   7  -2 -13    3.22    1.75
  -7  -2  13    1.83    2.20
   6  -2 -13   -0.83    1.35
   6   2 -13   -0.22    1.47
  -6  -2  13    0.94    1.91
  -5  -2  13    1.50    1.40
   5  -2 -13    3.80    1.69
   5   2 -13    5.79    1.84
  -5  -2  13    7.05    2.13
   4   2 -13    3.19    1.61
   4  -2 -13    3.73    1.66
  -4  -2  13    2.07    1.50
  -4  -2  13    2.20    1.84
   4  -2 -13    1.16    1.19
   3  -2 -13    0.23    1.14
  -3  -2  13    1.04    1.39
   3  -2 -13    2.58    1.55
   3   2 -13    1.15    1.45
  -3  -2  13    1.96    1.69
   2  -2 -13    0.15    1.07
   2  -2 -13    5.65    1.65
   2   2 -13    1.18    1.53
  -2  -2  13    1.94    1.64
  -2  -2  13    2.16    1.44
   1  -2 -13   -0.09    1.07
  -1  -2  13    0.53    1.59
   1   2 -13    0.51    1.38
   1   2 -13    1.16    1.49
   1  -2 -13    2.43    1.49
   0   2 -13    2.16    1.67
   0  -2 -13    2.32    1.26
   0  -2 -13    2.97    1.59
  -1  -2 -13    1.82    1.56
  -1   2 -13    1.05    1.63
  -1  -2 -13    3.24    1.32
  -2   2 -13    7.17    2.04
  -2  -2 -13    8.87    1.67
  -2  -2 -13    8.00    1.88
  -3   2 -13   28.71    3.09
  -3  -2 -13   29.65    2.83
  -4  -2 -13    4.16    1.69
  -4   2 -13    1.27    1.64
  -5   2 -13    8.39    2.23
  -6   2 -13    4.25    1.95
  -7   2 -13    4.36    2.10
  -8   2 -13    1.44    2.15
  10  -3 -13    0.33    2.03
   9  -3 -13    4.34    2.21
  -9  -3  13    2.01    2.73
   8  -3 -13    5.89    2.27
  -8  -3  13    5.16    2.76
  -7  -3  13   -2.17    2.19
   7  -3 -13    1.15    1.87
   7   3 -13    1.98    1.81
  -6  -3  13    1.63    2.23
   6  -3 -13    5.87    2.04
   6   3 -13    1.66    1.69
  -5  -3  13    2.94    2.17
   5   3 -13    0.07    1.63
   5  -3 -13    3.62    1.74
   4   3 -13   -1.63    1.41
   4  -3 -13    1.12    1.52
  -4  -3  13    0.85    1.87
   3   3 -13    2.00    1.68
  -3  -3  13    7.78    2.22
   3  -3 -13    6.04    1.83
   2   3 -13   -0.18    1.49
  -2  -3  13   -1.39    1.74
   2  -3 -13   -0.66    1.33
  -1  -3  13    3.07    1.92
   1   3 -13    3.12    1.78
   1  -3 -13    1.90    1.56
   1   3 -13   -0.22    1.47
   0   3 -13    8.49    2.12
   0   3 -13    7.67    2.06
   0  -3 -13    7.03    1.88
   0  -3  13    1.76    1.92
   1  -3  13   36.17    3.49
  -1   3 -13   34.07    3.33
  -1   3 -13   38.11    3.37
  -1  -3 -13   38.43    3.07
  -2   3 -13    9.65    2.30
  -2   3 -13    6.89    2.12
  -2  -3 -13    6.65    1.79
  -3   3 -13   11.19    2.35
  -3   3 -13   15.34    2.67
  -4   3 -13   21.48    2.96
  -4   3 -13   17.88    2.78
  -5   3 -13   17.12    2.79
  -5   3 -13   19.50    2.94
  -6   3 -13    1.43    1.94
  -7   3 -13    1.55    2.03
   9  -4 -13    3.80    2.36
  -8  -4  13   22.08    3.70
   8  -4 -13   25.91    3.35
   7  -4 -13    0.37    1.78
  -7  -4  13   -0.91    2.44
   6  -4 -13    6.35    2.18
  -6  -4  13    1.11    2.55
   5  -4 -13    0.58    1.75
   5   4 -13    0.91    1.80
  -5  -4  13    1.22    2.39
   4  -4 -13    1.20    1.81
   4   4 -13    1.28    1.67
  -4  -4  13    1.74    2.29
  -3  -4  13    3.52    2.33
   3  -4 -13    3.02    1.80
   3   4 -13    2.76    1.88
   2   4 -13    5.16    2.06
   2  -4 -13    6.24    1.85
  -2  -4  13   -0.21    2.03
   1   4 -13   -0.10    1.65
   1  -4 -13    2.61    1.68
  -1  -4  13    0.79    2.03
   1   4 -13    2.49    1.93
   0  -4 -13   17.28    2.40
   0   4 -13   16.68    2.69
   0  -4  13   18.89    3.06
   0   4 -13   18.62    2.74
  -1  -4 -13   13.98    2.21
  -1   4 -13   15.14    2.71
  -1   4 -13   17.69    2.77
   1  -4  13   15.23    2.92
  -2   4 -13    5.53    2.20
   2  -4  13    3.70    2.42
  -2   4 -13   -0.18    1.88
  -3   4 -13   37.06    3.84
  -3   4 -13   45.65    4.20
  -4   4 -13    5.91    2.28
  -4   4 -13    6.70    2.52
  -5   4 -13   -0.29    2.07
  -5   4 -13    0.86    1.93
  -6   4 -13   -0.83    2.14
  -6   4 -13   -0.50    1.98
   7  -5 -13   10.68    2.76
   6  -5 -13    6.43    2.40
   5  -5 -13    7.87    2.44
  -5  -5  13    6.82    3.12
   4  -5 -13    3.70    1.94
   4   5 -13    3.12    2.09
  -4  -5  13    1.91    2.66
   3  -5 -13    3.00    1.94
   3   5 -13    1.85    1.97
  -3  -5  13    2.93    2.61
  -2  -5  13   -1.85    2.29
   2  -5 -13    4.00    2.02
   2   5 -13    2.58    2.03
   2   5 -13    2.99    1.93
   1   5 -13    8.89    2.40
   1   5 -13    7.89    2.34
   1  -5 -13    3.99    1.96
  -1  -5  13    3.30    2.65
   0  -5 -13    2.21    1.89
   0   5 -13    6.51    2.40
   0   5 -13    3.62    2.26
   0  -5  13    3.67    2.67
   1  -5  13    1.02    2.57
  -1   5 -13    1.06    2.00
  -1   5 -13    2.84    2.13
   2  -5  13    3.30    2.81
  -2   5 -13    4.02    2.24
  -2   5 -13    5.61    2.55
  -3   5 -13   -1.41    1.95
  -3   5 -13   -0.20    2.10
  -4   5 -13    4.60    2.36
  10   0 -14    9.42    2.40
   9   0 -14   17.25    2.77
   8   0 -14   11.51    2.34
   7   0 -14    2.52    1.77
   6   0 -14    2.52    1.51
   6   0 -14    0.69    1.52
   5   0 -14   -1.02    1.07
   5   0 -14    1.63    1.50
   4   0 -14    5.43    1.66
   4   0 -14    8.96    2.02
  -4   0  14    7.80    2.01
   3   0 -14   -0.62    1.33
   3   0 -14   -1.40    1.10
   2   0 -14   31.46    2.70
   2   0 -14   34.77    3.19
   1   0 -14    2.67    1.67
   1   0 -14    4.85    1.58
   0   0 -14    0.51    1.45
   0   0 -14    0.34    1.25
  -1   0 -14   -0.53    1.42
  -1   0 -14    0.63    1.31
  -2   0 -14   17.15    2.29
  -2   0 -14   21.78    2.73
  -3   0 -14   -1.60    1.17
  -3   0 -14   -1.46    1.40
  -4   0 -14   -0.79    1.65
  -5   0 -14    0.83    1.72
  -6   0 -14    0.32    1.82
  10  -1 -14    7.24    2.42
   9  -1 -14    4.60    2.25
   9   1 -14    4.33    2.06
   8  -1 -14    7.98    2.22
   8   1 -14    2.85    1.88
   7   1 -14   -1.86    1.44
   7  -1 -14    1.33    1.72
   6   1 -14    6.94    2.00
   6  -1 -14    6.15    1.99
   5  -1 -14   14.97    2.34
  -5  -1  14   11.64    2.19
   5   1 -14   18.96    2.55
   4  -1 -14    4.39    1.75
   4   1 -14    7.04    1.93
  -4  -1  14    3.57    1.63
   4  -1 -14    4.02    1.51
   3  -1 -14   -0.53    1.34
   3  -1 -14    2.88    1.46
  -3  -1  14   -0.34    1.45
   3   1 -14    0.64    1.46
   2   1 -14    1.34    1.65
   2  -1 -14    0.73    1.42
   2  -1 -14    0.56    1.25
   1   1 -14   21.29    2.65
   1  -1 -14   16.51    2.11
   1  -1 -14   22.05    2.65
   0   1 -14    9.99    2.15
   0  -1 -14    8.44    2.13
   0  -1 -14    8.77    1.81
  -1  -1 -14   28.53    2.66
  -1   1 -14   32.45    3.16
  -1  -1 -14   28.06    2.93
  -2  -1 -14    0.85    1.65
  -2   1 -14   -0.97    1.39
  -3   1 -14   20.31    2.74
  -3  -1 -14   23.98    2.85
  -4  -1 -14   17.66    2.59
  -4   1 -14   14.96    2.58
  -5  -1 -14    6.15    2.13
  -5   1 -14    8.38    2.28
  -6   1 -14    2.30    1.98
  -7   1 -14   18.59    3.00
  10  -2 -14    3.77    2.26
   9  -2 -14    4.07    2.17
   8   2 -14    0.82    1.77
   8  -2 -14   -2.19    1.68
   7   2 -14    2.89    1.83
   7  -2 -14    3.20    1.95
   6  -2 -14   -0.31    1.48
   6   2 -14    3.00    1.84
   5  -2 -14    3.79    1.77
   5   2 -14    4.66    1.89
   4  -2 -14   17.40    2.54
   4   2 -14   16.30    2.47
   3  -2 -14    7.66    2.00
   3   2 -14    6.67    2.02
   2  -2 -14    2.66    1.61
   2   2 -14    2.36    1.69
   1   2 -14   38.77    3.42
   1  -2 -14   35.99    3.19
   0  -2 -14    6.20    1.94
   0   2 -14    9.43    2.25
  -1  -2 -14    5.69    1.87
  -1   2 -14    3.31    1.89
  -2   2 -14    0.48    1.69
  -2  -2 -14    2.00    1.67
  -3  -2 -14   17.29    2.53
  -3   2 -14   14.73    2.53
  -4   2 -14   19.09    2.83
  -5   2 -14    3.54    1.98
  -6   2 -14    4.24    2.21
  -7   2 -14    9.98    2.65
   9  -3 -14    4.18    2.15
  -9  -3  14    5.68    2.94
   8  -3 -14    5.86    2.42
  -8  -3  14    5.54    2.86
  -7  -3  14    1.11    2.51
   7  -3 -14    5.14    2.26
   7   3 -14    1.57    1.88
   6   3 -14   -0.38    1.78
  -6  -3  14   -0.24    2.24
   6  -3 -14    1.71    1.85
  -5  -3  14   -2.21    1.99
   5   3 -14   -1.96    1.56
   5  -3 -14   -0.70    1.49
  -4  -3  14    5.95    2.38
   4  -3 -14    6.34    2.05
   4   3 -14    9.62    2.25
  -3  -3  14    4.11    2.11
   3  -3 -14   -0.34    1.53
   3   3 -14    3.03    1.92
   2   3 -14   32.72    3.30
   2  -3 -14   32.12    3.14
  -2  -3  14   35.35    3.45
   1  -3 -14    1.86    1.58
  -1  -3  14    2.73    2.13
   1   3 -14    1.48    1.79
   1   3 -14    0.71    1.82
   0  -3 -14    9.40    2.10
   0   3 -14   13.07    2.60
   0  -3  14   11.39    2.63
  -1  -3 -14    6.51    1.95
  -1   3 -14    5.04    2.23
  -2   3 -14    6.76    2.26
  -2  -3 -14   11.09    2.18
  -3   3 -14   15.53    2.69
  -4   3 -14    1.42    1.87
  -5   3 -14    2.47    1.99
  -6   3 -14   -2.05    1.73
   7  -4 -14   10.48    2.73
  -7  -4  14   18.64    3.63
  -6  -4  14   15.66    3.33
   6  -4 -14    9.63    2.64
   5   4 -14    5.57    2.19
  -5  -4  14    5.22    2.77
   5  -4 -14    4.91    2.19
   4  -4 -14    0.20    1.68
   4   4 -14   -3.10    1.63
  -4  -4  14    0.12    2.26
   3  -4 -14    0.61    1.70
   3   4 -14    0.96    1.77
  -3  -4  14   -0.72    2.09
   2   4 -14   -0.41    1.89
   2  -4 -14    2.15    1.80
   2   4 -14   -1.65    1.68
  -2  -4  14   -0.85    2.15
   1   4 -14    9.73    2.46
  -1  -4  14    8.04    2.58
   1  -4 -14    5.99    2.06
   1   4 -14   10.04    2.48
   0   4 -14    9.08    2.45
   0   4 -14    4.86    2.34
   0  -4 -14    2.89    1.89
   0  -4  14    7.46    2.70
  -1   4 -14   -0.06    1.96
  -1   4 -14   -1.21    1.77
  -1  -4 -14    0.47    1.69
   1  -4  14    1.92    2.47
  -2   4 -14    1.65    2.07
  -2   4 -14    2.54    2.22
  -3   4 -14    3.65    2.34
  -3   4 -14    3.21    2.28
  -4   4 -14    1.66    2.05
  -4   4 -14    3.74    2.29
   5  -5 -14    6.67    2.46
   4  -5 -14    6.46    2.33
   4   5 -14    2.08    2.30
   3   5 -14   -2.65    1.92
  -3  -5  14   -2.40    2.49
   3  -5 -14   -1.35    1.69
   2   5 -14    7.21    2.30
   2   5 -14   12.84    2.72
  -2  -5  14    4.23    2.83
   2  -5 -14    6.89    2.34
   1   5 -14    1.24    2.02
   1  -5 -14   -1.30    1.80
   1   5 -14    0.97    2.14
  -1  -5  14   -1.94    2.52
   0   5 -14   11.12    2.80
   0   5 -14    9.81    2.80
   0  -5  14    6.70    3.16
  -1   5 -14    6.29    2.58
  -1   5 -14    5.36    2.50
   9   0 -15   -3.56    1.67
   8   0 -15   17.05    2.75
   7   0 -15    3.36    2.00
   6   0 -15    0.47    1.67
   5   0 -15   23.07    2.89
   4   0 -15   -2.58    1.25
   4   0 -15   -0.71    1.43
   3   0 -15   14.59    2.47
   3   0 -15   15.86    2.29
   2   0 -15   -1.29    1.17
   2   0 -15    0.01    1.49
   1   0 -15    0.71    1.32
   1   0 -15   -0.24    1.66
   0   0 -15    4.47    1.97
   0   0 -15    4.53    1.74
  -1   0 -15   -1.17    1.59
  -1   0 -15   -1.96    1.20
  -2   0 -15    0.78    1.73
  -3   0 -15    0.10    1.76
  -4   0 -15    9.75    2.45
  -5   0 -15    0.60    1.87
   9  -1 -15    4.98    2.31
   9   1 -15    3.49    2.06
   8  -1 -15    0.44    1.84
   8   1 -15   -0.82    1.79
   7  -1 -15    8.98    2.37
   7   1 -15    5.94    2.21
   6  -1 -15    2.76    1.88
   6   1 -15    2.93    1.86
   5  -1 -15    3.93    1.91
   5   1 -15    4.17    1.94
   4   1 -15   18.56    2.74
   4  -1 -15   17.28    2.58
   3  -1 -15    0.87    1.61
   3   1 -15    0.85    1.60
   2  -1 -15   15.22    2.52
   2   1 -15   18.61    2.67
   1  -1 -15   25.03    2.96
   1   1 -15   21.69    2.88
   0  -1 -15    8.78    2.28
   0   1 -15    6.90    2.13
  -1   1 -15    6.70    2.15
  -1  -1 -15    3.62    1.95
  -2  -1 -15    1.28    1.74
  -2   1 -15    1.06    1.82
  -3  -1 -15    1.44    1.82
  -3   1 -15    1.05    1.85
  -4  -1 -15    1.70    1.84
  -4   1 -15    2.02    1.96
  -5   1 -15    0.59    1.92
  -6   1 -15    1.73    2.17
   9  -2 -15    2.92    2.16
   8   2 -15    1.02    1.94
   8  -2 -15    1.13    1.96
   7  -2 -15   -1.73    1.66
   7   2 -15   -0.86    1.77
   6   2 -15    3.64    1.94
   6  -2 -15    4.56    2.12
   5  -2 -15    2.61    1.86
   5   2 -15    1.79    1.91
   4   2 -15   -1.70    1.56
   4  -2 -15    1.04    1.81
   3   2 -15   11.21    2.37
   3  -2 -15    8.31    2.17
   2  -2 -15   26.04    3.04
   2   2 -15   31.11    3.28
   1   2 -15    3.92    2.09
   1  -2 -15    1.42    1.80
   0   2 -15    8.41    2.33
   0  -2 -15   11.14    2.32
  -1   2 -15    5.16    2.09
  -1  -2 -15    7.76    2.15
  -2  -2 -15    8.69    2.27
  -2   2 -15    7.83    2.32
  -3   2 -15    1.05    1.86
  -3  -2 -15   -0.66    1.63
  -4   2 -15   10.62    2.52
  -5   2 -15   -1.55    1.85
   7   3 -15    7.49    2.37
   7  -3 -15    9.52    2.64
   6  -3 -15   12.70    2.72
   6   3 -15   14.58    2.76
   5   3 -15    7.61    2.31
   5  -3 -15    5.03    2.18
   4   3 -15   -2.66    1.70
   4  -3 -15   -0.64    1.59
   3   3 -15   -0.43    1.74
   3  -3 -15   -0.42    1.57
   2   3 -15    1.13    1.85
   2  -3 -15    3.07    1.86
   1  -3 -15   14.09    2.51
   1   3 -15   14.01    2.68
   0   3 -15    2.71    2.05
   0  -3 -15    1.06    1.72
  -1  -3 -15    1.02    1.76
  -1   3 -15    2.47    2.08
  -2  -3 -15    0.36    1.72
  -2   3 -15    1.85    1.91
  -3   3 -15    6.17    2.35
  -4   3 -15    3.63    2.10
   5  -4 -15    8.68    2.68
  -5  -4  15    8.49    3.13
   5   4 -15    3.90    2.46
  -4  -4  15   -1.53    2.41
   4  -4 -15   -2.10    1.72
   4   4 -15   -0.90    1.98
  -3  -4  15   -1.44    2.35
   3  -4 -15    2.16    1.97
   3   4 -15   -2.72    1.88
   2   4 -15    2.50    2.04
   2  -4 -15    2.45    2.00
   2   4 -15    4.26    2.23
  -2  -4  15    2.53    2.44
  -1  -4  15   -0.18    2.47
   1  -4 -15   -2.23    1.59
   1   4 -15   -0.47    2.10
   0   4 -15   13.24    2.85
   0  -4 -15   17.50    2.72
  -1   4 -15    8.27    2.60
  -2   4 -15   -1.77    1.98
   8   0 -16    3.78    2.13
   7   0 -16   15.24    2.82
   6   0 -16   13.99    2.60
   5   0 -16    8.12    2.30
   4   0 -16   17.19    2.78
   3   0 -16    1.79    1.74
   2   0 -16    2.83    1.95
   1   0 -16   23.10    3.01
   0   0 -16   -3.49    1.41
  -1   0 -16   -2.05    1.60
  -2   0 -16   -0.49    1.71
  -3   0 -16   16.49    2.82
  -4   0 -16    1.09    2.02
   8  -1 -16    5.49    2.33
   8   1 -16    5.81    2.28
   7   1 -16    1.16    2.01
   7  -1 -16    0.94    1.91
   6   1 -16    4.96    2.28
   6  -1 -16    9.08    2.43
   5  -1 -16   16.88    2.82
   5   1 -16   12.06    2.59
   4   1 -16    0.46    1.88
   4  -1 -16   -0.26    1.64
   3  -1 -16    5.42    2.14
   3   1 -16    2.29    2.00
   2   1 -16   17.53    2.94
   2  -1 -16   22.08    3.00
   1   1 -16    1.76    2.01
   1  -1 -16    1.58    1.90
   0  -1 -16    1.52    1.85
   0   1 -16   -3.00    1.60
  -1  -1 -16    0.54    1.88
  -1   1 -16    1.83    1.97
  -2   1 -16    2.04    1.91
  -2  -1 -16   -1.73    1.75
  -3  -1 -16    5.09    2.20
  -3   1 -16    2.13    1.99
  -4   1 -16    0.34    1.93
  -4  -1 -16   -2.28    1.84
   7   2 -16    4.77    2.39
   7  -2 -16    5.30    2.31
   6   2 -16    3.38    2.21
   6  -2 -16    0.06    1.91
   5   2 -16   19.07    3.02
   5  -2 -16   13.78    2.77
   4  -2 -16   -0.34    1.74
   4   2 -16   -1.33    1.93
   3  -2 -16    2.21    1.91
   3   2 -16   -0.95    1.77
   2  -2 -16    7.26    2.25
   2   2 -16    2.68    2.03
   1   2 -16    4.67    2.26
   1  -2 -16    5.91    2.19
   0  -2 -16    4.18    2.09
   0   2 -16    5.01    2.21
  -1   2 -16    2.88    2.15
  -1  -2 -16    1.67    1.95
  -2   2 -16    0.07    1.86
  -2  -2 -16    0.68    1.83
  -3  -2 -16    8.83    2.42
  -3   2 -16    4.65    2.26
   5   3 -16    4.54    2.30
   5  -3 -16    1.27    2.15
   4   3 -16    5.63    2.30
   4  -3 -16    2.80    2.16
   3   3 -16   -0.58    1.88
   3  -3 -16    0.62    1.93
   2   3 -16   -0.86    1.80
   2  -3 -16    0.05    1.78
   1  -3 -16    1.00    1.92
   1   3 -16    3.98    2.16
   0  -3 -16    4.81    2.13
   0   3 -16    1.53    2.07
  -1  -3 -16   -1.86    1.87
  -1   3 -16    2.44    2.25
  -2   3 -16    6.18    2.52
   6   0 -17    0.92    2.00
   5   0 -17    3.65    2.16
   4   0 -17    2.23    2.03
   3   0 -17   24.29    3.32
   2   0 -17   15.95    2.92
   1   0 -17   -0.90    1.86
   0   0 -17   -1.79    1.72
  -1   0 -17    1.53    1.99
  -2   0 -17    2.67    2.08
   5  -1 -17    0.51    1.94
   5   1 -17   -1.29    1.94
   4  -1 -17    5.17    2.22
   4   1 -17    1.15    2.01
   3  -1 -17    1.71    1.92
   3   1 -17    4.88    2.25
   2  -1 -17    2.76    2.03
   2   1 -17    3.99    2.18
   1   1 -17    1.19    2.08
   1  -1 -17   -0.74    1.90
   0   1 -17   -0.73    1.77
   0  -1 -17   -0.84    1.90
  -1   1 -17   -3.10    1.62
  -1  -1 -17    0.88    1.97
  -2  -1 -17   -0.64    1.91
  -2   1 -17   -0.02    1.83
   4  -2 -17    2.84    2.13
   4   2 -17    2.81    2.27
   3  -2 -17    3.40    2.21
   3   2 -17    3.64    2.30
   2  -2 -17   -3.36    1.62
   2   2 -17   -1.04    2.01
   1  -2 -17    0.60    1.89
   1   2 -17    1.93    2.11
   0   2 -17   -0.02    1.94
   0  -2 -17    1.98    2.01
   0   0   0    0.00    0.00
;
_shelx_hkl_checksum              34607
_shelx_res_file
;
TITL AI661 in P2(1)
CELL 0.71073  10.4566   5.9821  12.2040  90.000  97.460  90.000
ZERR    2.00   0.0002   0.0001   0.0003   0.000   0.001   0.000
LATT   -1
SYMM   -X,1/2+Y,-Z
SFAC C  H  O
UNIT 32 36 8
L.S. 4
BOND $H
FMAP 2
PLAN 20
SIZE     0.100   0.160   0.180
TEMP    23.00
ACTA
EQIV $1 -x+1, y-1/2, -z+1
HTAB C9 O2_$1
HTAB C15 O2_$1
HTAB 2
CONF
MPLA (6) C1 C2 C3 C4 C5 C6
MPLA (7) O1 O2 C7 C8 C9 C10 C11
WPDB -1
WGHT    0.057300    0.065300
FVAR       1.57314
MOLE   1
O1    3    0.125553    0.227333    0.395231    11.00000    0.04410    0.05469 =
         0.04667    0.01165    0.00109    0.00231
O2    3    0.507515    0.271326    0.375809    11.00000    0.04232    0.10234 =
         0.07852   -0.01412   -0.00483   -0.00524
O3    3    0.324274    0.335917    0.103991    11.00000    0.09950    0.11454 =
         0.05192   -0.02760    0.01619   -0.04071
O4    3    0.407701    0.610010    0.211933    11.00000    0.09201    0.08592 =
         0.05036   -0.00986    0.01974   -0.04229
C1    1   -0.046083    0.234807    0.202445    11.00000    0.05040    0.05674 =
         0.05885    0.01200   -0.00198   -0.00546
AFIX  43
H1    2   -0.046218    0.101100    0.241309    11.00000   -1.20000
AFIX   0
C2    1   -0.150310    0.290041    0.125316    11.00000    0.05128    0.07979 =
         0.08152    0.01438   -0.01398   -0.01039
AFIX  43
H2    2   -0.219122    0.191211    0.111130    11.00000   -1.20000
AFIX   0
C3    1   -0.152770    0.489184    0.069777    11.00000    0.05795    0.07581 =
         0.06367    0.01261   -0.01041    0.01221
AFIX  43
H3    2   -0.223528    0.526147    0.018717    11.00000   -1.20000
AFIX   0
C4    1   -0.051159    0.633465    0.089472    11.00000    0.07719    0.05572 =
         0.05293    0.01380   -0.00022    0.01234
AFIX  43
H4    2   -0.053164    0.769091    0.052039    11.00000   -1.20000
AFIX   0
C5    1    0.055122    0.578685    0.165100    11.00000    0.06248    0.04675 =
         0.05164    0.00650    0.00215   -0.00384
AFIX  43
H5    2    0.124397    0.676933    0.177711    11.00000   -1.20000
AFIX   0
C6    1    0.057995    0.377676    0.221787    11.00000    0.04337    0.04366 =
         0.03967    0.00033    0.00350    0.00292
C7    1    0.168186    0.314880    0.305152    11.00000    0.04645    0.04005 =
         0.03958   -0.00198    0.00269   -0.00079
C8    1    0.217447    0.106915    0.476522    11.00000    0.05494    0.05026 =
         0.04977    0.01260   -0.00856   -0.00300
C9    1    0.343523    0.236227    0.494004    11.00000    0.05620    0.04780 =
         0.04949   -0.00110   -0.01152   -0.00082
AFIX  23
H9A   2    0.330019    0.377021    0.530223    11.00000   -1.20000
H9B   2    0.406987    0.151245    0.541992    11.00000   -1.20000
AFIX   0
C10   1    0.393773    0.281031    0.387038    11.00000    0.04600    0.05108 =
         0.05646   -0.01120   -0.00418   -0.00838
C11   1    0.294648    0.341373    0.295260    11.00000    0.04482    0.04837 =
         0.04368   -0.00549    0.00237   -0.00613
C12   1    0.340451    0.425103    0.192223    11.00000    0.04719    0.06850 =
         0.04790   -0.00889    0.00419   -0.00933
C13   1    0.473843    0.698145    0.123774    11.00000    0.09654    0.14182 =
         0.05166    0.00758    0.01407   -0.05168
AFIX  23
H13A  2    0.511321    0.576012    0.086476    11.00000   -1.20000
H13B  2    0.412476    0.774642    0.070115    11.00000   -1.20000
AFIX   0
C14   1    0.572272    0.848881    0.166721    11.00000    0.10604    0.12707 =
         0.08135    0.00644    0.02846   -0.04239
AFIX  33
H14A  2    0.615026    0.905599    0.107481    11.00000   -1.50000
H14B  2    0.534910    0.970730    0.202727    11.00000   -1.50000
H14C  2    0.633578    0.772457    0.219058    11.00000   -1.50000
AFIX   0
C15   1    0.234813   -0.125292    0.429954    11.00000    0.07981    0.04453 =
         0.09999    0.00541   -0.02816   -0.00412
AFIX  33
H15A  2    0.294236   -0.208960    0.480805    11.00000   -1.50000
H15B  2    0.153114   -0.200729    0.419167    11.00000   -1.50000
H15C  2    0.268053   -0.112783    0.360489    11.00000   -1.50000
AFIX   0
C16   1    0.151794    0.101110    0.579146    11.00000    0.08162    0.12159 =
         0.05690    0.03196    0.00031   -0.01645
AFIX  33
H16A  2    0.205818    0.024630    0.636885    11.00000   -1.50000
H16B  2    0.136692    0.251135    0.602271    11.00000   -1.50000
H16C  2    0.070986    0.023860    0.563754    11.00000   -1.50000
AFIX   0
HKLF 4
REM  AI661 in P2(1)
REM R1 =  0.0420 for    2956 Fo > 4sig(Fo)  and  0.0638 for all    4067 data
REM    181 parameters refined using      1 restraints
END
WGHT      0.0573      0.0653
REM Instructions for potential hydrogen bonds
HTAB C9 O2_$1
HTAB C15 O2_$1
REM Highest difference peak  0.166,  deepest hole -0.178,  1-sigma level  0.031
Q1    1   0.2316  0.2643  0.2864  11.00000  0.05    0.17
Q2    1   0.5807  0.6740  0.1456  11.00000  0.05    0.17
Q3    1   0.4183  0.8114  0.1494  11.00000  0.05    0.15
Q4    1   0.1148  0.3396  0.2590  11.00000  0.05    0.13
Q5    1   0.3224  0.3389  0.2475  11.00000  0.05    0.12
Q6    1   0.3398  0.2737  0.3318  11.00000  0.05    0.12
Q7    1   0.3332  0.6808  0.2263  11.00000  0.05    0.12
Q8    1   0.2979  0.3930  0.2449  11.00000  0.05    0.12
Q9    1  -0.0744  0.8256  0.0783  11.00000  0.05    0.11
Q10   1   0.4370  0.6671  0.0467  11.00000  0.05    0.10
Q11   1   0.2367  0.4038  0.3017  11.00000  0.05    0.10
Q12   1   0.1794  0.2424  0.6188  11.00000  0.05    0.10
Q13   1   0.3086  0.2258  0.1289  11.00000  0.05    0.10
Q14   1   0.3781  0.3120  0.0587  11.00000  0.05    0.10
Q15   1   0.5494  0.2687  0.3279  11.00000  0.05    0.10
Q16   1  -0.0853  0.1349  0.2997  11.00000  0.05    0.10
Q17   1   0.2027  0.1363  0.5378  11.00000  0.05    0.09
Q18   1   0.6151  0.5112  0.1536  11.00000  0.05    0.09
Q19   1  -0.2810  0.2963  0.1587  11.00000  0.05    0.09
Q20   1   0.0550  0.2179  0.1864  11.00000  0.05    0.09
;
_shelx_res_checksum              9471
_shelxl_version_number           2.014
loop_
_space_group_symop_operation_xyz
'x, y, z'
'-x, y+1/2, -z'
loop_
_atom_site_type_symbol
_atom_site_label
_atom_site_fract_x
_atom_site_fract_y
_atom_site_fract_z
_atom_site_U_iso_or_equiv
_atom_site_adp_type
_atom_site_calc_flag
_atom_site_occupancy
O O1 0.12555(13) 0.2273(3) 0.39523(11) 0.0489(4) Uani d 1
O O2 0.50752(14) 0.2713(4) 0.37581(15) 0.0755(6) Uani d 1
O O3 0.3243(2) 0.3359(4) 0.10399(14) 0.0881(8) Uani d 1
O O4 0.40770(18) 0.6100(4) 0.21193(13) 0.0752(6) Uani d 1
C C1 -0.0461(2) 0.2348(5) 0.20244(19) 0.0561(5) Uani d 1
H H1 -0.0462 0.1011 0.2413 0.067 Uiso calc 1
C C2 -0.1503(2) 0.2900(6) 0.1253(2) 0.0729(8) Uani d 1
H H2 -0.2191 0.1912 0.1111 0.087 Uiso calc 1
C C3 -0.1528(3) 0.4892(5) 0.0698(2) 0.0674(7) Uani d 1
H H3 -0.2235 0.5261 0.0187 0.081 Uiso calc 1
C C4 -0.0512(3) 0.6335(5) 0.08947(19) 0.0627(6) Uani d 1
H H4 -0.0532 0.7691 0.0520 0.075 Uiso calc 1
C C5 0.0551(2) 0.5787(4) 0.16510(18) 0.0541(5) Uani d 1
H H5 0.1244 0.6769 0.1777 0.065 Uiso calc 1
C C6 0.05799(18) 0.3777(4) 0.22179(15) 0.0424(4) Uani d 1
C C7 0.16819(18) 0.3149(4) 0.30515(15) 0.0423(4) Uani d 1
C C8 0.2174(2) 0.1069(4) 0.47652(17) 0.0530(5) Uani d 1
C C9 0.3435(2) 0.2362(4) 0.49400(17) 0.0528(5) Uani d 1
H H9A 0.3300 0.3770 0.5302 0.063 Uiso calc 1
H H9B 0.4070 0.1512 0.5420 0.063 Uiso calc 1
C C10 0.3938(2) 0.2810(4) 0.38704(18) 0.0521(5) Uani d 1
C C11 0.29465(19) 0.3414(4) 0.29526(16) 0.0459(5) Uani d 1
C C12 0.3405(2) 0.4251(5) 0.19222(17) 0.0547(6) Uani d 1
C C13 0.4738(3) 0.6981(8) 0.1238(2) 0.0963(13) Uani d 1
H H13A 0.5113 0.5760 0.0865 0.116 Uiso calc 1
H H13B 0.4125 0.7746 0.0701 0.116 Uiso calc 1
C C14 0.5723(3) 0.8489(8) 0.1667(3) 0.1034(13) Uani d 1
H H14A 0.6150 0.9056 0.1075 0.155 Uiso calc 1
H H14B 0.5349 0.9707 0.2027 0.155 Uiso calc 1
H H14C 0.6336 0.7725 0.2191 0.155 Uiso calc 1
C C15 0.2348(3) -0.1253(5) 0.4300(3) 0.0783(9) Uani d 1
H H15A 0.2942 -0.2090 0.4808 0.117 Uiso calc 1
H H15B 0.1531 -0.2007 0.4192 0.117 Uiso calc 1
H H15C 0.2681 -0.1128 0.3605 0.117 Uiso calc 1
C C16 0.1518(3) 0.1011(8) 0.5791(2) 0.0875(10) Uani d 1
H H16A 0.2058 0.0246 0.6369 0.131 Uiso calc 1
H H16B 0.1367 0.2511 0.6023 0.131 Uiso calc 1
H H16C 0.0710 0.0239 0.5638 0.131 Uiso calc 1
loop_
_atom_site_aniso_label
_atom_site_aniso_U_11
_atom_site_aniso_U_22
_atom_site_aniso_U_33
_atom_site_aniso_U_12
_atom_site_aniso_U_13
_atom_site_aniso_U_23
O1 0.0441(7) 0.0547(9) 0.0467(7) 0.0023(7) 0.0011(6) 0.0116(7)
O2 0.0423(8) 0.1023(16) 0.0785(11) -0.0052(10) -0.0048(7) -0.0141(11)
O3 0.0995(14) 0.115(2) 0.0519(9) -0.0407(14) 0.0162(9) -0.0276(11)
O4 0.0920(13) 0.0859(14) 0.0504(8) -0.0423(12) 0.0197(8) -0.0099(9)
C1 0.0504(11) 0.0567(14) 0.0589(12) -0.0055(11) -0.0020(9) 0.0120(11)
C2 0.0513(12) 0.080(2) 0.0815(17) -0.0104(13) -0.0140(11) 0.0144(16)
C3 0.0580(13) 0.0758(19) 0.0637(14) 0.0122(13) -0.0104(11) 0.0126(13)
C4 0.0772(16) 0.0557(15) 0.0529(12) 0.0123(13) -0.0002(11) 0.0138(11)
C5 0.0625(12) 0.0468(13) 0.0516(11) -0.0038(11) 0.0021(9) 0.0065(10)
C6 0.0434(10) 0.0437(11) 0.0397(9) 0.0029(9) 0.0035(7) 0.0003(8)
C7 0.0465(10) 0.0401(11) 0.0396(9) -0.0008(9) 0.0027(7) -0.0020(8)
C8 0.0549(11) 0.0503(13) 0.0498(10) -0.0030(11) -0.0086(9) 0.0126(10)
C9 0.0562(11) 0.0478(12) 0.0495(11) -0.0008(11) -0.0115(9) -0.0011(10)
C10 0.0460(10) 0.0511(14) 0.0565(11) -0.0084(10) -0.0042(9) -0.0112(11)
C11 0.0448(10) 0.0484(13) 0.0437(9) -0.0061(9) 0.0024(8) -0.0055(9)
C12 0.0472(11) 0.0685(17) 0.0479(11) -0.0093(11) 0.0042(9) -0.0089(11)
C13 0.097(2) 0.142(4) 0.0517(13) -0.052(2) 0.0141(13) 0.0076(17)
C14 0.106(2) 0.127(3) 0.0813(19) -0.042(2) 0.0285(18) 0.006(2)
C15 0.0798(17) 0.0445(14) 0.100(2) -0.0041(13) -0.0282(16) 0.0054(14)
C16 0.0816(17) 0.122(3) 0.0569(14) -0.016(2) 0.0003(12) 0.0320(17)
loop_
_atom_type_symbol
_atom_type_description
_atom_type_scat_dispersion_real
_atom_type_scat_dispersion_imag
_atom_type_scat_source
C C 0.0033 0.0016 'International Tables Vol C Tables 4.2.6.8 and 6.1.1.4'
H H 0.0000 0.0000 'International Tables Vol C Tables 4.2.6.8 and 6.1.1.4'
O O 0.0106 0.0060 'International Tables Vol C Tables 4.2.6.8 and 6.1.1.4'
loop_
_geom_angle_atom_site_label_1
_geom_angle_atom_site_label_2
_geom_angle_atom_site_label_3
_geom_angle
C7 O1 C8 118.91(15)
C12 O4 C13 117.7(2)
C6 C1 C2 120.2(2)
C6 C1 H1 119.9
C2 C1 H1 119.9
C3 C2 C1 120.4(3)
C3 C2 H2 119.8
C1 C2 H2 119.8
C4 C3 C2 119.9(2)
C4 C3 H3 120.0
C2 C3 H3 120.0
C3 C4 C5 120.3(2)
C3 C4 H4 119.8
C5 C4 H4 119.8
C6 C5 C4 120.0(2)
C6 C5 H5 120.0
C4 C5 H5 120.0
C1 C6 C5 119.12(19)
C1 C6 C7 119.06(19)
C5 C6 C7 121.8(2)
O1 C7 C11 123.38(17)
O1 C7 C6 110.42(15)
C11 C7 C6 126.20(17)
O1 C8 C16 104.07(19)
O1 C8 C9 108.85(18)
C16 C8 C9 112.1(2)
O1 C8 C15 107.07(18)
C16 C8 C15 112.3(3)
C9 C8 C15 112.0(2)
C10 C9 C8 111.47(17)
C10 C9 H9A 109.3
C8 C9 H9A 109.3
C10 C9 H9B 109.3
C8 C9 H9B 109.3
H9A C9 H9B 108.0
O2 C10 C11 122.0(2)
O2 C10 C9 123.4(2)
C11 C10 C9 114.65(17)
C7 C11 C10 120.29(18)
C7 C11 C12 122.69(18)
C10 C11 C12 117.00(17)
O3 C12 O4 123.4(2)
O3 C12 C11 126.0(2)
O4 C12 C11 110.56(18)
C14 C13 O4 110.5(2)
C14 C13 H13A 109.6
O4 C13 H13A 109.6
C14 C13 H13B 109.6
O4 C13 H13B 109.6
H13A C13 H13B 108.1
C13 C14 H14A 109.5
C13 C14 H14B 109.5
H14A C14 H14B 109.5
C13 C14 H14C 109.5
H14A C14 H14C 109.5
H14B C14 H14C 109.5
C8 C15 H15A 109.5
C8 C15 H15B 109.5
H15A C15 H15B 109.5
C8 C15 H15C 109.5
H15A C15 H15C 109.5
H15B C15 H15C 109.5
C8 C16 H16A 109.5
C8 C16 H16B 109.5
H16A C16 H16B 109.5
C8 C16 H16C 109.5
H16A C16 H16C 109.5
H16B C16 H16C 109.5
loop_
_geom_bond_atom_site_label_1
_geom_bond_atom_site_label_2
_geom_bond_distance
O1 C7 1.345(2)
O1 C8 1.476(2)
O2 C10 1.216(2)
O3 C12 1.194(3)
O4 C12 1.316(3)
O4 C13 1.452(3)
C1 C6 1.380(3)
C1 C2 1.384(3)
C1 H1 0.9300
C2 C3 1.369(4)
C2 H2 0.9300
C3 C4 1.366(4)
C3 H3 0.9300
C4 C5 1.389(3)
C4 H4 0.9300
C5 C6 1.386(3)
C5 H5 0.9300
C6 C7 1.483(3)
C7 C11 1.353(3)
C8 C16 1.505(3)
C8 C9 1.519(3)
C8 C15 1.521(4)
C9 C10 1.493(3)
C9 H9A 0.9700
C9 H9B 0.9700
C10 C11 1.469(3)
C11 C12 1.489(3)
C13 C14 1.417(5)
C13 H13A 0.9700
C13 H13B 0.9700
C14 H14A 0.9600
C14 H14B 0.9600
C14 H14C 0.9600
C15 H15A 0.9600
C15 H15B 0.9600
C15 H15C 0.9600
C16 H16A 0.9600
C16 H16B 0.9600
C16 H16C 0.9600
loop_
_geom_hbond_atom_site_label_D
_geom_hbond_atom_site_label_H
_geom_hbond_atom_site_label_A
_geom_hbond_site_symmetry_A
_geom_hbond_distance_DH
_geom_hbond_distance_HA
_geom_hbond_distance_DA
_geom_hbond_angle_DHA
C9 H9B O2 2_646 0.97 2.60 3.470(3) 150.1
C15 H15A O2 2_646 0.96 2.54 3.406(3) 150.8
loop_
_geom_torsion_atom_site_label_1
_geom_torsion_atom_site_label_2
_geom_torsion_atom_site_label_3
_geom_torsion_atom_site_label_4
_geom_torsion
C6 C1 C2 C3 -1.8(4)
C1 C2 C3 C4 0.8(4)
C2 C3 C4 C5 0.4(4)
C3 C4 C5 C6 -0.6(4)
C2 C1 C6 C5 1.6(4)
C2 C1 C6 C7 179.8(2)
C4 C5 C6 C1 -0.4(3)
C4 C5 C6 C7 -178.6(2)
C8 O1 C7 C11 -14.6(3)
C8 O1 C7 C6 165.99(18)
C1 C6 C7 O1 -42.0(3)
C5 C6 C7 O1 136.1(2)
C1 C6 C7 C11 138.6(2)
C5 C6 C7 C11 -43.3(3)
C7 O1 C8 C16 161.9(2)
C7 O1 C8 C9 42.2(3)
C7 O1 C8 C15 -79.0(2)
O1 C8 C9 C10 -53.7(3)
C16 C8 C9 C10 -168.3(3)
C15 C8 C9 C10 64.4(3)
C8 C9 C10 O2 -140.8(3)
C8 C9 C10 C11 40.0(3)
O1 C7 C11 C10 -2.2(3)
C6 C7 C11 C10 177.1(2)
O1 C7 C11 C12 176.0(2)
C6 C7 C11 C12 -4.7(3)
O2 C10 C11 C7 169.0(2)
C9 C10 C11 C7 -11.7(3)
O2 C10 C11 C12 -9.3(4)
C9 C10 C11 C12 169.9(2)
C13 O4 C12 O3 -5.2(4)
C13 O4 C12 C11 172.1(3)
C7 C11 C12 O3 -62.4(4)
C10 C11 C12 O3 115.9(3)
C7 C11 C12 O4 120.3(2)
C10 C11 C12 O4 -61.4(3)
C12 O4 C13 C14 -161.2(3)

_cod_database_fobs_code 1544765
