#------------------------------------------------------------------------------
#$Date: 2016-12-10 04:32:18 +0200 (Sat, 10 Dec 2016) $
#$Revision: 189045 $
#$URL: file:///home/coder/svn-repositories/cod/cif/1/54/47/1544774.cif $
#------------------------------------------------------------------------------
#
# This file is available in the Crystallography Open Database (COD),
# http://www.crystallography.net/. The original data for this entry
# were provided by IUCr Journals, http://journals.iucr.org/.
#
# The file may be used within the scientific community so long as
# proper attribution is given to the journal article from which the
# data were obtained.
#
data_1544774
loop_
_publ_author_name
'Rida, Mohammed'
'El Bakri, Youness'
'Essassi, El Mokhtar'
'Mague, Joel T.'
_publ_section_title
;
 (3<i>Z</i>)-3-Benzylidene-1<i>H</i>-benzimidazo[1,2-<i>a</i>]imidazol-2(3<i>H</i>)-one
;
_journal_coeditor_code           SJ4073
_journal_issue                   12
_journal_name_full               IUCrData
_journal_page_first              x161908
_journal_paper_doi               10.1107/S2414314616019088
_journal_volume                  1
_journal_year                    2016
_chemical_formula_iupac          'C16 H11 N3 O'
_chemical_formula_moiety         'C16 H11 N3 O'
_chemical_formula_sum            'C16 H11 N3 O'
_chemical_formula_weight         261.28
_chemical_name_systematic
(3<i>Z</i>)-3-Benzylidene-1<i>H</i>-benzimidazo[1,2-<i>a</i>]imidazol-2(3<i>H</i>)-one
_space_group_crystal_system      triclinic
_space_group_IT_number           2
_space_group_name_Hall           '-P 1'
_space_group_name_H-M_alt        'P -1'
_symmetry_space_group_name_Hall  '-P 1'
_symmetry_space_group_name_H-M   'P -1'
_atom_sites_solution_hydrogens   difmap
_atom_sites_solution_primary     direct
_atom_sites_solution_secondary   difmap
_audit_creation_method           SHELXL-2014/7
_cell_angle_alpha                103.935(3)
_cell_angle_beta                 95.015(4)
_cell_angle_gamma                96.860(3)
_cell_formula_units_Z            2
_cell_length_a                   6.6849(3)
_cell_length_b                   8.9428(5)
_cell_length_c                   10.7445(5)
_cell_measurement_reflns_used    3426
_cell_measurement_temperature    150(2)
_cell_measurement_theta_max      72.4541
_cell_measurement_theta_min      5.1505
_cell_volume                     614.44(5)
_computing_cell_refinement
;
<i>SAINT</i> (Bruker, 2016)
;
_computing_data_collection
;
<i>APEX3</i> (Bruker, 2016)
;
_computing_data_reduction
;
<i>SAINT</i> (Bruker, 2016)
;
_computing_molecular_graphics
;
<i>DIAMOND</i> (Brandenburg & Putz, 2012)
;
_computing_publication_material
;
<i>SHELXTL</i> (Sheldrick, 2008)
;
_computing_structure_refinement
;
<i>SHELXL2014</i> (Sheldrick, 2015<i>b</i>)
;
_computing_structure_solution
;
<i>SHELXT</i> (Sheldrick, 2015<i>a</i>)
;
_diffrn_ambient_temperature      150(2)
_diffrn_detector_area_resol_mean 10.4167
_diffrn_measured_fraction_theta_full 0.949
_diffrn_measured_fraction_theta_max 0.927
_diffrn_measurement_device_type  'Bruker D8 VENTURE PHOTON 100 CMOS'
_diffrn_measurement_method       '\w scans'
_diffrn_radiation_monochromator  mirror
_diffrn_radiation_type           CuK\a
_diffrn_radiation_wavelength     1.54178
_diffrn_reflns_av_R_equivalents  0.0324
_diffrn_reflns_limit_h_max       7
_diffrn_reflns_limit_h_min       -8
_diffrn_reflns_limit_k_max       9
_diffrn_reflns_limit_k_min       -11
_diffrn_reflns_limit_l_max       13
_diffrn_reflns_limit_l_min       -13
_diffrn_reflns_number            4587
_diffrn_reflns_theta_full        68.000
_diffrn_reflns_theta_max         72.448
_diffrn_reflns_theta_min         5.150
_exptl_absorpt_coefficient_mu    0.738
_exptl_absorpt_correction_T_max  0.98
_exptl_absorpt_correction_T_min  0.83
_exptl_absorpt_correction_type   multi-scan
_exptl_absorpt_process_details
;
(<i>SADABS</i>; Bruker, 2016)
;
_exptl_crystal_colour            colourless
_exptl_crystal_density_diffrn    1.412
_exptl_crystal_density_method    'not measured'
_exptl_crystal_description       plate
_exptl_crystal_F_000             272
_exptl_crystal_size_max          0.210
_exptl_crystal_size_mid          0.150
_exptl_crystal_size_min          0.023
_refine_diff_density_max         0.239
_refine_diff_density_min         -0.263
_refine_ls_extinction_method     none
_refine_ls_goodness_of_fit_ref   1.086
_refine_ls_hydrogen_treatment    refall
_refine_ls_matrix_type           full
_refine_ls_number_parameters     225
_refine_ls_number_reflns         2249
_refine_ls_number_restraints     0
_refine_ls_restrained_S_all      1.086
_refine_ls_R_factor_all          0.0617
_refine_ls_R_factor_gt           0.0468
_refine_ls_shift/su_max          0.001
_refine_ls_shift/su_mean         0.000
_refine_ls_structure_factor_coef Fsqd
_refine_ls_weighting_details
'w=1/[\s^2^(Fo^2^)+(0.0532P)^2^+0.4943P] where P=(Fo^2^+2Fc^2^)/3'
_refine_ls_weighting_scheme      calc
_refine_ls_wR_factor_gt          0.1108
_refine_ls_wR_factor_ref         0.1364
_reflns_number_gt                1810
_reflns_number_total             2249
_reflns_threshold_expression     'I > 2\s(I)'
_cod_data_source_file            sj4073sup1.cif
_cod_data_source_block           I
_cod_database_code               1544774
_shelx_space_group_comment
;
The symmetry employed for this shelxl refinement is uniquely defined
by the following loop, which should always be used as a source of
symmetry information in preference to the above space-group names.
They are only intended as comments.
;
_shelx_estimated_absorpt_t_min   0.860
_shelx_estimated_absorpt_t_max   0.983
_shelx_hkl_file
;
   1   0   0  128.17    5.64
   2   0   0    3.07    0.16
  -3   0   0    9.06    0.50
   3   0   0   10.03    0.48
   3   0   0   10.88    0.47
  -4   0   0   18.34    0.87
  -5   0   0    0.11    0.13
  -5   0   0    0.09    0.14
  -5   0   0    0.16    0.20
  -6   0   0    0.22    0.12
  -6   0   0   -0.04    0.21
  -7   0   0   19.07    0.89
  -8   0   0   -0.06    0.10
  -8   1   0    1.25    0.20
  -7   1   0    5.49    0.34
  -6   1   0    2.23    0.26
  -6   1   0    2.21    0.26
  -5   1   0   14.61    0.71
  -5   1   0   13.63    0.70
  -4   1   0    7.79    0.42
   3  -1   0   11.33    0.53
  -3   1   0   11.00    0.54
   2  -1   0   31.08    1.37
  -2   1   0   30.79    1.37
   1  -1   0   75.85    3.22
  -1   1   0   70.28    3.21
   0  -1   0   31.44    1.35
   0   1   0   29.97    1.35
  -1  -1   0    8.70    0.39
   1   1   0    8.69    0.39
   2   1   0   22.68    1.01
  -3  -1   0    0.08    0.14
   3   1   0    0.08    0.07
   3   1   0    0.06    0.05
  -4  -1   0   37.95    1.85
  -4  -1   0   39.27    1.84
  -4  -1   0   44.86    1.85
  -5  -1   0    1.21    0.29
  -5  -1   0    1.31    0.21
  -6  -1   0   15.00    0.75
  -6  -1   0   14.43    0.73
  -7  -1   0    4.35    0.26
   7   1   0    3.51    0.40
  -7   2   0    0.53    0.20
  -6   2   0   -0.14    0.14
  -6   2   0   -0.08    0.14
  -5   2   0    4.19    0.31
  -5   2   0    4.09    0.33
  -4   2   0    2.48    0.21
   3  -2   0    0.91    0.12
  -3   2   0    0.81    0.12
  -3   2   0    0.86    0.16
   2  -2   0   16.98    0.76
  -2   2   0   16.78    0.76
   1  -2   0   14.18    0.62
  -1   2   0   13.78    0.62
   0  -2   0  159.71    6.95
   0   2   0  156.92    6.96
  -1  -2   0    3.17    0.16
   1   2   0    3.10    0.15
   2   2   0    2.32    0.13
   3   2   0    5.32    0.28
  -4  -2   0   14.75    0.70
  -4  -2   0   14.14    0.72
  -5  -2   0    4.73    0.36
  -5  -2   0    5.24    0.33
  -6  -2   0    0.97    0.20
  -6  -2   0    1.01    0.26
   6   2   0    0.99    0.33
  -7  -2   0    4.16    0.26
  -7  -2   0    4.44    0.30
  -7   3   0    0.60    0.22
  -6   3   0   16.40    0.87
  -6   3   0   18.78    0.87
  -5   3   0    2.32    0.31
  -5   3   0    2.48    0.25
  -4   3   0    5.71    0.46
  -4   3   0    7.06    0.38
  -3   3   0  123.14    5.47
  -3   3   0  124.23    5.45
   2  -3   0    9.34    0.43
  -2   3   0    9.42    0.43
  -2   3   0    8.98    0.48
   1  -3   0   64.53    2.77
  -1   3   0   61.40    2.77
   0  -3   0   14.86    0.65
   0   3   0   14.11    0.65
  -1  -3   0   29.58    1.34
   1   3   0   30.59    1.34
  -2  -3   0    0.92    0.14
   2   3   0    1.05    0.10
  -3  -3   0    3.02    0.30
  -3  -3   0    3.18    0.27
   3   3   0    2.73    0.28
  -4  -3   0    8.43    0.47
  -4  -3   0    8.52    0.44
   4   3   0    7.59    0.48
  -5  -3   0    0.24    0.11
  -5  -3   0    0.17    0.14
  -6  -3   0    0.57    0.23
  -6  -3   0    0.96    0.18
  -7  -3   0    2.17    0.17
  -7  -3   0    2.03    0.21
  -7   4   0    5.59    0.36
  -6   4   0   -0.06    0.18
  -6   4   0    0.28    0.17
  -4   4   0    3.95    0.32
  -4   4   0    2.81    0.43
  -4   4   0    4.06    0.28
  -3   4   0    0.38    0.16
  -3   4   0    0.08    0.11
  -2   4   0  106.49    4.81
  -2   4   0  111.70    4.83
   1  -4   0    0.04    0.05
  -1   4   0    0.01    0.04
   0  -4   0    5.07    0.27
   0   4   0    5.27    0.26
   1   4   0   19.65    0.89
   2   4   0   13.78    0.65
  -3  -4   0   28.89    1.33
  -3  -4   0   27.90    1.36
  -3  -4   0   29.49    1.32
  -4  -4   0    3.83    0.29
  -4  -4   0    3.69    0.28
  -5  -4   0   95.51    4.24
  -5  -4   0   95.43    4.24
  -6  -4   0    3.26    0.25
  -6  -4   0    3.29    0.23
  -7  -4   0    7.44    0.37
  -7  -4   0    7.67    0.38
  -7   5   0    5.28    0.35
   6  -5   0    6.77    0.52
  -6   5   0    7.01    0.43
  -5   5   0    3.60    0.31
  -4   5   0   -0.13    0.14
  -3   5   0    2.12    0.26
  -2   5   0    6.79    0.40
  -1   5   0    7.07    0.48
  -1   5   0    6.91    0.36
   0   5   0    6.72    0.34
  -1  -5   0   35.38    1.60
  -2  -5   0    0.23    0.18
  -2  -5   0    0.32    0.15
  -2  -5   0    0.33    0.16
  -3  -5   0    2.68    0.28
  -3  -5   0    2.39    0.25
  -4  -5   0   24.93    1.15
  -4  -5   0   24.72    1.17
  -5  -5   0    3.91    0.29
  -5  -5   0    3.44    0.26
  -6  -5   0    0.20    0.08
  -6  -5   0    0.10    0.10
  -7   6   0    0.57    0.20
   6  -6   0    0.61    0.24
  -6   6   0    0.51    0.18
  -5   6   0   11.60    0.62
  -4   6   0    1.31    0.28
   3  -6   0    0.21    0.28
  -3   6   0   -0.18    0.18
   2  -6   0   21.51    1.09
  -2   6   0   25.13    1.12
   1  -6   0    0.28    0.12
   0  -6   0    3.91    0.32
   0  -6   0    4.65    0.37
   0  -6   0    4.52    0.41
  -1  -6   0    1.75    0.24
  -1  -6   0    1.40    0.26
  -2  -6   0    3.73    0.32
  -2  -6   0    4.39    0.33
  -2  -6   0    4.03    0.37
  -3  -6   0    0.27    0.13
  -3  -6   0   -0.07    0.16
  -3  -6   0   -0.06    0.15
  -4  -6   0   10.19    0.54
  -4  -6   0    9.99    0.52
  -5  -6   0    3.31    0.24
  -5  -6   0    3.12    0.23
  -6  -6   0    0.72    0.14
  -6  -6   0    0.43    0.12
   6  -7   0    0.07    0.13
  -6   7   0    0.02    0.20
   5  -7   0    0.99    0.18
  -4   7   0    4.28    0.37
   3  -7   0   14.81    0.80
  -3   7   0   17.40    0.84
   2  -7   0    6.59    0.41
   1  -7   0    4.27    0.31
   1  -7   0    4.37    0.32
   0  -7   0   17.67    0.87
   0  -7   0   18.03    0.85
  -1  -7   0   -0.04    0.12
  -1  -7   0    0.06    0.16
  -2  -7   0   57.94    2.52
  -2  -7   0   56.15    2.52
  -2  -7   0   54.74    2.53
  -3  -7   0    0.43    0.13
  -3  -7   0    0.67    0.27
  -3  -7   0    0.15    0.14
  -4  -7   0    2.04    0.20
  -4  -7   0    2.17    0.23
  -5  -7   0    0.83    0.17
  -5  -7   0    0.78    0.16
   6  -8   0    0.54    0.17
   5  -8   0    0.88    0.16
   4  -8   0    4.36    0.28
   3  -8   0    5.24    0.33
   3  -8   0    4.88    0.39
   2  -8   0    2.01    0.27
   2  -8   0    1.92    0.25
   1  -8   0    0.79    0.24
   1  -8   0    0.77    0.23
  -1  -8   0   10.85    0.56
  -2  -8   0    1.74    0.27
  -2  -8   0    1.75    0.23
  -3  -8   0    0.11    0.12
  -3  -8   0    0.36    0.18
  -3  -8   0    0.31    0.11
  -4  -8   0    0.71    0.26
   5  -9   0    0.72    0.12
   4  -9   0    0.15    0.09
   3  -9   0    8.95    0.46
   3  -9   0    9.28    0.50
   2  -9   0    2.28    0.22
   2  -9   0    2.21    0.22
   1  -9   0    0.13    0.09
   1  -9   0    0.32    0.14
   0  -9   0    3.57    0.25
  -1  -9   0    0.61    0.18
  -2  -9   0   -0.05    0.09
  -3  -9   0   -0.22    0.12
   4 -10   0    0.02    0.08
   3 -10   0    5.21    0.29
   2 -10   0    0.11    0.11
   2 -10   0   -0.07    0.10
   1 -10   0    0.15    0.08
   0 -10   0   -0.04    0.08
  -1 -10   0    0.40    0.12
  -2 -10   1    0.62    0.16
  -1 -10   1    0.52    0.16
   0 -10   1    3.78    0.24
   1 -10   1    0.44    0.15
   2 -10   1    1.20    0.17
   2 -10   1    0.90    0.17
   3 -10   1    2.30    0.18
   4 -10   1    3.71    0.22
  -3  -9   1    0.31    0.12
  -2  -9   1    7.43    0.40
  -1  -9   1    0.19    0.09
   0  -9   1    0.06    0.11
   1  -9   1    0.16    0.15
   1  -9   1    0.00    0.10
   2  -9   1    1.08    0.19
   2  -9   1    1.17    0.23
   3  -9   1    8.91    0.45
   3  -9   1    8.16    0.46
   4  -9   1    3.86    0.25
   5  -9   1    1.63    0.15
  -4  -8   1    1.01    0.24
  -4  -8   1    1.56    0.25
  -3  -8   1    0.00    0.12
  -3  -8   1   -0.14    0.18
  -3  -8   1    0.20    0.17
  -2  -8   1    3.40    0.28
  -2  -8   1    3.26    0.44
  -1  -8   1    2.84    0.26
   1  -8   1    1.99    0.24
   1  -8   1    2.56    0.27
   2  -8   1   46.91    2.11
   3  -8   1   54.47    2.43
  -4   8  -1    0.81    0.33
  -5   8  -1    0.20    0.26
   5  -8   1    0.07    0.09
   6  -8   1    0.68    0.17
  -5  -7   1    0.18    0.10
  -5  -7   1    0.02    0.09
  -4  -7   1    2.29    0.24
  -4  -7   1    2.29    0.24
  -3  -7   1    1.64    0.26
  -3  -7   1    1.13    0.30
  -3  -7   1    0.97    0.17
  -2  -7   1   31.57    1.45
  -2  -7   1   33.07    1.45
  -2  -7   1   29.98    1.47
  -1  -7   1   10.87    0.76
  -1  -7   1   12.08    0.59
   0  -7   1    0.34    0.21
   0  -7   1    0.33    0.13
   1  -7   1    4.06    0.31
  -2   7  -1    6.34    0.45
   2  -7   1    5.64    0.39
  -3   7  -1   25.14    1.14
   3  -7   1   21.86    1.10
  -4   7  -1   -0.15    0.18
  -5   7  -1    0.82    0.24
  -6   7  -1    3.33    0.31
   6  -7   1    3.58    0.26
  -6  -6   1    1.30    0.15
  -6  -6   1    1.46    0.16
  -5  -6   1    0.24    0.10
  -5  -6   1    0.09    0.10
  -4  -6   1    0.02    0.14
  -4  -6   1    0.48    0.20
  -3  -6   1   14.45    0.71
  -3  -6   1   13.99    0.74
  -3  -6   1   14.70    0.73
  -2  -6   1    5.89    0.38
  -2  -6   1    4.99    0.43
  -2  -6   1    5.65    0.39
  -1  -6   1    4.55    0.32
  -1  -6   1    3.93    0.40
   0  -6   1   19.98    0.94
  -1   6  -1   13.38    0.67
   1  -6   1   12.16    0.64
  -2   6  -1   20.48    0.97
  -2   6  -1   22.62    1.00
   2  -6   1   19.42    0.99
  -3   6  -1    1.61    0.21
  -3   6  -1    1.67    0.26
   3  -6   1    1.19    0.21
  -4   6  -1    9.56    0.53
  -5   6  -1    0.09    0.17
  -6   6  -1    5.63    0.37
  -7   6  -1    1.81    0.25
  -6  -5   1    2.53    0.19
  -6  -5   1    2.48    0.21
  -5  -5   1    1.05    0.22
  -5  -5   1    1.10    0.19
  -4  -5   1   21.69    1.05
  -4  -5   1   22.72    1.04
  -3  -5   1    6.07    0.37
  -3  -5   1    5.79    0.46
  -3  -5   1    5.29    0.38
  -2  -5   1    6.26    0.47
  -2  -5   1    7.38    0.44
  -2  -5   1    7.11    0.44
   1   5  -1   49.42    2.21
   1   5  -1   48.16    2.17
   0   5  -1   40.60    1.82
   0   5  -1   40.49    1.81
  -1   5  -1    1.27    0.14
  -1   5  -1    1.08    0.24
  -2   5  -1    6.45    0.39
  -2   5  -1    7.10    0.39
  -2   5  -1    6.83    0.40
  -3   5  -1   32.60    1.47
  -3   5  -1   30.96    1.45
  -4   5  -1    1.20    0.21
  -4   5  -1    1.30    0.23
  -5   5  -1    1.70    0.23
  -6   5  -1   10.54    0.57
  -7   5  -1    0.25    0.16
  -7  -4   1    0.13    0.09
  -7  -4   1   -0.02    0.06
  -6  -4   1    0.48    0.15
  -6  -4   1    0.28    0.12
  -5  -4   1    4.42    0.30
  -5  -4   1    4.00    0.32
   4   4  -1    1.22    0.28
  -4  -4   1    0.83    0.24
   3   4  -1    0.12    0.17
  -3  -4   1    0.18    0.13
  -3  -4   1   -0.18    0.16
   2   4  -1   63.41    2.72
   2   4  -1   59.36    2.73
   1   4  -1    1.09    0.09
  -1  -4   1    0.80    0.12
   0   4  -1    4.57    0.23
   0  -4   1    4.56    0.24
  -1   4  -1   -0.01    0.14
  -1   4  -1    0.04    0.04
   1  -4   1   -0.02    0.05
  -2   4  -1    3.44    0.20
  -2   4  -1    3.24    0.27
   2  -4   1    2.86    0.20
  -3   4  -1    0.05    0.11
  -3   4  -1    0.09    0.13
  -4   4  -1   15.23    0.78
  -4   4  -1   16.49    0.79
  -5   4  -1   12.84    0.70
  -5   4  -1   14.67    0.71
  -6   4  -1   13.30    0.69
  -7   4  -1    3.32    0.28
  -7  -3   1    2.70    0.22
  -7  -3   1    2.42    0.19
  -6  -3   1   18.24    0.89
  -6  -3   1   19.78    0.91
   5   3  -1    0.83    0.27
  -5  -3   1    1.15    0.24
  -5  -3   1    0.95    0.21
   4   3  -1   42.31    1.90
  -4  -3   1   42.48    1.90
  -4  -3   1   41.21    1.90
   3   3  -1    1.20    0.19
   3   3  -1    0.84    0.16
   2   3  -1   23.43    1.01
  -2  -3   1   21.57    1.02
   1   3  -1    1.90    0.11
  -1  -3   1    1.83    0.11
   0   3  -1    1.55    0.09
   0  -3   1    1.48    0.09
  -1   3  -1   30.61    1.38
   1  -3   1   31.88    1.38
  -2   3  -1    0.78    0.09
  -2   3  -1    0.84    0.19
   2  -3   1    0.86    0.09
  -3   3  -1   35.62    1.59
  -3   3  -1   35.02    1.60
  -4   3  -1    9.80    0.50
  -4   3  -1    9.51    0.56
  -5   3  -1    8.86    0.49
  -6   3  -1    0.35    0.18
  -6   3  -1    0.12    0.15
  -7   3  -1    7.11    0.43
  -7  -2   1    1.48    0.23
  -7  -2   1    1.70    0.18
   6   2  -1    1.12    0.26
  -6  -2   1    1.18    0.26
  -6  -2   1    1.01    0.21
  -5  -2   1   11.32    0.59
  -5  -2   1   11.27    0.57
  -4  -2   1    4.53    0.31
  -4  -2   1    4.74    0.36
   3   2  -1    1.25    0.12
   2   2  -1   14.49    0.65
   1   2  -1   10.60    0.46
  -1  -2   1    9.93    0.46
   0   2  -1    0.31    0.04
   0  -2   1    0.33    0.04
  -1   2  -1   20.49    0.92
   1  -2   1   20.92    0.92
  -2   2  -1   50.86    2.28
   2  -2   1   52.56    2.28
  -3   2  -1    0.36    0.16
  -3   2  -1    0.44    0.11
   3  -2   1    0.49    0.11
  -4   2  -1   18.25    0.87
  -5   2  -1    1.41    0.30
  -5   2  -1    1.78    0.23
  -6   2  -1   10.44    0.58
  -6   2  -1   11.24    0.58
  -7   2  -1   17.52    0.86
  -8  -1   1    2.84    0.19
   7   1  -1    1.76    0.27
  -7  -1   1    2.07    0.19
  -7  -1   1    1.76    0.28
  -6  -1   1   24.52    1.17
  -6  -1   1   25.94    1.19
  -5  -1   1    6.59    0.39
  -5  -1   1    6.22    0.43
  -4  -1   1   11.03    0.58
  -4  -1   1   12.33    0.58
  -4  -1   1   10.86    0.61
   3   1  -1    5.44    0.27
   3   1  -1    4.99    0.29
  -3  -1   1    5.09    0.30
   2   1  -1   41.85    1.85
   1   1  -1  131.12    5.76
   0   1  -1  163.58    7.34
   0  -1   1  170.90    7.34
  -1   1  -1   94.34    4.24
   1  -1   1   98.78    4.24
   2  -1   1   50.09    2.21
  -3   1  -1   75.38    3.40
   3  -1   1   77.94    3.39
  -4   1  -1   27.61    1.28
  -5   1  -1   13.44    0.69
  -5   1  -1   13.73    0.69
  -6   1  -1    4.74    0.33
  -6   1  -1    4.01    0.33
  -7   1  -1    4.45    0.30
  -8   0   1    1.81    0.17
  -7   0   1   10.41    0.53
  -6   0   1    0.07    0.12
  -6   0   1    0.23    0.20
  -5   0   1    7.28    0.42
  -5   0   1    7.16    0.41
  -5   0   1    6.84    0.47
  -4   0   1    2.57    0.23
  -4   0   1    2.73    0.29
   3   0  -1   98.61    4.21
  -3   0   1   92.46    4.22
   2   0  -1   27.41    1.22
   1   0  -1   28.61    1.21
  -1   0   1   26.07    1.20
   1   0   1   51.20    2.25
   2   0   1    3.12    0.16
   2   0   1    3.16    0.16
  -3   0  -1   70.95    3.28
   3   0   1   73.08    3.27
   3   0   1   77.60    3.26
  -4   0  -1    3.37    0.27
  -4   0  -1    4.36    0.33
  -5   0  -1    0.57    0.21
  -5   0  -1    0.07    0.12
  -5   0  -1    0.20    0.15
  -6   0  -1   -0.05    0.23
  -6   0  -1    0.88    0.22
  -7   0  -1    2.82    0.24
  -8   1   1    6.55    0.34
  -7   1   1    0.48    0.17
  -6   1   1   10.89    0.56
  -6   1   1    9.94    0.56
  -5   1   1   18.83    0.90
  -5   1   1   17.84    0.88
  -4   1   1   20.91    0.98
   3  -1  -1   11.58    0.55
  -3   1   1   11.64    0.57
   2  -1  -1   53.85    2.37
  -2   1   1   53.56    2.37
   1  -1  -1  319.51   13.53
  -1   1   1  296.59   13.53
   0  -1  -1    5.41    0.24
   0   1   1    5.33    0.24
  -1  -1  -1  148.00    6.58
   1   1   1  152.24    6.60
   2   1   1   13.48    0.61
  -3  -1  -1    0.47    0.17
   3   1   1    0.54    0.10
  -4  -1  -1   18.23    0.93
  -4  -1  -1   19.58    0.94
  -4  -1  -1   20.87    0.92
  -5  -1  -1    0.22    0.12
  -5  -1  -1   -0.08    0.16
  -6  -1  -1    4.96    0.38
  -6  -1  -1    4.26    0.31
  -8   2   1   -0.01    0.11
  -7   2   1    1.15    0.20
  -6   2   1    0.23    0.15
  -6   2   1    0.09    0.12
  -5   2   1    7.23    0.44
  -5   2   1    7.88    0.44
  -4   2   1    0.54    0.18
  -4   2   1    0.39    0.13
   3  -2  -1   48.94    2.26
  -3   2   1   50.69    2.28
  -3   2   1   53.30    2.27
   2  -2  -1    1.77    0.10
  -2   2   1    1.70    0.11
   1  -2  -1    3.00    0.15
  -1   2   1    2.93    0.15
   0  -2  -1  356.21   15.38
   0   2   1  344.62   15.39
  -1  -2  -1    8.53    0.38
   1   2   1    8.16    0.38
   2   2   1    0.00    0.03
   3   2   1   21.59    0.98
  -4  -2  -1    0.04    0.14
  -4  -2  -1    0.06    0.12
  -5  -2  -1    5.13    0.37
  -5  -2  -1    5.43    0.34
  -6  -2  -1    2.75    0.25
  -6  -2  -1    2.70    0.30
  -7  -2  -1    0.15    0.08
  -7  -2  -1    0.16    0.13
  -7   3   1    1.74    0.23
  -7   3   1    1.80    0.24
  -6   3   1   69.51    2.93
  -6   3   1   61.21    2.95
  -5   3   1    8.35    0.53
  -5   3   1    9.90    0.52
  -4   3   1   16.09    0.82
  -4   3   1   16.39    0.79
  -3   3   1   46.59    2.12
  -3   3   1   47.83    2.11
   2  -3  -1    1.15    0.11
  -2   3   1    1.12    0.11
   1  -3  -1    6.39    0.30
  -1   3   1    6.36    0.30
   0  -3  -1   10.67    0.49
   0   3   1   10.57    0.48
  -1  -3  -1  156.60    7.00
   1   3   1  162.01    6.99
   2   3   1    0.43    0.10
  -3  -3  -1    9.87    0.53
  -3  -3  -1   10.01    0.52
  -4  -3  -1    1.89    0.22
  -4  -3  -1    1.76    0.24
  -5  -3  -1    0.25    0.12
  -5  -3  -1    0.35    0.15
  -6  -3  -1   30.02    1.35
  -6  -3  -1   28.90    1.35
  -7  -3  -1    3.61    0.26
  -7  -3  -1    3.61    0.22
  -7   4   1   -0.02    0.13
  -7   4   1    0.32    0.15
  -6   4   1    4.78    0.36
  -6   4   1    4.29    0.34
  -5   4   1    9.38    0.53
  -5   4   1    9.25    0.55
  -4   4   1    1.31    0.22
  -4   4   1    1.07    0.20
  -3   4   1    0.90    0.20
  -2   4   1   23.76    1.08
  -2   4   1   23.72    1.11
   1  -4  -1    8.54    0.43
   0   4   1    1.10    0.10
   1   4   1    0.04    0.06
  -2  -4  -1    5.55    0.39
  -2  -4  -1    6.37    0.43
  -2  -4  -1    6.17    0.37
  -3  -4  -1    0.44    0.12
  -3  -4  -1    0.58    0.22
  -3  -4  -1    0.43    0.18
  -4  -4  -1    9.90    0.54
  -4  -4  -1    9.74    0.51
  -5  -4  -1   43.51    1.99
  -5  -4  -1   44.62    2.00
  -6  -4  -1    0.80    0.18
  -6  -4  -1    0.73    0.15
  -7   5   1    2.65    0.27
  -6   5   1    0.12    0.16
  -6   5   1   -0.01    0.14
  -4   5   1    1.41    0.25
  -4   5   1    1.36    0.34
  -3   5   1   17.09    0.81
  -3   5   1   15.96    0.83
  -2   5   1    3.97    0.36
   0  -5  -1    9.61    0.51
  -1  -5  -1    4.76    0.34
  -1  -5  -1    4.40    0.34
  -1  -5  -1    4.18    0.60
  -2  -5  -1    8.27    0.46
  -2  -5  -1    7.68    0.48
  -2  -5  -1    8.02    0.44
  -3  -5  -1    6.05    0.36
  -3  -5  -1    6.28    0.40
  -3  -5  -1    5.52    0.41
  -4  -5  -1    5.10    0.36
  -4  -5  -1    5.76    0.34
  -5  -5  -1    0.03    0.12
  -5  -5  -1    0.01    0.10
  -6  -5  -1   14.92    0.69
  -6  -5  -1   14.59    0.69
   6  -6  -1   14.79    0.72
  -6   6   1   14.28    0.74
   5  -6  -1   19.97    0.93
  -5   6   1   19.18    0.96
  -4   6   1    0.91    0.30
  -3   6   1    4.34    0.39
   2  -6  -1    0.02    0.16
  -2   6   1   -0.06    0.19
   1  -6  -1    2.73    0.27
   1  -6  -1    2.42    0.26
   0  -6  -1    2.48    0.30
   0  -6  -1    2.36    0.26
   0  -6  -1    2.42    0.28
  -1  -6  -1    0.44    0.13
  -1  -6  -1    0.40    0.15
  -1  -6  -1    0.36    0.21
  -2  -6  -1    9.19    0.53
  -2  -6  -1    9.34    0.50
  -2  -6  -1    8.60    0.49
  -3  -6  -1    0.00    0.13
  -3  -6  -1    0.08    0.15
  -3  -6  -1    0.10    0.14
  -4  -6  -1   10.71    0.56
  -4  -6  -1   11.42    0.57
  -5  -6  -1    1.40    0.17
  -5  -6  -1    1.45    0.18
   6  -7  -1    2.24    0.22
   5  -7  -1    0.08    0.11
  -5   7   1    0.09    0.28
   4  -7  -1    6.49    0.38
   3  -7  -1    0.10    0.13
   3  -7  -1    0.05    0.21
   2  -7  -1    9.54    0.50
   2  -7  -1    9.13    0.53
   1  -7  -1  125.07    5.60
   1  -7  -1  128.15    5.59
   0  -7  -1    2.71    0.27
   0  -7  -1    2.43    0.31
  -1  -7  -1    3.71    0.29
  -1  -7  -1    3.47    0.31
  -2  -7  -1    3.71    0.31
  -2  -7  -1    3.80    0.30
  -2  -7  -1    3.98    0.36
  -3  -7  -1    4.59    0.33
  -3  -7  -1    4.62    0.30
  -3  -7  -1    4.08    0.32
  -4  -7  -1    6.49    0.35
  -4  -7  -1    6.46    0.37
  -5  -7  -1    3.09    0.21
  -5  -7  -1    3.52    0.23
   6  -8  -1    0.34    0.13
   5  -8  -1   -0.04    0.09
   4  -8  -1   10.50    0.53
   3  -8  -1    4.61    0.31
   3  -8  -1    4.45    0.39
   2  -8  -1   47.56    2.17
   2  -8  -1   49.05    2.18
   1  -8  -1    0.57    0.22
   1  -8  -1    0.21    0.15
  -1   8   1   -0.06    0.19
   0  -8  -1    0.02    0.11
   0  -8  -1    0.13    0.19
  -1  -8  -1   11.27    0.58
  -2  -8  -1    0.59    0.18
  -2  -8  -1    0.62    0.21
  -3  -8  -1   -0.13    0.10
  -3  -8  -1    0.22    0.18
  -3  -8  -1    0.06    0.11
   5  -9  -1    0.13    0.08
   4  -9  -1    0.40    0.13
   3  -9  -1    8.57    0.44
   2  -9  -1    5.55    0.33
   2  -9  -1    5.44    0.34
   1  -9  -1    1.37    0.20
   1  -9  -1    1.08    0.21
   0  -9  -1    0.23    0.10
  -1  -9  -1    0.42    0.15
  -2  -9  -1    1.09    0.17
   3 -10  -1    2.03    0.16
   2 -10  -1    1.33    0.21
   2 -10  -1    1.37    0.17
   1 -10  -1    1.76    0.17
   0 -10  -1    2.34    0.17
  -1 -10  -1    0.00    0.07
   1 -11   2    2.00    0.17
  -2 -10   2    1.23    0.17
  -1 -10   2    1.12    0.16
   0 -10   2    0.07    0.08
   1 -10   2    1.58    0.18
   2 -10   2    0.30    0.12
   2 -10   2    0.21    0.09
   3 -10   2   -0.08    0.09
   3 -10   2   -0.19    0.11
   4 -10   2    0.08    0.08
  -3  -9   2    5.11    0.33
  -2  -9   2    0.81    0.20
  -1  -9   2    0.00    0.10
   0  -9   2    0.67    0.20
   1  -9   2    1.41    0.24
   1  -9   2    1.20    0.21
   2  -9   2    0.65    0.20
   2  -9   2    0.85    0.19
   3  -9   2    4.20    0.30
   4  -9   2    0.05    0.09
   5  -9   2    0.75    0.13
  -4  -8   2    1.75    0.27
  -3  -8   2    5.55    0.38
  -2  -8   2    1.58    0.24
  -1  -8   2    6.95    0.40
   0  -8   2    4.99    0.34
   1  -8   2    7.14    0.41
  -2   8  -2   49.87    2.26
   2  -8   2   48.88    2.21
  -3   8  -2    3.47    0.36
   3  -8   2    4.00    0.32
  -4   8  -2   25.00    1.19
  -5   8  -2    3.69    0.33
   6  -8   2    2.84    0.22
  -5  -7   2    0.47    0.12
  -4  -7   2    1.36    0.25
  -4  -7   2    1.03    0.23
  -3  -7   2   12.81    0.68
  -3  -7   2   12.94    0.67
  -2  -7   2   -0.19    0.14
  -2  -7   2    0.49    0.42
  -1  -7   2   16.81    0.81
   0   7  -2    0.62    0.29
   0  -7   2    0.31    0.12
  -1   7  -2   25.19    1.11
   1  -7   2   20.94    1.07
  -2   7  -2   20.81    0.97
   2  -7   2   18.90    0.94
  -3   7  -2    4.60    0.36
   3  -7   2    3.95    0.36
  -4   7  -2   10.61    0.59
  -5   7  -2    2.56    0.28
  -6   7  -2    9.54    0.52
  -6  -6   2    2.66    0.20
  -6  -6   2    2.69    0.21
  -5  -6   2    3.41    0.25
  -5  -6   2    3.68    0.27
  -4  -6   2    0.14    0.14
  -4  -6   2    0.03    0.14
  -3  -6   2    6.47    0.41
  -3  -6   2    6.04    0.41
  -2  -6   2    0.41    0.21
  -2  -6   2    0.16    0.15
  -2  -6   2   -0.20    0.19
   1   6  -2    1.41    0.26
  -1  -6   2    1.26    0.24
   0   6  -2    0.40    0.17
   0  -6   2    0.42    0.13
  -1   6  -2    0.38    0.18
  -1   6  -2    0.41    0.16
  -2   6  -2    0.97    0.23
  -2   6  -2    1.22    0.25
  -3   6  -2   23.01    1.09
  -3   6  -2   23.83    1.11
  -4   6  -2   19.61    0.98
  -4   6  -2   22.39    1.02
  -5   6  -2    2.27    0.25
  -6   6  -2   11.20    0.60
  -7   6  -2   -0.13    0.17
  -6  -5   2    0.45    0.15
  -6  -5   2    0.54    0.17
  -5  -5   2    0.88    0.20
  -5  -5   2    0.80    0.21
  -4  -5   2   80.95    3.65
  -4  -5   2   82.96    3.65
   3   5  -2   18.16    0.89
  -3  -5   2   18.93    0.89
  -3  -5   2   18.48    0.89
   2   5  -2    5.17    0.33
  -2  -5   2    4.78    0.42
  -2  -5   2    5.33    0.42
   1   5  -2    4.21    0.28
   1   5  -2    3.93    0.25
   0   5  -2   43.95    1.96
   0   5  -2   43.91    1.95
  -1   5  -2   18.83    0.88
  -1   5  -2   19.75    0.90
  -2   5  -2    3.14    0.26
  -2   5  -2    3.79    0.30
  -2   5  -2    3.43    0.27
  -3   5  -2    6.89    0.44
  -3   5  -2    9.35    0.47
  -4   5  -2    1.66    0.25
  -4   5  -2    1.84    0.24
  -5   5  -2    1.25    0.22
  -5   5  -2    1.36    0.23
  -6   5  -2    0.99    0.22
  -7   5  -2    0.35    0.15
  -7  -4   2   -0.01    0.08
  -7  -4   2    0.01    0.07
  -6  -4   2   10.20    0.52
  -6  -4   2   10.71    0.53
   5   4  -2   12.36    0.70
  -5  -4   2   14.01    0.67
  -5  -4   2   13.94    0.68
   4   4  -2    4.16    0.31
  -4  -4   2    4.02    0.32
  -4  -4   2    3.92    0.29
   3   4  -2   17.37    0.82
  -3  -4   2   17.43    0.84
  -3  -4   2   17.56    0.85
   2   4  -2    2.30    0.17
   2   4  -2    2.07    0.21
   1   4  -2    0.06    0.04
   1   4  -2    0.29    0.12
  -1  -4   2    0.09    0.07
   0   4  -2   82.09    3.70
   0   4  -2   87.75    3.69
   0  -4   2   81.39    3.69
  -1   4  -2   22.47    0.96
  -1   4  -2   21.44    0.98
   1  -4   2   20.28    0.96
  -2   4  -2   13.26    0.63
  -2   4  -2   13.14    0.61
   2  -4   2   12.33    0.60
  -3   4  -2    4.98    0.31
  -3   4  -2    4.38    0.32
  -3   4  -2    4.93    0.36
  -4   4  -2    8.18    0.49
  -4   4  -2    9.03    0.48
  -5   4  -2   12.44    0.66
  -5   4  -2   13.08    0.67
  -6   4  -2    0.21    0.17
  -7   4  -2   13.31    0.67
  -7  -3   2    2.93    0.24
  -7  -3   2    3.02    0.20
  -6  -3   2   15.18    0.73
  -6  -3   2   13.98    0.71
   5   3  -2    0.88    0.24
  -5  -3   2    0.75    0.21
  -5  -3   2    0.67    0.16
   4   3  -2   12.22    0.60
  -4  -3   2   11.39    0.61
  -4  -3   2   11.69    0.60
   3   3  -2   12.79    0.61
   3   3  -2   12.25    0.60
   2   3  -2    4.18    0.26
   2   3  -2    4.73    0.23
   1   3  -2    5.15    0.25
  -1  -3   2    5.27    0.25
   0   3  -2   38.64    1.56
   0  -3   2   32.06    1.56
  -1   3  -2   42.66    1.86
   1  -3   2   41.57    1.86
  -2   3  -2    1.63    0.18
  -2   3  -2    1.52    0.12
   2  -3   2    1.68    0.11
  -3   3  -2   14.88    0.71
  -3   3  -2   15.46    0.73
  -4   3  -2   16.30    0.76
  -4   3  -2   14.63    0.79
  -5   3  -2    1.60    0.22
  -6   3  -2    8.25    0.48
  -7   3  -2    0.68    0.24
   7   2  -2    0.38    0.21
  -7  -2   2    0.79    0.20
  -7  -2   2    0.65    0.15
   6   2  -2   14.82    0.79
  -6  -2   2   16.85    0.79
  -6  -2   2   16.23    0.78
  -5  -2   2   33.10    1.53
  -5  -2   2   33.85    1.54
  -4  -2   2    0.56    0.23
  -4  -2   2    1.08    0.27
   3   2  -2  123.41    5.43
   2   2  -2   32.13    1.42
   1   2  -2   65.71    2.93
  -1  -2   2   67.49    2.93
   0   2  -2    0.10    0.03
   0  -2   2    0.08    0.02
  -1   2  -2    8.24    0.37
   1  -2   2    8.13    0.37
  -2   2  -2   14.37    0.68
   2  -2   2   16.02    0.69
  -3   2  -2    9.00    0.46
   3  -2   2    8.60    0.43
  -4   2  -2    2.90    0.22
  -5   2  -2    2.06    0.24
  -6   2  -2    0.61    0.23
  -7   2  -2    1.51    0.26
  -8  -1   2    1.90    0.15
   7   1  -2    0.92    0.24
  -7  -1   2    1.12    0.17
  -7  -1   2    1.06    0.25
  -6  -1   2    0.48    0.20
  -6  -1   2    0.54    0.18
  -5  -1   2    0.61    0.21
  -5  -1   2    0.46    0.18
  -4  -1   2    3.09    0.28
  -4  -1   2    2.74    0.33
   3   1  -2    8.86    0.45
   3   1  -2    9.35    0.43
  -3  -1   2    8.98    0.46
   2   1  -2   35.58    1.64
   2   1  -2   38.54    1.64
   1   1  -2    0.85    0.05
   1  -1   2 1000.00   43.81
   2  -1   2  110.61    4.86
  -3   1  -2    0.46    0.16
   3  -1   2    0.26    0.08
  -4   1  -2   39.51    1.79
  -5   1  -2    2.32    0.29
  -5   1  -2    2.63    0.28
  -6   1  -2    6.57    0.40
  -6   1  -2    5.69    0.41
  -7   1  -2    0.29    0.14
  -8   0   2    2.45    0.18
  -6   0   2    9.32    0.54
  -6   0   2    9.44    0.51
  -5   0   2    2.48    0.25
  -5   0   2    2.45    0.25
  -5   0   2    2.71    0.33
  -4   0   2   23.76    1.07
  -4   0   2   21.88    1.07
   3   0  -2  128.93    5.56
  -3   0   2  123.68    5.57
   2   0  -2   12.21    0.55
   1   0  -2   52.31    2.22
  -1   0   2   48.98    2.23
   1   0   2  384.10   16.85
   2   0   2   72.46    3.13
   2   0   2   69.60    3.12
  -3   0  -2    4.92    0.33
   3   0   2    5.07    0.30
   3   0   2    5.46    0.27
  -4   0  -2   14.69    0.70
  -4   0  -2   13.60    0.70
  -4   0  -2   13.53    0.75
  -5   0  -2    3.48    0.31
  -5   0  -2    3.69    0.32
  -5   0  -2    3.84    0.41
  -7   0  -2    0.56    0.20
  -8   1   2    2.49    0.19
  -7   1   2    0.71    0.18
  -6   1   2   32.72    1.49
  -6   1   2   32.37    1.52
  -5   1   2   10.12    0.53
  -5   1   2    8.98    0.62
  -5   1   2   11.01    0.55
  -4   1   2   22.15    1.00
  -4   1   2   20.30    1.01
   3  -1  -2    0.59    0.11
  -3   1   2    0.62    0.16
   2  -1  -2    6.93    0.33
  -2   1   2    7.13    0.33
   1  -1  -2   13.78    0.61
  -1   1   2   13.47    0.61
   0  -1  -2   72.18    3.07
   0   1   2   67.89    3.07
  -1  -1  -2  404.94   17.45
   1   1   2  390.60   17.45
   2   1   2    0.04    0.03
  -3  -1  -2   38.57    1.84
   3   1   2   42.45    1.81
  -4  -1  -2    0.76    0.18
  -4  -1  -2    0.68    0.15
  -5  -1  -2   11.87    0.61
  -5  -1  -2   12.05    0.64
  -6  -1  -2    0.10    0.18
  -6  -1  -2    0.12    0.11
  -7  -1  -2    0.01    0.10
  -8   2   2    1.70    0.17
  -7   2   2    3.70    0.26
  -6   2   2    0.69    0.22
  -6   2   2    0.55    0.14
  -5   2   2    1.88    0.24
  -5   2   2    1.91    0.26
  -4   2   2    6.66    0.38
  -4   2   2    6.25    0.43
  -3   2   2    0.08    0.06
  -3   2   2    0.09    0.12
   2  -2  -2  176.72    7.71
  -2   2   2  174.86    7.72
   1  -2  -2   29.77    1.25
  -1   2   2   26.46    1.24
   0  -2  -2  261.70   10.97
   0   2   2  238.88   10.98
  -1  -2  -2   13.24    0.58
   1   2   2   12.46    0.58
   2   2   2    0.02    0.04
  -3  -2  -2   -0.05    0.13
  -3  -2  -2    0.11    0.14
   3   2   2    0.14    0.11
  -4  -2  -2    0.50    0.13
  -4  -2  -2    0.65    0.25
  -5  -2  -2   13.64    0.68
  -5  -2  -2   13.61    0.70
  -6  -2  -2    0.55    0.23
  -6  -2  -2    0.30    0.12
  -7  -2  -2   -0.02    0.09
  -7  -2  -2    0.09    0.14
  -7   3   2    3.38    0.26
  -6   3   2    0.14    0.16
  -6   3   2    0.06    0.14
  -5   3   2    1.35    0.25
  -5   3   2    1.35    0.24
  -4   3   2   37.72    1.67
  -4   3   2   34.94    1.66
  -3   3   2   15.70    0.75
  -3   3   2   15.73    0.76
   2  -3  -2   30.17    1.33
  -2   3   2   29.09    1.33
   1  -3  -2   10.86    0.51
  -1   3   2   11.04    0.50
   0  -3  -2   19.75    0.87
   0   3   2   18.62    0.86
  -1  -3  -2   27.46    1.25
   1   3   2   28.04    1.24
   2   3   2    0.00    0.07
  -3  -3  -2   12.39    0.62
  -3  -3  -2   11.52    0.65
  -4  -3  -2   13.17    0.68
  -4  -3  -2   13.45    0.66
  -5  -3  -2    5.29    0.33
  -5  -3  -2    5.20    0.37
  -6  -3  -2    4.89    0.31
  -6  -3  -2    4.87    0.29
  -7  -3  -2    0.70    0.14
  -7  -3  -2    1.01    0.21
  -7   4   2    0.05    0.11
  -6   4   2    3.77    0.30
  -6   4   2    3.32    0.31
   5  -4  -2   22.09    1.16
  -5   4   2   25.81    1.18
  -5   4   2   25.42    1.16
  -4   4   2    8.87    0.51
  -4   4   2    9.21    0.53
  -3   4   2    6.98    0.46
  -3   4   2    7.24    0.42
  -2   4   2   45.56    2.05
  -2   4   2   46.24    2.08
  -1   4   2   15.22    0.70
   0   4   2   37.63    1.68
   1   4   2   31.25    1.41
  -2  -4  -2   43.33    2.03
  -2  -4  -2   45.86    2.03
  -2  -4  -2   46.00    2.04
  -3  -4  -2    0.19    0.12
  -3  -4  -2    0.27    0.16
  -3  -4  -2    0.01    0.13
  -4  -4  -2    1.63    0.26
  -4  -4  -2    2.02    0.22
  -5  -4  -2    2.94    0.27
  -5  -4  -2    2.65    0.24
  -6  -4  -2   12.69    0.61
  -6  -4  -2   12.72    0.61
  -7   5   2    0.20    0.18
  -6   5   2   17.69    0.90
  -6   5   2   18.56    0.87
   5  -5  -2   10.65    0.58
  -5   5   2   10.79    0.60
  -5   5   2   10.70    0.60
   4  -5  -2    4.90    0.35
  -4   5   2    5.12    0.39
  -4   5   2    5.52    0.40
  -3   5   2    4.61    0.38
  -3   5   2    3.65    0.36
   2  -5  -2    0.01    0.19
  -2   5   2    0.20    0.16
   1  -5  -2   17.53    0.87
   1  -5  -2   18.02    0.86
   0  -5  -2    2.94    0.34
   0  -5  -2    3.17    0.30
   0  -5  -2    4.17    0.29
  -1  -5  -2   32.72    1.42
  -1  -5  -2   31.58    1.42
  -1  -5  -2   29.73    1.45
  -1  -5  -2   29.95    1.43
  -2  -5  -2   -0.13    0.15
  -2  -5  -2   -0.13    0.12
  -2  -5  -2   -0.13    0.14
  -3  -5  -2    1.19    0.28
  -3  -5  -2    1.58    0.20
  -3  -5  -2    1.56    0.26
  -4  -5  -2    0.73    0.19
  -4  -5  -2    1.09    0.23
  -5  -5  -2    1.60    0.20
  -5  -5  -2    1.63    0.19
  -6  -5  -2    8.17    0.40
  -6  -5  -2    7.94    0.39
  -6   6   2   -0.11    0.14
  -6   6   2    0.22    0.24
   5  -6  -2    4.27    0.31
  -5   6   2    3.94    0.37
   4  -6  -2    4.89    0.34
  -4   6   2    5.10    0.40
  -4   6   2    4.52    0.46
   3  -6  -2    0.00    0.13
  -3   6   2   -0.13    0.16
   2  -6  -2    8.83    0.49
   2  -6  -2    8.86    0.52
  -2   6   2    9.56    0.53
   1  -6  -2   -0.12    0.12
   1  -6  -2    0.08    0.14
   0  -6  -2    9.22    0.51
   0  -6  -2    9.55    0.53
   0  -6  -2    9.76    0.51
  -1  -6  -2    1.67    0.25
  -1  -6  -2    1.79    0.32
  -1  -6  -2    1.87    0.23
  -2  -6  -2    0.19    0.11
  -2  -6  -2    0.38    0.14
  -2  -6  -2    0.61    0.26
  -3  -6  -2   39.00    1.74
  -3  -6  -2   37.66    1.74
  -3  -6  -2   38.20    1.74
  -4  -6  -2    0.18    0.15
  -4  -6  -2    0.23    0.12
  -4  -6  -2    0.04    0.10
  -5  -6  -2    2.44    0.20
  -5  -6  -2    2.50    0.18
   6  -7  -2    0.61    0.22
   5  -7  -2    0.42    0.18
   4  -7  -2    0.03    0.12
  -4   7   2   -0.12    0.17
   3  -7  -2    0.89    0.20
  -3   7   2    0.51    0.18
   2  -7  -2   28.65    1.31
   2  -7  -2   27.60    1.30
  -2   7   2   28.54    1.32
   1  -7  -2   36.92    1.70
   1  -7  -2   38.34    1.72
   0  -7  -2    0.31    0.13
   0  -7  -2    0.63    0.26
  -1  -7  -2   25.61    1.16
  -1  -7  -2   25.04    1.16
  -1  -7  -2   23.68    1.20
  -2  -7  -2    3.71    0.35
  -2  -7  -2    3.68    0.29
  -2  -7  -2    4.12    0.29
  -3  -7  -2   20.36    0.94
  -3  -7  -2   19.59    0.95
  -3  -7  -2   20.72    0.95
  -4  -7  -2   -0.03    0.22
  -4  -7  -2    0.46    0.18
  -4  -7  -2   -0.04    0.08
   5  -8  -2    0.07    0.09
   4  -8  -2    0.90    0.16
   2  -8  -2    5.04    0.37
   2  -8  -2    5.32    0.34
   1  -8  -2    0.13    0.12
   1  -8  -2   -0.05    0.15
  -1   8   2    0.77    0.29
   0  -8  -2    1.07    0.22
   0  -8  -2    0.64    0.25
  -1  -8  -2    1.43    0.19
  -2  -8  -2    0.16    0.09
  -3  -8  -2    5.06    0.30
  -3  -8  -2    5.00    0.36
   4  -9  -2   -0.02    0.08
   3  -9  -2    1.18    0.15
   2  -9  -2    0.10    0.10
   2  -9  -2    0.07    0.10
   1  -9  -2    1.38    0.20
   1  -9  -2    1.62    0.19
   1   9   2    0.79    0.25
  -2  -9  -2    0.76    0.16
   1 -10  -2    2.20    0.19
   0 -10  -2    7.91    0.39
   1 -11   3    0.61    0.13
  -2 -10   3    0.78    0.18
  -1 -10   3    2.54    0.19
   0 -10   3    2.57    0.20
   1 -10   3    0.44    0.16
   2 -10   3   -0.07    0.09
   3 -10   3   -0.02    0.09
   3 -10   3   -0.06    0.10
   4 -10   3    1.84    0.15
  -2  -9   3   10.36    0.52
  -1  -9   3    0.12    0.11
   0  -9   3    9.62    0.50
   2  -9   3    1.88    0.23
  -3   9  -3    1.87    0.33
   3  -9   3    1.94    0.25
  -4   9  -3   11.02    0.63
   5  -9   3    0.04    0.08
  -4  -8   3    0.11    0.16
  -3  -8   3   -0.13    0.14
  -2  -8   3    1.68    0.25
  -1  -8   3   59.85    2.67
   0   8  -3    2.57    0.49
   0  -8   3    2.74    0.27
  -1   8  -3    8.64    0.57
   1  -8   3    9.18    0.48
  -2   8  -3    1.40    0.32
   2  -8   3    1.77    0.24
  -3   8  -3    3.27    0.33
   3  -8   3    3.47    0.30
  -4   8  -3    0.06    0.17
  -5   8  -3    0.20    0.17
   6  -8   3    0.74    0.15
  -5  -7   3    1.28    0.20
  -4  -7   3    1.14    0.25
  -4  -7   3    1.33    0.33
  -2  -7   3    0.95    0.26
   1   7  -3   15.94    0.78
  -1  -7   3   15.31    0.76
   0   7  -3   10.41    0.55
   0  -7   3    9.47    0.52
  -1   7  -3    0.77    0.25
  -1   7  -3    0.63    0.23
   1  -7   3    0.58    0.21
  -2   7  -3    1.19    0.21
  -2   7  -3    0.97    0.27
  -3   7  -3    5.55    0.37
  -3   7  -3    5.28    0.33
  -4   7  -3    9.92    0.50
  -4   7  -3    9.17    0.53
   4  -7   3    9.74    0.71
  -5   7  -3    1.50    0.24
  -6   7  -3    4.20    0.32
  -6  -6   3    1.27    0.20
  -6  -6   3    1.22    0.16
  -5  -6   3   -0.07    0.11
  -5  -6   3   -0.14    0.12
  -4  -6   3    0.13    0.14
  -4  -6   3    0.74    0.25
   3   6  -3    4.67    0.37
  -3  -6   3    4.57    0.37
  -3  -6   3    4.11    0.38
   2   6  -3    0.28    0.19
  -2  -6   3    0.38    0.23
  -2  -6   3   -0.09    0.16
   1   6  -3    0.03    0.13
  -1  -6   3    0.19    0.14
   0   6  -3   16.09    0.86
   0   6  -3   18.21    0.81
  -1   6  -3   31.56    1.51
  -1   6  -3   34.35    1.51
  -2   6  -3    4.98    0.34
  -2   6  -3    5.29    0.34
  -3   6  -3    1.52    0.23
  -3   6  -3    0.98    0.21
  -4   6  -3   18.25    0.87
  -4   6  -3   16.24    0.83
  -5   6  -3    0.70    0.19
  -5   6  -3    0.85    0.20
  -6   6  -3   -0.09    0.14
  -6  -5   3    0.84    0.16
  -6  -5   3    0.64    0.16
   5   5  -3    0.84    0.34
  -5  -5   3    1.10    0.22
  -5  -5   3    1.03    0.22
   4   5  -3   54.41    2.43
  -4  -5   3   53.55    2.42
  -4  -5   3   53.70    2.42
   3   5  -3    0.64    0.21
  -3  -5   3    0.50    0.17
  -3  -5   3    0.41    0.19
   2   5  -3    0.50    0.18
  -2  -5   3    0.46    0.23
  -2  -5   3    0.34    0.19
   1   5  -3   31.29    1.42
   1   5  -3   31.79    1.42
   0   5  -3   14.52    0.67
   0   5  -3   14.37    0.68
  -1   5  -3    0.03    0.11
  -1   5  -3    0.05    0.08
  -2   5  -3    0.17    0.17
  -2   5  -3    0.66    0.26
  -2   5  -3    0.17    0.14
  -2   5  -3    0.14    0.15
  -3   5  -3   39.12    1.82
  -3   5  -3   41.27    1.84
  -4   5  -3   11.67    0.60
  -4   5  -3   10.59    0.57
  -5   5  -3    0.21    0.14
  -5   5  -3    0.50    0.16
  -6   5  -3    1.50    0.22
  -7  -4   3    0.10    0.07
  -7  -4   3    0.20    0.09
   6   4  -3    1.26    0.32
  -6  -4   3    1.00    0.20
   5   4  -3   22.73    1.13
  -5  -4   3   24.87    1.12
  -5  -4   3   24.06    1.11
   4   4  -3    5.33    0.33
  -4  -4   3    4.84    0.36
  -4  -4   3    4.42    0.34
   3   4  -3   48.67    2.17
  -3  -4   3   48.02    2.18
  -3  -4   3   48.41    2.18
   2   4  -3    0.11    0.07
   2   4  -3    0.08    0.11
   1   4  -3   25.27    1.15
   1   4  -3   26.74    1.13
  -1  -4   3   23.89    1.14
   0   4  -3   25.36    1.10
   0   4  -3   24.43    1.12
   0  -4   3   24.47    1.11
  -1   4  -3   22.43    0.97
  -1   4  -3   21.40    0.98
   1  -4   3   20.70    0.96
  -2   4  -3   55.94    2.41
  -2   4  -3   55.41    2.42
   2  -4   3   51.29    2.40
  -3   4  -3   22.04    1.00
  -3   4  -3   20.97    1.00
  -3   4  -3   20.39    1.00
  -4   4  -3   47.85    2.13
  -4   4  -3   45.82    2.11
  -5   4  -3    0.14    0.15
  -5   4  -3    0.12    0.17
  -6   4  -3    3.33    0.30
  -7   4  -3    2.59    0.28
   7   3  -3    2.90    0.53
  -7  -3   3    2.27    0.20
  -7  -3   3    2.21    0.18
   6   3  -3    0.10    0.18
  -6  -3   3   -0.07    0.11
  -6  -3   3   -0.03    0.13
   5   3  -3    1.56    0.23
  -5  -3   3    1.14    0.21
  -5  -3   3    0.95    0.26
  -4  -3   3    0.45    0.14
  -4  -3   3    0.68    0.26
   3   3  -3   23.58    1.09
   3   3  -3   24.28    1.08
  -3  -3   3   23.14    1.11
   2   3  -3   20.64    0.90
   2   3  -3   18.60    0.88
   1   3  -3    0.90    0.14
   1   3  -3    0.87    0.07
  -1  -3   3    1.00    0.09
   0   3  -3    4.68    0.22
   0  -3   3    4.61    0.22
  -1   3  -3    7.02    0.38
  -1   3  -3    8.23    0.35
   1  -3   3    7.71    0.35
  -2   3  -3    0.36    0.15
  -2   3  -3    0.11    0.05
   2  -3   3    0.21    0.05
  -3   3  -3    0.12    0.12
  -4   3  -3    5.14    0.34
  -4   3  -3    5.16    0.39
  -5   3  -3    0.18    0.22
  -5   3  -3    1.06    0.22
  -6   3  -3    3.35    0.30
  -7   3  -3    5.42    0.39
   7   2  -3    0.22    0.18
  -7  -2   3   -0.02    0.08
  -7  -2   3   -0.05    0.12
   6   2  -3    0.18    0.16
  -6  -2   3   -0.05    0.14
  -6  -2   3    0.02    0.11
  -5  -2   3    9.29    0.54
  -5  -2   3   10.35    0.53
  -4  -2   3    0.25    0.13
  -4  -2   3    0.33    0.16
   3   2  -3    5.15    0.28
   2   2  -3   18.49    0.80
   2   2  -3   17.14    0.79
   2   2  -3   17.12    0.81
   1   2  -3    4.23    0.20
  -1   2  -3    7.24    0.32
   1  -2   3    7.01    0.32
  -2   2  -3   11.27    0.55
   2  -2   3   11.16    0.51
  -3   2  -3    2.09    0.21
   3  -2   3    2.51    0.20
  -4   2  -3    0.16    0.14
  -4   2  -3    0.01    0.26
  -5   2  -3    0.58    0.22
  -6   2  -3    3.83    0.33
  -8  -1   3    0.45    0.11
   7   1  -3    1.02    0.21
  -7  -1   3    0.81    0.16
  -7  -1   3    1.16    0.24
  -6  -1   3   75.76    3.40
  -6  -1   3   76.70    3.40
  -5  -1   3    3.83    0.28
  -5  -1   3    3.43    0.33
  -4  -1   3    0.29    0.18
  -4  -1   3    0.22    0.14
   3   1  -3    1.20    0.17
   3   1  -3    1.40    0.13
   2   1  -3    9.18    0.41
   2   1  -3    8.57    0.41
   1   1  -3    0.68    0.05
   1   1  -3    0.76    0.05
   2  -1   3    0.54    0.06
   2  -1   3    0.38    0.08
  -3   1  -3   41.71    1.89
   3  -1   3   43.71    1.86
   3  -1   3   40.12    1.87
  -4   1  -3    0.20    0.14
  -4   1  -3   -0.15    0.21
  -5   1  -3   11.86    0.58
  -5   1  -3    8.56    0.57
  -6   1  -3   -0.13    0.17
  -6   1  -3   -0.07    0.21
  -8   0   3    1.51    0.14
  -6   0   3   12.16    0.65
  -6   0   3   11.76    0.61
  -5   0   3   16.04    0.87
  -5   0   3   20.56    0.91
  -4   0   3   21.59    1.10
  -4   0   3   24.70    1.09
  -4   0   3   23.10    1.08
   3   0  -3    0.17    0.09
  -3   0   3    0.35    0.14
   2   0  -3   33.10    1.47
   1   0  -3   62.68    2.81
  -1   0   3   65.46    2.81
   1   0   3   76.31    3.35
   2   0   3   35.23    1.58
   2   0   3   35.77    1.57
  -3   0  -3    4.37    0.33
   3   0   3    4.42    0.31
   3   0   3    5.36    0.27
  -4   0  -3   15.80    0.79
  -4   0  -3   16.19    0.82
  -5   0  -3    5.96    0.49
  -5   0  -3    8.09    0.43
  -6   0  -3    3.93    0.32
  -8   1   3    0.89    0.14
  -7   1   3    0.13    0.09
  -5   1   3    5.12    0.34
  -5   1   3    4.25    0.45
  -5   1   3    5.29    0.35
  -4   1   3    2.09    0.21
  -4   1   3    1.83    0.69
  -4   1   3    1.94    0.27
   3  -1  -3    0.71    0.14
  -3   1   3    0.93    0.16
   2  -1  -3    0.72    0.07
  -2   1   3    0.70    0.08
   1  -1  -3    1.41    0.08
  -1   1   3    1.26    0.08
   0  -1  -3   32.71    1.40
   0   1   3   30.93    1.40
  -1  -1  -3   35.32    1.54
   1   1   3   34.39    1.54
   2   1   3    0.63    0.08
   3   1   3    7.68    0.39
  -4  -1  -3   22.72    1.09
  -4  -1  -3   24.13    1.11
  -5  -1  -3    2.27    0.26
  -5  -1  -3    2.70    0.31
  -6  -1  -3    1.37    0.28
  -6  -1  -3    0.89    0.21
  -7  -1  -3    1.52    0.20
  -8   2   3    1.81    0.16
  -7   2   3    1.93    0.20
  -6   2   3    1.34    0.23
  -5   2   3   32.89    1.49
  -5   2   3   30.97    1.47
  -4   2   3    3.02    0.29
  -4   2   3    2.74    0.24
  -3   2   3    0.94    0.19
  -3   2   3    1.04    0.15
   2  -2  -3   21.25    0.97
  -2   2   3   21.82    0.97
   1  -2  -3    4.07    0.20
  -1   2   3    3.72    0.19
   0  -2  -3   32.95    1.40
   0   2   3   30.18    1.40
  -1  -2  -3   27.96    1.22
   1   2   3   26.44    1.21
   2   2   3   38.18    1.70
  -3  -2  -3    0.28    0.17
  -3  -2  -3    0.05    0.15
  -3  -2  -3    0.07    0.18
  -4  -2  -3    5.32    0.35
  -4  -2  -3    5.65    0.38
  -5  -2  -3    1.22    0.22
  -5  -2  -3    0.72    0.25
  -6  -2  -3    0.67    0.24
  -6  -2  -3    0.61    0.18
  -7  -2  -3    0.31    0.11
  -7   3   3    1.82    0.20
  -6   3   3   14.43    0.69
  -6   3   3   13.16    0.72
  -5   3   3    0.73    0.24
  -5   3   3    1.03    0.25
   4  -3  -3    1.60    0.25
  -4   3   3    1.77    0.24
  -4   3   3    1.52    0.27
  -3   3   3   29.74    1.33
  -3   3   3   29.19    1.32
  -3   3   3   26.73    1.33
  -2   3   3    7.02    0.36
   1  -3  -3   70.07    3.15
  -1   3   3   72.65    3.15
   0  -3  -3   11.19    0.53
   0   3   3   11.09    0.51
   1   3   3   82.00    3.62
  -2  -3  -3    0.13    0.16
  -2  -3  -3    0.09    0.14
  -2  -3  -3    0.55    0.22
   2   3   3    0.02    0.10
  -3  -3  -3   17.63    0.84
  -3  -3  -3   17.11    0.87
  -3  -3  -3   18.29    0.86
  -4  -3  -3    5.38    0.37
  -4  -3  -3    5.67    0.35
  -5  -3  -3    7.33    0.41
  -5  -3  -3    7.17    0.42
  -6  -3  -3   27.12    1.24
  -6  -3  -3   27.34    1.25
  -7   4   3    0.93    0.18
  -6   4   3    5.73    0.40
  -6   4   3    6.15    0.38
   5  -4  -3   18.23    0.95
  -5   4   3   20.02    0.93
  -5   4   3   19.10    0.95
   4  -4  -3    5.97    0.40
  -4   4   3    6.26    0.41
  -4   4   3    5.81    0.40
   3  -4  -3    4.37    0.33
  -3   4   3    4.13    0.35
  -3   4   3    4.34    0.35
   2  -4  -3   37.60    1.71
   1  -4  -3   14.17    0.72
  -1   4   3   13.93    0.67
   0  -4  -3   10.25    0.54
   0  -4  -3   10.72    0.59
   0   4   3   10.37    0.51
  -1  -4  -3    5.61    0.40
  -1  -4  -3    6.57    0.38
  -1  -4  -3    6.53    0.41
  -1  -4  -3    6.57    0.45
  -2  -4  -3   34.86    1.62
  -2  -4  -3   36.06    1.61
  -3  -4  -3    6.99    0.40
  -3  -4  -3    6.97    0.45
  -3  -4  -3    7.42    0.43
  -4  -4  -3    0.19    0.13
  -4  -4  -3    0.22    0.13
  -4  -4  -3   -0.07    0.18
  -5  -4  -3   19.49    0.91
  -5  -4  -3   19.28    0.91
  -6  -4  -3    2.21    0.18
  -6  -4  -3    2.30    0.20
  -7   5   3    0.44    0.18
  -6   5   3    0.51    0.21
   5  -5  -3    9.86    0.54
  -5   5   3   10.17    0.54
  -5   5   3    9.25    0.57
   4  -5  -3   14.62    0.73
  -4   5   3   14.35    0.77
  -4   5   3   14.67    0.74
   3  -5  -3    1.96    0.23
  -3   5   3    1.81    0.29
   2  -5  -3    0.82    0.20
   2  -5  -3    1.01    0.38
  -2   5   3    1.07    0.25
   1  -5  -3   17.49    0.83
   1  -5  -3   16.98    0.84
   0  -5  -3    0.91    0.24
   0  -5  -3    1.01    0.24
   0  -5  -3    0.43    0.17
   0  -5  -3    0.31    0.24
  -1  -5  -3    4.46    0.35
  -1  -5  -3    4.63    0.39
  -1  -5  -3    4.48    0.30
  -1  -5  -3    4.31    0.33
  -2  -5  -3    1.51    0.25
  -2  -5  -3    1.46    0.22
  -2  -5  -3    1.85    0.25
  -3  -5  -3    5.12    0.36
  -3  -5  -3    4.66    0.32
  -3  -5  -3    4.82    0.34
  -4  -5  -3    0.35    0.12
  -4  -5  -3    0.29    0.16
  -4  -5  -3    0.48    0.14
  -5  -5  -3    0.72    0.18
  -5  -5  -3    1.03    0.15
  -6   6   3    1.02    0.22
   5  -6  -3    5.76    0.35
  -5   6   3    5.46    0.37
   4  -6  -3    4.57    0.32
  -4   6   3    4.55    0.35
   3  -6  -3   21.03    0.99
  -3   6   3   20.73    1.00
   2  -6  -3    6.71    0.48
   2  -6  -3    7.15    0.41
  -2   6   3    7.01    0.43
   1  -6  -3    0.68    0.23
   1  -6  -3    1.31    0.27
   0  -6  -3   17.82    0.82
   0  -6  -3   14.66    0.86
   0  -6  -3   17.53    0.81
  -1  -6  -3   -0.06    0.21
  -1  -6  -3   -0.08    0.19
  -1  -6  -3   -0.04    0.13
  -1  -6  -3    0.09    0.13
  -2  -6  -3    0.10    0.12
  -2  -6  -3    0.12    0.12
  -2  -6  -3    0.83    0.25
  -3  -6  -3   22.48    1.03
  -3  -6  -3   21.69    1.03
  -3  -6  -3   21.55    1.02
  -4  -6  -3   -0.16    0.14
  -4  -6  -3    0.12    0.10
  -4  -6  -3    0.10    0.09
  -5  -6  -3    0.67    0.13
  -5  -6  -3    0.93    0.16
   4  -7  -3    3.80    0.27
  -4   7   3    3.18    0.30
   3  -7  -3    0.29    0.14
  -3   7   3    0.02    0.14
   2  -7  -3    7.55    0.46
   2  -7  -3    6.66    0.40
  -2   7   3    6.34    0.42
   1  -7  -3    2.20    0.26
   1  -7  -3    2.48    0.28
   0  -7  -3    5.03    0.36
   0  -7  -3    5.06    0.35
  -1  -7  -3    6.20    0.48
  -1  -7  -3    7.38    0.40
  -2  -7  -3   20.16    0.98
  -2  -7  -3   21.08    0.96
  -2  -7  -3   20.25    0.96
  -3  -7  -3    0.33    0.10
  -3  -7  -3    0.58    0.20
  -3  -7  -3    0.30    0.13
  -4  -7  -3    0.74    0.18
  -4  -7  -3    0.95    0.13
   5  -8  -3   -0.03    0.08
   4  -8  -3    0.43    0.14
  -4   8   3   -0.19    0.23
   2  -8  -3    1.03    0.23
   2  -8  -3    0.44    0.17
  -2   8   3    0.63    0.23
   1  -8  -3    0.03    0.10
   1  -8  -3    0.22    0.12
  -1   8   3    0.15    0.13
   0  -8  -3   12.27    0.57
   0  -8  -3   10.83    0.59
  -1  -8  -3    0.03    0.09
  -2  -8  -3    0.73    0.17
  -3  -8  -3    0.05    0.10
   4  -9  -3    0.12    0.08
   3  -9  -3    8.53    0.42
   2  -9  -3    0.80    0.26
   1  -9  -3   -0.12    0.09
   1  -9  -3    0.48    0.19
  -1   9   3   -0.04    0.14
   0  -9  -3    1.81    0.17
   0   9   3    1.50    0.23
   1   9   3    0.73    0.23
   1 -11   4    5.07    0.26
  -1 -10   4   -0.02    0.08
   0 -10   4    0.14    0.09
   1 -10   4    3.45    0.23
   2 -10   4    0.07    0.08
   2 -10   4    0.48    0.18
   3 -10   4    0.09    0.11
   3 -10   4    0.34    0.14
   4 -10   4    0.09    0.08
  -2  -9   4    5.38    0.32
  -1  -9   4    0.51    0.19
   0  -9   4   -0.09    0.11
  -1   9  -4    5.84    0.50
   1  -9   4    6.47    0.36
  -2   9  -4    0.24    0.25
   2  -9   4    0.11    0.11
  -3   9  -4   17.02    0.88
   3  -9   4   18.98    0.84
  -4   9  -4    6.96    0.44
  -3  -8   4   -0.07    0.17
  -2  -8   4    2.67    0.27
   1   8  -4    5.71    0.45
  -1  -8   4    5.89    0.37
   0   8  -4   17.63    0.86
   0  -8   4   16.80    0.82
  -1   8  -4    8.02    0.48
   1  -8   4    7.82    0.44
  -2   8  -4   11.17    0.56
  -2   8  -4   10.45    0.59
   2  -8   4   11.50    0.57
  -3   8  -4   32.26    1.45
  -3   8  -4   29.89    1.48
   3  -8   4   33.29    1.45
  -4   8  -4    2.14    0.27
   4  -8   4    2.36    0.30
  -5   8  -4    1.71    0.24
   6  -8   4    0.03    0.09
  -5  -7   4    6.86    0.38
  -4  -7   4    1.30    0.24
   3   7  -4    2.73    0.35
  -3  -7   4    2.72    0.34
   2   7  -4   47.39    2.07
  -2  -7   4   43.84    2.05
   1   7  -4   -0.16    0.17
  -1  -7   4   -0.05    0.13
   0   7  -4    3.19    0.28
  -1   7  -4    2.26    0.28
  -1   7  -4    2.30    0.27
  -2   7  -4    0.85    0.24
  -2   7  -4    0.94    0.22
  -3   7  -4    5.04    0.37
  -3   7  -4    5.74    0.35
  -4   7  -4    7.75    0.41
  -4   7  -4    7.33    0.46
  -5   7  -4    0.70    0.20
  -6   7  -4    3.84    0.30
  -6  -6   4    0.69    0.15
  -5  -6   4    0.09    0.11
  -5  -6   4   -0.03    0.15
   4   6  -4   -0.14    0.22
  -4  -6   4   -0.06    0.18
  -4  -6   4    0.25    0.15
   3   6  -4   26.83    1.19
  -3  -6   4   24.14    1.20
   2   6  -4    3.84    0.29
  -2  -6   4    3.46    0.36
  -2  -6   4    3.91    0.44
   1   6  -4    5.28    0.31
   0   6  -4   24.56    1.08
   0   6  -4   22.06    1.12
  -1   6  -4    0.98    0.27
  -1   6  -4    0.51    0.19
  -2   6  -4   13.44    0.69
  -2   6  -4   14.72    0.71
  -3   6  -4   15.28    0.75
  -3   6  -4   14.42    0.72
  -4   6  -4    0.57    0.19
  -4   6  -4    0.68    0.22
  -5   6  -4    3.99    0.26
  -5   6  -4    3.21    0.29
  -6   6  -4    0.13    0.15
  -6  -5   4    0.24    0.11
  -6  -5   4    0.10    0.10
   5   5  -4    0.30    0.21
  -5  -5   4    0.32    0.13
  -5  -5   4    0.21    0.13
   4   5  -4    9.31    0.50
  -4  -5   4    8.85    0.51
  -4  -5   4    8.76    0.50
   3   5  -4   21.44    0.98
  -3  -5   4   20.22    1.00
   2   5  -4    1.33    0.18
  -2  -5   4    1.26    0.35
  -2  -5   4    1.29    0.39
   1   5  -4   18.76    0.91
   1   5  -4   20.62    0.91
   0   5  -4   14.60    0.69
   0   5  -4   14.44    0.72
   0   5  -4   14.81    0.68
  -1   5  -4    3.21    0.22
  -1   5  -4    2.60    0.36
  -1   5  -4    2.25    0.30
  -2   5  -4    2.45    0.23
  -2   5  -4    2.35    0.27
  -3   5  -4   -0.05    0.17
  -3   5  -4    0.25    0.15
  -4   5  -4    3.00    0.29
  -4   5  -4    2.69    0.25
  -5   5  -4   14.27    0.79
  -5   5  -4   17.46    0.77
  -6   5  -4    3.32    0.29
  -7  -4   4   -0.04    0.08
  -7  -4   4    0.06    0.09
   6   4  -4    1.63    0.28
  -6  -4   4    1.97    0.22
  -6  -4   4    2.10    0.21
   5   4  -4    3.31    0.30
  -5  -4   4    3.19    0.29
  -5  -4   4    3.62    0.30
   4   4  -4    0.17    0.15
  -4  -4   4    0.20    0.14
  -4  -4   4    0.90    0.27
   3   4  -4   28.20    1.20
  -3  -4   4   26.17    1.22
  -3  -4   4   23.55    1.22
   2   4  -4    0.43    0.16
   2   4  -4    0.48    0.15
   1   4  -4    5.97    0.33
   1   4  -4    6.60    0.30
  -1  -4   4    5.79    0.32
   0   4  -4    0.08    0.10
   0   4  -4    0.06    0.05
   0  -4   4    0.03    0.06
  -1   4  -4   54.08    2.35
  -1   4  -4   54.92    2.36
   1  -4   4   50.18    2.34
  -2   4  -4    0.27    0.13
  -2   4  -4    0.16    0.08
   2  -4   4    0.20    0.11
  -3   4  -4    8.84    0.48
  -3   4  -4    7.94    0.54
  -3   4  -4    8.71    0.46
  -4   4  -4    0.25    0.17
  -4   4  -4    0.20    0.17
  -5   4  -4    1.17    0.26
  -5   4  -4    0.83    0.21
  -6   4  -4   10.41    0.57
  -7   4  -4    1.40    0.33
   7   3  -4    0.00    0.22
  -7  -3   4    0.12    0.08
  -7  -3   4    0.20    0.10
   6   3  -4    0.41    0.17
  -6  -3   4    0.64    0.19
  -6  -3   4    0.54    0.21
   5   3  -4    7.01    0.42
  -5  -3   4    7.36    0.42
  -5  -3   4    7.61    0.43
   4   3  -4    3.15    0.25
  -4  -3   4    2.83    0.30
  -4  -3   4    2.94    0.30
   3   3  -4    0.03    0.12
  -3  -3   4    0.70    0.27
   2   3  -4   72.27    3.21
   2   3  -4   73.42    3.23
   1   3  -4   18.65    0.86
   1   3  -4   18.92    0.84
   0   3  -4   22.23    1.03
   0  -3   4   23.06    1.00
  -1   3  -4    0.91    0.16
   1  -3   4    0.97    0.08
  -2   3  -4   13.60    0.64
   2  -3   4   12.64    0.60
  -3   3  -4   25.87    1.22
  -3   3  -4   26.71    1.22
  -4   3  -4    0.50    0.22
  -4   3  -4    0.56    0.20
  -5   3  -4   15.79    0.80
  -6   3  -4    0.11    0.20
   7   2  -4    0.46    0.20
  -7  -2   4    0.14    0.11
  -7  -2   4    0.01    0.08
   6   2  -4    2.51    0.26
  -6  -2   4    2.59    0.24
  -6  -2   4    2.91    0.27
   5   2  -4    1.76    0.24
  -5  -2   4    1.56    0.24
  -5  -2   4    1.44    0.28
  -4  -2   4    4.63    0.35
  -4  -2   4    5.31    0.38
   3   2  -4   24.83    1.12
   3   2  -4   23.89    1.10
   2   2  -4   10.22    0.50
   2   2  -4   10.82    0.49
   2   2  -4   10.21    0.48
   1   2  -4    1.99    0.10
   1   2  -4    1.87    0.10
   1   2  -4    1.57    0.17
  -1   2  -4   16.26    0.76
  -2   2  -4    0.57    0.18
   2  -2   4    0.25    0.07
  -3   2  -4    9.34    0.49
   3  -2   4    9.27    0.47
  -4   2  -4    5.67    0.43
  -4   2  -4    6.39    0.39
  -5   2  -4    9.06    0.52
  -6   2  -4    0.91    0.30
   7   1  -4    2.18    0.23
  -7  -1   4    2.07    0.25
  -7  -1   4    2.45    0.19
   6   1  -4    0.17    0.14
  -6  -1   4    0.13    0.17
  -6  -1   4   -0.01    0.12
  -5  -1   4    0.53    0.21
  -5  -1   4    0.57    0.18
  -4  -1   4    7.09    0.47
  -4  -1   4    7.80    0.44
   3   1  -4   13.62    0.67
   3   1  -4   14.42    0.65
   2   1  -4  290.68   11.97
   2   1  -4  255.19   11.96
  -2   1  -4   78.55    3.60
   2  -1   4   82.53    3.57
   2  -1   4   82.67    3.57
  -3   1  -4    0.01    0.19
   3  -1   4   -0.05    0.08
  -4   1  -4    9.08    0.50
  -4   1  -4    8.37    0.57
  -5   1  -4    0.14    0.25
  -8   0   4    1.61    0.14
   7   0  -4    3.24    0.27
  -7   0   4    3.28    0.23
  -6   0   4    5.24    0.41
  -6   0   4    6.15    0.35
  -5   0   4   84.03    3.74
  -5   0   4   83.98    3.74
  -4   0   4   18.47    0.94
  -4   0   4   19.48    0.91
   3   0  -4   22.28    1.01
   2   0  -4    0.00    0.04
   2   0   4    0.17    0.07
   2   0   4   -0.01    0.04
   3   0   4    1.64    0.19
  -4   0  -4    2.59    0.34
  -4   0  -4    2.47    0.34
  -6   0  -4    0.14    0.15
  -8   1   4    0.58    0.12
  -7   1   4   -0.01    0.09
  -6   1   4   -0.21    0.19
  -6   1   4    0.25    0.12
  -5   1   4    9.59    0.50
  -5   1   4    8.70    0.58
  -4   1   4    0.90    0.24
  -4   1   4    1.21    0.24
  -3   1   4   12.82    0.63
   2  -1  -4    1.94    0.13
  -2   1   4    1.80    0.13
   1  -1  -4   14.79    0.66
  -1   1   4   14.56    0.66
   0  -1  -4   16.34    0.71
   0   1   4   15.72    0.71
   1   1   4    0.04    0.03
   2   1   4    0.14    0.06
  -3  -1  -4    7.17    0.44
  -3  -1  -4    7.15    0.48
  -3  -1  -4    6.92    0.46
   3   1   4    7.26    0.46
  -4  -1  -4    7.45    0.56
  -4  -1  -4    8.71    0.49
  -4  -1  -4    9.67    0.50
  -5  -1  -4    1.40    0.30
  -5  -1  -4    1.10    0.25
  -7   2   4    0.04    0.09
  -6   2   4    3.74    0.28
  -4   2   4    6.07    0.55
  -4   2   4    7.15    0.41
  -4   2   4    7.03    0.42
  -3   2   4   20.26    0.97
  -3   2   4   20.61    0.96
  -3   2   4   20.54    0.96
   2  -2  -4    7.45    0.37
  -2   2   4    7.44    0.37
   1  -2  -4   49.32    2.15
  -1   2   4   48.03    2.15
   0  -2  -4   21.67    0.95
   0   2   4   20.69    0.95
  -1  -2  -4   32.82    1.54
   1   2   4   36.01    1.53
  -2  -2  -4    0.29    0.17
  -2  -2  -4    0.45    0.14
  -2  -2  -4    0.39    0.15
  -3  -2  -4    0.10    0.14
  -3  -2  -4   -0.16    0.16
  -4  -2  -4    1.71    0.37
  -4  -2  -4    2.92    0.26
  -4  -2  -4    2.33    0.27
  -5  -2  -4    5.36    0.34
  -5  -2  -4    5.19    0.38
  -6  -2  -4    0.56    0.19
  -6  -2  -4    0.52    0.15
  -7   3   4    3.22    0.22
  -6   3   4    7.48    0.43
  -5   3   4    0.22    0.13
   4  -3  -4   19.82    1.02
  -4   3   4   21.96    1.02
  -4   3   4   21.98    1.03
   3  -3  -4   -0.08    0.18
  -3   3   4   -0.18    0.19
  -3   3   4    0.17    0.14
   2  -3  -4   -0.03    0.17
  -2   3   4    0.73    0.20
  -2   3   4    0.29    0.14
  -1   3   4   37.29    1.67
   0   3   4    0.55    0.13
  -1  -3  -4   92.16    4.03
  -1  -3  -4   90.71    4.04
  -1  -3  -4   90.87    4.03
   1   3   4   90.17    4.02
  -2  -3  -4    8.90    0.47
  -2  -3  -4    8.62    0.48
  -2  -3  -4    8.63    0.48
  -2  -3  -4    7.70    0.57
  -3  -3  -4   14.26    0.74
  -3  -3  -4   15.02    0.74
  -3  -3  -4   15.11    0.72
  -4  -3  -4    3.57    0.39
  -4  -3  -4    3.51    0.28
  -4  -3  -4    3.42    0.30
  -5  -3  -4    0.63    0.19
  -6  -3  -4   12.06    0.60
  -6  -3  -4   13.50    0.62
  -7   4   4    2.40    0.19
  -6   4   4    2.85    0.25
   5  -4  -4    2.12    0.36
  -5   4   4    2.48    0.27
   4  -4  -4   16.28    0.80
  -4   4   4   16.62    0.80
  -4   4   4   15.17    0.82
   3  -4  -4    4.58    0.34
  -3   4   4    4.86    0.35
   2  -4  -4    5.86    0.37
  -2   4   4    6.01    0.38
   1  -4  -4    0.96    0.23
   1  -4  -4    0.52    0.24
   1  -4  -4    0.71    0.19
   0  -4  -4   60.32    2.62
   0  -4  -4   59.48    2.63
   0  -4  -4   59.09    2.62
   0  -4  -4   55.33    2.63
  -1  -4  -4    0.60    0.20
  -1  -4  -4    0.38    0.12
  -1  -4  -4    0.70    0.25
  -1  -4  -4    0.26    0.12
  -2  -4  -4   30.63    1.41
  -2  -4  -4   30.48    1.41
  -2  -4  -4   30.82    1.40
  -3  -4  -4    3.82    0.34
  -3  -4  -4    3.73    0.32
  -3  -4  -4    4.17    0.30
  -4  -4  -4    0.19    0.13
  -4  -4  -4    0.08    0.13
  -4  -4  -4    0.17    0.17
  -5  -4  -4   11.16    0.56
  -5  -4  -4   11.13    0.55
  -6  -4  -4    2.28    0.18
  -6  -4  -4    2.65    0.21
  -7   5   4   -0.07    0.09
  -6   5   4    0.18    0.10
   5  -5  -4   12.94    0.66
  -5   5   4   12.62    0.65
   4  -5  -4   18.12    0.88
  -4   5   4   18.36    0.89
   3  -5  -4    0.33    0.15
  -3   5   4    0.15    0.15
   2  -5  -4   14.69    0.71
   2  -5  -4   13.56    0.75
  -2   5   4   14.55    0.72
   1  -5  -4    6.05    0.54
   1  -5  -4    6.58    0.39
   1  -5  -4    6.23    0.44
   0  -5  -4    7.64    0.45
   0  -5  -4    8.17    0.50
   0  -5  -4    8.63    0.45
   0  -5  -4    7.64    0.45
  -1  -5  -4    8.16    0.50
  -1  -5  -4    7.36    0.48
  -1  -5  -4    8.18    0.44
  -1  -5  -4    7.99    0.45
  -2  -5  -4    0.30    0.14
  -2  -5  -4    0.25    0.13
  -2  -5  -4    0.10    0.11
  -3  -5  -4    0.16    0.14
  -3  -5  -4    0.18    0.11
  -3  -5  -4    0.29    0.14
  -4  -5  -4    2.81    0.30
  -4  -5  -4    2.78    0.25
  -4  -5  -4    2.76    0.22
  -5  -5  -4    0.45    0.17
  -5  -5  -4    0.69    0.14
  -6   6   4   -0.10    0.09
   5  -6  -4    1.61    0.22
  -5   6   4    1.73    0.22
   4  -6  -4    0.31    0.14
  -4   6   4    0.43    0.14
   3  -6  -4    2.89    0.26
  -3   6   4    2.73    0.28
   2  -6  -4    2.89    0.35
   2  -6  -4    2.76    0.26
  -2   6   4    3.22    0.29
   1  -6  -4   11.85    0.60
   1  -6  -4   11.54    0.60
   0  -6  -4  100.06    4.47
   0  -6  -4  103.82    4.49
   0  -6  -4   99.14    4.48
  -1  -6  -4    2.60    0.26
  -1  -6  -4    3.01    0.32
  -1  -6  -4    1.82    0.33
  -1  -6  -4    2.51    0.24
  -2  -6  -4    1.08    0.27
  -2  -6  -4    1.04    0.23
  -3  -6  -4    0.43    0.13
  -3  -6  -4    0.40    0.12
  -4  -6  -4   16.05    0.78
  -4  -6  -4   17.01    0.78
  -4  -6  -4   16.46    0.77
   5  -7  -4    1.39    0.18
  -5   7   4    1.32    0.19
   4  -7  -4    2.01    0.19
  -4   7   4    1.38    0.22
   3  -7  -4    6.57    0.37
  -3   7   4    5.70    0.37
   2  -7  -4    0.02    0.16
   2  -7  -4    0.11    0.14
  -2   7   4   -0.05    0.14
   1  -7  -4   74.63    3.33
   1  -7  -4   74.72    3.32
   0  -7  -4    5.36    0.34
   0  -7  -4    5.41    0.37
  -1  -7  -4    0.09    0.21
  -1  -7  -4    0.77    0.21
  -1  -7  -4    0.43    0.18
  -2  -7  -4    5.00    0.34
  -2  -7  -4    5.17    0.32
  -3  -7  -4    0.14    0.11
  -3  -7  -4    0.26    0.09
   5  -8  -4    3.18    0.22
   4  -8  -4    0.05    0.08
  -4   8   4   -0.09    0.12
   3  -8  -4    4.27    0.26
  -3   8   4    4.13    0.29
   2  -8  -4    1.01    0.26
   2  -8  -4    0.59    0.16
  -2   8   4    0.50    0.20
   1  -8  -4    0.16    0.12
   1  -8  -4    0.08    0.10
  -1   8   4    0.17    0.11
   0  -8  -4    0.46    0.15
   0  -8  -4    0.68    0.17
   0   8   4    0.33    0.11
  -1  -8  -4    0.30    0.09
  -2  -8  -4    0.11    0.08
   3  -9  -4    1.10    0.14
   2  -9  -4    0.40    0.15
  -2   9   4    0.22    0.18
   1  -9  -4    2.70    0.22
   1  -9  -4    2.67    0.23
   0  -9  -4    3.68    0.23
  -2 -10   5    0.14    0.19
  -1 -10   5    2.11    0.19
   0 -10   5    1.24    0.16
   1 -10   5    2.20    0.19
   2 -10   5   -0.03    0.13
   2 -10   5    0.24    0.09
   3 -10   5    0.98    0.16
   3 -10   5    1.39    0.18
  -2  -9   5    0.03    0.11
  -1  -9   5    3.29    0.25
   0   9  -5    6.88    0.50
   0  -9   5    7.04    0.38
  -1   9  -5    3.69    0.36
   1  -9   5    3.80    0.27
  -2   9  -5    1.93    0.28
   2  -9   5    1.86    0.20
  -3   9  -5    6.03    0.42
   3  -9   5    6.95    0.36
  -4   9  -5    2.46    0.29
   2   8  -5   29.29    1.40
  -2  -8   5   30.81    1.37
   1   8  -5    3.39    0.33
  -1  -8   5    3.41    0.30
   0   8  -5   19.06    0.95
   0  -8   5   20.03    0.92
  -1   8  -5   10.83    0.56
  -1   8  -5   10.35    0.58
   1  -8   5   10.44    0.54
  -2   8  -5    8.54    0.45
  -2   8  -5    8.07    0.48
  -3   8  -5   13.96    0.65
  -3   8  -5   12.39    0.69
   3  -8   5   13.90    0.66
  -4   8  -5    0.05    0.16
   4  -8   5   -0.07    0.14
  -5   8  -5    1.07    0.23
  -5  -7   5    0.49    0.20
   4   7  -5    1.52    0.57
   3   7  -5    0.85    0.24
  -3  -7   5    0.39    0.22
   2   7  -5    5.26    0.35
  -2  -7   5    5.79    0.39
   1   7  -5    0.10    0.16
  -1  -7   5    0.20    0.14
   0   7  -5    0.19    0.23
   0   7  -5    0.14    0.16
  -1   7  -5   -0.08    0.17
  -1   7  -5    0.13    0.17
  -2   7  -5    0.01    0.16
  -2   7  -5    0.17    0.15
  -3   7  -5   -0.03    0.13
  -3   7  -5    0.03    0.16
  -4   7  -5    0.20    0.13
  -4   7  -5    0.55    0.23
  -5   7  -5    0.07    0.09
  -5   7  -5   -0.03    0.14
  -6   7  -5   -0.05    0.21
  -6  -6   5    0.97    0.16
   5   6  -5    0.90    0.35
   4   6  -5    2.44    0.28
  -4  -6   5    3.04    0.29
   3   6  -5   47.35    2.27
  -3  -6   5   53.54    2.28
   2   6  -5   35.95    1.51
  -2  -6   5   30.26    1.54
  -2  -6   5   32.50    1.51
   1   6  -5    3.15    0.23
   0   6  -5   -0.06    0.13
   0   6  -5   -0.03    0.26
  -1   6  -5    9.51    0.49
  -1   6  -5    8.84    0.53
  -2   6  -5    5.32    0.35
  -2   6  -5    4.73    0.37
  -2   6  -5    5.77    0.36
  -3   6  -5    2.13    0.25
  -3   6  -5    2.20    0.26
  -4   6  -5    6.59    0.43
  -4   6  -5    7.21    0.40
  -5   6  -5    1.10    0.21
  -5   6  -5    1.56    0.19
  -6   6  -5    0.15    0.16
   6   5  -5   -0.13    0.28
  -6  -5   5    0.13    0.09
  -6  -5   5    0.29    0.13
   5   5  -5   12.23    0.64
  -5  -5   5   11.56    0.62
  -5  -5   5   12.98    0.62
   4   5  -5   30.50    1.39
  -4  -5   5   27.85    1.40
  -4  -5   5   31.38    1.39
   3   5  -5   23.42    1.08
  -3  -5   5   22.70    1.10
   2   5  -5    8.97    0.45
  -2  -5   5    7.85    0.55
   1   5  -5    6.01    0.34
   0   5  -5    7.62    0.46
   0   5  -5    7.90    0.41
  -1   5  -5   10.30    0.56
  -1   5  -5   10.28    0.57
  -1   5  -5   10.79    0.53
  -2   5  -5    0.65    0.20
  -2   5  -5    0.58    0.23
  -2   5  -5    1.14    0.27
  -3   5  -5   11.47    0.59
  -3   5  -5   10.67    0.59
  -3   5  -5   11.08    0.58
  -4   5  -5   47.54    2.19
  -4   5  -5   48.49    2.17
  -5   5  -5    1.42    0.22
  -5   5  -5    1.37    0.23
  -7  -4   5    0.18    0.08
  -7  -4   5    0.15    0.10
   6   4  -5    3.12    0.29
  -6  -4   5    3.39    0.25
  -6  -4   5    3.31    0.24
   5   4  -5    3.42    0.30
  -5  -4   5    3.68    0.32
  -5  -4   5    3.85    0.31
   4   4  -5    0.48    0.20
  -4  -4   5    0.84    0.27
   3   4  -5    8.44    0.44
  -3  -4   5    7.66    0.49
   2   4  -5   12.86    0.59
  -2  -4   5   11.23    0.65
   1   4  -5    0.55    0.15
   0   4  -5   12.17    0.59
  -1   4  -5    0.25    0.12
  -2   4  -5    1.13    0.20
  -2   4  -5    1.75    0.29
  -2   4  -5    1.55    0.25
  -3   4  -5    0.56    0.23
  -3   4  -5    0.54    0.17
  -3   4  -5    0.50    0.18
  -4   4  -5   13.22    0.68
  -4   4  -5   12.84    0.66
  -5   4  -5   18.81    0.84
  -5   4  -5   16.24    0.86
  -6   4  -5    1.27    0.29
   7   3  -5    4.24    0.33
  -7  -3   5    4.25    0.25
  -7  -3   5    4.17    0.26
   6   3  -5    0.03    0.14
  -6  -3   5    0.02    0.11
  -6  -3   5    0.02    0.11
   5   3  -5    7.94    0.47
  -5  -3   5    8.87    0.49
  -5  -3   5    8.39    0.48
   4   3  -5    0.51    0.18
  -4  -3   5    0.20    0.17
  -4  -3   5    0.11    0.18
   3   3  -5   -0.10    0.11
  -3  -3   5   -0.12    0.21
  -3  -3   5   -0.07    0.18
   1   3  -5    0.96    0.15
   0   3  -5    7.79    0.40
  -1   3  -5    0.46    0.16
  -2   3  -5    5.40    0.36
  -2   3  -5    5.74    0.34
  -3   3  -5    0.92    0.21
  -3   3  -5    0.90    0.26
  -3   3  -5    1.52    0.29
  -4   3  -5   13.08    0.70
  -4   3  -5   13.71    0.69
  -4   3  -5   13.74    0.71
  -5   3  -5    4.20    0.38
  -5   3  -5    4.64    0.36
  -6   3  -5    0.35    0.24
   7   2  -5    0.79    0.21
  -7  -2   5    0.43    0.11
  -7  -2   5    0.58    0.15
   6   2  -5    0.57    0.20
  -6  -2   5    0.52    0.15
  -6  -2   5    0.56    0.19
   5   2  -5   34.79    1.53
  -5  -2   5   32.83    1.52
  -5  -2   5   31.89    1.53
   4   2  -5    0.46    0.18
  -4  -2   5    0.07    0.14
  -4  -2   5    0.14    0.17
   3   2  -5   10.65    0.54
  -3  -2   5   10.95    0.59
   1   2  -5   72.22    3.20
   0   2  -5    0.20    0.13
  -1   2  -5   73.07    3.24
  -2   2  -5  225.22    9.90
  -3   2  -5   26.15    1.25
  -3   2  -5   26.78    1.25
  -3   2  -5   27.88    1.25
  -4   2  -5    0.12    0.16
  -4   2  -5    0.13    0.17
  -4   2  -5    0.84    0.27
  -5   2  -5    0.13    0.23
  -5   2  -5   -0.01    0.21
   7   1  -5    0.45    0.19
  -7  -1   5    0.42    0.13
  -7  -1   5    0.84    0.20
   6   1  -5    3.14    0.28
  -6  -1   5    3.26    0.27
  -6  -1   5    3.29    0.31
   5   1  -5   43.56    1.87
  -5  -1   5   40.15    1.86
  -5  -1   5   38.77    1.86
  -4  -1   5    2.61    0.30
  -4  -1   5    2.40    0.30
   3   1  -5    3.63    0.25
  -3  -1   5    3.65    0.36
   1   1  -5   18.75    0.87
  -1   1  -5   81.13    3.61
  -2   1  -5  241.62   10.62
  -3   1  -5   20.65    1.00
  -3   1  -5   21.58    1.01
  -4   1  -5    0.62    0.17
  -4   1  -5    0.91    0.24
   7   0  -5    0.44    0.20
  -7   0   5    0.37    0.14
  -7   0   5    0.30    0.14
   6   0  -5    0.18    0.16
  -6   0   5   -0.05    0.09
  -6   0   5    0.08    0.17
  -5   0   5    0.53    0.22
  -5   0   5    0.89    0.27
  -4   0   5    2.48    0.32
  -4   0   5    2.04    0.28
   3   0  -5   63.92    2.94
  -3   0   5   69.84    2.97
  -3   0   5   65.47    2.98
   2   0  -5    0.11    0.14
  -3   0  -5    0.44    0.20
  -3   0  -5    0.38    0.23
  -3   0  -5    0.36    0.16
  -4   0  -5    0.02    0.32
  -4   0  -5   -0.05    0.15
  -4   0  -5    0.00    0.20
  -4   0  -5    0.39    0.20
  -5   0  -5    0.44    0.20
  -5   0  -5   -0.21    0.23
   7  -1  -5    4.64    0.32
  -7   1   5    4.52    0.27
  -5   1   5    0.52    0.17
  -5   1   5    0.65    0.21
  -4   1   5    5.44    0.39
  -4   1   5    5.73    0.44
  -3   1   5   -0.10    0.17
  -3   1   5    0.17    0.14
   2  -1  -5   13.77    0.70
  -2   1   5   14.92    0.67
   1   1   5    0.95    0.10
  -2  -1  -5    4.06    0.34
  -2  -1  -5    3.98    0.34
  -2  -1  -5    3.78    0.34
  -3  -1  -5    0.06    0.17
  -3  -1  -5   -0.10    0.18
  -3  -1  -5    0.17    0.25
  -3  -1  -5   -0.07    0.15
  -4  -1  -5    0.27    0.17
  -4  -1  -5    0.01    0.17
  -4  -1  -5    0.94    0.31
  -5  -1  -5    4.06    0.36
  -5  -1  -5    5.79    0.39
  -6  -1  -5    0.08    0.13
  -6  -1  -5    0.04    0.19
   7  -2  -5    1.25    0.26
  -7   2   5    1.80    0.17
  -6   2   5    0.19    0.12
  -4   2   5    3.23    0.43
  -4   2   5    3.29    0.29
   3  -2  -5   14.76    0.79
  -3   2   5   15.95    0.84
  -3   2   5   16.56    0.77
  -2   2   5   45.43    2.12
  -2   2   5   48.55    2.10
  -1   2   5    9.26    0.45
   0   2   5   12.17    0.57
  -1  -2  -5    0.07    0.14
  -1  -2  -5    0.12    0.16
  -1  -2  -5    0.12    0.15
  -1  -2  -5   -0.04    0.18
  -2  -2  -5    1.79    0.28
  -2  -2  -5    1.90    0.35
  -2  -2  -5    1.95    0.26
  -2  -2  -5    2.19    0.29
  -3  -2  -5    0.87    0.26
  -3  -2  -5    0.42    0.26
  -3  -2  -5    1.38    0.28
  -3  -2  -5    0.89    0.29
  -4  -2  -5   22.11    1.03
  -4  -2  -5   22.12    1.05
  -4  -2  -5   21.17    1.04
  -5  -2  -5    4.45    0.33
  -5  -2  -5    4.43    0.31
  -6  -2  -5    6.92    0.38
  -6  -2  -5    5.85    0.36
   7  -3  -5    0.77    0.23
  -7   3   5    0.93    0.13
  -6   3   5    4.67    0.31
  -5   3   5    1.35    0.24
   4  -3  -5   13.86    0.74
  -4   3   5   14.68    0.72
   3  -3  -5    3.14    0.30
  -3   3   5    3.07    0.29
   2  -3  -5    7.02    0.43
  -2   3   5    7.54    0.44
   1  -3  -5    1.28    0.22
   1  -3  -5    1.30    0.34
   1  -3  -5    1.03    0.23
  -1   3   5    1.08    0.28
   0  -3  -5   43.67    2.01
   0  -3  -5   46.62    2.02
   0  -3  -5   44.68    2.01
   0  -3  -5   43.58    2.02
  -1  -3  -5    1.72    0.25
  -1  -3  -5    1.96    0.30
  -1  -3  -5    1.76    0.30
  -1  -3  -5    2.12    0.25
  -2  -3  -5   15.14    0.72
  -2  -3  -5   15.07    0.74
  -2  -3  -5   14.00    0.78
  -2  -3  -5   15.18    0.74
  -3  -3  -5   11.67    0.64
  -3  -3  -5   11.96    0.63
  -3  -3  -5   12.80    0.62
  -4  -3  -5    0.47    0.17
  -4  -3  -5    0.77    0.22
  -4  -3  -5    1.03    0.25
  -5  -3  -5    1.30    0.22
  -5  -3  -5    1.52    0.19
  -6  -3  -5    1.02    0.21
  -6  -3  -5    1.24    0.20
  -7   4   5    0.15    0.07
  -6   4   5    0.66    0.17
   5  -4  -5   33.77    1.58
  -5   4   5   33.78    1.56
   4  -4  -5    1.52    0.27
  -4   4   5    1.59    0.25
   3  -4  -5    8.73    0.48
  -3   4   5    8.45    0.49
   2  -4  -5    1.79    0.23
  -2   4   5    1.93    0.25
   1  -4  -5    5.19    0.39
   1  -4  -5    4.07    0.43
   1  -4  -5    5.26    0.33
   0  -4  -5    2.68    0.28
   0  -4  -5    1.68    0.31
   0  -4  -5    2.47    0.27
   0  -4  -5    2.03    0.25
  -1  -4  -5   10.49    0.55
  -1  -4  -5   10.32    0.58
  -1  -4  -5   10.77    0.54
  -1  -4  -5   10.01    0.57
  -2  -4  -5    0.64    0.16
  -2  -4  -5    0.60    0.20
  -2  -4  -5    0.45    0.15
  -3  -4  -5   -0.11    0.13
  -3  -4  -5    0.17    0.12
  -4  -4  -5   13.29    0.67
  -4  -4  -5   13.21    0.65
  -4  -4  -5   13.08    0.64
  -5  -4  -5    0.18    0.09
  -5  -4  -5    0.05    0.11
  -6   5   5   -0.06    0.09
   5  -5  -5    0.74    0.25
  -5   5   5    1.08    0.20
   4  -5  -5    0.08    0.15
  -4   5   5    0.21    0.13
   3  -5  -5    9.91    0.54
  -3   5   5   10.08    0.54
   2  -5  -5    7.32    0.54
   2  -5  -5    7.91    0.46
  -2   5   5    8.51    0.46
   1  -5  -5    0.49    0.22
   1  -5  -5    0.34    0.15
   1  -5  -5    0.36    0.13
   0  -5  -5    0.12    0.19
   0  -5  -5    0.06    0.12
   0  -5  -5    0.11    0.15
  -1  -5  -5   31.71    1.50
  -1  -5  -5   31.99    1.49
  -1  -5  -5   32.48    1.50
  -1  -5  -5   33.57    1.49
  -2  -5  -5    0.36    0.13
  -2  -5  -5   -0.31    0.26
  -2  -5  -5    0.42    0.13
  -2  -5  -5    0.34    0.16
  -3  -5  -5    0.39    0.15
  -3  -5  -5    0.37    0.12
  -3  -5  -5    0.36    0.13
  -4  -5  -5    7.59    0.40
  -4  -5  -5    7.64    0.42
  -4  -5  -5    8.14    0.44
  -5  -5  -5    0.03    0.08
  -5  -5  -5    0.19    0.08
  -6   6   5    0.54    0.14
   5  -6  -5    8.10    0.44
  -5   6   5    8.10    0.43
   4  -6  -5    0.23    0.11
  -4   6   5    0.14    0.11
   3  -6  -5    0.01    0.13
  -3   6   5    0.16    0.12
   2  -6  -5    0.19    0.13
   2  -6  -5   -0.29    0.19
  -2   6   5    0.15    0.13
   1  -6  -5   10.95    0.57
   1  -6  -5   10.26    0.69
   1  -6  -5   11.28    0.58
   0  -6  -5    6.29    0.39
   0  -6  -5    6.02    0.46
   0  -6  -5    6.81    0.41
  -1  -6  -5   -0.08    0.12
  -1  -6  -5   -0.25    0.16
  -1  -6  -5    0.15    0.19
  -2  -6  -5   18.21    0.86
  -2  -6  -5   18.02    0.86
  -2  -6  -5   18.48    0.87
  -3  -6  -5    6.61    0.37
  -3  -6  -5    6.35    0.35
  -3  -6  -5    6.85    0.37
  -4  -6  -5    7.75    0.39
  -4  -6  -5    7.51    0.43
   5  -7  -5    1.06    0.19
  -5   7   5    1.20    0.16
   4  -7  -5    1.17    0.17
  -4   7   5    1.30    0.19
   3  -7  -5    0.19    0.11
  -3   7   5   -0.03    0.10
   2  -7  -5    2.46    0.36
   2  -7  -5    1.91    0.21
  -2   7   5    2.36    0.24
   1  -7  -5    8.20    0.46
   1  -7  -5    8.31    0.46
  -1   7   5    9.05    0.47
   0  -7  -5    0.59    0.19
   0  -7  -5    0.47    0.15
  -1  -7  -5    1.23    0.29
  -1  -7  -5    0.93    0.19
  -2  -7  -5   -0.12    0.08
  -2  -7  -5    0.23    0.14
  -3  -7  -5    3.22    0.26
  -3  -7  -5    3.27    0.22
  -4   8   5    0.21    0.11
   3  -8  -5    0.33    0.14
  -3   8   5    0.15    0.10
   2  -8  -5    0.74    0.16
  -2   8   5    0.86    0.16
   1  -8  -5    0.01    0.11
   1  -8  -5    0.05    0.11
  -1   8   5    0.06    0.10
   0  -8  -5   -0.04    0.14
   0  -8  -5    0.11    0.10
   0   8   5    0.21    0.10
  -1  -8  -5    0.39    0.15
   1   8   5    0.43    0.16
  -1 -10   6    0.15    0.09
   0 -10   6    1.39    0.16
   1 -10   6    0.63    0.16
   2 -10   6    0.04    0.08
   2 -10   6   -0.18    0.15
   3 -10   6    0.62    0.16
  -2  -9   6    0.10    0.11
   1   9  -6    0.36    0.27
   0   9  -6   11.62    0.64
   0  -9   6   12.18    0.58
  -1   9  -6    7.26    0.47
   1  -9   6    7.62    0.40
  -2   9  -6   20.66    1.05
   2  -9   6   23.57    1.02
  -3   9  -6    0.13    0.18
   3  -9   6    0.08    0.10
   4  -9   6    6.08    0.41
   3   8  -6    0.01    0.27
   2   8  -6    1.10    0.26
  -2  -8   6    1.55    0.28
   1   8  -6   31.34    1.49
  -1  -8   6   33.21    1.47
   0   8  -6   11.76    0.64
   0  -8   6   12.97    0.62
  -1   8  -6    6.07    0.37
  -1   8  -6    5.22    0.38
  -2   8  -6   -0.01    0.19
  -2   8  -6    0.09    0.13
  -3   8  -6    0.26    0.17
  -3   8  -6    0.55    0.15
  -4   8  -6    0.82    0.14
  -4   8  -6    0.81    0.22
  -5   8  -6    1.67    0.24
  -5  -7   6    0.26    0.14
   4   7  -6    0.52    0.22
  -4  -7   6    0.29    0.15
   3   7  -6    4.47    0.32
  -3  -7   6    3.94    0.41
   2   7  -6    0.26    0.16
  -2  -7   6    0.13    0.16
   1   7  -6   16.18    0.78
   0   7  -6    0.00    0.15
   0   7  -6   -0.27    0.26
  -1   7  -6    4.10    0.32
  -1   7  -6    4.04    0.34
  -2   7  -6    0.24    0.15
  -2   7  -6   -0.05    0.16
  -3   7  -6    6.21    0.40
  -3   7  -6    6.35    0.37
  -4   7  -6    1.67    0.18
  -4   7  -6    1.58    0.26
  -5   7  -6    2.21    0.24
  -5   7  -6    2.14    0.17
  -6  -6   6    5.58    0.30
   5   6  -6    0.77    0.29
   4   6  -6    4.07    0.31
  -4  -6   6    4.03    0.33
   3   6  -6    8.29    0.45
  -3  -6   6    8.01    0.52
  -2  -6   6   28.12    1.20
  -2  -6   6   21.17    1.15
   1   6  -6   14.80    0.72
   0   6  -6    8.81    0.48
   0   6  -6    9.38    0.58
  -1   6  -6   35.83    1.66
  -1   6  -6   37.42    1.66
  -1   6  -6   35.51    1.64
  -2   6  -6   -0.06    0.13
  -2   6  -6    0.03    0.16
  -2   6  -6    0.04    0.16
  -3   6  -6    0.92    0.25
  -3   6  -6    0.99    0.25
  -4   6  -6    2.39    0.28
  -4   6  -6    2.41    0.24
  -5   6  -6    0.14    0.16
  -5   6  -6    0.12    0.11
  -6   6  -6    0.20    0.24
   6   5  -6    1.09    0.30
  -6  -5   6    0.74    0.16
   5   5  -6   -0.14    0.16
  -5  -5   6   -0.15    0.12
   4   5  -6   27.78    1.28
  -4  -5   6   27.32    1.28
   3   5  -6    8.33    0.45
  -3  -5   6    7.71    0.50
   2   5  -6   28.10    1.24
  -2  -5   6   25.65    1.28
   1   5  -6    4.41    0.29
   0   5  -6   25.50    1.24
   0   5  -6   25.65    1.19
   0   5  -6   26.29    1.20
  -1   5  -6    2.66    0.32
  -1   5  -6    2.73    0.31
  -1   5  -6    3.07    0.24
  -2   5  -6    1.97    0.25
  -2   5  -6    1.97    0.28
  -2   5  -6    1.80    0.26
  -3   5  -6    6.91    0.42
  -3   5  -6    6.07    0.41
  -3   5  -6    6.52    0.39
  -4   5  -6    1.32    0.26
  -4   5  -6    1.75    0.31
  -4   5  -6    1.52    0.25
  -5   5  -6    0.26    0.17
  -5   5  -6    0.42    0.14
  -6   5  -6    0.45    0.26
   6   4  -6    4.78    0.32
  -6  -4   6    4.27    0.28
  -6  -4   6    4.65    0.30
   5   4  -6    3.39    0.28
  -5  -4   6    3.07    0.34
  -5  -4   6    3.48    0.28
   4   4  -6    3.02    0.28
  -4  -4   6    3.82    0.32
  -4  -4   6    4.16    0.48
   3   4  -6    5.55    0.35
  -3  -4   6    5.84    0.40
   2   4  -6   31.15    1.38
  -2  -4   6   28.87    1.41
   1   4  -6    0.00    0.19
   1   4  -6   -0.05    0.12
   0   4  -6    0.06    0.11
   0   4  -6    0.24    0.16
  -1   4  -6    6.20    0.35
  -1   4  -6    5.83    0.41
  -1   4  -6    6.53    0.40
  -2   4  -6    0.01    0.17
  -2   4  -6    0.20    0.16
  -2   4  -6    0.08    0.13
  -3   4  -6    2.42    0.28
  -3   4  -6    1.96    0.25
  -3   4  -6    2.14    0.26
  -4   4  -6    3.64    0.34
  -4   4  -6    4.03    0.36
  -4   4  -6    3.91    0.31
  -5   4  -6    1.49    0.24
  -6   4  -6    3.68    0.42
  -7  -3   6   -0.13    0.10
  -7  -3   6    0.13    0.09
   6   3  -6   -0.20    0.15
  -6  -3   6   -0.02    0.10
  -6  -3   6    0.06    0.11
   5   3  -6    0.45    0.15
  -5  -3   6    0.75    0.25
  -5  -3   6    0.49    0.16
   4   3  -6    5.93    0.36
  -4  -3   6    5.31    0.43
  -4  -3   6    6.02    0.40
   3   3  -6   -0.03    0.12
  -3  -3   6    0.15    0.17
   2   3  -6    4.30    0.27
  -2  -3   6    3.87    0.41
   1   3  -6    4.68    0.29
   0   3  -6    7.10    0.39
  -1   3  -6    0.10    0.12
  -1   3  -6   -0.12    0.15
  -1   3  -6    0.19    0.18
  -2   3  -6    2.58    0.26
  -2   3  -6    2.67    0.29
  -2   3  -6    3.48    0.29
  -3   3  -6    2.25    0.26
  -3   3  -6    2.30    0.27
  -3   3  -6    1.49    0.26
  -4   3  -6   16.30    0.81
  -4   3  -6   16.79    0.81
  -4   3  -6   16.48    0.84
   7   2  -6    0.86    0.22
  -7  -2   6    0.79    0.15
  -7  -2   6    0.91    0.17
   6   2  -6    1.07    0.21
  -6  -2   6    1.58    0.21
  -6  -2   6    1.58    0.21
   5   2  -6   19.92    0.94
  -5  -2   6   19.46    0.95
  -5  -2   6   19.89    0.95
   4   2  -6    6.86    0.37
  -4  -2   6    5.61    0.42
  -4  -2   6    5.49    0.40
   3   2  -6    1.64    0.19
  -3  -2   6    1.11    0.26
  -3  -2   6    1.48    0.29
   2   2  -6   20.77    0.96
  -2  -2   6   20.50    1.00
   1   2  -6    3.74    0.26
   0   2  -6    1.39    0.21
  -1   2  -6    3.74    0.27
  -2   2  -6  104.80    4.44
  -2   2  -6  103.81    4.45
  -2   2  -6   92.73    4.45
  -3   2  -6    3.42    0.30
  -3   2  -6    3.66    0.32
  -4   2  -6   25.43    1.17
  -4   2  -6   24.13    1.16
  -5   2  -6    0.05    0.22
   7   1  -6    0.79    0.20
  -7  -1   6    0.60    0.13
  -7  -1   6    0.98    0.18
  -6  -1   6   23.41    1.09
   5   1  -6    0.50    0.20
  -5  -1   6    0.14    0.14
  -5  -1   6    0.31    0.16
   4   1  -6    3.92    0.28
  -4  -1   6    3.40    0.33
  -4  -1   6    2.81    0.34
   3   1  -6   13.73    0.68
  -3  -1   6   14.17    0.71
  -3  -1   6   13.57    0.74
   2   1  -6    5.38    0.32
   1   1  -6   14.10    0.68
   0   1  -6    5.91    0.38
  -1   1  -6  114.24    5.06
  -2   1  -6   11.61    0.59
  -2   1  -6   11.09    0.67
  -2   1  -6   11.70    0.60
  -3   1  -6   27.34    1.19
  -3   1  -6   22.59    1.23
  -3   1  -6   25.81    1.17
  -4   1  -6    4.51    0.38
  -4   1  -6    4.11    0.35
   7   0  -6    0.22    0.17
  -7   0   6    0.49    0.13
  -7   0   6    0.22    0.13
   6   0  -6    1.10    0.22
  -6   0   6    1.32    0.27
  -6   0   6    1.00    0.19
   5   0  -6    0.17    0.17
  -5   0   6    0.23    0.13
   4   0  -6   26.89    1.22
  -4   0   6   25.12    1.23
  -4   0   6   26.21    1.23
   3   0  -6    0.85    0.21
  -3   0   6    0.54    0.18
  -3   0   6    1.11    0.28
   2   0  -6    3.98    0.30
   1   0  -6   33.23    1.52
  -1   0  -6   47.96    2.18
  -1   0  -6   46.29    2.17
  -1   0  -6   51.18    2.21
  -2   0  -6    0.66    0.23
  -2   0  -6    0.73    0.23
  -2   0  -6    0.73    0.23
  -3   0  -6   -0.08    0.21
  -3   0  -6   -0.02    0.21
  -3   0  -6    0.18    0.14
  -4   0  -6    0.76    0.23
  -4   0  -6    1.43    0.28
  -5   0  -6    0.22    0.21
   7  -1  -6   -0.13    0.17
  -7   1   6    0.12    0.08
   6  -1  -6    1.29    0.25
  -6   1   6    1.50    0.29
  -6   1   6    1.76    0.20
   5  -1  -6   16.69    0.82
  -5   1   6   16.25    0.80
  -5   1   6   16.07    0.82
   4  -1  -6  103.65    4.60
  -4   1   6  104.26    4.60
  -4   1   6  102.41    4.60
   3  -1  -6   15.11    0.96
   3  -1  -6   16.25    0.80
  -3   1   6   16.58    0.80
  -3   1   6   17.03    0.81
   2  -1  -6   24.94    1.15
  -2   1   6   23.55    1.14
   1  -1  -6    6.38    0.39
   1  -1  -6    5.90    0.43
   0  -1  -6   16.96    0.85
   0  -1  -6   16.08    0.80
   0  -1  -6   16.64    0.82
  -1  -1  -6    0.92    0.30
  -1  -1  -6    0.69    0.27
  -1  -1  -6    1.24    0.27
  -1  -1  -6    0.61    0.23
  -2  -1  -6    5.08    0.41
  -2  -1  -6    5.25    0.42
  -2  -1  -6    5.33    0.38
  -2  -1  -6    5.99    0.38
  -3  -1  -6    3.39    0.35
  -3  -1  -6    3.31    0.31
  -3  -1  -6    3.50    0.38
  -3  -1  -6    2.91    0.36
  -4  -1  -6    0.04    0.16
  -4  -1  -6    0.75    0.30
  -4  -1  -6   -0.16    0.18
  -5  -1  -6    0.32    0.17
  -5  -1  -6    0.09    0.17
   7  -2  -6   -0.03    0.29
  -7   2   6    0.12    0.07
   6  -2  -6    5.81    0.40
  -6   2   6    5.95    0.35
   5  -2  -6    3.28    0.34
  -5   2   6    3.68    0.30
  -4   2   6   22.84    1.09
  -4   2   6   23.27    1.12
   3  -2  -6    0.51    0.21
  -3   2   6    0.20    0.21
  -3   2   6   -0.02    0.11
   2  -2  -6    8.89    0.51
  -2   2   6    9.39    0.50
   1  -2  -6    1.14    0.22
   1  -2  -6    1.64    0.30
   1  -2  -6    1.47    0.26
   0  -2  -6   10.33    0.55
   0  -2  -6   10.52    0.57
   0  -2  -6    9.89    0.57
  -1  -2  -6    1.79    0.31
  -1  -2  -6    2.20    0.28
  -1  -2  -6    2.06    0.29
  -1  -2  -6    1.64    0.27
  -2  -2  -6    0.69    0.26
  -2  -2  -6    0.19    0.17
  -2  -2  -6    0.43    0.15
  -2  -2  -6    0.36    0.18
  -3  -2  -6    4.85    0.38
  -3  -2  -6    4.88    0.38
  -3  -2  -6    5.05    0.35
  -4  -2  -6   -0.10    0.16
  -4  -2  -6    0.06    0.14
  -4  -2  -6    0.22    0.16
  -5  -2  -6    0.99    0.23
  -7   3   6    6.67    0.34
  -6   3   6    0.43    0.17
   4  -3  -6   46.83    2.11
  -4   3   6   46.11    2.11
   3  -3  -6   11.82    0.62
  -3   3   6   11.59    0.60
   2  -3  -6    1.30    0.24
  -2   3   6    1.06    0.25
   1  -3  -6   13.23    0.71
   1  -3  -6   12.77    0.69
   1  -3  -6   13.21    0.66
   0  -3  -6    7.76    0.47
   0  -3  -6    7.59    0.48
   0  -3  -6    8.09    0.46
  -1  -3  -6    8.77    0.48
  -1  -3  -6    8.14    0.51
  -1  -3  -6    9.24    0.50
  -1  -3  -6    9.48    0.52
  -2  -3  -6    0.76    0.28
  -2  -3  -6    0.71    0.26
  -2  -3  -6    0.72    0.27
  -2  -3  -6    0.72    0.23
  -3  -3  -6    3.21    0.28
  -3  -3  -6    2.95    0.32
  -3  -3  -6    2.61    0.31
  -4  -3  -6    6.68    0.39
  -4  -3  -6    6.25    0.37
  -4  -3  -6    6.06    0.40
  -5  -3  -6    6.51    0.36
  -5  -3  -6    6.33    0.36
  -6   4   6    0.58    0.16
  -5   4   6    1.49    0.22
   4  -4  -6   13.99    0.72
  -4   4   6   13.96    0.71
   3  -4  -6   13.37    0.68
  -3   4   6   13.45    0.69
   2  -4  -6   -0.06    0.14
  -2   4   6    0.00    0.13
   1  -4  -6    0.53    0.19
   1  -4  -6    0.60    0.18
   1  -4  -6    0.41    0.14
   0  -4  -6    1.65    0.26
   0  -4  -6    2.13    0.30
   0  -4  -6    1.84    0.28
  -1  -4  -6   17.58    0.86
  -1  -4  -6   16.98    0.85
  -1  -4  -6   17.31    0.84
  -1  -4  -6   17.37    0.84
  -2  -4  -6   16.92    0.82
  -2  -4  -6   16.66    0.84
  -2  -4  -6   16.13    0.82
  -2  -4  -6   16.68    0.81
  -3  -4  -6    0.08    0.14
  -3  -4  -6    0.22    0.12
  -3  -4  -6   -0.09    0.14
  -4  -4  -6    0.93    0.18
  -4  -4  -6    0.66    0.14
  -4  -4  -6    0.63    0.18
  -5  -4  -6    0.09    0.10
  -6   5   6    4.68    0.27
   5  -5  -6    0.88    0.26
  -5   5   6    0.31    0.10
   4  -5  -6   18.09    0.86
  -4   5   6   17.45    0.86
   3  -5  -6    2.20    0.25
  -3   5   6    2.25    0.25
   2  -5  -6    6.61    0.41
   2  -5  -6    7.12    0.59
  -2   5   6    7.05    0.42
   1  -5  -6   -0.04    0.14
   1  -5  -6   -0.01    0.17
   1  -5  -6   -0.11    0.20
   0  -5  -6   15.23    0.78
   0  -5  -6   16.24    0.80
   0  -5  -6   15.92    0.78
  -1  -5  -6   46.82    2.13
  -1  -5  -6   47.83    2.14
  -1  -5  -6   46.83    2.14
  -2  -5  -6   -0.14    0.12
  -2  -5  -6   -0.01    0.11
  -2  -5  -6   -0.15    0.20
  -2  -5  -6    0.05    0.14
  -3  -5  -6    0.13    0.09
  -3  -5  -6    0.19    0.11
  -3  -5  -6    0.24    0.11
  -4  -5  -6    2.95    0.28
  -4  -5  -6    3.44    0.23
   5  -6  -6    0.54    0.21
  -5   6   6    0.72    0.15
   4  -6  -6    0.06    0.12
  -4   6   6    0.04    0.09
   3  -6  -6    9.94    0.51
  -3   6   6    9.58    0.51
   2  -6  -6    3.68    0.29
   2  -6  -6    4.46    0.49
  -2   6   6    3.96    0.30
   1  -6  -6    1.80    0.29
   1  -6  -6    0.99    0.22
  -1   6   6    1.51    0.24
   0  -6  -6   18.45    0.84
   0  -6  -6   15.91    0.86
   0  -6  -6   18.10    0.85
  -1  -6  -6   30.01    1.37
  -1  -6  -6   29.42    1.37
  -1  -6  -6   29.89    1.36
  -2  -6  -6    0.49    0.20
  -2  -6  -6    0.60    0.19
  -3  -6  -6   12.04    0.58
  -3  -6  -6   12.00    0.58
   4  -7  -6   -0.03    0.10
  -4   7   6   -0.14    0.09
   3  -7  -6    0.18    0.10
  -3   7   6    0.16    0.10
   2  -7  -6    7.94    0.42
  -2   7   6    8.20    0.43
   1  -7  -6    3.30    0.28
   1  -7  -6    3.18    0.24
  -1   7   6    3.21    0.24
   0  -7  -6    0.64    0.19
   0  -7  -6    0.20    0.14
   0   7   6    0.31    0.10
  -1  -7  -6   22.57    0.98
  -1  -7  -6   20.21    1.00
  -2  -7  -6   -0.10    0.15
  -2  -7  -6   -0.13    0.08
   3  -8  -6    0.17    0.09
  -3   8   6    0.03    0.09
   2  -8  -6    2.44    0.19
  -2   8   6    2.59    0.19
   1  -8  -6    0.03    0.10
   1  -8  -6    0.12    0.13
  -1   8   6    0.09    0.09
   0  -8  -6    0.11    0.09
   0   8   6    0.55    0.15
  -1 -10   7   -0.03    0.09
   0 -10   7    0.74    0.15
   1 -10   7    0.09    0.08
   2 -10   7    1.87    0.17
  -2  -9   7    0.00    0.14
   1   9  -7    0.17    0.26
  -1  -9   7    0.76    0.20
   0   9  -7    4.49    0.36
   0  -9   7    4.84    0.29
  -1   9  -7    3.39    0.33
   1  -9   7    3.88    0.26
  -2   9  -7    0.01    0.20
   2  -9   7    0.17    0.09
  -3   9  -7    4.17    0.34
   3  -9   7    4.89    0.27
   3   8  -7    0.40    0.23
   2   8  -7    1.37    0.24
  -2  -8   7    0.84    0.26
   1   8  -7   12.62    0.65
  -1  -8   7   12.90    0.63
   0   8  -7    0.18    0.18
  -1   8  -7    8.83    0.51
  -1   8  -7    9.01    0.49
  -2   8  -7    0.04    0.14
  -2   8  -7    0.00    0.13
  -3   8  -7    2.20    0.25
  -3   8  -7    1.99    0.20
  -4   8  -7    0.06    0.17
  -4   8  -7    0.15    0.08
   4  -8   7    0.12    0.11
  -5  -7   7    4.66    0.35
   4   7  -7    0.19    0.20
  -4  -7   7    0.28    0.16
   3   7  -7    0.96    0.22
   1   7  -7   25.34    1.18
   0   7  -7    1.22    0.48
   0   7  -7    1.04    0.21
  -1   7  -7    9.78    0.52
  -1   7  -7    8.87    0.52
  -2   7  -7    1.36    0.24
  -2   7  -7    1.77    0.23
  -3   7  -7    9.56    0.49
  -3   7  -7    8.78    0.52
  -4   7  -7    1.28    0.26
  -4   7  -7    1.50    0.17
  -5   7  -7    1.68    0.28
  -5   7  -7    1.90    0.15
   5   6  -7    0.74    0.27
   4   6  -7    0.04    0.16
  -4  -6   7    0.66    0.24
   3   6  -7   12.28    0.62
  -3  -6   7   12.38    0.67
   2   6  -7    7.63    0.43
   1   6  -7   11.63    0.60
   0   6  -7    6.44    0.40
   0   6  -7    6.78    0.40
   0   6  -7    6.51    0.50
  -1   6  -7    0.05    0.12
  -1   6  -7    0.20    0.19
  -1   6  -7    0.30    0.19
  -2   6  -7    0.07    0.16
  -2   6  -7   -0.19    0.13
  -2   6  -7    0.19    0.16
  -3   6  -7    0.13    0.12
  -3   6  -7    0.25    0.16
  -3   6  -7    0.09    0.17
  -4   6  -7    1.03    0.27
  -4   6  -7    1.36    0.18
  -5   6  -7    2.15    0.29
  -5   6  -7    1.89    0.18
  -6  -5   7    1.28    0.15
   5   5  -7    0.00    0.17
  -5  -5   7    0.21    0.11
   4   5  -7    1.31    0.22
  -4  -5   7    1.75    0.26
   3   5  -7    6.84    0.40
  -3  -5   7    7.06    0.46
   2   5  -7    8.40    0.45
  -2  -5   7    7.53    0.56
   1   5  -7   11.63    0.58
   1   5  -7   10.69    0.60
   0   5  -7    1.26    0.28
   0   5  -7    1.08    0.28
   0   5  -7    0.95    0.20
  -1   5  -7    0.42    0.16
  -1   5  -7    0.34    0.19
  -1   5  -7    0.51    0.15
  -2   5  -7    5.98    0.38
  -2   5  -7    5.45    0.37
  -2   5  -7    5.78    0.39
  -3   5  -7    0.01    0.15
  -3   5  -7    0.10    0.17
  -4   5  -7    0.07    0.14
  -4   5  -7    0.10    0.22
  -5   5  -7    0.31    0.20
  -5   5  -7    0.47    0.13
   6   4  -7    1.41    0.23
  -6  -4   7    1.63    0.17
   5   4  -7    0.33    0.16
  -5  -4   7    0.68    0.20
   4   4  -7   15.44    0.79
  -4  -4   7   16.85    0.80
   3   4  -7    3.61    0.28
  -3  -4   7    3.26    0.33
   2   4  -7    4.51    0.30
  -2  -4   7    4.28    0.43
   1   4  -7   62.11    2.71
   1   4  -7   62.33    2.72
  -1  -4   7   57.52    2.75
   0   4  -7    0.39    0.16
   0   4  -7    0.56    0.16
  -1   4  -7    0.45    0.14
  -1   4  -7    0.40    0.16
  -1   4  -7    0.37    0.19
  -2   4  -7    0.18    0.16
  -2   4  -7    0.21    0.18
  -2   4  -7    0.07    0.13
  -3   4  -7    0.67    0.24
  -3   4  -7    0.52    0.21
  -3   4  -7    0.17    0.21
  -4   4  -7   10.36    0.53
  -4   4  -7   10.83    0.55
  -4   4  -7    8.72    0.58
  -5   4  -7    8.87    0.45
  -5   4  -7    7.48    0.53
  -7  -3   7    0.79    0.14
   6   3  -7    0.05    0.15
  -6  -3   7    0.06    0.10
  -6  -3   7    0.75    0.20
   5   3  -7   -0.20    0.14
  -5  -3   7    0.12    0.14
  -5  -3   7   -0.08    0.17
   4   3  -7    6.84    0.41
  -4  -3   7    7.00    0.42
  -4  -3   7    6.85    0.54
   3   3  -7    2.36    0.24
  -3  -3   7    2.10    0.30
   2   3  -7    0.53    0.18
  -2  -3   7    0.74    0.22
   1   3  -7   23.02    1.17
   1   3  -7   22.04    1.11
   1   3  -7   24.70    1.08
  -1  -3   7   22.76    1.14
   0   3  -7    3.09    0.35
   0   3  -7    3.66    0.33
   0   3  -7    3.22    0.26
  -1   3  -7    0.93    0.22
  -1   3  -7    0.64    0.25
  -1   3  -7    0.98    0.24
  -2   3  -7   12.45    0.64
  -2   3  -7   11.94    0.62
  -2   3  -7   11.86    0.61
  -3   3  -7    2.85    0.28
  -3   3  -7    3.43    0.28
  -3   3  -7    2.96    0.34
  -4   3  -7   16.86    0.83
  -4   3  -7   17.23    0.83
  -5   3  -7    1.17    0.25
  -7  -2   7    0.13    0.09
  -7  -2   7   -0.11    0.09
   6   2  -7    0.13    0.15
  -6  -2   7    0.07    0.10
  -6  -2   7   -0.03    0.11
   5   2  -7   -0.02    0.15
  -5  -2   7    0.19    0.16
  -5  -2   7   -0.11    0.15
   4   2  -7   10.09    0.54
  -4  -2   7   10.33    0.59
  -4  -2   7    9.73    0.55
   3   2  -7    5.52    0.35
  -3  -2   7    5.09    0.40
   2   2  -7    4.52    0.30
  -2  -2   7    4.31    0.38
   1   2  -7   37.08    1.82
   1   2  -7   41.24    1.79
   1   2  -7   40.55    1.82
   0   2  -7    0.02    0.16
   0   2  -7    0.08    0.19
   0   2  -7   -0.12    0.15
  -1   2  -7    1.39    0.55
  -1   2  -7    0.71    0.23
  -1   2  -7    0.87    0.25
  -1   2  -7    0.61    0.26
  -2   2  -7    2.61    0.27
  -2   2  -7    2.55    0.26
  -3   2  -7   52.23    2.35
  -3   2  -7   52.23    2.34
  -4   2  -7    0.68    0.24
  -4   2  -7    0.15    0.18
  -5   2  -7   -0.12    0.19
  -5   2  -7   -0.05    0.17
  -7  -1   7    0.48    0.16
   6   1  -7    1.93    0.23
  -6  -1   7    2.13    0.25
  -6  -1   7    1.48    0.21
   5   1  -7    5.32    0.37
  -5  -1   7    6.14    0.38
  -5  -1   7    5.46    0.37
   4   1  -7   16.12    0.78
  -4  -1   7   15.30    0.79
  -4  -1   7   15.60    0.80
   3   1  -7    0.74    0.21
  -3  -1   7    0.63    0.27
   2   1  -7   62.41    2.79
   1   1  -7    3.51    0.30
   1   1  -7    3.28    0.34
   0   1  -7   19.59    0.97
   0   1  -7   20.79    1.01
   0   1  -7   21.08    0.98
  -1   1  -7   36.82    1.69
  -1   1  -7   35.74    1.66
  -1   1  -7   36.96    1.66
  -2   1  -7    3.03    0.42
  -2   1  -7    4.12    0.31
  -2   1  -7    4.07    0.32
  -3   1  -7    0.16    0.24
  -3   1  -7    0.71    0.24
  -3   1  -7    0.11    0.15
  -4   1  -7   17.23    0.83
  -4   1  -7   17.32    0.85
  -5   1  -7    0.03    0.17
   7   0  -7    1.47    0.41
  -7   0   7    0.89    0.24
   6   0  -7    0.27    0.18
  -6   0   7    0.14    0.13
  -6   0   7    0.05    0.08
   5   0  -7    7.43    0.43
  -5   0   7    7.13    0.43
  -5   0   7    6.90    0.43
   4   0  -7    5.68    0.37
  -4   0   7    5.29    0.40
  -4   0   7    5.98    0.40
   3   0  -7    0.92    0.25
  -3   0   7    1.46    0.28
   2   0  -7   24.91    1.19
  -2   0   7   24.79    1.19
   1   0  -7    1.20    0.39
   1   0  -7    1.38    0.28
   0   0  -7    0.96    0.29
   0   0  -7    0.68    0.25
   0   0  -7    0.38    0.15
  -1   0  -7    4.44    0.31
  -1   0  -7    4.11    0.32
  -1   0  -7    4.59    0.38
  -2   0  -7    1.03    0.25
  -2   0  -7    1.14    0.30
  -2   0  -7    1.27    0.24
  -3   0  -7    1.62    0.29
  -3   0  -7    1.05    0.22
  -3   0  -7    1.47    0.28
  -4   0  -7    1.77    0.34
  -5   0  -7   -0.04    0.15
  -7   1   7    0.84    0.13
   6  -1  -7    0.39    0.21
  -6   1   7    0.00    0.09
  -6   1   7    0.00    0.15
  -5   1   7    6.11    0.42
  -5   1   7    5.70    0.37
  -4   1   7    5.88    0.39
  -4   1   7    6.10    0.44
   3  -1  -7    0.71    0.28
   2  -1  -7    1.45    0.29
  -2   1   7    1.81    0.31
   1  -1  -7    9.64    0.51
   1  -1  -7    8.62    0.49
   1  -1  -7    8.20    0.54
  -1   1   7    7.69    0.53
   0  -1  -7   18.24    0.91
   0  -1  -7   19.26    0.92
   0  -1  -7   19.50    0.93
  -1  -1  -7    0.48    0.18
  -1  -1  -7    0.67    0.27
  -2  -1  -7   11.92    0.61
  -2  -1  -7   11.80    0.63
  -2  -1  -7   11.09    0.60
  -3  -1  -7    0.85    0.30
  -3  -1  -7    0.72    0.26
  -3  -1  -7    0.94    0.32
  -4  -1  -7   -0.02    0.17
  -4  -1  -7    0.29    0.24
  -4  -1  -7    0.02    0.13
  -5  -1  -7    0.23    0.18
  -5  -1  -7   -0.06    0.16
   6  -2  -7    1.72    0.35
  -6   2   7    1.68    0.18
  -5   2   7   41.74    2.01
  -5   2   7   46.95    2.02
  -4   2   7    0.73    0.24
  -4   2   7    0.02    0.21
   3  -2  -7    4.53    0.37
  -3   2   7    4.41    0.33
  -3   2   7    4.36    0.37
   2  -2  -7    0.10    0.15
  -2   2   7   -0.19    0.14
   1  -2  -7   34.14    1.63
   1  -2  -7   36.00    1.62
   1  -2  -7   36.13    1.64
   0  -2  -7    6.68    0.43
   0  -2  -7    6.77    0.41
   0  -2  -7    6.58    0.45
  -1  -2  -7    0.26    0.18
  -1  -2  -7    0.20    0.14
  -1  -2  -7    0.19    0.16
  -2  -2  -7    7.96    0.48
  -2  -2  -7    8.01    0.49
  -2  -2  -7    8.17    0.48
  -2  -2  -7    8.32    0.48
  -3  -2  -7    4.79    0.38
  -3  -2  -7    4.62    0.37
  -3  -2  -7    5.10    0.36
  -3  -2  -7    4.33    0.43
  -4  -2  -7    1.62    0.27
  -4  -2  -7    1.96    0.25
  -5  -2  -7    0.29    0.13
  -6   3   7    0.41    0.15
  -5   3   7    5.29    0.34
   4  -3  -7   45.03    2.05
  -4   3   7   45.15    2.05
   3  -3  -7   13.62    0.69
  -3   3   7   12.71    0.70
  -3   3   7   13.67    0.68
   2  -3  -7    0.01    0.16
  -2   3   7   -0.04    0.14
   1  -3  -7   12.38    0.64
   1  -3  -7   12.69    0.68
   1  -3  -7   11.99    0.67
   0  -3  -7    0.12    0.18
   0  -3  -7    0.02    0.14
  -1  -3  -7    7.04    0.45
  -1  -3  -7    6.68    0.43
  -1  -3  -7    6.95    0.44
  -2  -3  -7    0.20    0.14
  -2  -3  -7    0.16    0.19
  -2  -3  -7    0.62    0.26
  -2  -3  -7    0.16    0.14
  -3  -3  -7    6.72    0.42
  -3  -3  -7    7.69    0.45
  -3  -3  -7    7.96    0.44
  -4  -3  -7    0.18    0.11
  -4  -3  -7    0.62    0.20
  -4  -3  -7    0.11    0.12
  -5  -3  -7    3.62    0.27
  -6   4   7    1.89    0.17
  -5   4   7    6.45    0.37
   4  -4  -7   20.65    0.98
  -4   4   7   20.16    0.97
   3  -4  -7    6.95    0.42
  -3   4   7    6.14    0.40
   2  -4  -7    3.03    0.28
  -2   4   7    2.27    0.29
   1  -4  -7    0.25    0.19
   1  -4  -7    0.36    0.17
   1  -4  -7    0.29    0.15
  -1   4   7    0.26    0.14
   0  -4  -7    5.21    0.39
   0  -4  -7    5.95    0.42
   0  -4  -7    5.73    0.38
  -1  -4  -7    0.37    0.19
  -1  -4  -7    0.08    0.13
  -1  -4  -7    0.07    0.16
  -2  -4  -7    3.55    0.31
  -2  -4  -7    3.09    0.32
  -2  -4  -7    3.83    0.30
  -3  -4  -7    1.98    0.24
  -3  -4  -7    2.10    0.23
  -4  -4  -7   -0.02    0.10
  -4  -4  -7   -0.12    0.10
  -6   5   7    2.28    0.17
  -5   5   7    0.22    0.09
   4  -5  -7    0.38    0.14
  -4   5   7    0.47    0.18
   3  -5  -7    0.05    0.14
  -3   5   7    0.09    0.11
   2  -5  -7    9.97    0.54
  -2   5   7   10.52    0.55
   1  -5  -7    0.00    0.16
   1  -5  -7    0.32    0.14
  -1   5   7    0.71    0.23
   0  -5  -7    2.72    0.32
   0  -5  -7    2.72    0.29
   0  -5  -7    2.77    0.28
  -1  -5  -7   14.51    0.72
  -1  -5  -7   14.14    0.70
  -1  -5  -7   14.32    0.72
  -2  -5  -7    8.59    0.47
  -2  -5  -7    8.85    0.46
  -3  -5  -7    1.16    0.19
  -3  -5  -7    1.09    0.18
  -5   6   7    0.10    0.07
   4  -6  -7    0.95    0.18
  -4   6   7    1.07    0.16
   3  -6  -7    1.70    0.19
  -3   6   7    1.49    0.19
   2  -6  -7    0.82    0.17
  -2   6   7    0.43    0.12
   1  -6  -7    0.14    0.14
   1  -6  -7    0.28    0.12
  -1   6   7    0.21    0.11
   0  -6  -7   46.87    2.11
   0  -6  -7   46.87    2.10
   0   6   7   46.87    2.11
  -1  -6  -7    0.00    0.15
  -1  -6  -7    0.18    0.14
  -1  -6  -7    0.17    0.10
  -2  -6  -7   12.15    0.58
  -2  -6  -7   12.01    0.59
   4  -7  -7    0.17    0.11
   3  -7  -7    0.29    0.10
  -3   7   7   -0.05    0.08
   2  -7  -7    1.20    0.17
  -2   7   7    1.42    0.16
   1  -7  -7    1.63    0.18
   1  -7  -7    1.40    0.25
  -1   7   7    1.91    0.18
   0  -7  -7    3.09    0.23
   0  -7  -7    2.52    0.22
   0   7   7    2.88    0.21
  -1  -7  -7    0.15    0.08
   1   7   7   -0.07    0.08
   0 -10   8    2.93    0.20
   1 -10   8    1.84    0.17
   1   9  -8    2.09    0.31
  -1  -9   8    2.25    0.23
   0   9  -8    1.47    0.28
   0  -9   8    1.42    0.18
   1  -9   8   16.81    0.78
  -2   9  -8    4.26    0.33
   2  -9   8    4.99    0.27
  -3   9  -8    0.28    0.41
   3  -9   8    0.62    0.15
   3   8  -8    0.33    0.21
   2   8  -8    0.50    0.22
   1   8  -8    0.09    0.18
  -1  -8   8   -0.20    0.12
   0   8  -8    7.70    0.45
  -1   8  -8    0.16    0.17
  -1   8  -8    0.15    0.16
  -2   8  -8    0.31    0.17
  -2   8  -8    0.42    0.13
  -3   8  -8    3.68    0.32
  -3   8  -8    4.18    0.25
  -4   8  -8    0.15    0.07
  -4   8  -8   -0.18    0.19
   4  -8   8    0.13    0.10
   4   7  -8    0.05    0.21
   3   7  -8   -0.12    0.16
   1   7  -8    0.06    0.14
   0   7  -8    4.20    0.32
  -1   7  -8    7.34    0.45
  -1   7  -8    7.25    0.44
  -2   7  -8   13.56    0.71
  -2   7  -8   13.74    0.67
  -3   7  -8    0.09    0.17
  -3   7  -8    0.51    0.16
  -4   7  -8    2.07    0.17
  -4   7  -8    1.96    0.28
  -5   7  -8   -0.05    0.08
   5   6  -8    0.86    0.23
  -5  -6   8    0.67    0.18
   4   6  -8    0.44    0.17
  -4  -6   8    0.22    0.14
   3   6  -8   28.24    1.29
  -3  -6   8   27.18    1.29
   1   6  -8    0.30    0.16
   0   6  -8    1.79    0.26
   0   6  -8    1.52    0.22
   0   6  -8    1.70    0.38
  -1   6  -8    4.69    0.36
  -1   6  -8    4.50    0.34
  -1   6  -8    4.24    0.33
  -2   6  -8    1.06    0.23
  -2   6  -8    0.83    0.24
  -2   6  -8    0.69    0.14
  -3   6  -8    0.18    0.21
  -3   6  -8   -0.01    0.12
  -3   6  -8    0.12    0.14
  -4   6  -8    5.07    0.40
  -4   6  -8    5.28    0.30
  -5   6  -8    6.54    0.34
  -6  -5   8    0.18    0.08
   5   5  -8    6.11    0.36
  -5  -5   8    5.52    0.33
   4   5  -8    4.43    0.32
  -4  -5   8    5.20    0.36
   3   5  -8   15.31    0.77
  -3  -5   8   16.27    0.80
   2   5  -8    0.12    0.15
  -2  -5   8    0.40    0.23
   1   5  -8   61.77    2.73
   1   5  -8   59.62    2.71
   0   5  -8    3.20    0.39
   0   5  -8    3.34    0.32
   0   5  -8    3.46    0.30
  -1   5  -8    5.97    0.41
  -1   5  -8    6.04    0.42
  -1   5  -8    6.38    0.40
  -2   5  -8   12.88    0.68
  -2   5  -8   12.68    0.65
  -2   5  -8   12.77    0.65
  -3   5  -8    0.29    0.15
  -3   5  -8    0.29    0.14
  -3   5  -8   -0.09    0.22
  -4   5  -8    1.75    0.24
  -4   5  -8    2.24    0.33
  -4   5  -8    1.81    0.21
  -5   5  -8    0.50    0.16
   6   4  -8    1.12    0.23
  -6  -4   8    1.60    0.16
   5   4  -8    0.02    0.16
  -5  -4   8    0.11    0.11
   4   4  -8    0.30    0.16
  -4  -4   8    0.63    0.25
   3   4  -8    3.15    0.28
  -3  -4   8    4.05    0.33
   2   4  -8    6.06    0.38
  -2  -4   8    5.99    0.47
   1   4  -8   -0.06    0.19
   1   4  -8    0.22    0.18
   0   4  -8    2.70    0.28
   0   4  -8    2.81    0.32
   0   4  -8    3.14    0.36
  -1   4  -8    2.35    0.29
  -1   4  -8    2.59    0.30
  -1   4  -8    2.60    0.29
  -2   4  -8   -0.16    0.13
  -2   4  -8    0.01    0.15
  -2   4  -8    0.14    0.22
  -3   4  -8    0.17    0.16
  -3   4  -8   -0.04    0.21
  -3   4  -8    0.26    0.13
  -4   4  -8    0.10    0.27
  -4   4  -8    0.12    0.14
  -4   4  -8    0.31    0.14
  -5   4  -8    1.14    0.20
   6   3  -8    1.23    0.23
  -6  -3   8    0.83    0.16
   5   3  -8    4.56    0.32
  -5  -3   8    4.84    0.32
   4   3  -8    9.70    0.53
  -4  -3   8   10.21    0.53
   3   3  -8    0.41    0.17
  -3  -3   8    0.32    0.18
   2   3  -8    4.85    0.34
  -2  -3   8    5.42    0.43
   1   3  -8    0.57    0.27
   1   3  -8    0.72    0.19
   1   3  -8    0.90    0.24
  -1  -3   8    0.97    0.39
   0   3  -8   28.09    1.29
   0   3  -8   28.61    1.29
   0   3  -8   26.66    1.30
  -1   3  -8    0.51    0.14
  -1   3  -8    0.51    0.16
  -1   3  -8    0.38    0.20
  -2   3  -8    2.72    0.28
  -2   3  -8    2.51    0.27
  -3   3  -8   25.54    1.17
  -3   3  -8   24.34    1.16
  -4   3  -8    0.55    0.23
  -4   3  -8    0.23    0.13
   6   2  -8    1.90    0.24
  -6  -2   8    1.87    0.19
  -6  -2   8    1.58    0.21
   5   2  -8   17.46    0.86
  -5  -2   8   18.52    0.85
  -5  -2   8   16.70    0.85
   4   2  -8   38.46    1.77
  -4  -2   8   39.98    1.76
  -4  -2   8   37.08    1.77
   3   2  -8    0.07    0.17
   2   2  -8    0.73    0.23
  -2  -2   8    1.39    0.30
   1   2  -8    0.95    0.26
   1   2  -8    0.48    0.23
   1   2  -8    0.58    0.20
   0   2  -8    1.40    0.28
   0   2  -8    1.05    0.27
  -1   2  -8    5.31    0.35
  -1   2  -8    5.04    0.36
  -2   2  -8   49.86    2.25
  -2   2  -8   49.68    2.24
  -3   2  -8   57.63    2.59
  -3   2  -8   58.34    2.61
  -4   2  -8   15.02    0.72
  -4   2  -8   14.57    0.73
  -5   2  -8    0.05    0.16
   6   1  -8    0.46    0.19
  -6  -1   8    0.70    0.18
  -6  -1   8    0.35    0.12
   5   1  -8    1.68    0.26
  -5  -1   8    1.13    0.25
  -5  -1   8    1.88    0.24
   4   1  -8    0.23    0.17
  -4  -1   8    0.08    0.15
  -4  -1   8    0.27    0.19
   3   1  -8    0.62    0.26
  -3  -1   8    0.40    0.24
  -3  -1   8    0.80    0.26
   2   1  -8   29.42    1.31
   2   1  -8   29.30    1.33
  -2  -1   8   25.46    1.31
   1   1  -8    0.42    0.19
   1   1  -8    0.63    0.19
   1   1  -8    0.30    0.27
   0   1  -8    0.22    0.17
   0   1  -8    0.10    0.15
  -1   1  -8    1.25    0.35
  -2   1  -8   53.57    2.32
  -2   1  -8   49.74    2.33
  -2   1  -8   50.81    2.31
  -3   1  -8    2.45    0.29
  -3   1  -8    2.99    0.28
  -4   1  -8    1.08    0.26
  -4   1  -8    0.89    0.24
  -5   1  -8   -0.07    0.15
   6   0  -8    0.76    0.29
  -6   0   8    0.84    0.16
  -6   0   8    0.89    0.21
   5   0  -8   -0.25    0.21
  -5   0   8   -0.03    0.15
  -5   0   8    0.26    0.13
   4   0  -8    2.48    0.30
  -4   0   8    2.53    0.30
  -4   0   8    2.30    0.31
   3   0  -8    0.10    0.23
  -3   0   8    0.12    0.17
   2   0  -8    4.84    0.41
  -2   0   8    4.46    0.43
   1   0  -8    4.73    0.42
   1   0  -8    5.31    0.38
   0   0  -8    2.50    0.27
   0   0  -8    3.10    0.34
   0   0  -8    2.49    0.31
  -1   0  -8    0.61    0.18
  -1   0  -8    0.95    0.24
  -1   0  -8    0.73    0.21
  -2   0  -8    1.32    0.33
  -2   0  -8    1.13    0.26
  -2   0  -8    0.95    0.26
  -3   0  -8    1.28    0.34
  -3   0  -8    1.20    0.25
  -4   0  -8    0.16    0.20
  -4   0  -8    0.29    0.19
  -5   0  -8   -0.18    0.17
   6  -1  -8    1.41    0.63
  -6   1   8    0.76    0.24
   5  -1  -8    0.31    0.25
  -5   1   8    0.04    0.11
  -5   1   8    0.30    0.15
  -4   1   8    7.59    0.48
  -4   1   8    7.41    0.45
   3  -1  -8   14.92    0.80
  -3   1   8   15.86    0.77
  -3   1   8   15.05    0.77
   2  -1  -8   10.07    0.56
  -2   1   8    9.51    0.56
   1  -1  -8   19.58    0.97
   1  -1  -8   19.98    0.95
  -1   1   8   19.74    0.97
   0  -1  -8   20.54    0.98
   0  -1  -8   19.60    0.96
   0  -1  -8   20.13    0.97
  -1  -1  -8    0.21    0.13
  -1  -1  -8   -0.05    0.18
  -1  -1  -8    0.19    0.15
  -2  -1  -8    1.17    0.25
  -2  -1  -8    0.98    0.29
  -2  -1  -8    1.66    0.28
  -3  -1  -8    0.00    0.16
  -3  -1  -8    0.32    0.20
  -3  -1  -8    0.05    0.14
  -4  -1  -8    0.60    0.17
  -4  -1  -8    0.19    0.22
  -4  -1  -8    1.13    0.22
  -6   2   8    0.10    0.09
  -5   2   8    0.63    0.17
  -5   2   8    0.72    0.18
  -4   2   8    5.40    0.37
  -4   2   8    5.44    0.40
   3  -2  -8   31.32    1.41
  -3   2   8   30.01    1.41
  -3   2   8   29.63    1.41
   2  -2  -8    0.26    0.18
  -2   2   8    0.04    0.17
   1  -2  -8   -0.03    0.16
   1  -2  -8   -0.09    0.19
  -1   2   8    0.12    0.18
   0  -2  -8    0.18    0.17
  -1  -2  -8   25.40    1.19
  -1  -2  -8   25.52    1.20
  -1  -2  -8   25.51    1.22
  -2  -2  -8   -0.13    0.15
  -2  -2  -8    0.32    0.19
  -2  -2  -8    0.01    0.14
  -3  -2  -8    3.67    0.30
  -3  -2  -8    3.39    0.30
  -3  -2  -8    3.25    0.33
  -4  -2  -8    3.05    0.27
  -4  -2  -8    2.72    0.25
  -6   3   8   -0.04    0.07
  -5   3   8    6.29    0.36
   4  -3  -8    2.31    0.35
  -4   3   8    1.81    0.30
  -4   3   8    2.13    0.25
   3  -3  -8    0.22    0.19
  -3   3   8    0.65    0.28
  -3   3   8    0.64    0.24
   2  -3  -8   29.27    1.38
  -2   3   8   30.38    1.39
   1  -3  -8    1.11    0.32
  -1   3   8    1.04    0.27
   0  -3  -8    1.12    0.25
   0  -3  -8    0.68    0.29
   0  -3  -8    0.83    0.28
  -1  -3  -8    3.41    0.34
  -1  -3  -8    3.49    0.31
  -1  -3  -8    3.01    0.30
  -2  -3  -8    0.23    0.15
  -2  -3  -8    0.21    0.17
  -2  -3  -8    0.07    0.13
  -3  -3  -8    3.70    0.29
  -3  -3  -8    3.80    0.28
  -4  -3  -8    0.22    0.12
  -4  -3  -8    0.24    0.10
  -5   4   8    1.02    0.15
   4  -4  -8    2.46    0.28
  -4   4   8    2.32    0.23
   3  -4  -8   19.44    0.90
  -3   4   8   16.85    0.91
  -3   4   8   20.38    0.91
   2  -4  -8    5.63    0.36
  -2   4   8    5.54    0.38
   1  -4  -8   -0.06    0.15
   1  -4  -8    0.30    0.18
  -1   4   8    0.04    0.13
   0  -4  -8    0.97    0.24
   0  -4  -8    1.07    0.27
  -1  -4  -8    5.33    0.35
  -1  -4  -8    5.54    0.36
  -1  -4  -8    5.22    0.37
  -2  -4  -8    1.31    0.23
  -2  -4  -8    1.15    0.20
  -2  -4  -8    1.17    0.25
  -3  -4  -8    0.25    0.11
  -3  -4  -8    0.26    0.10
  -5   5   8    0.52    0.13
   4  -5  -8   21.67    1.00
  -4   5   8   21.65    1.00
   3  -5  -8   -0.05    0.12
  -3   5   8    0.05    0.10
   2  -5  -8    3.21    0.25
  -2   5   8    2.86    0.25
   1  -5  -8    2.12    0.28
   1  -5  -8    1.80    0.22
  -1   5   8    1.89    0.22
   0  -5  -8   -0.14    0.13
   0  -5  -8    0.16    0.12
   0   5   8    0.03    0.11
  -1  -5  -8    0.03    0.10
  -1  -5  -8    0.23    0.14
  -1  -5  -8   -0.12    0.12
  -2  -5  -8    8.44    0.43
  -2  -5  -8    8.58    0.44
   4  -6  -8    0.19    0.13
  -4   6   8    0.08    0.08
   3  -6  -8    2.31    0.20
  -3   6   8    2.27    0.19
   2  -6  -8    0.12    0.11
  -2   6   8    0.03    0.09
   1  -6  -8    1.19    0.17
   1  -6  -8    1.02    0.28
  -1   6   8    1.19    0.17
   0  -6  -8    8.29    0.42
   0  -6  -8    7.90    0.41
   0   6   8    7.94    0.42
  -1  -6  -8    0.92    0.25
  -1  -6  -8    0.80    0.16
  -1  -9   9    0.89    0.21
   0  -9   9   11.64    0.55
  -1   9  -9    2.67    0.29
   1  -9   9    2.98    0.21
   2  -9   9    8.61    0.42
   2   8  -9    1.12    0.25
   1   8  -9    0.53    0.22
  -1  -8   9    0.06    0.11
   0   8  -9    6.35    0.41
  -1   8  -9    1.63    0.25
  -1   8  -9    1.96    0.26
  -2   8  -9    4.41    0.32
  -2   8  -9    4.06    0.27
  -3   8  -9    0.12    0.08
  -3   8  -9    0.19    0.21
   3   7  -9    0.97    0.21
   2   7  -9    0.37    0.16
   1   7  -9    5.11    0.34
   0   7  -9    1.27    0.23
  -1   7  -9   -0.05    0.16
  -1   7  -9    0.21    0.19
  -2   7  -9    3.38    0.24
  -2   7  -9    3.29    0.30
  -3   7  -9    0.08    0.10
  -3   7  -9    0.00    0.20
  -4   7  -9    1.16    0.14
   4   6  -9    5.40    0.33
  -4  -6   9    5.34    0.35
   3   6  -9    9.41    0.51
  -3  -6   9   10.10    0.56
   2   6  -9    0.29    0.16
   1   6  -9    1.01    0.22
   0   6  -9    2.72    0.28
   0   6  -9    2.12    0.27
   0   6  -9    2.83    0.39
  -1   6  -9    8.26    0.46
  -1   6  -9    8.13    0.50
  -1   6  -9    8.57    0.48
  -2   6  -9    2.15    0.33
  -2   6  -9    2.56    0.25
  -2   6  -9    2.18    0.25
  -3   6  -9   -0.01    0.10
  -3   6  -9    0.10    0.22
  -3   6  -9   -0.06    0.12
  -4   6  -9    0.71    0.31
  -5   6  -9    0.58    0.13
   5   5  -9    0.75    0.23
  -5  -5   9    0.85    0.17
   4   5  -9    2.13    0.24
  -4  -5   9    2.43    0.27
  -3  -5   9    0.48    0.18
   2   5  -9    1.89    0.25
  -2  -5   9    2.03    0.40
   1   5  -9    1.00    0.29
   1   5  -9    0.54    0.23
   0   5  -9   17.04    0.79
   0   5  -9   16.23    0.82
   0   5  -9   14.86    0.80
  -1   5  -9    0.72    0.28
  -1   5  -9    0.82    0.26
  -1   5  -9    0.97    0.27
  -2   5  -9    1.54    0.25
  -2   5  -9    1.00    0.33
  -2   5  -9    1.18    0.23
  -3   5  -9    0.29    0.25
  -3   5  -9    0.00    0.11
  -3   5  -9    0.17    0.13
  -4   5  -9    0.57    0.18
  -4   5  -9    1.05    0.21
  -5   5  -9    0.48    0.15
   5   4  -9    0.07    0.16
  -5  -4   9    0.14    0.10
   4   4  -9    0.35    0.17
  -4  -4   9    0.26    0.13
   3   4  -9    4.75    0.34
  -3  -4   9    5.21    0.37
   2   4  -9    8.18    0.49
  -2  -4   9    9.26    0.55
   1   4  -9    0.32    0.20
   1   4  -9    0.67    0.35
   1   4  -9    0.61    0.18
  -1  -4   9   -0.04    0.26
   0   4  -9   23.70    1.13
   0   4  -9   24.14    1.12
   0   4  -9   23.76    1.14
  -1   4  -9    0.47    0.18
  -1   4  -9    0.38    0.14
  -1   4  -9    0.17    0.22
  -2   4  -9    0.03    0.12
  -2   4  -9    0.17    0.25
  -2   4  -9    0.54    0.22
  -3   4  -9    0.45    0.17
  -3   4  -9    0.28    0.31
  -3   4  -9    0.75    0.22
  -4   4  -9    0.23    0.13
  -4   4  -9    0.12    0.11
  -5   4  -9    1.21    0.19
  -6  -3   9    0.16    0.08
   5   3  -9    0.04    0.17
  -5  -3   9   -0.01    0.11
   4   3  -9    4.59    0.35
  -4  -3   9    5.76    0.35
   3   3  -9    1.55    0.25
  -3  -3   9    1.96    0.30
   2   3  -9    3.51    0.31
  -2  -3   9    4.07    0.40
   1   3  -9   50.03    2.29
   1   3  -9   50.52    2.30
   1   3  -9   51.64    2.31
  -1  -3   9   50.98    2.31
   0   3  -9    6.39    0.42
   0   3  -9    6.00    0.43
   0   3  -9    5.87    0.40
   0  -3   9    5.92    0.55
  -1   3  -9    0.44    0.19
  -1   3  -9    0.34    0.13
  -1   3  -9    0.27    0.29
  -2   3  -9    0.00    0.15
  -2   3  -9    0.27    0.13
  -3   3  -9    4.72    0.33
  -3   3  -9    4.39    0.32
  -4   3  -9    0.74    0.21
  -4   3  -9    0.92    0.21
  -5   3  -9    5.24    0.33
  -6  -2   9    0.10    0.08
   5   2  -9   12.04    0.63
  -5  -2   9   12.01    0.60
   4   2  -9    1.46    0.26
   3   2  -9    5.74    0.39
  -3  -2   9    5.78    0.42
   2   2  -9    1.43    0.29
  -2  -2   9    2.04    0.30
   1   2  -9   -0.12    0.23
   1   2  -9    0.24    0.18
   1   2  -9    0.38    0.25
  -1  -2   9   -0.20    0.22
   0   2  -9   19.09    0.89
   0   2  -9   17.41    0.89
  -1   2  -9    3.53    0.30
  -1   2  -9    3.85    0.31
  -2   2  -9   41.60    1.89
  -2   2  -9   41.13    1.87
  -3   2  -9    8.43    0.46
  -3   2  -9    8.30    0.48
  -4   2  -9    7.72    0.42
  -4   2  -9    7.16    0.41
  -6  -1   9   -0.07    0.11
  -6  -1   9   -0.02    0.14
   5   1  -9    1.83    0.29
  -5  -1   9    2.02    0.22
  -5  -1   9    2.23    0.25
   4   1  -9    4.29    0.38
  -4  -1   9    5.73    0.38
  -4  -1   9    5.56    0.41
   2   1  -9    1.28    0.37
  -2  -1   9    0.89    0.27
   1   1  -9    3.59    0.33
   1   1  -9    3.60    0.39
   0   1  -9   10.57    0.56
   0   1  -9    9.72    0.55
  -1   1  -9    1.28    0.26
  -1   1  -9    1.33    0.25
  -2   1  -9   13.66    0.68
  -2   1  -9   14.18    0.70
  -2   1  -9   12.99    0.75
  -3   1  -9    0.10    0.23
  -3   1  -9    0.25    0.17
  -3   1  -9    0.06    0.12
  -4   1  -9    0.74    0.21
  -4   1  -9    0.92    0.22
  -6   0   9    1.70    0.22
  -6   0   9    1.65    0.20
   5   0  -9    0.66    0.31
  -5   0   9   -0.09    0.13
  -5   0   9   -0.04    0.11
  -4   0   9    3.20    0.32
  -4   0   9    2.45    0.31
  -3   0   9   18.87    0.97
  -3   0   9   20.49    0.96
   2   0  -9    8.64    0.52
  -2   0   9    9.07    0.80
   1   0  -9    0.39    0.17
   1   0  -9    0.24    0.19
   0   0  -9    0.98    0.23
   0   0  -9    0.93    0.27
  -1   0  -9    0.89    0.25
  -1   0  -9    1.15    0.25
  -1   0  -9    1.22    0.32
  -2   0  -9    3.41    0.36
  -2   0  -9    2.89    0.32
  -2   0  -9    3.11    0.29
  -3   0  -9    0.18    0.11
  -3   0  -9    0.13    0.17
  -3   0  -9    0.27    0.18
  -4   0  -9   -0.02    0.30
  -4   0  -9   -0.05    0.17
  -4   0  -9    0.16    0.11
  -6   1   9    0.30    0.15
  -6   1   9   -0.04    0.09
  -5   1   9    0.61    0.20
  -4   1   9   30.24    1.28
  -4   1   9   24.56    1.27
   3  -1  -9   24.05    1.21
  -3   1   9   26.66    1.20
  -3   1   9   25.36    1.20
   2  -1  -9   -0.02    0.20
  -2   1   9    0.15    0.19
   1  -1  -9    0.89    0.33
   1  -1  -9    0.22    0.18
  -1   1   9    0.11    0.23
   0  -1  -9    5.49    0.43
   0  -1  -9    5.68    0.38
   0  -1  -9    6.23    0.41
   0   1   9    5.04    0.61
  -1  -1  -9    0.64    0.25
  -1  -1  -9    1.07    0.32
  -1  -1  -9    1.42    0.26
  -2  -1  -9    8.11    0.48
  -2  -1  -9    7.85    0.46
  -2  -1  -9    8.14    0.49
  -3  -1  -9    1.54    0.22
  -3  -1  -9    1.30    0.25
  -3  -1  -9    1.71    0.26
  -4  -1  -9    3.99    0.33
  -4  -1  -9    4.42    0.27
  -6   2   9    2.11    0.17
  -5   2   9    0.06    0.10
  -5   2   9    0.17    0.12
  -4   2   9    8.60    0.49
  -4   2   9    8.24    0.47
   3  -2  -9    1.71    0.31
  -3   2   9    1.43    0.27
  -3   2   9    1.86    0.29
   2  -2  -9   17.75    0.86
  -2   2   9   17.38    0.87
   1  -2  -9    6.03    0.40
   1  -2  -9    6.30    0.47
  -1   2   9    5.98    0.44
   0  -2  -9    5.61    0.39
   0  -2  -9    5.54    0.36
   0  -2  -9    4.68    0.40
   0   2   9    5.12    0.43
  -1  -2  -9    2.84    0.33
  -1  -2  -9    2.49    0.29
  -1  -2  -9    2.96    0.28
  -2  -2  -9   -0.01    0.17
  -2  -2  -9    0.21    0.12
  -2  -2  -9    0.10    0.14
  -3  -2  -9    3.66    0.33
  -3  -2  -9    4.57    0.29
  -3  -2  -9    4.46    0.31
  -4  -2  -9   -0.11    0.14
  -4  -2  -9    0.02    0.09
  -5   3   9    1.22    0.18
   4  -3  -9    7.36    0.57
  -4   3   9    7.69    0.41
  -4   3   9    6.70    0.44
   3  -3  -9   18.26    0.86
  -3   3   9   17.55    0.87
  -3   3   9   17.96    0.86
   2  -3  -9    4.85    0.34
  -2   3   9    4.95    0.36
   1  -3  -9   -0.02    0.15
   1  -3  -9    0.02    0.18
  -1   3   9    0.25    0.17
   0  -3  -9    5.14    0.35
   0  -3  -9    5.65    0.38
   0  -3  -9    5.33    0.39
   0   3   9    4.73    0.38
  -1  -3  -9    1.47    0.21
  -1  -3  -9    1.37    0.23
  -1  -3  -9    0.74    0.26
   1   3   9    1.10    0.26
  -2  -3  -9    8.86    0.47
  -2  -3  -9    8.72    0.46
  -2  -3  -9    8.50    0.48
  -3  -3  -9    2.43    0.20
  -3  -3  -9    2.58    0.23
  -5   4   9    2.87    0.20
   4  -4  -9    2.16    0.28
  -4   4   9    1.81    0.20
   3  -4  -9    2.72    0.25
  -3   4   9    2.50    0.23
  -3   4   9    2.72    0.32
   2  -4  -9   -0.04    0.12
  -2   4   9    0.08    0.12
   1  -4  -9   20.42    1.00
   1  -4  -9   21.19    0.99
  -1   4   9   21.83    1.00
   0  -4  -9    0.02    0.12
   0  -4  -9   -0.02    0.12
   0   4   9    0.01    0.12
  -1  -4  -9    4.70    0.30
  -1  -4  -9    4.84    0.31
  -1  -4  -9    4.64    0.30
   1   4   9    4.43    0.31
  -2  -4  -9    4.72    0.33
  -2  -4  -9    4.93    0.29
  -2  -4  -9    5.17    0.30
   2   4   9    4.69    0.32
  -4   5   9    4.40    0.26
   3  -5  -9    0.30    0.12
  -3   5   9    0.52    0.15
   2  -5  -9    4.18    0.25
  -2   5   9    3.68    0.34
  -2   5   9    3.66    0.26
   1  -5  -9    1.90    0.38
   1  -5  -9    1.81    0.20
  -1   5   9    1.89    0.20
   0  -5  -9    1.51    0.22
   0  -5  -9    1.40    0.17
   0   5   9    1.39    0.20
  -1  -5  -9   21.78    0.99
  -1  -5  -9   21.36    1.00
   1   5   9   22.25    1.00
   2  -6  -9    0.36    0.10
  -2   6   9    0.47    0.14
   1  -6  -9    0.09    0.09
  -1   6   9    0.02    0.08
   0  -9  10    6.49    0.34
   1  -9  10    0.81    0.14
   1   8 -10    4.77    0.34
  -1  -8  10    4.12    0.31
   0   8 -10    4.05    0.33
   0  -8  10    4.10    0.26
  -1   8 -10    0.54    0.23
  -2   8 -10    0.17    0.37
  -2   8 -10    0.15    0.11
   3   7 -10    2.42    0.26
   2   7 -10    8.80    0.48
   1   7 -10   17.83    0.87
   0   7 -10    0.74    0.27
  -1   7 -10    0.25    0.16
  -1   7 -10    0.34    0.19
  -2   7 -10   -0.11    0.11
  -2   7 -10    0.14    0.22
  -3   7 -10    2.07    0.17
   4   6 -10    0.19    0.19
  -4  -6  10   -0.01    0.18
   3   6 -10    0.34    0.16
   2   6 -10   13.09    0.66
   1   6 -10    0.61    0.22
   0   6 -10    0.34    0.19
  -1   6 -10    4.34    0.28
  -1   6 -10    4.18    0.37
  -1   6 -10    3.96    0.31
  -2   6 -10    4.63    0.28
  -2   6 -10    3.71    0.38
  -2   6 -10    4.33    0.29
  -3   6 -10    5.52    0.31
  -3   6 -10    5.32    0.30
  -3   6 -10    5.33    0.52
  -4   6 -10    0.00    0.09
  -5  -5  10    0.09    0.10
   4   5 -10    1.70    0.22
  -4  -5  10    1.72    0.22
   3   5 -10    2.42    0.25
  -3  -5  10    2.84    0.30
   2   5 -10    3.45    0.29
  -2  -5  10    2.42    0.41
   1   5 -10    8.21    0.48
   0   5 -10   11.54    0.58
   0   5 -10   10.88    0.63
   0   5 -10   11.41    0.62
  -1   5 -10   -0.11    0.26
  -1   5 -10    0.12    0.13
  -1   5 -10    0.01    0.17
  -2   5 -10   -0.15    0.13
  -2   5 -10    0.11    0.11
  -2   5 -10    0.78    0.34
  -3   5 -10    0.60    0.17
  -4   5 -10    0.09    0.09
  -4   5 -10    0.16    0.11
  -5  -4  10    1.08    0.16
   4   4 -10    5.30    0.36
  -4  -4  10    5.13    0.33
   3   4 -10    1.76    0.27
  -3  -4  10    2.40    0.27
   2   4 -10    0.84    0.25
  -2  -4  10    0.61    0.22
   1   4 -10    1.06    0.28
   1   4 -10    0.68    0.32
   1   4 -10    1.15    0.31
  -1  -4  10    0.52    0.26
   0   4 -10    0.45    0.21
   0   4 -10    0.83    0.28
   0   4 -10    1.02    0.32
  -1   4 -10    5.98    0.39
  -1   4 -10    6.23    0.39
  -2   4 -10    6.97    0.41
  -2   4 -10    7.00    0.40
  -3   4 -10    0.09    0.11
  -3   4 -10    0.04    0.12
  -4   4 -10    1.10    0.17
  -4   4 -10    1.13    0.18
   5   3 -10   -0.13    0.22
  -5  -3  10    0.17    0.10
   4   3 -10    3.66    0.31
  -4  -3  10    3.78    0.28
   3   3 -10   21.68    1.10
  -3  -3  10   25.03    1.11
   2   3 -10    0.08    0.20
  -2  -3  10   -0.27    0.19
   1   3 -10   16.15    0.84
   1   3 -10   16.41    0.83
  -1  -3  10   16.49    0.84
   0   3 -10    0.24    0.15
   0   3 -10    0.19    0.20
   0  -3  10    0.02    0.26
  -1   3 -10    0.22    0.13
  -1   3 -10    0.25    0.16
  -2   3 -10   11.96    0.60
  -2   3 -10   11.65    0.61
  -3   3 -10    6.08    0.36
  -3   3 -10    6.35    0.36
  -4   3 -10   15.60    0.74
  -4   3 -10   15.98    0.74
   5   2 -10    0.70    0.27
  -5  -2  10    0.66    0.16
   4   2 -10    3.04    0.34
  -4  -2  10    3.19    0.27
   1   2 -10   28.96    1.35
   1   2 -10   28.53    1.34
  -1  -2  10   28.95    1.36
   0   2 -10    2.23    0.29
   0   2 -10    2.25    0.29
  -1   2 -10   12.46    0.65
  -1   2 -10   13.00    0.64
  -2   2 -10    1.15    0.24
  -2   2 -10    0.87    0.22
  -3   2 -10    7.47    0.41
  -3   2 -10    7.28    0.40
  -4   2 -10    0.77    0.19
  -4   2 -10    0.83    0.20
  -5  -1  10    0.14    0.11
  -4  -1  10    0.88    0.22
  -3  -1  10    0.36    0.16
   2   1 -10    6.39    0.49
  -2  -1  10    6.42    0.44
   1   1 -10   39.01    1.75
   1   1 -10   37.27    1.74
   0   1 -10    0.15    0.18
   0   1 -10    0.18    0.15
  -1   1 -10   -0.12    0.12
  -1   1 -10    0.12    0.17
  -2   1 -10    2.02    0.23
  -2   1 -10    1.86    0.26
  -3   1 -10    0.08    0.15
  -3   1 -10    0.13    0.09
  -4   1 -10    1.78    0.24
  -4   1 -10    2.29    0.21
  -5   0  10    0.05    0.11
  -5   0  10    0.13    0.24
  -4   0  10    9.93    0.52
  -4   0  10    9.57    0.55
  -3   0  10    0.09    0.15
   2   0 -10    0.21    0.20
  -2   0  10   -0.03    0.16
   1   0 -10    1.79    0.34
   1   0 -10    2.02    0.28
   0   0 -10    2.73    0.28
   0   0 -10    2.14    0.31
  -1   0 -10    9.79    0.53
  -1   0 -10    9.89    0.54
  -2   0 -10    0.14    0.11
  -2   0 -10    0.31    0.15
  -3   0 -10    0.14    0.13
  -3   0 -10    0.19    0.09
  -4   0 -10    0.12    0.10
  -5   1  10    0.89    0.21
  -5   1  10    0.91    0.19
  -4   1  10    8.93    0.50
  -4   1  10    9.48    0.50
   3  -1 -10    0.31    0.22
  -3   1  10    0.27    0.15
  -3   1  10    0.82    0.30
   2  -1 -10    0.85    0.25
  -2   1  10    0.52    0.21
  -2   1  10    0.76    0.29
   1  -1 -10    0.26    0.16
   1  -1 -10    0.34    0.18
   0  -1 -10   11.61    0.61
   0  -1 -10   11.87    0.62
  -1  -1 -10    0.24    0.15
  -1  -1 -10   -0.13    0.11
  -2  -1 -10    3.12    0.25
  -2  -1 -10    3.26    0.27
  -3  -1 -10    0.70    0.16
  -3  -1 -10    0.97    0.21
  -5   2  10    0.69    0.19
  -4   2  10    2.57    0.26
  -4   2  10    2.76    0.25
   3  -2 -10   10.52    0.54
  -3   2  10   10.39    0.54
  -3   2  10    9.70    0.54
   2  -2 -10    4.81    0.34
  -2   2  10    5.29    0.37
  -2   2  10    4.39    0.37
   1  -2 -10    7.20    0.49
   1  -2 -10    7.83    0.44
  -1   2  10    8.16    0.49
   0  -2 -10    2.79    0.28
   0  -2 -10    3.13    0.25
   0   2  10    2.68    0.44
  -1  -2 -10    0.35    0.14
  -1  -2 -10    0.05    0.10
  -2  -2 -10    4.43    0.31
  -2  -2 -10    5.22    0.30
  -3  -2 -10    0.02    0.08
  -3  -2 -10    0.07    0.19
  -4   3  10    0.60    0.25
   3  -3 -10    3.62    0.29
  -3   3  10    3.71    0.28
  -3   3  10    3.67    0.31
   2  -3 -10    0.36    0.14
  -2   3  10    0.63    0.23
  -2   3  10    0.18    0.14
   1  -3 -10    5.34    0.42
   1  -3 -10    6.23    0.35
  -1   3  10    5.69    0.38
   0  -3 -10    0.98    0.23
   0  -3 -10    0.94    0.19
   0   3  10    0.83    0.28
  -1  -3 -10    2.26    0.21
  -1  -3 -10    2.18    0.22
  -2  -3 -10    0.13    0.08
  -2  -3 -10   -0.08    0.13
  -4   4  10    5.52    0.31
   3  -4 -10    9.78    0.49
  -3   4  10    9.68    0.49
  -3   4  10    9.80    0.53
   2  -4 -10    0.20    0.11
  -2   4  10   -0.05    0.13
  -2   4  10    0.23    0.11
   1  -4 -10    0.19    0.10
  -1   4  10    0.48    0.20
   0  -4 -10    0.06    0.10
   0  -4 -10   -0.01    0.11
   0   4  10   -0.08    0.13
  -1  -4 -10    0.01    0.13
  -1  -4 -10   -0.07    0.09
   1  -5 -10   -0.07    0.09
  -1   5  10    0.16    0.11
   0  -8  11    0.15    0.10
   1  -8  11    1.43    0.16
   0   7 -11    3.99    0.36
  -1   7 -11    1.46    0.34
  -1   7 -11    2.00    0.25
  -2   7 -11    2.13    0.19
   3   6 -11    0.18    0.21
   2   6 -11   16.55    0.81
   1   6 -11    1.23    0.28
   0   6 -11    4.61    0.40
  -1   6 -11    0.30    0.30
  -1   6 -11   -0.18    0.16
  -2   6 -11    0.11    0.12
  -3   6 -11    0.66    0.13
  -4  -5  11    0.13    0.14
   3   5 -11    5.40    0.36
  -3  -5  11    4.90    0.38
   2   5 -11    2.52    0.29
   1   5 -11    1.82    0.33
   0   5 -11    0.97    0.28
   0   5 -11    1.82    0.38
   0   5 -11    1.13    0.22
  -1   5 -11    1.37    0.41
  -2   5 -11    0.12    0.12
  -2   5 -11    0.01    0.08
  -3   5 -11    0.79    0.15
  -3   5 -11    0.88    0.15
  -4  -4  11    0.19    0.12
   3   4 -11    2.10    0.31
  -3  -4  11    1.94    0.26
   2   4 -11    0.66    0.24
   1   4 -11    3.41    0.42
   1   4 -11    4.67    0.35
  -1  -4  11    4.50    0.44
   0   4 -11   12.05    0.62
   0   4 -11   12.14    0.61
  -1   4 -11    1.08    0.21
  -1   4 -11    0.98    0.20
  -2   4 -11    1.18    0.19
  -2   4 -11    0.89    0.19
  -3   4 -11    3.43    0.24
  -3   4 -11    3.58    0.24
  -5  -3  11    0.01    0.08
  -4  -3  11    9.92    0.50
   3   3 -11    4.69    0.45
  -3  -3  11    6.29    0.36
  -2  -3  11    0.37    0.18
   1   3 -11    2.72    0.34
   1   3 -11    1.84    0.34
  -1  -3  11    2.58    0.36
   0   3 -11    0.36    0.14
   0   3 -11    0.39    0.17
   0  -3  11    0.59    0.23
  -1   3 -11    1.01    0.21
  -1   3 -11    0.99    0.21
  -2   3 -11    1.16    0.19
  -2   3 -11    0.68    0.19
  -3   3 -11   22.91    1.04
  -3   3 -11   22.48    1.03
  -4   3 -11   11.83    0.56
  -4   3 -11   11.63    0.56
  -5  -2  11    0.47    0.16
  -4  -2  11    9.36    0.47
  -3  -2  11    1.42    0.24
  -2  -2  11    2.16    0.29
   1   2 -11   14.39    0.69
   1   2 -11   13.57    0.70
  -1  -2  11   12.21    0.69
   0   2 -11    9.07    0.48
   0   2 -11    8.25    0.47
   0  -2  11    8.46    0.52
  -1   2 -11    0.07    0.14
  -1   2 -11    0.08    0.11
   1  -2  11    0.25    0.23
  -2   2 -11    0.07    0.10
  -2   2 -11   -0.07    0.13
  -3   2 -11   15.89    0.75
  -3   2 -11   15.99    0.74
  -5  -1  11    2.11    0.18
  -4  -1  11    0.32    0.12
  -3  -1  11    4.61    0.33
   2   1 -11   -0.40    0.24
  -2  -1  11    0.21    0.14
   1   1 -11   16.43    0.83
   1   1 -11   16.16    0.81
  -1  -1  11   17.13    0.82
   0   1 -11    6.86    0.41
   0   1 -11    7.05    0.41
  -1   1 -11    1.09    0.20
  -1   1 -11    0.67    0.20
  -2   1 -11    1.30    0.19
  -2   1 -11    1.10    0.19
  -3   1 -11    0.76    0.17
  -3   1 -11    0.39    0.10
  -5   0  11    0.09    0.09
  -4   0  11    0.32    0.12
  -3   0  11   15.34    0.75
   2   0 -11   16.61    0.81
  -2   0  11   16.22    0.81
   1   0 -11    0.02    0.18
   1   0 -11    0.28    0.17
  -1   0  11    0.23    0.16
   0   0 -11   11.53    0.61
   0   0 -11   12.51    0.61
  -1   0 -11    2.79    0.25
  -1   0 -11    2.96    0.25
  -2   0 -11   -0.23    0.13
  -2   0 -11    0.07    0.09
  -3   0 -11    0.15    0.13
  -3   0 -11    0.69    0.14
  -4   1  11    1.22    0.21
  -3   1  11   -0.03    0.14
   2  -1 -11    7.53    0.43
  -2   1  11    7.28    0.43
   1  -1 -11    0.46    0.25
   1  -1 -11    0.51    0.21
   0  -1 -11    1.64    0.22
   0  -1 -11    1.79    0.24
  -1  -1 -11    0.67    0.18
  -1  -1 -11    0.58    0.19
  -2  -1 -11    3.53    0.23
  -2  -1 -11    3.00    0.25
  -4   2  11    0.75    0.20
   3  -2 -11    5.34    0.54
  -3   2  11    5.40    0.34
   2  -2 -11    0.28    0.14
  -2   2  11    0.12    0.13
   1  -2 -11   11.07    0.55
   0  -2 -11    0.03    0.11
  -1  -2 -11    3.53    0.25
  -1  -2 -11    3.42    0.24
  -2  -2 -11    0.57    0.17
  -3   3  11   -0.17    0.13
   2  -3 -11   12.89    0.62
   1  -3 -11    0.09    0.11
  -1   3  11    0.24    0.12
   0  -3 -11    3.19    0.29
   0  -3 -11    3.69    0.24
  -1  -3 -11    0.92    0.17
  -1  -3 -11    0.91    0.16
  -1   6 -12    2.92    0.27
  -1   5 -12    4.19    0.28
  -1   5 -12    4.29    0.25
  -2   5 -12    0.09    0.07
  -2   5 -12    0.11    0.11
  -3  -4  12    1.22    0.23
  -2  -4  12    1.51    0.29
   0   4 -12    0.00    0.12
   0   4 -12    0.42    0.17
  -1   4 -12    0.01    0.09
  -1   4 -12   -0.04    0.13
  -2   4 -12    0.36    0.15
  -2   4 -12    0.22    0.08
  -3  -3  12    0.06    0.11
  -2  -3  12    3.46    0.31
   1   3 -12    6.71    0.52
  -1  -3  12    7.19    0.45
   0   3 -12    0.97    0.22
   0   3 -12    0.85    0.23
  -1   3 -12    0.22    0.10
  -1   3 -12    0.20    0.12
  -2   3 -12    2.26    0.19
  -2   3 -12    1.81    0.19
  -4  -2  12    0.05    0.10
  -3  -2  12    2.40    0.23
  -2  -2  12    3.78    0.30
   1   2 -12    2.22    0.28
  -1  -2  12    2.34    0.29
   0   2 -12   31.98    1.45
   0   2 -12   32.69    1.46
   0  -2  12   31.71    1.47
  -1   2 -12    0.00    0.12
  -1   2 -12    0.07    0.10
  -2   2 -12    2.49    0.20
  -2   2 -12    2.65    0.20
  -4  -1  12    0.25    0.10
  -3  -1  12    1.89    0.21
  -2  -1  12    0.90    0.23
   1   1 -12   -0.15    0.17
  -1  -1  12    0.15    0.13
   0   1 -12    0.12    0.14
   0   1 -12    0.08    0.13
   0  -1  12    0.27    0.16
  -1   1 -12    0.00    0.10
  -1   1 -12    0.06    0.11
  -2   1 -12   -0.03    0.08
  -2   1 -12    0.02    0.11
  -3   0  12    6.85    0.38
   2   0 -12    9.06    0.52
  -2   0  12    9.05    0.48
   1   0 -12    1.18    0.21
  -1   0  12    0.81    0.23
   0   0 -12    9.54    0.51
   0   0 -12    9.63    0.49
   0   0  12   10.29    0.51
  -1   0 -12    6.05    0.34
  -1   0 -12    6.20    0.34
   1   0  12    6.18    0.38
  -2   0 -12    1.04    0.16
  -2   0 -12    1.06    0.16
  -3   1  12   22.19    1.01
   2  -1 -12    0.33    0.18
  -2   1  12    0.48    0.19
   1  -1 -12   11.35    0.57
  -1   1  12   11.91    0.58
   0  -1 -12    1.46    0.17
   0  -1 -12    1.64    0.27
   0   1  12    1.64    0.20
  -1  -1 -12   -0.12    0.11
  -1  -1 -12    0.19    0.09
   1   1  12   -0.09    0.12
  -2   2  12    9.04    0.46
   1  -2 -12    2.54    0.21
  -1   2  12    2.60    0.21
  -1   3 -13    0.93    0.18
  -2  -2  13   -0.04    0.13
  -1  -2  13    1.43    0.28
   0   2 -13    0.53    0.20
  -2  -1  13    1.55    0.21
  -1  -1  13    0.82    0.23
   0   1 -13    2.61    0.23
   0   0   0    0.00    0.00
;
_shelx_hkl_checksum              44876
_shelx_res_file
;
    JTM661_0m.res created by SHELXL-2014/7
TITL JTM661_0m_a.res in P-1
REM Old TITL JTM661_0m in P-1
REM SHELXT solution in P-1
REM R1 0.118,  Rweak 0.004,  Alpha 0.035,  Orientation as input
REM Formula found by SHELXT:  C16 N4
CELL  1.54178   6.6849   8.9428  10.7445  103.935   95.015   96.860
ZERR    2.000   0.0003   0.0005   0.0005    0.003    0.004    0.003
LATT  1
SFAC C H N O
UNIT 32 22 6 2
TEMP -123
SIZE 0.023 0.15 0.21
L.S. 5
BOND $H
LIST 4
FMAP 2
PLAN 5
MPLA C1 > C6
MPLA N1 N2 N3 C7 C8 C9
MPLA C11 > C16
CONF
OMIT 5 -1 4
OMIT 5 -2 8
OMIT 5 -2 7
EQIV $1 -x+2, -y+1, -z
HTAB N3 N1_$1
ACTA 136
WGHT    0.053200    0.494300
FVAR       0.31774
O1    4    0.904427    0.956975    0.156282    11.00000    0.03366    0.02203 =
         0.03328    0.00748    0.00806   -0.00051
N1    3    0.791928    0.412808    0.072138    11.00000    0.02601    0.02143 =
         0.02337    0.00400    0.00914    0.00388
N2    3    0.634762    0.608228    0.178261    11.00000    0.02023    0.01884 =
         0.02151    0.00286    0.00532    0.00194
N3    3    0.913948    0.690356    0.097086    11.00000    0.02433    0.02132 =
         0.02512    0.00407    0.00900    0.00102
H3A   2    1.019365    0.680209    0.046695    11.00000    0.04437
C1    1    0.614613    0.350800    0.115040    11.00000    0.02340    0.02175 =
         0.01903    0.00353    0.00577    0.00335
C2    1    0.537036    0.196409    0.100467    11.00000    0.02899    0.02090 =
         0.02168    0.00156    0.00501    0.00306
H2    2    0.609331    0.114089    0.058143    11.00000    0.03875
C3    1    0.350762    0.163516    0.142818    11.00000    0.03245    0.02081 =
         0.02322    0.00327    0.00642   -0.00195
H3    2    0.284623    0.055883    0.127472    11.00000    0.03058
C4    1    0.242890    0.281820    0.197796    11.00000    0.02716    0.02808 =
         0.02410    0.00558    0.00889   -0.00107
H4    2    0.107400    0.254342    0.221949    11.00000    0.02688
C5    1    0.320285    0.438539    0.216982    11.00000    0.02117    0.02663 =
         0.01704    0.00222    0.00113    0.00257
H5    2    0.246947    0.526210    0.260412    11.00000    0.02881
C6    1    0.509459    0.470679    0.177529    11.00000    0.02681    0.01870 =
         0.01758    0.00276    0.00621    0.00306
C7    1    0.654501    0.771735    0.215043    11.00000    0.02439    0.02037 =
         0.02067    0.00461    0.00450    0.00218
C8    1    0.834604    0.824400    0.152776    11.00000    0.02597    0.02286 =
         0.01914    0.00375    0.00291    0.00061
C9    1    0.792430    0.562980    0.111000    11.00000    0.02156    0.02236 =
         0.01981    0.00276    0.00638    0.00172
C10   1    0.559261    0.867788    0.297276    11.00000    0.02544    0.02183 =
         0.02239    0.00342    0.00466    0.00507
H10   2    0.598569    0.983107    0.306795    11.00000    0.03071
C11   1    0.414980    0.819334    0.381047    11.00000    0.02629    0.02037 =
         0.02024   -0.00076    0.00507    0.00329
C12   1    0.469170    0.724866    0.460672    11.00000    0.03034    0.02619 =
         0.02525    0.00451    0.00518    0.00664
H12   2    0.607357    0.692668    0.459887    11.00000    0.04143
C13   1    0.334567    0.676443    0.538837    11.00000    0.04468    0.03247 =
         0.02385    0.00730    0.00950    0.00552
H13   2    0.374937    0.609653    0.596020    11.00000    0.03914
C14   1    0.142043    0.719900    0.537049    11.00000    0.04150    0.03986 =
         0.02957    0.00446    0.01725    0.00187
H14   2    0.044393    0.685291    0.592381    11.00000    0.05218
C15   1    0.088725    0.816641    0.460772    11.00000    0.02825    0.04101 =
         0.03883    0.00373    0.01149    0.00758
H15   2   -0.048536    0.846037    0.462396    11.00000    0.05723
C16   1    0.224499    0.868705    0.384635    11.00000    0.02878    0.02918 =
         0.02764    0.00338    0.00437    0.00786
H16   2    0.188903    0.940414    0.329181    11.00000    0.03859
HKLF 4
REM  JTM661_0m_a.res in P-1
REM R1 =  0.0468 for    1810 Fo > 4sig(Fo)  and  0.0617 for all    2249 data
REM    225 parameters refined using      0 restraints
END
WGHT      0.0512      0.4971
REM Highest difference peak  0.239,  deepest hole -0.263,  1-sigma level  0.062
Q1    1   0.2223  0.3590  0.1529  11.00000  0.05    0.24
Q2    1   0.4402  0.4675  0.2597  11.00000  0.05    0.22
Q3    1   1.0638  1.0263  0.1051  11.00000  0.05    0.21
Q4    1   0.0078  0.2982  0.1497  11.00000  0.05    0.20
Q5    1   0.9710  1.0838  0.2194  11.00000  0.05    0.20
;
_shelx_res_checksum              75451
loop_
_space_group_symop_operation_xyz
'x, y, z'
'-x, -y, -z'
loop_
_atom_site_type_symbol
_atom_site_label
_atom_site_fract_x
_atom_site_fract_y
_atom_site_fract_z
_atom_site_U_iso_or_equiv
_atom_site_adp_type
_atom_site_calc_flag
_atom_site_occupancy
O O1 0.9044(2) 0.95697(17) 0.15628(15) 0.0297(4) Uani d 1
N N1 0.7919(3) 0.4128(2) 0.07214(17) 0.0235(4) Uani d 1
N N2 0.6348(3) 0.60823(19) 0.17826(16) 0.0205(4) Uani d 1
N N3 0.9139(3) 0.6904(2) 0.09709(17) 0.0237(4) Uani d 1
H H3A 1.019(4) 0.680(3) 0.047(3) 0.044(8) Uiso d 1
C C1 0.6146(3) 0.3508(2) 0.11504(19) 0.0215(4) Uani d 1
C C2 0.5370(3) 0.1964(2) 0.1005(2) 0.0245(5) Uani d 1
H H2 0.609(4) 0.114(3) 0.058(3) 0.039(7) Uiso d 1
C C3 0.3508(3) 0.1635(2) 0.1428(2) 0.0262(5) Uani d 1
H H3 0.285(4) 0.056(3) 0.127(3) 0.031(6) Uiso d 1
C C4 0.2429(3) 0.2818(3) 0.1978(2) 0.0267(5) Uani d 1
H H4 0.107(4) 0.254(3) 0.222(2) 0.027(6) Uiso d 1
C C5 0.3203(3) 0.4385(2) 0.21698(19) 0.0223(4) Uani d 1
H H5 0.247(4) 0.526(3) 0.260(3) 0.029(6) Uiso d 1
C C6 0.5095(3) 0.4707(2) 0.17753(19) 0.0212(4) Uani d 1
C C7 0.6545(3) 0.7717(2) 0.21504(19) 0.0219(4) Uani d 1
C C8 0.8346(3) 0.8244(2) 0.15278(19) 0.0232(5) Uani d 1
C C9 0.7924(3) 0.5630(2) 0.11100(19) 0.0216(4) Uani d 1
C C10 0.5593(3) 0.8678(2) 0.2973(2) 0.0234(5) Uani d 1
H H10 0.599(4) 0.983(3) 0.307(2) 0.031(6) Uiso d 1
C C11 0.4150(3) 0.8193(2) 0.3810(2) 0.0232(5) Uani d 1
C C12 0.4692(4) 0.7249(3) 0.4607(2) 0.0273(5) Uani d 1
H H12 0.607(4) 0.693(3) 0.460(3) 0.041(8) Uiso d 1
C C13 0.3346(4) 0.6764(3) 0.5388(2) 0.0333(5) Uani d 1
H H13 0.375(4) 0.610(3) 0.596(3) 0.039(7) Uiso d 1
C C14 0.1420(4) 0.7199(3) 0.5370(2) 0.0373(6) Uani d 1
H H14 0.044(5) 0.685(3) 0.592(3) 0.052(9) Uiso d 1
C C15 0.0887(4) 0.8166(3) 0.4608(3) 0.0365(6) Uani d 1
H H15 -0.049(5) 0.846(4) 0.462(3) 0.057(9) Uiso d 1
C C16 0.2245(3) 0.8687(3) 0.3846(2) 0.0288(5) Uani d 1
H H16 0.189(4) 0.940(3) 0.329(3) 0.039(7) Uiso d 1
loop_
_atom_site_aniso_label
_atom_site_aniso_U_11
_atom_site_aniso_U_22
_atom_site_aniso_U_33
_atom_site_aniso_U_12
_atom_site_aniso_U_13
_atom_site_aniso_U_23
O1 0.0337(9) 0.0220(8) 0.0333(9) -0.0005(6) 0.0081(7) 0.0075(6)
N1 0.0260(9) 0.0214(9) 0.0234(9) 0.0039(7) 0.0091(7) 0.0040(7)
N2 0.0202(9) 0.0188(8) 0.0215(8) 0.0019(6) 0.0053(7) 0.0029(6)
N3 0.0243(9) 0.0213(9) 0.0251(9) 0.0010(7) 0.0090(7) 0.0041(7)
C1 0.0234(10) 0.0218(10) 0.0190(9) 0.0034(8) 0.0058(8) 0.0035(7)
C2 0.0290(11) 0.0209(10) 0.0217(10) 0.0031(8) 0.0050(9) 0.0016(8)
C3 0.0325(12) 0.0208(10) 0.0232(10) -0.0019(9) 0.0064(9) 0.0033(8)
C4 0.0272(12) 0.0281(11) 0.0241(11) -0.0011(9) 0.0089(9) 0.0056(9)
C5 0.0212(10) 0.0266(11) 0.0170(9) 0.0026(8) 0.0011(8) 0.0022(8)
C6 0.0268(11) 0.0187(10) 0.0176(9) 0.0031(8) 0.0062(8) 0.0028(7)
C7 0.0244(11) 0.0204(10) 0.0207(10) 0.0022(8) 0.0045(8) 0.0046(8)
C8 0.0260(11) 0.0229(11) 0.0191(10) 0.0006(8) 0.0029(8) 0.0037(8)
C9 0.0216(10) 0.0224(10) 0.0198(10) 0.0017(8) 0.0064(8) 0.0028(8)
C10 0.0254(11) 0.0218(11) 0.0224(10) 0.0051(8) 0.0047(8) 0.0034(8)
C11 0.0263(11) 0.0204(10) 0.0202(10) 0.0033(8) 0.0051(8) -0.0008(8)
C12 0.0303(12) 0.0262(11) 0.0253(11) 0.0066(9) 0.0052(9) 0.0045(9)
C13 0.0447(14) 0.0325(12) 0.0239(11) 0.0055(10) 0.0095(10) 0.0073(9)
C14 0.0415(14) 0.0399(14) 0.0296(12) 0.0019(11) 0.0173(11) 0.0045(10)
C15 0.0282(13) 0.0410(14) 0.0388(13) 0.0076(10) 0.0115(11) 0.0037(11)
C16 0.0288(12) 0.0292(12) 0.0276(11) 0.0079(9) 0.0044(9) 0.0034(9)
loop_
_atom_type_symbol
_atom_type_description
_atom_type_scat_dispersion_real
_atom_type_scat_dispersion_imag
_atom_type_scat_source
C C 0.0181 0.0091 'International Tables Vol C Tables 4.2.6.8 and 6.1.1.4'
H H 0.0000 0.0000 'International Tables Vol C Tables 4.2.6.8 and 6.1.1.4'
N N 0.0311 0.0180 'International Tables Vol C Tables 4.2.6.8 and 6.1.1.4'
O O 0.0492 0.0322 'International Tables Vol C Tables 4.2.6.8 and 6.1.1.4'
loop_
_geom_angle_atom_site_label_1
_geom_angle_atom_site_label_2
_geom_angle_atom_site_label_3
_geom_angle
C9 N1 C1 103.06(16)
C9 N2 C6 106.03(16)
C9 N2 C7 109.67(17)
C6 N2 C7 144.18(18)
C9 N3 C8 109.39(17)
C9 N3 H3A 121.3(18)
C8 N3 H3A 128.7(18)
C2 C1 N1 128.60(19)
C2 C1 C6 120.20(19)
N1 C1 C6 111.18(17)
C1 C2 C3 118.06(19)
C1 C2 H2 120.3(16)
C3 C2 H2 121.6(16)
C2 C3 C4 121.4(2)
C2 C3 H3 120.7(15)
C4 C3 H3 117.6(15)
C3 C4 C5 121.7(2)
C3 C4 H4 119.3(14)
C5 C4 H4 119.0(14)
C6 C5 C4 116.56(19)
C6 C5 H5 120.6(14)
C4 C5 H5 122.8(14)
C5 C6 N2 133.96(19)
C5 C6 C1 121.92(18)
N2 C6 C1 104.03(17)
C10 C7 N2 131.17(19)
C10 C7 C8 124.17(19)
N2 C7 C8 104.25(16)
O1 C8 N3 126.4(2)
O1 C8 C7 127.33(19)
N3 C8 C7 106.19(17)
N1 C9 N3 134.23(19)
N1 C9 N2 115.54(18)
N3 C9 N2 110.20(17)
C7 C10 C11 125.17(19)
C7 C10 H10 116.6(14)
C11 C10 H10 118.1(14)
C12 C11 C16 118.8(2)
C12 C11 C10 119.93(19)
C16 C11 C10 121.3(2)
C13 C12 C11 120.8(2)
C13 C12 H12 120.8(16)
C11 C12 H12 118.5(16)
C12 C13 C14 120.0(2)
C12 C13 H13 120.2(16)
C14 C13 H13 119.7(16)
C15 C14 C13 119.6(2)
C15 C14 H14 119.8(18)
C13 C14 H14 120.6(18)
C14 C15 C16 120.7(2)
C14 C15 H15 117.5(19)
C16 C15 H15 121.8(19)
C15 C16 C11 120.1(2)
C15 C16 H16 121.8(16)
C11 C16 H16 118.1(16)
loop_
_geom_bond_atom_site_label_1
_geom_bond_atom_site_label_2
_geom_bond_distance
O1 C8 1.212(3)
N1 C9 1.306(3)
N1 C1 1.409(3)
N2 C9 1.375(3)
N2 C6 1.401(3)
N2 C7 1.406(3)
N3 C9 1.365(3)
N3 C8 1.392(3)
N3 H3A 0.93(3)
C1 C2 1.382(3)
C1 C6 1.418(3)
C2 C3 1.386(3)
C2 H2 0.97(3)
C3 C4 1.394(3)
C3 H3 0.98(3)
C4 C5 1.394(3)
C4 H4 0.98(2)
C5 C6 1.388(3)
C5 H5 1.01(3)
C7 C10 1.337(3)
C7 C8 1.509(3)
C10 C11 1.472(3)
C10 H10 1.01(3)
C11 C12 1.394(3)
C11 C16 1.397(3)
C12 C13 1.384(3)
C12 H12 1.00(3)
C13 C14 1.388(4)
C13 H13 1.00(3)
C14 C15 1.382(4)
C14 H14 0.99(3)
C15 C16 1.386(3)
C15 H15 0.98(3)
C16 H16 1.01(3)
loop_
_geom_hbond_atom_site_label_D
_geom_hbond_atom_site_label_H
_geom_hbond_atom_site_label_A
_geom_hbond_site_symmetry_A
_geom_hbond_distance_DH
_geom_hbond_distance_HA
_geom_hbond_distance_DA
_geom_hbond_angle_DHA
N3 H3A N1 2_765 0.93(3) 1.98(3) 2.876(2) 162(3)
C16 H16 O1 1_455 1.01(3) 2.58(3) 3.412(3) 139(2)
C5 H5 Cg4 . 1.01(3) 2.65(3) 3.512(2) 143(3)
C10 H10 Cg4 2_676 1.01(3) 2.88(2) 3.606(2) 129.0(15)
C13 H13 Cg3 2_666 1.00(3) 2.73(3) 3.474(2) 132(2)
loop_
_geom_torsion_atom_site_label_1
_geom_torsion_atom_site_label_2
_geom_torsion_atom_site_label_3
_geom_torsion_atom_site_label_4
_geom_torsion
C9 N1 C1 C2 179.9(2)
C9 N1 C1 C6 1.4(2)
N1 C1 C2 C3 -175.2(2)
C6 C1 C2 C3 3.1(3)
C1 C2 C3 C4 0.5(3)
C2 C3 C4 C5 -2.3(3)
C3 C4 C5 C6 0.5(3)
C4 C5 C6 N2 179.0(2)
C4 C5 C6 C1 3.1(3)
C9 N2 C6 C5 -172.6(2)
C7 N2 C6 C5 2.6(5)
C9 N2 C6 C1 3.9(2)
C7 N2 C6 C1 179.1(3)
C2 C1 C6 C5 -5.0(3)
N1 C1 C6 C5 173.59(19)
C2 C1 C6 N2 177.99(19)
N1 C1 C6 N2 -3.4(2)
C9 N2 C7 C10 -168.0(2)
C6 N2 C7 C10 16.9(5)
C9 N2 C7 C8 4.7(2)
C6 N2 C7 C8 -170.4(3)
C9 N3 C8 O1 -179.3(2)
C9 N3 C8 C7 4.5(2)
C10 C7 C8 O1 -8.3(4)
N2 C7 C8 O1 178.3(2)
C10 C7 C8 N3 167.8(2)
N2 C7 C8 N3 -5.5(2)
C1 N1 C9 N3 -176.5(2)
C1 N1 C9 N2 1.3(2)
C8 N3 C9 N1 176.2(2)
C8 N3 C9 N2 -1.6(2)
C6 N2 C9 N1 -3.5(2)
C7 N2 C9 N1 179.52(17)
C6 N2 C9 N3 174.82(17)
C7 N2 C9 N3 -2.2(2)
N2 C7 C10 C11 5.8(4)
C8 C7 C10 C11 -165.6(2)
C7 C10 C11 C12 51.9(3)
C7 C10 C11 C16 -129.4(2)
C16 C11 C12 C13 2.1(3)
C10 C11 C12 C13 -179.1(2)
C11 C12 C13 C14 1.0(3)
C12 C13 C14 C15 -2.6(4)
C13 C14 C15 C16 1.0(4)
C14 C15 C16 C11 2.2(4)
C12 C11 C16 C15 -3.7(3)
C10 C11 C16 C15 177.6(2)

_cod_database_fobs_code 1544774
