#------------------------------------------------------------------------------
#$Date: 2016-12-21 04:23:37 +0200 (Wed, 21 Dec 2016) $
#$Revision: 189283 $
#$URL: file:///home/coder/svn-repositories/cod/cif/1/54/48/1544820.cif $
#------------------------------------------------------------------------------
#
# This file is available in the Crystallography Open Database (COD),
# http://www.crystallography.net/. The original data for this entry
# were provided by IUCr Journals, http://journals.iucr.org/.
#
# The file may be used within the scientific community so long as
# proper attribution is given to the journal article from which the
# data were obtained.
#
data_1544820
loop_
_publ_author_name
'El-Khatatneh, Nasseem'
Chandra
'Shamala, D.'
'Shivashankar, K.'
'Mahendra, M.'
_publ_section_title
;
 4-[(4-Hydroxymethyl-2<i>H</i>-1,2,3-triazol-2-yl)methyl]-6-isopropyl-2<i>H</i>-chromen-2-one
;
_journal_coeditor_code           TK4026
_journal_issue                   12
_journal_name_full               IUCrData
_journal_page_first              x161989
_journal_paper_doi               10.1107/S2414314616019891
_journal_volume                  1
_journal_year                    2016
_chemical_formula_iupac          'C16 H17 N3 O3'
_chemical_formula_moiety         'C16 H17 N3 O3'
_chemical_formula_sum            'C16 H17 N3 O3'
_chemical_formula_weight         299.32
_chemical_name_systematic
4-[(4-Hydroxymethyl-2<i>H</i>-1,2,3-triazol-2-yl)methyl]-6-isopropyl-2<i>H</i>-chromen-2-one
_space_group_crystal_system      monoclinic
_space_group_IT_number           4
_space_group_name_Hall           'P 2yb'
_space_group_name_H-M_alt        'P 1 21 1'
_symmetry_space_group_name_Hall  'P 2yb'
_symmetry_space_group_name_H-M   'P 1 21 1'
_atom_sites_solution_hydrogens   geom
_atom_sites_solution_primary     direct
_atom_sites_solution_secondary   difmap
_audit_creation_method           SHELXL-2016/4
_cell_angle_alpha                90
_cell_angle_beta                 101.209(9)
_cell_angle_gamma                90
_cell_formula_units_Z            2
_cell_length_a                   8.715(5)
_cell_length_b                   7.301(4)
_cell_length_c                   12.113(6)
_cell_measurement_reflns_used    2680
_cell_measurement_temperature    273(2)
_cell_measurement_theta_max      24.994
_cell_measurement_theta_min      1.714
_cell_volume                     756.0(7)
_computing_cell_refinement
;
SAINT (Bruker, 2009)
;
_computing_data_collection
;
APEX2 (Bruker, 2009)
;
_computing_data_reduction
;
SAINT (Bruker, 2009)
;
_computing_molecular_graphics
;
PLATON (Spek, 2009) and Mercury (Macrae <i>et al.</i>, 2008)
;
_computing_publication_material
;
SHELXL2016 (Sheldrick, 2015) and PLATON (Spek, 2009)
;
_computing_structure_refinement
;
SHELXL2016 (Sheldrick, 2015)
;
_computing_structure_solution
;
SHELXS97 (Sheldrick, 2008)
;
_diffrn_ambient_temperature      273(2)
_diffrn_detector_area_resol_mean 18.4
_diffrn_measured_fraction_theta_full 0.999
_diffrn_measured_fraction_theta_max 0.999
_diffrn_measurement_device_type  'Bruker MicroStar microfocus rotating anode'
_diffrn_measurement_method       '\f and \w scans'
_diffrn_radiation_type           MoK\a
_diffrn_radiation_wavelength     0.71073
_diffrn_reflns_av_R_equivalents  0.0260
_diffrn_reflns_limit_h_max       10
_diffrn_reflns_limit_h_min       -10
_diffrn_reflns_limit_k_max       8
_diffrn_reflns_limit_k_min       -8
_diffrn_reflns_limit_l_max       14
_diffrn_reflns_limit_l_min       -14
_diffrn_reflns_number            7069
_diffrn_reflns_theta_full        24.994
_diffrn_reflns_theta_max         24.994
_diffrn_reflns_theta_min         1.714
_exptl_absorpt_coefficient_mu    0.093
_exptl_absorpt_correction_type   none
_exptl_crystal_colour            colourless
_exptl_crystal_density_diffrn    1.315
_exptl_crystal_description       block
_exptl_crystal_F_000             316
_exptl_crystal_size_max          0.350
_exptl_crystal_size_mid          0.250
_exptl_crystal_size_min          0.150
_refine_diff_density_max         0.249
_refine_diff_density_min         -0.283
_refine_ls_abs_structure_details
;
Flack <i>x</i> determined using 884 quotients
[(<i>I</i>^+^)-(<i>I</i>^-^)]/[(<i>I</i>^+^)+(<i>I</i>^-^)]
(Parsons <i>et al.</i>,  2013)
;
_refine_ls_abs_structure_Flack   0.4(6)
_refine_ls_extinction_method     none
_refine_ls_goodness_of_fit_ref   1.056
_refine_ls_hydrogen_treatment    constr
_refine_ls_matrix_type           full
_refine_ls_number_parameters     214
_refine_ls_number_reflns         2680
_refine_ls_number_restraints     38
_refine_ls_restrained_S_all      1.049
_refine_ls_R_factor_all          0.0655
_refine_ls_R_factor_gt           0.0579
_refine_ls_shift/su_max          0.000
_refine_ls_shift/su_mean         0.000
_refine_ls_structure_factor_coef Fsqd
_refine_ls_weighting_details
'w=1/[\s^2^(Fo^2^)+(0.1139P)^2^+0.0997P] where P=(Fo^2^+2Fc^2^)/3'
_refine_ls_weighting_scheme      calc
_refine_ls_wR_factor_gt          0.1645
_refine_ls_wR_factor_ref         0.1733
_reflns_number_gt                2307
_reflns_number_total             2680
_reflns_threshold_expression     'I > 2\s(I)'
_cod_data_source_file            tk4026sup1.cif
_cod_data_source_block           I
_cod_database_code               1544820
_shelx_space_group_comment
;
The symmetry employed for this shelxl refinement is uniquely defined
by the following loop, which should always be used as a source of
symmetry information in preference to the above space-group names.
They are only intended as comments.
;
_shelx_estimated_absorpt_t_min   0.968
_shelx_estimated_absorpt_t_max   0.986
_shelx_hkl_file
;
  -1   0   0 2030.71   58.26
   1   0   0 2210.79   68.70
   1   0   0 2265.57   57.41
  -1   0   0 2267.54   61.84
  -2   0   0   18.50    0.72
   2   0   0   15.70    1.04
   2   0   0   18.72    0.99
  -2   0   0   18.22    1.02
  -3   0   0  142.75    4.15
   3   0   0  143.10    4.67
  -3   0   0  142.22    4.92
  -4   0   0   35.43    2.00
  -4   0   0   35.38    2.06
   4   0   0   34.60    1.93
   5   0   0    1.57    0.65
   5   0   0    0.93    0.39
  -5   0   0    1.57    0.64
  -5   0   0    0.87    0.66
  -6   0   0   84.49    4.01
   6   0   0   86.37    3.11
  -6   0   0   85.40    4.20
   6   0   0   85.75    3.95
   7   0   0    3.87    1.17
  -7   0   0    5.13    1.36
   8   0   0    0.05    0.86
  -8   0   0    2.07    1.05
   9   0   0    1.95    1.16
  -9   0   0    3.53    1.31
 -10   0   0    3.31    1.56
  10   0   0    1.59    1.35
   0  -1   0   -3.21    0.41
   0   1   0   -0.96    0.32
   0   1   0   -1.53    0.32
  -1  -1   0  183.77    6.34
  -1   1   0  181.33    5.03
   1  -1   0  179.32    6.03
   1   1   0  172.94    5.05
   1  -1   0  179.29    5.11
  -2   1   0   93.97    2.84
   2  -1   0   95.74    3.12
   2   1   0   92.95    3.08
   2   1   0   91.11    2.82
  -2  -1   0   93.77    3.86
  -2  -1   0   94.57    3.20
  -2   1   0   95.64    3.30
   2  -1   0   89.87    3.37
   3  -1   0  498.03   16.14
  -3   1   0  495.61   13.59
  -3  -1   0  507.26   14.95
   3  -1   0  505.38   14.08
  -3   1   0  498.67   14.95
   3   1   0  502.76   13.59
   3   1   0  502.31   14.05
  -4   1   0  114.77    3.60
   4  -1   0  116.48    4.26
  -4   1   0  115.08    4.40
   4   1   0  115.39    4.21
  -4  -1   0  113.03    4.31
  -4  -1   0  111.63    5.01
   4  -1   0  114.38    4.44
   4   1   0  114.72    3.59
   5  -1   0  288.66   10.19
   5  -1   0  290.90    9.28
  -5   1   0  296.13    8.43
   5   1   0  303.28    8.44
   5   1   0  292.41    9.28
  -5  -1   0  290.08    9.71
  -5   1   0  287.04    9.80
  -5  -1   0  286.43   10.84
  -6   1   0    9.18    0.85
  -6  -1   0    8.45    1.51
   6  -1   0   10.65    1.47
   6   1   0    8.20    0.84
  -6   1   0    8.85    1.44
  -6  -1   0    6.73    1.24
   6   1   0   10.68    1.51
  -7   1   0   15.06    1.87
  -7  -1   0   10.15    1.64
   7   1   0   11.47    1.77
   7  -1   0   12.57    1.83
  -8  -1   0   17.16    2.06
   8  -1   0   15.40    2.18
   8   1   0   16.58    2.23
  -8   1   0   20.42    2.34
   9  -1   0    0.36    1.14
  -9   1   0    1.76    1.13
   9   1   0    1.90    1.27
  -9  -1   0    3.03    1.45
 -10   1   0   14.89    2.54
 -10  -1   0   15.70    2.57
  10  -1   0   16.66    2.55
  10   1   0   15.19    2.52
   0   2   0 3426.55   88.11
   0  -2   0 3357.08  105.04
   0   2   0 3350.01   88.73
   1   2   0  230.01    6.80
  -1  -2   0  247.81    8.52
  -1   2   0  230.89    7.10
  -1  -2   0  247.26    6.98
  -1   2   0  246.77    6.75
   1  -2   0  235.24    8.38
   1  -2   0  232.96    6.93
   1   2   0  234.16    6.81
  -2  -2   0   85.01    4.09
   2   2   0   88.65    3.02
  -2   2   0   87.58    2.89
   2   2   0   85.19    2.81
   2  -2   0   83.56    3.04
   2  -2   0   82.19    3.55
  -2  -2   0   80.54    2.94
   3   2   0  123.20    4.19
  -3  -2   0  124.06    4.26
  -3   2   0  110.17    3.70
  -3   2   0  132.17    4.44
   3  -2   0  123.80    4.70
   3  -2   0  124.06    4.28
  -3  -2   0  124.80    5.42
   4  -2   0  226.76    7.51
   4  -2   0  231.97    8.14
   4   2   0  232.43    6.81
  -4   2   0  232.18    7.78
   4   2   0  233.76    7.36
  -4   2   0  229.83    6.91
  -4  -2   0  229.36    7.60
  -4  -2   0  233.11    9.20
   5   2   0   53.61    2.18
  -5  -2   0   51.45    3.49
   5  -2   0   54.57    2.92
   5   2   0   54.95    2.75
  -5  -2   0   54.76    2.76
  -5   2   0   55.86    2.94
  -5   2   0   56.54    2.25
  -6  -2   0   17.36    1.70
   6   2   0   15.39    1.67
  -6   2   0   16.42    1.84
   6  -2   0   15.76    1.84
  -6   2   0   18.19    1.26
   6   2   0   16.29    1.17
   7   2   0   34.94    2.49
  -7   2   0   33.20    2.63
   7  -2   0   26.38    2.46
  -7  -2   0   29.30    2.77
  -7  -2   0   29.68    2.34
  -8  -2   0    6.84    1.52
   8  -2   0    4.66    1.38
   8   2   0    5.62    1.40
  -8   2   0    6.13    1.55
   9  -2   0   10.26    2.04
  -9   2   0    5.41    1.62
   9   2   0    9.79    1.86
  -9  -2   0    8.11    1.80
   0   3   0    0.32    0.30
   0  -3   0    0.04    0.63
   0   3   0    0.01    0.34
   1  -3   0  265.62    9.89
  -1   3   0  261.45    8.03
   1  -3   0  259.71    8.02
  -1   3   0  290.58    7.98
   1   3   0  251.83    7.88
   1   3   0  284.12    8.00
   2  -3   0  223.13    7.00
   2   3   0  224.86    6.84
  -2  -3   0  226.18    8.93
   2  -3   0  221.02    8.36
   2   3   0  227.26    6.77
  -2  -3   0  225.40    6.88
  -2   3   0  225.03    7.09
  -2   3   0  230.41    6.87
  -3  -3   0  382.82   11.41
  -3  -3   0  368.85   13.92
   3  -3   0  375.96   11.17
   3   3   0  375.48   11.00
  -3   3   0  365.98   10.83
   3   3   0  388.63   10.78
   3  -3   0  368.67   12.95
  -4   3   0   30.21    1.69
   4   3   0   28.58    1.85
  -4  -3   0   26.08    2.48
  -4   3   0   28.91    1.86
   4  -3   0   26.51    1.88
   4  -3   0   30.32    1.99
  -4  -3   0   31.18    1.79
  -5   3   0   20.11    1.87
   5   3   0   17.63    1.23
  -5  -3   0   18.64    2.32
  -5   3   0   17.65    1.28
  -5  -3   0   19.20    1.61
   5   3   0   17.76    1.61
   5  -3   0   17.51    1.85
   6   3   0   70.71    3.58
   6   3   0   71.79    2.98
  -6   3   0   75.21    3.89
  -6   3   0   72.12    2.99
  -6  -3   0   79.04    3.75
  -6  -3   0   75.82    4.67
   6  -3   0   69.30    3.68
  -7  -3   0    4.01    1.62
   7  -3   0    2.74    1.10
  -7   3   0    2.19    1.22
  -7  -3   0    4.98    1.27
   7   3   0    4.55    1.19
  -7   3   0    4.28    0.87
  -8   3   0   13.36    2.04
   8   3   0   12.24    1.94
   8  -3   0   16.65    2.29
  -8  -3   0   16.78    2.11
   9  -3   0   14.79    2.38
   9   3   0   18.93    2.48
  -9  -3   0   20.64    2.36
  -9   3   0   13.67    2.26
   0   4   0   61.35    2.50
   0   4   0   60.07    2.57
   0  -4   0   57.71    3.52
   1  -4   0    5.33    0.92
  -1   4   0    5.39    0.84
   1   4   0    5.61    0.88
   1   4   0    4.51    0.81
   1  -4   0    5.81    1.37
  -1   4   0    5.20    0.56
  -1  -4   0    7.13    1.58
  -2  -4   0   71.84    2.62
  -2   4   0   74.59    2.88
  -2  -4   0   70.75    4.37
   2  -4   0   74.45    3.22
   2   4   0   78.69    3.18
  -2   4   0   74.53    3.04
   2  -4   0   74.22    4.10
   2   4   0   78.16    3.13
  -3   4   0   73.29    3.00
   3  -4   0   67.59    3.71
   3   4   0   69.60    3.03
  -3  -4   0   72.90    2.77
  -3  -4   0   70.73    4.43
   3   4   0   70.80    2.91
  -3   4   0   71.51    3.03
   3  -4   0   70.83    3.25
  -4   4   0   45.54    2.40
   4   4   0   50.37    2.34
  -4  -4   0   52.23    2.47
  -4  -4   0   52.16    3.97
   4  -4   0   52.37    2.83
   4   4   0   49.03    2.57
   4  -4   0   52.05    3.12
  -5   4   0    2.98    0.79
  -5   4   0    3.72    1.11
   5   4   0    3.67    0.92
   5  -4   0    1.98    0.84
  -5  -4   0    3.69    1.48
  -5  -4   0    2.81    0.95
  -6   4   0   62.39    2.90
   6  -4   0   61.77    3.57
  -6  -4   0   60.32    3.21
  -6  -4   0   52.82    4.34
  -6   4   0   61.12    3.58
   6   4   0   59.33    2.80
   6   4   0   58.43    3.22
  -7   4   0   25.55    2.14
   7  -4   0   17.71    2.36
   7   4   0   16.12    1.88
  -7  -4   0   14.00    2.73
  -7   4   0   14.70    2.07
   8   4   0    4.37    1.18
   8  -4   0    5.55    1.73
  -8   4   0    5.90    1.43
   9  -4   0    0.23    1.29
  -9   4   0    2.28    1.46
   9   4   0    2.65    1.13
   0  -5   0   -0.50    0.79
   0   5   0   -0.09    0.36
   0   5   0    0.18    0.56
   1   5   0   29.47    1.81
   1  -5   0   32.83    3.23
   1  -5   0   29.67    2.03
  -1  -5   0   27.31    2.92
  -1   5   0   25.63    1.78
   1   5   0   27.50    1.83
  -2   5   0   30.45    1.89
   2  -5   0   26.63    2.82
   2   5   0   28.04    1.86
   2  -5   0   28.10    1.99
  -2  -5   0   31.02    3.25
   2   5   0   27.57    1.84
   3   5   0  124.85    4.87
  -3  -5   0  136.69    7.00
   3  -5   0  135.60    6.50
   3  -5   0  131.60    5.26
  -3   5   0  129.77    4.97
   3   5   0  139.64    5.00
   4   5   0    1.48    0.67
  -4   5   0    2.38    0.89
   4  -5   0    3.19    0.99
  -4  -5   0    2.59    1.77
   4   5   0    3.80    0.89
  -5   5   0    8.71    1.31
  -5   5   0   15.95    1.85
   5   5   0    9.04    1.18
   5   5   0   10.92    1.38
   5  -5   0    7.95    1.52
  -5  -5   0    8.47    2.31
   6  -5   0   11.08    1.88
  -6   5   0   11.00    1.40
  -6   5   0   15.34    1.98
   6   5   0    9.65    1.52
  -6  -5   0    9.77    2.52
  -7   5   0   -0.06    0.68
   7   5   0    3.31    1.04
   7  -5   0    0.01    0.97
  -7  -5   0    0.92    1.44
  -7   5   0    0.69    1.18
  -8   5   0    8.15    1.84
   8  -5   0    5.46    1.76
   8   5   0    4.78    1.33
  -8  -5   0    5.85    2.01
   0   6   0   12.00    1.54
   0  -6   0   14.21    2.51
  -1   6   0   99.86    4.15
   1  -6   0   94.56    4.20
  -1  -6   0   94.14    5.87
   1  -6   0   89.94    5.42
   1   6   0   93.49    3.95
   1   6   0  102.32    4.24
   2   6   0  334.73   10.57
   2  -6   0  337.57   13.55
   2  -6   0  324.13   10.74
  -2   6   0  333.21   10.62
  -2  -6   0  337.59   14.07
  -3  -6   0   37.64    4.16
  -3   6   0   41.08    2.48
   3   6   0   41.73    2.49
   3  -6   0   39.62    2.82
   3   6   0   37.95    2.42
   3  -6   0   32.59    2.93
  -4   6   0   38.69    2.40
   4  -6   0   42.42    2.87
   4   6   0   43.33    2.58
  -4  -6   0   30.85    3.87
   4   6   0   39.59    2.39
   5  -6   0    5.12    1.32
   5   6   0    3.83    1.00
  -5   6   0    4.42    1.05
   5   6   0    3.47    1.04
  -5  -6   0    0.71    1.30
  -6  -6   0    3.99    1.83
  -6   6   0    3.17    1.13
   6   6   0    3.31    1.02
   6  -6   0    4.70    1.37
  -7   6   0    3.27    1.07
  -7  -6   0    1.75    1.71
   7  -6   0    3.60    1.55
   0  -7   0   -0.61    1.36
   0   7   0   -0.76    0.80
   0  -7   0    1.83    1.00
  -1  -7   0   50.36    4.37
   1   7   0   52.81    2.89
  -1   7   0   52.66    3.07
   1  -7   0   51.73    3.27
   1  -7   0   48.30    4.42
   1   7   0   50.75    2.96
   2  -7   0   24.46    3.10
  -2  -7   0   30.25    3.55
   2  -7   0   34.15    2.78
   2   7   0   35.81    2.31
  -2   7   0   33.70    2.39
   2   7   0   32.93    2.42
  -3  -7   0   12.61    2.81
   3  -7   0    9.35    1.85
   3   7   0   10.02    1.48
  -3   7   0   11.44    1.69
   3   7   0   11.35    1.66
   4  -7   0   19.13    2.35
  -4   7   0   16.05    1.82
  -4  -7   0   12.67    2.87
   5  -7   0    1.33    1.08
   5   7   0    0.88    0.84
  -5  -7   0    1.14    1.68
  -5   7   0    0.85    0.83
  -6  -7   0   -0.17    1.75
  -6   7   0    1.31    0.86
   6  -7   0    0.31    1.03
   0   8   0   12.69    1.94
   0  -8   0   14.72    3.14
   0  -8   0   15.02    2.24
   1  -8   0    9.11    1.75
   1  -8   0    7.66    2.50
  -1  -8   0   10.97    2.95
   1   8   0   10.41    1.68
  -1   8   0    8.26    1.60
  -2  -8   0   12.27    3.02
   2  -8   0    7.88    1.69
   2  -8   0   11.86    2.84
  -2   8   0    7.96    1.59
   2   8   0    8.84    1.57
  -3   8   0   -0.67    0.81
   3   8   0    1.08    0.96
   3  -8   0    0.66    1.09
  -3  -8   0   -1.27    1.53
 -10   0   1    0.97    1.20
  10   0  -1    1.67    1.36
   9   0  -1    7.72    1.86
  -9   0   1    9.54    1.91
   8   0  -1    8.92    1.69
  -8   0   1    8.96    1.73
   7   0  -1   59.24    3.30
   7   0  -1   57.45    2.53
   6   0  -1  130.88    5.16
  -6   0   1  131.02    5.29
   6   0  -1  131.61    4.38
   5   0  -1   -0.08    0.19
   5   0  -1    0.11    0.44
  -5   0   1    0.10    0.46
  -5   0   1   -0.39    0.47
  -4   0   1   38.91    2.01
  -4   0   1   35.20    1.85
   4   0  -1   36.65    1.92
  -3   0   1   93.15    2.93
   3   0  -1   92.95    3.27
  -3   0   1   94.09    3.44
  -3   0   1   91.39    3.41
  -2   0   1  639.79   19.24
   2   0  -1  602.45   16.39
  -2   0   1  593.04   16.25
  -2   0   1  593.72   17.63
   1   0  -1    2.63    0.26
  -1   0   1    2.47    0.31
  -1   0   1    3.04    0.24
   0   0   1  593.86   16.75
   0   0   1  579.20   18.52
  -1   0  -1  127.81    4.19
   1   0   1  129.75    3.95
   1   0   1  149.09    4.74
   2   0   1   16.81    1.04
  -2   0  -1   18.57    1.06
   2   0   1   16.97    1.31
   3   0   1  101.21    3.60
   3   0   1  101.21    4.19
  -3   0  -1   97.74    2.94
   4   0   1    8.75    1.06
  -4   0  -1    8.67    1.07
   4   0   1    7.82    1.19
   4   0   1    9.66    0.65
   5   0   1   29.74    2.00
  -5   0  -1   31.29    2.08
   5   0   1   32.29    1.35
  -6   0  -1   74.05    3.74
   6   0   1   72.73    2.63
  -6   0  -1   70.76    4.00
   6   0   1   74.32    3.66
   7   0   1   25.54    2.41
  -7   0  -1   20.86    2.25
  -8   0  -1    2.88    1.26
   8   0   1    1.93    1.08
  -9   0  -1    0.33    0.93
   9   0   1    0.31    0.99
  10   0   1   -0.50    1.31
 -10   0  -1   -0.32    1.22
 -10   1   1   10.77    2.33
  10  -1  -1   13.93    2.46
  10   1  -1   12.63    2.21
 -10  -1   1   10.41    2.11
   9   1  -1    2.27    1.33
  -9   1   1    1.23    1.25
  -9  -1   1    1.13    1.20
   9  -1  -1    1.62    1.09
  -8  -1   1   20.65    2.36
  -8   1   1   16.18    2.11
   8   1  -1   14.87    2.09
   8  -1  -1   13.70    2.08
  -7   1   1   22.13    2.26
   7  -1  -1   22.60    2.18
  -7   1   1   22.19    1.44
   7   1  -1   27.11    2.31
  -7  -1   1   25.63    2.32
   7   1  -1   23.30    1.51
  -6   1   1    6.39    0.77
   6   1  -1    6.73    1.18
  -6   1   1    7.60    1.32
  -6  -1   1    5.82    1.36
   6   1  -1    5.62    0.79
  -6  -1   1    7.03    1.26
   6  -1  -1    7.38    1.30
   5   1  -1   43.28    2.37
  -5  -1   1   48.65    2.81
  -5   1   1   44.77    2.51
   5  -1  -1   41.25    2.34
  -5   1   1   45.72    1.94
  -5  -1   1   43.90    2.46
  -4  -1   1   48.17    2.35
   4  -1  -1   47.57    2.32
   4   1  -1   48.82    2.28
  -4  -1   1   47.17    2.73
  -4   1   1   46.59    1.85
  -4   1   1   45.32    2.35
  -3   1   1  200.44    6.47
  -3   1   1  196.12    5.72
  -3  -1   1  196.86    6.42
   3   1  -1  198.29    6.00
  -3  -1   1  194.86    7.16
   3  -1  -1  197.94    6.13
   3   1  -1  197.70    5.76
   2  -1  -1  180.33    5.39
  -2   1   1  182.19    5.68
  -2  -1   1  179.44    5.68
   2   1  -1  180.03    5.18
  -2   1   1  184.53    5.19
   2   1  -1  175.34    5.26
   1  -1  -1 3743.43   97.12
  -1  -1   1 3772.27  115.49
  -1  -1   1 3604.54  104.75
  -1   1   1 3363.36  104.70
   1   1  -1 3782.72   97.83
   1   1  -1 3675.68   97.71
  -1   1   1 4055.34   97.99
   1  -1  -1 3823.40  115.73
   0   1  -1 1499.48   39.73
   0  -1   1 1535.91   39.55
   0   1   1 1433.63   39.55
   0  -1  -1 1519.27   47.12
   0  -1   1 1528.28   42.60
   0   1   1 1520.37   39.71
  -1   1  -1 3817.84  101.07
   1   1   1 3785.59  100.50
   1  -1   1 3881.24  119.47
   1   1   1 3810.72  101.19
  -1  -1  -1 4026.51  119.60
  -1  -1  -1 3758.93  108.76
  -1   1  -1 3892.05  108.30
  -2   1  -1 3819.95  100.59
   2  -1   1 3769.71  118.99
   2   1   1 3855.97  100.30
  -2  -1  -1 3835.44  119.36
  -2   1  -1 3856.38  107.99
   2  -1   1 3915.89  100.29
   2   1   1 3801.95  100.62
  -2  -1  -1 3843.96  107.92
  -3   1  -1   14.37    0.76
  -3  -1  -1   14.33    1.06
  -3  -1  -1   13.56    1.47
   3   1   1   13.72    1.05
  -3   1  -1   13.68    1.11
   3  -1   1   15.27    1.16
   3   1   1   14.98    0.71
   3  -1   1   15.47    1.34
  -4  -1  -1  185.13    6.28
  -4   1  -1  184.04    5.32
   4  -1   1  180.24    6.88
   4  -1   1  179.69    6.06
   4   1   1  183.75    5.27
  -4   1  -1  183.53    6.43
   4   1   1  178.14    6.05
   5  -1   1  123.13    4.79
   5   1   1  126.01    3.79
  -5  -1  -1   95.69    5.51
   5  -1   1  127.23    5.21
  -5  -1  -1  122.28    4.89
  -5   1  -1  120.49    4.89
   5   1   1  120.62    4.69
  -5   1  -1  129.18    3.82
  -6  -1  -1   52.91    3.41
  -6   1  -1   54.49    2.13
  -6  -1  -1   55.28    3.10
   6   1   1   56.57    3.02
   6  -1   1   53.89    3.11
  -6   1  -1   54.25    3.17
  -7   1  -1   36.04    2.79
   7   1   1   39.17    2.65
   7  -1   1   38.39    2.72
  -7  -1  -1   35.92    2.60
   8  -1   1    6.77    1.53
  -8   1  -1    6.91    1.66
  -8  -1  -1    9.22    1.69
   8   1   1    7.12    1.56
  -9  -1  -1    5.00    1.41
   9   1   1    3.35    1.27
   9  -1   1    3.93    1.52
  -9   1  -1    1.01    1.34
  10   2  -1   21.06    2.62
  10  -2  -1   17.64    2.66
 -10   2   1   16.92    2.59
 -10  -2   1   16.85    2.53
  -9  -2   1   14.34    2.04
  -9   2   1   14.58    2.33
   9   2  -1   13.36    2.11
   9  -2  -1   16.65    2.39
   8   2  -1    9.16    1.67
  -8  -2   1    9.84    1.76
   8  -2  -1    6.41    1.61
  -8   2   1    7.00    1.68
   7   2  -1   28.31    2.37
  -7  -2   1   35.02    2.52
   7   2  -1   31.65    1.80
   7  -2  -1   32.38    2.74
  -7   2   1   28.61    2.42
  -7   2   1   29.82    1.78
  -6   2   1    1.79    0.57
  -6  -2   1    1.77    0.82
   6   2  -1    3.87    0.95
   6   2  -1    1.72    0.56
   6  -2  -1    1.38    0.85
  -6  -2   1    1.99    1.21
  -6   2   1    0.19    0.71
  -5  -2   1  116.51    4.56
   5   2  -1  108.84    4.25
  -5   2   1  111.92    4.59
   5  -2  -1  103.50    4.37
  -5   2   1  108.67    3.78
   4  -2  -1  272.51    8.65
  -4   2   1  285.68    8.14
  -4  -2   1  273.17   10.33
   4   2  -1  274.97    8.47
  -4  -2   1  277.66    8.94
   4   2  -1  283.92    8.16
  -4   2   1  283.36    9.09
   3  -2  -1  255.82    8.72
   3   2  -1  252.71    7.50
  -3   2   1  263.60    8.25
  -3  -2   1  259.31    9.61
   3  -2  -1  260.00    7.91
  -3   2   1  260.68    7.54
  -3  -2   1  261.24    8.16
   3   2  -1  261.12    7.71
   2  -2  -1  126.66    4.70
  -2  -2   1  127.24    4.21
  -2   2   1  128.14    4.20
   2  -2  -1  129.92    4.24
   2   2  -1  124.65    3.95
  -2  -2   1  123.27    5.23
  -2   2   1  130.46    4.04
   1  -2  -1  788.88   21.96
   1  -2  -1  760.35   26.01
  -1  -2   1  827.63   26.42
   1   2  -1  778.62   21.93
   1   2  -1  802.07   21.67
  -1  -2   1  939.64   23.25
  -1   2   1  828.04   21.95
  -1   2   1  798.59   23.21
   0   2   1 1471.24   39.73
   0   2  -1 1650.17   42.45
   0  -2  -1 1439.23   47.63
   0   2   1 1324.34   39.75
   0   2  -1 1480.69   39.50
   0  -2   1 1477.52   47.25
   0   2  -1 1666.11   39.77
  -1   2  -1 1747.86   46.20
   1   2   1 1756.10   46.13
   1   2   1 1755.97   46.03
  -1  -2  -1 1722.62   49.25
   1  -2   1 1717.01   54.87
  -1  -2  -1 1834.35   55.16
  -1   2  -1 1687.63   49.36
   2  -2   1 1875.07   49.51
  -2   2  -1 1866.57   53.20
  -2  -2  -1 1882.39   59.44
   2   2   1 1909.35   49.46
   2  -2   1 1884.01   58.88
  -2  -2  -1 1841.83   52.98
  -2   2  -1 1885.90   49.57
   2   2   1 1842.58   49.45
   3   2   1   46.48    1.78
  -3  -2  -1   47.80    3.08
  -3   2  -1   43.72    2.25
   3  -2   1   46.75    2.27
   3   2   1   46.72    2.20
  -3  -2  -1   47.41    2.15
  -3   2  -1   49.61    1.96
   3  -2   1   45.30    2.47
  -4   2  -1  295.04    8.38
  -4  -2  -1  287.74    9.38
   4   2   1  286.80    9.03
   4  -2   1  282.20    9.10
  -4  -2  -1  281.90   11.20
  -4   2  -1  293.54    9.65
   4  -2   1  293.72   10.33
   4   2   1  294.26    8.27
  -5  -2  -1  163.97    7.40
   5  -2   1  161.60    6.00
  -5   2  -1  168.60    5.19
   5   2   1  167.33    5.08
   5  -2   1  158.46    6.36
   5   2   1  176.59    6.23
  -5   2  -1  166.02    6.25
  -5  -2  -1  162.59    6.13
  -6   2  -1   14.31    1.79
  -6  -2  -1   12.28    2.01
   6   2   1   14.50    1.68
  -6   2  -1   15.21    1.07
   6  -2   1   12.47    1.73
  -6  -2  -1   15.39    1.68
   7   2   1   19.05    2.05
   7  -2   1   16.59    2.05
  -7   2  -1   14.81    2.03
  -7  -2  -1   15.35    1.94
   8  -2   1   10.29    1.94
  -8  -2  -1   11.99    1.87
  -8   2  -1    8.20    1.78
   8   2   1    9.89    1.70
  -9   2  -1    8.85    1.89
   9   2   1   11.86    2.19
   9  -2   1   11.08    1.97
  -9  -2  -1   12.33    2.12
  -9   3   1   15.62    2.40
   9  -3  -1   13.88    2.37
   9   3  -1   14.61    2.15
  -9  -3   1   15.48    2.25
  -8  -3   1   15.57    2.07
   8   3  -1   13.12    1.90
  -8   3   1   10.14    1.85
   8  -3  -1   10.85    1.92
   7  -3  -1   41.72    3.10
   7   3  -1   43.79    2.80
  -7   3   1   42.90    2.31
  -7  -3   1   42.83    2.91
  -7   3   1   43.25    3.02
   7   3  -1   42.82    2.27
  -6  -3   1   55.95    3.94
  -6   3   1   54.35    3.16
  -6  -3   1   55.91    3.08
   6  -3  -1   53.07    3.18
   6   3  -1   52.32    2.92
  -6   3   1   56.36    2.58
  -5  -3   1  114.68    4.55
  -5   3   1  108.90    4.61
   5   3  -1  108.42    4.37
  -5  -3   1  112.61    5.68
   5  -3  -1  105.94    4.59
   5   3  -1  108.84    4.00
  -5   3   1  107.88    3.98
  -4   3   1  140.75    4.95
  -4  -3   1  146.14    6.61
  -4   3   1  145.21    5.32
  -4  -3   1  150.60    5.29
   4  -3  -1  144.78    5.60
   4   3  -1  144.16    5.01
   4  -3  -1  148.56    5.37
   4   3  -1  144.97    4.82
  -3   3   1  280.03    8.82
  -3  -3   1  281.04   10.66
   3   3  -1  281.80    8.33
   3  -3  -1  270.64    9.80
   3   3  -1  277.69    8.26
  -3  -3   1  276.99    8.73
   3  -3  -1  273.82    8.62
  -3   3   1  284.67    8.33
   2  -3  -1   82.61    3.75
  -2  -3   1   84.03    2.81
  -2   3   1   78.90    2.98
   2   3  -1   77.76    2.90
   2   3  -1   78.90    2.94
   2  -3  -1   79.02    3.15
  -2   3   1   79.17    2.87
  -2  -3   1   75.69    4.11
  -1   3   1  229.04    6.65
   1   3  -1  226.18    6.76
   1  -3  -1  232.73    8.41
  -1  -3   1  216.76    6.77
   1   3  -1  224.29    6.57
  -1   3   1  221.19    6.76
   0   3  -1    0.85    0.36
   0   3  -1    1.34    0.41
   0  -3   1    0.27    0.64
   0  -3  -1    0.30    0.68
   0   3  -1    1.11    0.30
   0   3   1    1.13    0.48
   0   3   1    0.82    0.43
   1   3   1   41.18    1.93
   1   3   1   42.37    1.82
  -1   3  -1   44.01    1.89
  -1  -3  -1   39.14    2.67
   1  -3   1   42.24    2.79
   1  -3   1   40.17    1.82
  -1   3  -1   42.56    1.78
   2   3   1  277.87    8.34
  -2   3  -1  279.81    8.19
   2  -3   1  272.72   10.14
  -2  -3  -1  274.51   10.76
  -2   3  -1  274.56    8.67
   2   3   1  293.02    8.18
   2  -3   1  273.72    8.33
  -2  -3  -1  269.93    8.31
   3   3   1    3.12    0.73
   3   3   1    1.88    0.48
  -3   3  -1    2.42    0.69
   3  -3   1    2.65    0.97
   3  -3   1    3.65    0.79
  -3   3  -1    3.21    0.63
  -3  -3  -1    5.23    1.48
  -3  -3  -1    3.37    0.64
   4   3   1   18.65    1.16
  -4  -3  -1   19.21    1.41
  -4   3  -1   16.24    1.19
  -4   3  -1   19.88    1.66
   4  -3   1   22.62    1.68
  -4  -3  -1   17.23    2.37
   4  -3   1   18.84    1.73
   4   3   1   22.11    1.62
   5   3   1   11.66    1.42
   5   3   1   11.01    1.01
  -5  -3  -1   12.84    1.36
   5  -3   1   11.59    1.55
  -5   3  -1    9.75    1.45
  -5  -3  -1   12.22    2.17
  -5   3  -1    9.06    1.01
  -6  -3  -1   13.22    2.33
   6   3   1   13.25    1.72
   6  -3   1   13.10    1.84
  -6   3  -1   13.55    1.22
  -6  -3  -1   14.92    1.62
  -6   3  -1   13.21    1.83
   7  -3   1    2.74    1.19
  -7   3  -1    2.24    1.25
  -7  -3  -1    4.78    1.28
  -7  -3  -1    0.28    1.35
   7   3   1    5.15    1.26
  -8  -3  -1   30.40    2.49
   8   3   1   28.53    2.70
   8  -3   1   25.43    2.76
  -9   3  -1    1.51    1.29
   9   3   1    3.91    1.36
  -9  -3  -1    3.88    1.38
   9  -3   1    4.59    1.76
   9  -4  -1    0.36    1.40
   9   4  -1    0.84    0.93
  -9   4   1    0.22    1.36
   8   4  -1    5.63    1.32
  -8   4   1    6.25    1.52
   8  -4  -1    2.98    1.27
  -7  -4   1   52.92    3.36
   7  -4  -1   54.42    3.55
  -7   4   1   56.61    2.81
  -7  -4   1   59.36    4.56
  -7   4   1   55.04    3.52
   7   4  -1   57.30    3.26
  -6  -4   1   25.41    3.21
   6  -4  -1   23.09    2.37
  -6  -4   1   27.65    2.06
  -6   4   1   26.05    2.40
  -6   4   1   26.59    1.84
   6   4  -1   26.03    2.02
   6   4  -1   26.65    1.79
  -5   4   1   18.17    1.80
   5   4  -1   17.90    1.43
  -5   4   1   17.50    1.40
  -5  -4   1   19.88    2.73
  -5  -4   1   19.32    1.60
   5   4  -1   16.25    1.64
   5  -4  -1   17.14    1.94
  -4  -4   1   15.41    1.37
  -4  -4   1   15.33    2.34
   4  -4  -1   14.39    1.59
   4   4  -1   14.72    1.37
   4   4  -1   17.13    1.41
  -4   4   1   16.30    1.50
  -4   4   1   13.76    1.08
   3  -4  -1  165.65    6.02
  -3   4   1  172.40    5.68
   3   4  -1  171.66    5.72
  -3  -4   1  182.07    5.80
   3  -4  -1  171.43    6.96
  -3  -4   1  167.31    7.72
  -3   4   1  171.37    5.80
   3   4  -1  163.82    5.64
  -2   4   1  297.08    9.07
  -2   4   1  301.79    9.08
   2  -4  -1  301.84    9.32
  -2  -4   1  288.23    9.03
   2   4  -1  298.23    9.05
  -2  -4   1  302.85   11.74
   2  -4  -1  308.24   11.15
   2   4  -1  302.38    8.89
  -1  -4   1  190.71    6.15
   1   4  -1  199.01    6.18
   1   4  -1  196.61    6.42
   1  -4  -1  194.88    8.06
   1  -4  -1  201.02    6.52
  -1   4   1  197.54    6.36
  -1  -4   1  208.71    8.04
   0   4  -1   62.37    2.11
   0  -4  -1   54.37    3.48
   0  -4   1   52.30    3.58
   0   4  -1   55.82    2.45
   0   4   1   48.67    2.41
   0   4   1   52.30    2.45
   0   4  -1   54.29    2.39
   1   4   1   62.21    2.74
  -1   4  -1   62.97    2.49
  -1   4  -1   70.14    2.79
   1  -4   1   63.51    3.77
   1  -4   1   61.91    2.77
   1   4   1   60.92    2.71
  -1  -4  -1   66.13    4.04
  -2   4  -1  298.46    9.34
  -2   4  -1  293.82    9.00
   2   4   1  303.50    8.99
   2  -4   1  300.74    9.18
   2  -4   1  291.78   11.35
  -2  -4  -1  294.20   11.90
   2   4   1  301.42    9.11
   3  -4   1   69.03    3.77
  -3  -4  -1   64.61    4.40
   3   4   1   73.46    2.94
  -3  -4  -1   67.82    2.72
  -3   4  -1   72.45    3.06
   3  -4   1   70.81    3.22
   3   4   1   69.01    3.08
  -3   4  -1   75.25    3.23
  -4  -4  -1   40.81    3.44
   4  -4   1   50.75    2.75
   4   4   1   51.66    2.65
  -4  -4  -1   46.20    2.22
  -4   4  -1   38.71    2.50
  -4   4  -1   50.14    2.33
   4  -4   1   45.53    3.06
  -5  -4  -1   26.54    3.12
   5   4   1   28.52    1.72
  -5   4  -1   27.87    1.90
   5  -4   1   29.09    2.28
  -5   4  -1   29.00    2.19
   5   4   1   26.88    2.13
   6  -4   1   48.47    3.23
  -6   4  -1   46.53    2.43
  -6  -4  -1   50.78    3.95
   6   4   1   42.29    2.57
  -6   4  -1   52.43    3.30
  -7  -4  -1    9.19    2.26
   7  -4   1    7.45    1.58
   7   4   1   10.06    1.69
  -7   4  -1    7.24    1.69
   8   4   1    6.60    1.48
  -8  -4  -1    4.11    2.01
  -8   4  -1    5.16    1.60
   8  -4   1    4.22    1.49
  -8  -5   1    1.80    1.56
   8  -5  -1    1.40    1.31
   7   5  -1    2.65    0.91
  -7  -5   1    0.64    1.65
   7  -5  -1    1.58    1.24
  -7   5   1    3.86    0.94
   6  -5  -1    6.34    1.46
   6   5  -1    3.78    1.04
  -6   5   1    6.93    1.17
  -6  -5   1    4.90    1.85
   6   5  -1    5.86    1.18
   5   5  -1   18.85    1.71
   5  -5  -1   19.89    2.15
   5   5  -1   22.28    1.73
  -5   5   1   19.44    1.76
  -5  -5   1   21.62    3.22
   4   5  -1   13.88    1.49
   4  -5  -1   14.67    1.77
  -4   5   1   12.03    1.44
   4   5  -1   13.49    1.41
  -4  -5   1    8.21    2.11
   3  -5  -1    5.13    1.66
   3  -5  -1    3.58    1.08
  -3   5   1    4.14    0.91
   3   5  -1    4.45    0.93
  -3  -5   1    1.89    1.53
   3   5  -1    2.88    0.75
  -2   5   1   80.09    3.42
   2  -5  -1   77.17    3.64
   2  -5  -1   78.23    4.62
  -2  -5   1   83.69    4.92
   2   5  -1   77.11    3.42
   2   5  -1   76.60    3.24
   1   5  -1   65.51    2.82
  -1  -5   1   76.84    4.49
   1  -5  -1   65.62    3.13
   1  -5  -1   62.75    4.15
   1   5  -1   62.68    3.00
  -1   5   1   64.44    2.97
   0   5   1   54.25    2.68
   0  -5  -1   54.65    3.82
   0  -5   1   58.30    3.98
   0   5   1   55.65    2.67
   0  -5   1   55.13    2.72
   0   5  -1   55.24    2.74
   1   5   1   18.81    1.65
   1   5   1   15.61    1.45
   1  -5   1   12.77    2.31
  -1  -5  -1   18.08    2.54
  -1   5  -1   17.49    1.52
   1  -5   1   21.24    1.71
  -2   5  -1   28.58    1.83
  -2  -5  -1   32.38    3.33
   2  -5   1   29.33    1.97
   2  -5   1   27.73    2.96
   2   5   1   29.94    1.93
   2   5   1   30.60    1.93
  -3  -5  -1  401.87   16.14
   3   5   1  402.00   12.32
   3  -5   1  403.22   15.26
  -3   5  -1  411.46   12.76
  -3   5  -1  412.75   12.36
   3  -5   1  410.92   12.59
   3   5   1  405.95   12.14
  -4   5  -1  149.26    5.86
   4  -5   1  149.00    5.98
   4   5   1  149.02    5.39
   4  -5   1  166.07    7.57
  -4  -5  -1  157.47    8.20
  -4   5  -1  150.62    5.59
   4   5   1  143.88    5.76
  -5   5  -1    6.66    1.15
  -5  -5  -1    6.63    1.93
   5  -5   1    5.85    1.35
   5   5   1    8.27    1.28
   6   5   1    9.45    1.51
   6  -5   1   11.37    1.93
  -6   5  -1   12.62    1.91
  -6   5  -1   10.67    1.54
  -6  -5  -1   11.47    2.38
   7  -5   1    6.70    1.75
   7   5   1    5.76    1.29
  -7   5  -1    6.90    1.64
  -7  -5  -1    6.50    2.15
  -8   5  -1    2.24    1.39
   8  -5   1    1.52    1.49
   8   5   1    1.99    1.11
  -8  -5  -1    2.48    1.78
  -7  -6   1    6.11    2.17
  -7   6   1    9.58    1.59
   7  -6  -1    8.09    1.93
  -6   6   1    2.63    0.95
   6  -6  -1    5.48    1.51
   6   6  -1    6.28    1.23
  -6  -6   1    2.96    1.63
   5   6  -1   28.98    2.07
  -5   6   1   34.19    2.36
   5  -6  -1   29.78    2.88
  -5  -6   1   19.56    3.21
   4   6  -1   11.87    1.44
  -4  -6   1    7.14    2.13
  -4   6   1   15.03    1.70
   4   6  -1   11.67    1.58
   4  -6  -1   14.06    1.99
   3   6  -1   11.18    1.31
   3  -6  -1   11.24    1.85
   3  -6  -1   13.36    1.86
  -3  -6   1    9.93    2.36
  -3   6   1   14.33    1.74
   3   6  -1    9.99    1.43
  -2  -6   1   64.11    4.82
   2   6  -1   58.51    3.14
   2  -6  -1   54.84    3.90
  -2   6   1   62.24    3.19
   2  -6  -1   62.67    3.37
   2   6  -1   62.54    2.97
   1  -6  -1   90.22    5.37
   1   6  -1   93.23    4.06
   1   6  -1   88.52    3.86
  -1   6   1   95.81    4.09
  -1  -6   1   87.11    5.59
   1  -6  -1   88.83    4.08
   0  -6   1    0.44    0.75
   0  -6  -1    0.66    1.29
   0  -6   1   -0.07    1.05
   0   6   1    0.33    0.49
   0   6   1   -0.65    0.68
   0   6  -1   -0.11    0.59
   1  -6   1    4.79    1.86
  -1   6  -1    4.48    1.04
   1  -6   1    4.20    1.09
   1   6   1    3.70    0.97
  -1  -6  -1    5.35    1.94
   1   6   1    3.91    1.07
  -2  -6  -1  137.24    7.57
   2   6   1  138.92    5.38
  -2   6  -1  136.82    5.40
   2  -6   1  140.03    5.57
   2  -6   1  134.79    7.39
   2   6   1  140.79    5.40
   3   6   1   18.00    1.78
   3  -6   1   18.31    2.88
   3   6   1   17.76    1.72
   3  -6   1   17.84    1.98
  -3   6  -1   15.66    1.74
  -3  -6  -1   15.31    3.05
  -4  -6  -1    2.19    1.64
   4  -6   1    4.56    1.22
   4   6   1    2.60    0.99
   4   6   1    0.62    0.68
  -4   6  -1    2.90    1.03
   5   6   1    2.86    0.92
  -5  -6  -1    1.21    1.72
   5  -6   1    4.31    1.41
  -5   6  -1    3.10    1.00
   6   6   1    1.83    0.87
  -6   6  -1   -0.19    0.57
  -6  -6  -1    0.53    1.67
   6  -6   1    0.28    1.01
   7  -6   1    1.42    1.39
  -7  -6  -1   -0.19    1.54
   7   6   1    3.09    1.19
   6   7  -1    2.35    1.03
  -6  -7   1    4.30    2.17
   6  -7  -1    4.62    1.66
  -6   7   1    2.23    1.13
  -5   7   1    1.41    0.92
   5   7  -1    0.60    0.73
  -5  -7   1   -0.85    1.43
   5  -7  -1    1.54    1.19
   4  -7  -1    1.10    1.03
   4   7  -1    0.21    0.64
  -4  -7   1    0.85    1.44
  -4   7   1    1.23    0.79
  -3  -7   1   18.13    3.47
  -3   7   1   15.41    1.95
   3  -7  -1   15.02    2.11
   2   7  -1   17.13    1.99
  -2   7   1   19.01    1.97
  -2  -7   1   20.11    3.44
   2  -7  -1   19.90    3.10
   2  -7  -1   20.08    2.23
  -1   7   1  122.67    5.22
   1  -7  -1  129.32    5.55
   1  -7  -1  124.56    7.31
  -1  -7   1  121.76    7.20
   1   7  -1  121.11    5.23
   0  -7  -1   82.43    5.65
   0  -7   1   80.36    5.67
   0   7   1   75.69    3.81
   0  -7   1   84.92    4.16
   0   7  -1   70.59    3.73
   1  -7   1   28.96    4.06
   1  -7   1   37.87    2.75
   1   7   1   34.31    2.31
  -1  -7  -1   32.42    3.94
  -1   7  -1   32.04    2.41
   1   7   1   36.85    2.46
   2  -7   1    2.23    1.69
   2   7   1    1.72    0.83
   2   7   1    3.85    0.97
   2  -7   1    2.51    1.26
  -2   7  -1    2.28    0.88
  -2  -7  -1    4.13    1.95
  -3   7  -1    4.72    1.19
   3  -7   1    3.99    2.05
   3  -7   1    2.45    1.11
   3   7   1    1.28    0.81
   3   7   1    2.58    0.95
  -3  -7  -1    4.59    1.91
   4  -7   1    3.36    1.28
   4   7   1    4.24    1.06
  -4  -7  -1    2.92    1.67
   4   7   1    1.66    0.90
  -4   7  -1    2.51    0.97
   5   7   1    2.06    0.94
   5  -7   1    3.33    1.29
  -5   7  -1    3.76    1.16
  -5  -7  -1    0.61    1.61
  -4  -8   1    2.07    2.06
   4  -8  -1   -0.49    1.21
   4   8  -1    4.11    1.26
  -4   8   1    4.85    1.33
  -3  -8   1   -1.14    1.50
  -3   8   1    0.49    0.85
   3   8  -1    1.48    0.98
   3  -8  -1    0.11    1.09
   2  -8  -1    9.14    2.58
  -2  -8   1   15.97    3.19
   2   8  -1   12.71    1.81
  -2   8   1    8.98    1.70
   2  -8  -1    9.98    1.88
   1  -8  -1    8.38    1.86
  -1   8   1    5.54    1.42
   1   8  -1    6.22    1.33
  -1  -8   1    6.31    2.29
   1  -8  -1    7.34    2.30
   0  -8  -1   12.93    2.83
   0   8   1   16.87    2.11
   0  -8   1   14.55    2.95
   0   8  -1   15.45    2.06
   0  -8  -1   14.58    2.12
  -1  -8  -1    4.77    2.01
   1  -8   1    4.98    2.35
   1   8   1    6.59    1.45
  -1   8  -1    2.85    1.16
   1   8   1    7.18    1.41
   2   8   1    4.03    1.19
  -2   8  -1    2.84    1.17
   2  -8   1    6.04    2.57
   2   8   1    3.76    1.03
  -2  -8  -1    2.45    1.78
   3   8   1    1.59    1.03
   3  -8   1    1.53    1.21
  -3   8  -1    0.35    0.90
  -3  -8  -1    0.32    1.62
   3   8   1    0.14    0.68
  10   0  -2   35.80    3.55
 -10   0   2   38.97    3.18
  -9   0   2  233.20    9.37
   9   0  -2  234.12    8.81
   8   0  -2  106.31    5.02
  -8   0   2  108.32    5.25
   7   0  -2   11.24    1.16
   7   0  -2   11.45    1.66
  -7   0   2   11.80    1.73
   6   0  -2    6.55    0.85
   6   0  -2    8.86    1.27
  -6   0   2    7.93    1.30
  -5   0   2   53.15    2.73
   5   0  -2   52.98    2.61
   5   0  -2   52.73    2.26
  -4   0   2    8.10    1.12
   4   0  -2    4.55    0.64
   4   0  -2    5.61    0.82
   3   0  -2    4.74    0.64
  -3   0   2    3.88    0.67
  -3   0   2    4.72    0.50
  -2   0   2   17.06    0.83
  -2   0   2   16.31    0.97
   2   0  -2   17.03    0.84
  -2   0   2   14.73    0.86
  -1   0   2   53.44    1.99
  -1   0   2   51.47    2.15
   1   0  -2   52.89    1.67
   0   0   2    7.41    0.45
   0   0  -2    7.77    0.40
   0   0   2    8.38    0.61
   0   0   2    7.97    0.80
   1   0   2 2101.89   62.89
  -1   0  -2 1972.98   56.91
   1   0   2 1971.68   52.84
  -2   0  -2   44.98    2.02
   2   0   2   46.14    2.59
   2   0   2   45.36    1.94
   3   0   2   17.32    1.28
   3   0   2   16.76    1.57
  -3   0  -2   17.00    1.25
  -4   0  -2  100.37    4.29
   4   0   2  108.67    4.22
   4   0   2  106.12    4.88
   4   0   2  108.58    3.15
   5   0   2   24.51    2.29
   5   0   2   23.70    1.06
   5   0   2   23.60    1.87
  -5   0  -2   24.25    1.90
   6   0   2  342.76   11.22
  -6   0  -2  347.31   11.67
  -7   0  -2    2.54    1.05
   7   0   2    2.39    1.10
   8   0   2    2.81    1.12
  -8   0  -2    0.77    0.96
  -9   0  -2   -0.58    0.98
   9   0   2   -0.47    0.93
  10  -1  -2   17.84    2.62
 -10  -1   2   18.28    2.69
  10   1  -2   15.08    2.47
 -10   1   2   19.78    2.69
   9   1  -2   28.45    2.92
   9  -1  -2   30.60    3.00
  -9   1   2   31.57    3.04
  -9  -1   2   32.22    2.99
  -8   1   2   14.01    2.03
  -8  -1   2   13.12    1.85
   8  -1  -2   10.38    1.86
   8  -1  -2    9.01    1.29
   8   1  -2    4.43    0.97
   8   1  -2    9.50    1.83
   7   1  -2   11.35    1.64
  -7   1   2   12.27    1.78
  -7   1   2   10.00    1.08
   7  -1  -2   11.18    1.65
  -7  -1   2   11.70    1.70
  -6   1   2   49.47    2.82
  -6  -1   2   50.48    2.93
   6   1  -2   49.15    2.29
  -6  -1   2   51.02    2.84
   6  -1  -2   51.37    2.83
  -6   1   2   48.02    2.19
   6   1  -2   52.93    2.75
  -5   1   2   20.37    1.21
  -5  -1   2   20.82    1.56
   5  -1  -2   20.30    1.58
  -5   1   2   19.08    1.59
   5   1  -2   20.31    1.44
  -5  -1   2   20.26    1.77
   5   1  -2   19.28    1.23
   4  -1  -2  472.47   13.69
  -4   1   2  472.73   13.23
  -4  -1   2  482.57   15.89
   4   1  -2  485.44   13.59
   4   1  -2  474.14   13.31
  -4  -1   2  471.46   14.59
  -4   1   2  482.01   14.62
  -3   1   2  700.42   19.98
   3   1  -2  689.19   18.46
   3  -1  -2  658.49   18.57
  -3  -1   2  678.26   21.92
  -3  -1   2  678.68   19.97
   3   1  -2  673.50   18.43
  -3   1   2  677.63   18.40
   2   1  -2  683.60   18.29
   2  -1  -2  675.24   18.30
  -2  -1   2  686.65   19.70
  -2   1   2  671.19   19.61
  -2   1   2  675.85   18.24
   2   1  -2  674.98   18.09
  -1  -1   2  264.30    7.91
  -1  -1   2  255.04    8.92
  -1   1   2  254.41    7.25
   1   1  -2  269.59    7.31
   1  -1  -2  267.04    8.72
   0   1   2  955.76   27.89
   0   1  -2  960.52   26.04
   0  -1   2  850.32   27.93
   0   1   2 1013.90   26.03
   0  -1   2 1024.94   31.15
   0  -1   2 1001.86   25.94
   0   1   2 1074.80   31.12
   1   1   2 9998.26  248.94
   1  -1   2 8406.45  247.86
  -1   1  -2 9568.66  268.93
  -1  -1  -2 9659.43  268.48
   1   1   2 9953.92  295.01
  -1   1  -2 9642.43  250.71
   1   1   2 9679.99  250.76
   1  -1   2 9415.89  294.61
   2  -1   2 3039.10   94.25
  -2  -1  -2 3036.57   85.23
   2   1   2 3018.00   79.31
   2   1   2 3046.26   94.48
   2  -1   2 3045.34   79.24
  -2   1  -2 3001.12   79.34
  -2   1  -2 2974.44   85.34
   2   1   2 3023.24   79.48
  -3  -1  -2  207.90    6.71
   3   1   2  208.15    5.58
   3  -1   2  201.18    7.58
   3  -1   2  204.68    6.41
   3   1   2  201.89    6.47
  -3   1  -2  206.73    6.86
  -3   1  -2  191.16    5.74
   4   1   2   64.24    2.91
   4   1   2   65.59    2.05
  -4  -1  -2   65.66    3.67
   4  -1   2   58.88    3.12
   4  -1   2   64.51    2.96
  -4   1  -2   65.76    2.15
  -4   1  -2   63.58    3.08
  -4  -1  -2   64.24    2.93
   5  -1   2   49.79    3.04
   5  -1   2   49.66    2.69
   5   1   2   49.46    2.65
  -5   1  -2   48.00    1.83
  -5  -1  -2   46.07    2.60
  -5   1  -2   46.45    2.78
  -5  -1  -2   48.14    3.25
   6   1   2   36.85    2.54
   6  -1   2   39.22    2.59
  -6  -1  -2   41.27    2.61
  -6   1  -2   37.29    2.57
   7   1   2   12.03    1.74
  -7  -1  -2   11.65    1.75
  -7  -1  -2    9.92    2.03
  -7   1  -2   12.68    1.92
   7  -1   2   15.26    2.05
  -8  -1  -2    5.85    1.49
   8  -1   2    3.14    1.28
   8   1   2    6.36    1.56
  -8   1  -2    6.13    1.64
  -9  -1  -2    3.97    1.50
   9   1   2    4.12    1.38
  -9   1  -2    2.99    1.50
   9  -1   2    4.32    1.63
  10  -2  -2    1.39    1.46
  10   2  -2    3.62    1.40
 -10   2   2    3.23    1.56
 -10  -2   2    5.22    1.76
   9   2  -2    3.82    1.31
  -9   2   2    4.32    1.53
  -9  -2   2    5.72    1.57
   9  -2  -2    2.43    1.31
  -8   2   2   20.65    1.53
   8  -2  -2   19.77    2.36
  -8  -2   2   19.55    2.31
   8   2  -2   20.02    2.13
  -8   2   2   19.29    2.42
   7  -2  -2    6.68    1.41
   7   2  -2    5.12    0.90
  -7  -2   2    7.07    1.50
  -7   2   2    7.47    1.01
  -7   2   2    7.06    1.61
   7   2  -2    7.10    1.32
   6  -2  -2   15.19    1.81
  -6   2   2   19.33    1.90
  -6  -2   2   19.37    2.18
  -6   2   2   18.46    1.33
   6   2  -2   19.66    1.38
  -6  -2   2   21.50    1.80
   6   2  -2   20.65    1.78
   5  -2  -2   65.09    3.17
  -5  -2   2   67.57    3.25
   5   2  -2   67.99    2.74
  -5  -2   2   67.57    3.79
  -5   2   2   66.93    3.23
   5   2  -2   71.12    3.02
  -5   2   2   67.88    2.73
  -4   2   2  299.59    8.74
  -4   2   2  311.76    9.67
   4   2  -2  294.56    8.70
  -4  -2   2  288.50    9.52
   4   2  -2  287.65    8.81
   4  -2  -2  287.22    9.08
  -3  -2   2  192.10    7.53
  -3   2   2  195.10    5.94
  -3   2   2  197.79    6.41
   3   2  -2  194.21    5.93
   3  -2  -2  197.36    6.26
  -3  -2   2  192.47    6.44
   3   2  -2  204.01    5.97
  -2   2   2   59.38    2.16
  -2   2   2   57.40    2.22
   2  -2  -2   57.27    2.53
  -2  -2   2   57.67    2.33
  -2  -2   2   59.64    3.04
   2   2  -2   58.07    2.20
   2  -2  -2   58.37    2.33
   1   2  -2  111.53    3.40
   1  -2  -2  106.36    4.26
  -1   2   2  103.53    3.35
  -1  -2   2  103.42    4.55
  -1  -2   2   99.38    3.56
  -1   2   2  101.20    3.35
   1   2  -2  110.57    3.13
   0   2   2  729.07   19.18
   0  -2  -2  668.08   20.22
   0  -2   2  745.02   22.93
   0   2   2  686.09   19.28
   0   2  -2  703.94   19.21
   0  -2   2  746.25   18.90
   0  -2  -2  705.79   23.21
   1   2   2  831.76   25.12
  -1  -2  -2  950.74   26.70
  -1  -2  -2  950.84   30.44
   1  -2   2  991.95   25.04
   1  -2   2  960.04   30.20
  -1   2  -2  934.44   25.13
   1   2   2  956.19   25.22
  -1   2  -2  944.61   26.96
  -2  -2  -2  979.53   32.31
   2   2   2  997.37   26.25
  -2   2  -2  972.36   26.38
   2   2   2  986.09   26.65
   2  -2   2  956.97   31.76
  -2  -2  -2  979.80   28.22
  -2   2  -2 1010.04   28.62
   2  -2   2  997.06   26.57
  -3   2  -2  183.41    6.48
   3   2   2  189.26    5.45
   3  -2   2  192.18    6.21
   3   2   2  183.51    6.12
  -3  -2  -2  188.51    7.89
   3  -2   2  191.74    7.35
  -3  -2  -2  189.26    6.27
  -4  -2  -2   67.44    2.98
   4  -2   2   66.74    3.08
   4   2   2   66.32    3.11
   4   2   2   67.10    2.30
  -4   2  -2   65.82    3.29
   4  -2   2   67.64    3.49
  -4  -2  -2   66.89    4.09
  -4   2  -2   66.52    2.43
  -5   2  -2   12.86    1.62
  -5  -2  -2   13.40    1.50
  -5  -2  -2   12.95    1.97
  -5   2  -2   12.77    0.92
   5  -2   2   11.00    1.51
   5   2   2   14.04    1.57
   5  -2   2    9.85    1.43
  -6  -2  -2   45.25    2.75
  -6   2  -2   44.57    2.94
   6  -2   2   45.52    2.91
  -6  -2  -2   40.15    3.35
   6   2   2   44.08    2.77
   7  -2   2   20.52    2.36
   7   2   2   22.65    2.29
  -7  -2  -2   25.87    3.17
  -7  -2  -2   15.67    1.94
  -7   2  -2   15.44    2.06
  -8   2  -2   -1.14    0.94
   8  -2   2    1.71    1.03
  -8  -2  -2    1.24    1.02
   8   2   2    0.30    0.75
  -9  -2  -2    0.13    1.09
   9   2   2    2.09    1.20
  -9   2  -2    1.15    1.37
   9  -2   2    0.36    1.23
  -9  -3   2    5.35    1.55
   9  -3  -2    3.61    1.44
   9   3  -2    7.35    1.67
  -9   3   2    6.60    1.82
  -8   3   2    7.89    1.20
   8  -3  -2    7.72    1.64
  -8   3   2    9.94    1.86
   8   3  -2    8.25    1.80
  -8  -3   2   10.02    1.77
   7  -3  -2   14.05    1.97
  -7   3   2   19.79    2.18
   7   3  -2   14.01    1.73
  -7   3   2   14.63    1.45
   7   3  -2   15.44    1.45
  -7  -3   2   22.22    2.20
  -6  -3   2    0.04    0.72
  -6   3   2    1.41    0.86
   6   3  -2    0.82    0.58
   6  -3  -2    0.06    0.73
   6   3  -2    0.79    0.53
  -6   3   2    0.35    0.49
  -6  -3   2    0.22    1.01
  -5  -3   2   27.25    1.93
   5   3  -2   27.16    1.84
   5   3  -2   27.14    1.66
  -5   3   2   28.66    2.01
  -5  -3   2   25.97    2.43
  -5   3   2   26.18    1.59
   5  -3  -2   23.67    1.86
  -4  -3   2   90.75    4.77
   4  -3  -2   87.40    3.71
   4   3  -2   94.17    3.38
  -4   3   2   89.87    3.32
  -4  -3   2   87.34    3.58
   4   3  -2   89.71    3.31
   4  -3  -2   87.51    3.53
  -4   3   2   76.78    3.56
   3   3  -2  185.16    5.81
  -3   3   2  184.79    6.13
  -3   3   2  192.28    6.00
   3   3  -2  181.56    5.84
   3  -3  -2  182.92    6.82
   3  -3  -2  186.84    6.23
  -3  -3   2  190.56    6.23
  -3  -3   2  182.86    7.79
   2   3  -2   72.45    2.52
  -2   3   2   73.37    2.76
  -2  -3   2   73.45    2.55
  -2   3   2   72.11    2.62
  -2  -3   2   67.05    3.79
   2  -3  -2   73.95    3.45
   2  -3  -2   69.55    2.87
   2   3  -2   71.99    2.76
   1  -3  -2  551.22   18.82
  -1  -3   2  578.72   18.85
   1   3  -2  556.73   15.08
   1   3  -2  555.58   15.47
  -1   3   2  576.64   15.59
  -1   3   2  554.73   15.49
  -1   3   2  525.45   15.94
   0   3  -2  798.01   24.59
   0   3  -2  941.96   26.08
   0  -3   2 1024.74   29.89
   0   3   2  886.85   24.75
   0  -3   2  944.63   24.46
   0  -3  -2  909.84   30.19
   0   3   2  910.11   24.83
  -1  -3  -2  414.34   14.92
   1   3   2  423.24   11.95
   1  -3   2  388.07   14.41
   1   3   2  428.72   11.73
  -1   3  -2  421.27   11.82
   1  -3   2  419.15   11.70
  -1   3  -2  421.97   12.52
   2  -3   2   56.72    3.32
  -2  -3  -2   55.08    3.54
  -2  -3  -2   55.86    2.22
   2  -3   2   57.64    2.46
   2   3   2   59.63    2.56
  -2   3  -2   56.40    2.35
  -3  -3  -2   97.60    3.54
   3  -3   2   90.02    4.51
   3   3   2   92.55    3.79
  -3   3  -2   89.68    3.82
  -3  -3  -2   90.45    5.07
  -3   3  -2   89.54    3.35
   3   3   2   94.96    3.19
   3  -3   2   92.28    3.67
   4   3   2    5.43    0.71
  -4  -3  -2    6.80    1.00
   4  -3   2    5.86    1.07
   4   3   2    5.39    1.00
  -4   3  -2    6.40    1.19
   4  -3   2    5.71    1.31
  -4  -3  -2    9.47    1.82
  -4   3  -2    5.38    0.83
   5   3   2   27.05    1.95
   5  -3   2   30.38    2.42
  -5   3  -2   28.67    2.21
  -5  -3  -2   22.91    1.86
  -5   3  -2   25.31    1.53
  -5  -3  -2   29.24    3.07
   5  -3   2   23.83    2.14
   6  -3   2    7.06    1.51
  -6   3  -2    5.50    1.42
  -6  -3  -2    7.96    1.33
   6   3   2    7.30    1.28
  -6  -3  -2    5.61    1.76
  -7   3  -2    0.26    1.03
   7   3   2    1.01    0.81
  -7  -3  -2    1.02    0.88
   7  -3   2    3.14    1.20
  -7  -3  -2    2.76    1.42
  -8  -3  -2    4.95    1.43
   8  -3   2    5.07    1.53
  -8   3  -2    2.53    1.25
   8   3   2    4.01    1.30
  -9  -3  -2   -1.47    0.91
  -9   3  -2    0.24    1.33
   9  -3   2    1.07    1.22
   9   3   2    0.52    0.96
   9  -4  -2    1.39    1.40
  -9   4   2    0.87    1.31
  -8   4   2    5.74    1.11
   8  -4  -2    3.70    1.31
  -8   4   2    2.74    1.34
  -8  -4   2    3.38    1.24
   8   4  -2    5.86    1.31
  -7  -4   2   28.17    3.54
   7   4  -2   37.14    2.46
  -7  -4   2   38.62    2.70
  -7   4   2   35.05    2.22
   7   4  -2   34.37    2.19
  -7   4   2   42.09    2.94
   7  -4  -2   34.15    3.06
  -6   4   2   41.04    2.65
   6  -4  -2   40.86    2.84
  -6  -4   2   29.80    3.53
   6   4  -2   37.91    2.18
  -6  -4   2   40.13    2.54
   6   4  -2   37.97    2.39
  -6   4   2   41.98    2.30
   5  -4  -2    6.03    1.24
  -5  -4   2    6.84    1.80
   5   4  -2    7.05    1.01
  -5  -4   2    7.82    1.18
  -5   4   2    7.37    1.19
   5   4  -2    7.07    1.14
  -4  -4   2   14.73    2.37
  -4   4   2   15.65    1.47
   4   4  -2   18.17    1.39
   4   4  -2   16.60    1.47
   4  -4  -2   17.79    1.78
  -4   4   2   18.02    1.37
  -4  -4   2   20.13    1.46
   3  -4  -2   52.33    2.77
   3   4  -2   52.26    2.29
   3   4  -2   54.10    2.51
  -3  -4   2   54.30    2.39
  -3  -4   2   49.47    3.63
  -3   4   2   49.65    2.29
  -3   4   2   51.91    2.48
   3  -4  -2   54.61    3.17
   2   4  -2  358.47   10.13
   2  -4  -2  361.63   12.80
  -2   4   2  340.00   10.47
   2   4  -2  353.55   10.50
  -2  -4   2  348.02   13.36
  -2   4   2  361.20   10.46
   2  -4  -2  348.06   10.68
   1   4  -2  336.66    9.36
  -1   4   2  327.70   10.02
   1  -4  -2  317.93   12.15
  -1   4   2  318.46    9.81
   1   4  -2  321.01    9.83
  -1  -4   2  351.38   12.31
   0   4  -2   13.10    0.97
   0   4   2   10.14    1.18
   0  -4   2   14.17    2.10
   0   4  -2   12.67    1.14
   0   4   2    9.79    1.06
   0  -4  -2   10.32    1.75
   0  -4   2   10.43    1.04
   1   4   2   28.41    1.66
  -1   4  -2   24.72    1.48
   1  -4   2   19.27    1.41
   1   4   2   25.19    1.64
   1  -4   2   25.16    2.36
  -1  -4  -2   25.83    2.55
  -1   4  -2   26.58    1.63
   2   4   2  123.78    4.30
  -2   4  -2  121.59    4.60
   2  -4   2  123.33    5.93
   2  -4   2  126.07    4.56
  -2   4  -2  131.55    4.63
   2   4   2  123.93    4.62
  -2  -4  -2  127.64    6.45
  -3  -4  -2    1.37    1.24
   3   4   2   -0.31    0.31
   3   4   2    3.85    0.85
  -3   4  -2    1.25    0.59
  -3   4  -2   -0.27    0.28
   3  -4   2    1.39    0.67
   3  -4   2    1.77    1.09
   4   4   2   53.53    2.33
  -4   4  -2   57.99    2.66
  -4   4  -2   52.36    2.96
   4  -4   2   55.18    3.63
  -4  -4  -2   54.34    4.24
   4  -4   2   57.03    3.03
   4   4   2   53.77    2.83
  -5  -4  -2   40.42    4.05
  -5   4  -2   38.49    2.16
   5  -4   2   36.47    2.67
   5   4   2   37.53    2.57
  -5   4  -2   42.51    2.76
  -6  -4  -2   15.64    2.86
   6  -4   2   14.24    1.97
  -6   4  -2   13.18    1.87
   6   4   2   17.53    1.94
  -7  -4  -2   10.24    2.40
   7   4   2   12.68    1.86
   7  -4   2   12.41    2.03
  -7   4  -2   10.03    1.86
  -8   4  -2    5.74    1.67
   8   4   2    9.62    1.75
  -8  -4  -2   13.44    2.63
   8  -4   2    8.35    1.91
   8  -5  -2    1.70    1.34
  -8   5   2    4.47    1.15
   7  -5  -2    6.09    1.62
   7   5  -2    6.25    1.18
  -7  -5   2    4.70    1.68
  -7   5   2    7.09    1.25
   6  -5  -2    4.65    1.24
   6   5  -2    7.15    1.25
  -6  -5   2    3.62    1.83
  -6   5   2    5.17    1.16
   5   5  -2   28.64    2.02
  -5   5   2   31.62    2.06
   5   5  -2   33.01    2.05
   5  -5  -2   33.31    2.53
  -5  -5   2   26.89    3.33
  -4   5   2   15.71    1.56
   4  -5  -2   15.66    1.92
   4   5  -2   14.14    1.55
   4   5  -2   15.97    1.37
  -4  -5   2   15.03    2.68
  -3   5   2  128.92    4.74
   3   5  -2  117.20    4.59
   3  -5  -2  117.72    4.89
  -3  -5   2  117.98    6.59
   3  -5  -2  115.54    5.64
   3   5  -2  122.63    4.42
   2   5  -2    7.04    0.94
  -2   5   2    6.06    1.09
   2   5  -2    7.25    1.12
  -2  -5   2    6.10    1.90
   2  -5  -2    6.17    1.63
   2  -5  -2    6.82    1.20
   1   5  -2  155.32    5.11
  -1  -5   2  168.08    7.18
   1   5  -2  154.75    5.57
  -1   5   2  151.38    5.48
   1  -5  -2  146.09    7.10
   0  -5   2  108.89    5.65
   0  -5  -2   94.17    5.40
   0  -5   2   99.04    3.89
   0   5   2   96.97    3.91
   0   5   2   97.37    4.05
  -1  -5  -2   38.05    3.40
   1  -5   2   38.61    3.34
  -1   5  -2   39.48    2.22
   1   5   2   39.79    2.23
   1   5   2   38.46    2.20
  -2   5  -2   40.98    2.23
  -2   5  -2   37.97    2.23
  -2  -5  -2   45.64    3.73
   2  -5   2   38.51    3.27
   2  -5   2   39.69    2.37
   2   5   2   40.67    2.20
   2   5   2   42.76    2.41
   3   5   2  132.13    4.82
  -3   5  -2  133.73    5.15
   3  -5   2  126.25    5.07
  -3  -5  -2  118.04    6.89
   3  -5   2  130.97    6.60
   3   5   2  133.25    5.15
  -3   5  -2  128.21    4.92
  -4   5  -2   21.09    2.16
   4   5   2   24.51    2.06
   4  -5   2   26.07    2.21
  -4  -5  -2   24.05    3.35
   4  -5   2   29.20    2.99
  -4   5  -2   21.18    1.91
   5  -5   2    9.57    1.68
   5   5   2    9.61    1.45
  -5  -5  -2    9.76    2.40
  -5   5  -2   12.35    1.43
  -5   5  -2   10.23    1.66
  -6  -5  -2    5.35    2.02
  -6   5  -2    7.34    1.17
   6   5   2    6.09    1.25
  -6   5  -2    6.31    1.59
   6  -5   2    7.41    1.68
   7   5   2    2.41    1.07
  -7  -5  -2    1.34    1.53
  -7   5  -2    2.51    1.22
   7  -5   2    0.45    1.01
  -7  -6   2    9.83    2.34
   7  -6  -2   17.08    2.56
  -7   6   2   16.72    1.92
   6   6  -2    5.84    1.25
   6  -6  -2    7.73    1.79
  -6   6   2    7.69    1.35
  -6  -6   2    4.66    1.77
   5   6  -2   23.94    2.08
  -5  -6   2   20.85    3.29
  -5   6   2   21.96    2.05
   5  -6  -2   23.60    2.51
  -5  -6   2   20.71    3.28
   4  -6  -2   20.34    2.28
  -4   6   2   18.41    1.79
  -4  -6   2   17.44    2.90
   4   6  -2   19.15    1.90
   3  -6  -2   32.30    2.45
   3   6  -2   32.33    2.28
  -3  -6   2   34.64    4.00
  -3   6   2   33.42    2.34
  -2   6   2   23.18    2.04
  -2  -6   2   23.99    3.36
   2  -6  -2   26.12    2.16
   2  -6  -2   32.69    3.24
   2   6  -2   19.80    1.86
  -1  -6   2    9.93    2.30
   1   6  -2    4.88    1.08
   1  -6  -2    7.09    1.93
  -1   6   2    7.96    1.29
   1  -6  -2    7.36    1.43
   0  -6   2    5.79    1.09
   0   6   2    5.60    1.16
   0  -6   2    5.69    1.89
   0   6   2    5.56    1.09
   0   6  -2    8.46    1.35
   0  -6  -2    7.58    2.03
  -1   6  -2    7.67    1.26
   1   6   2    7.93    1.35
   1   6   2    8.09    1.32
  -1  -6  -2    9.70    2.40
   1  -6   2    7.17    2.25
   2  -6   2   81.00    5.66
  -2   6  -2   86.01    3.87
  -2  -6  -2   78.62    5.45
   2   6   2   85.72    3.98
   2   6   2   88.76    3.99
   2  -6   2   79.86    3.90
   3   6   2  121.18    5.06
   3   6   2  122.31    4.84
   3  -6   2  122.73    6.60
   3  -6   2  122.41    5.17
  -3   6  -2  120.84    4.95
  -3  -6  -2  126.42    7.19
  -4  -6  -2   40.32    4.73
  -4   6  -2   43.69    2.69
   4   6   2   47.90    2.83
   4   6   2   45.15    2.54
   4  -6   2   43.89    3.01
  -5   6  -2    8.61    1.44
  -5  -6  -2    7.09    2.24
   5   6   2    8.04    1.56
   5  -6   2    2.67    1.27
  -6  -6  -2    1.63    1.71
  -6   6  -2    1.66    0.80
   6   6   2    0.26    0.78
   6  -6   2   -0.09    1.23
   6  -7  -2   11.86    2.17
  -6  -7   2    9.89    2.61
   6   7  -2   12.06    1.78
  -6   7   2   11.27    1.82
   5  -7  -2    3.95    1.51
  -5  -7   2    8.77    2.52
   5   7  -2    5.95    1.46
  -5   7   2    5.68    1.25
  -4   7   2    2.29    0.93
   4   7  -2    3.97    1.09
  -4  -7   2    2.37    1.62
   4  -7  -2    3.77    1.36
  -3  -7   2   18.18    3.34
   3  -7  -2   12.05    1.90
  -3   7   2    9.16    1.54
   3   7  -2    9.69    1.54
   2  -7  -2    5.91    2.11
   2  -7  -2    3.14    1.33
  -2   7   2    4.18    1.16
  -2  -7   2    4.78    1.92
   2   7  -2    2.63    0.86
  -1  -7   2   83.52    5.43
   1  -7  -2   78.25    5.36
   1  -7  -2   68.22    3.83
  -1   7   2   73.05    3.80
   0   7  -2  101.80    4.54
   0   7   2  103.01    4.52
   0   7   2  104.75    4.60
   0  -7  -2   95.50    6.14
   0  -7   2   88.35    5.76
  -1  -7  -2    3.88    1.78
  -1   7  -2    3.93    1.13
   1   7   2    5.27    1.22
   1   7   2    3.04    1.05
   1  -7   2    3.85    2.14
   2  -7   2   31.87    4.23
   2   7   2   30.22    2.35
  -2   7  -2   29.18    2.21
  -2  -7  -2   26.90    3.62
   2   7   2   28.13    2.04
   2  -7   2   32.95    2.53
  -3  -7  -2   11.64    2.77
   3   7   2   12.10    1.80
   3  -7   2   12.86    1.95
   3   7   2   16.84    2.11
  -3   7  -2   12.65    1.74
   3  -7   2   15.06    2.92
   4  -7   2    4.91    1.38
   4   7   2    5.01    1.15
   4   7   2    3.82    1.16
  -4  -7  -2    1.72    1.88
  -4   7  -2    6.30    1.26
  -5  -7  -2   -0.77    1.81
   5   7   2    4.28    1.37
  -5   7  -2    4.19    1.22
   5  -7   2    2.07    1.28
   3  -8  -2   11.12    2.27
  -3  -8   2    7.72    2.79
  -3   8   2   12.12    1.97
  -2  -8   2    3.20    2.03
   2   8  -2    0.74    0.81
   2  -8  -2    0.91    1.15
  -2   8   2    2.00    1.11
   1   8  -2   31.78    2.49
   1  -8  -2   35.75    4.02
  -1   8   2   26.68    2.54
   1  -8  -2   34.59    2.98
  -1  -8   2   30.86    4.36
   0  -8  -2   55.46    4.97
   0   8  -2   67.36    3.91
   0  -8   2   64.87    5.59
   0  -8  -2   61.02    3.90
   0   8   2   66.92    3.75
  -1  -8  -2   18.37    3.34
   1   8   2   18.61    2.06
   1   8   2   17.36    2.12
   1  -8   2    9.58    2.54
  -1   8  -2   19.19    2.19
   2   8   2   13.72    1.87
   2  -8   2   14.27    3.42
  -2  -8  -2   11.12    2.84
   2   8   2   10.16    1.75
  -2   8  -2   12.47    2.00
   3   8   2    0.77    0.97
  -3   8  -2    1.81    1.08
  -3  -8  -2    3.83    2.36
   3   8   2    2.24    0.93
  10   0  -3    3.60    1.40
 -10   0   3    4.93    1.82
   9   0  -3    3.01    1.39
  -9   0   3    2.28    1.39
   8   0  -3    1.27    1.02
  -8   0   3    0.44    1.14
   8   0  -3    1.09    0.76
   7   0  -3    3.60    1.12
  -7   0   3    5.40    1.31
   7   0  -3    6.54    1.01
   6   0  -3  106.12    4.39
  -6   0   3  103.65    4.62
   6   0  -3  107.55    3.89
   5   0  -3  210.08    6.56
   5   0  -3  218.83    7.09
  -5   0   3  201.74    7.37
   4   0  -3   43.06    1.93
   4   0  -3   42.97    2.06
  -4   0   3   43.77    2.26
  -3   0   3  128.75    4.59
   3   0  -3  127.31    4.10
  -3   0   3  127.79    4.57
   3   0  -3  130.43    4.11
  -2   0   3  107.38    4.12
  -2   0   3  115.16    3.93
   2   0  -3  112.51    3.53
   2   0  -3  110.60    3.41
   1   0  -3 3697.69   99.28
  -1   0   3 3896.29   98.74
  -1   0   3 3754.10  106.48
   0   0   3 2024.57   59.00
   0   0  -3 2086.96   54.85
   0   0   3 2114.61   54.55
   0   0   3 2118.68   65.21
   1   0   3 1982.57   61.13
  -1   0  -3 2005.33   51.32
   1   0   3 1780.29   51.30
  -1   0  -3 2021.99   55.18
   3   0   3    9.95    1.43
   3   0   3    9.94    1.12
  -3   0  -3   11.14    1.15
  -4   0  -3    6.69    1.09
   4   0   3    6.63    0.37
   4   0   3    6.03    1.29
   4   0   3    5.58    1.09
   5   0   3   41.26    3.13
   5   0   3   43.26    2.63
  -5   0  -3   42.32    2.64
   6   0   3   31.15    2.82
   6   0   3   43.19    2.83
  -6   0  -3   37.41    2.71
   7   0   3    7.29    1.60
  -7   0  -3    5.78    1.38
  -8   0  -3    1.78    1.22
   8   0   3    1.58    1.21
   9   0   3    0.37    1.08
  -9   0  -3    1.21    1.23
 -10   1   3    9.22    2.00
  10  -1  -3    5.82    1.84
 -10  -1   3   10.64    2.24
  10   1  -3    5.82    1.72
  -9  -1   3   69.36    4.26
   9  -1  -3   66.40    3.24
   9   1  -3   64.65    3.94
  -9   1   3   69.81    4.19
   9  -1  -3   69.55    4.17
   8  -1  -3  205.10    7.00
   8   1  -3  206.76    7.83
  -8  -1   3  205.09    8.12
   8   1  -3  202.13    6.96
  -8   1   3  197.20    8.06
   8  -1  -3  202.14    7.86
  -7  -1   3   82.13    4.13
   7  -1  -3   84.82    4.16
  -7   1   3   78.22    3.28
  -7   1   3   77.51    3.99
   7   1  -3   74.85    3.80
   7   1  -3   78.94    3.37
   6   1  -3   41.74    2.14
  -6   1   3   40.22    2.54
  -6   1   3   41.28    2.01
   6   1  -3   43.34    2.43
   6  -1  -3   41.55    2.46
  -6  -1   3   40.96    2.56
  -5  -1   3   42.89    2.45
  -5   1   3   43.46    2.43
   5   1  -3   42.72    2.03
   5   1  -3   44.28    2.16
   5  -1  -3   45.92    2.39
  -5   1   3   42.53    1.98
  -5  -1   3   41.07    2.40
  -4   1   3  176.23    5.51
   4  -1  -3  178.76    5.81
  -4   1   3  179.08    6.17
   4   1  -3  178.81    5.56
  -4  -1   3  170.89    6.56
  -4  -1   3  175.22    6.22
   4   1  -3  177.75    5.60
   3  -1  -3  530.42   14.79
  -3  -1   3  528.40   15.94
  -3   1   3  535.33   14.67
   3   1  -3  528.42   14.56
  -3   1   3  533.66   15.88
   3   1  -3  535.98   14.75
   2  -1  -3  274.53    7.82
  -2   1   3  271.10    8.40
  -2   1   3  277.69    7.77
   2   1  -3  275.68    7.83
  -2   1   3  267.86    9.07
   2   1  -3  273.52    7.50
  -2  -1   3  268.96    8.49
   1   1  -3  147.91    4.40
  -1   1   3  145.42    5.38
  -1   1   3  143.04    4.31
  -1  -1   3  148.07    4.89
  -1  -1   3  150.32    5.66
  -1   1   3  148.16    4.42
   0  -1   3   67.83    3.12
   0   1   3   65.15    2.28
   0  -1   3   66.20    1.94
   0   1   3   65.21    3.04
   0   1   3   52.28    2.09
   0   1  -3   63.94    2.08
   0  -1   3   65.89    2.54
   1   1   3  304.40    8.67
  -1   1  -3  294.80    9.25
   1   1   3  295.02    8.10
   1   1   3  302.35   10.70
  -1   1  -3  293.81    8.24
   1  -1   3  301.40    8.43
  -1  -1  -3  314.45    9.20
   1  -1   3  294.76   10.68
   2  -1   3 1043.45   33.48
  -2   1  -3  997.46   27.49
  -2  -1  -3 1054.61   29.95
   2   1   3 1039.73   28.05
   2   1   3 1041.62   33.69
  -2   1  -3 1042.65   30.09
   2  -1   3 1049.27   27.89
   3   1   3   12.56    1.80
   3  -1   3   15.44    1.27
  -3   1  -3   14.00    1.30
   3  -1   3   11.22    1.54
  -3   1  -3   14.21    0.72
   3   1   3   15.99    1.36
  -3  -1  -3   15.18    1.22
   4  -1   3   10.87    1.33
  -4  -1  -3   10.19    1.28
   4  -1   3   13.58    1.69
  -4   1  -3   12.33    0.67
  -4   1  -3   12.17    1.45
   4   1   3   10.31    1.73
   4   1   3   12.70    1.39
  -5   1  -3   15.93    1.76
   5  -1   3   20.18    2.23
   5   1   3   20.31    1.93
  -5  -1  -3   24.87    2.63
   5  -1   3   19.82    1.90
  -5  -1  -3   15.53    1.69
  -6  -1  -3   63.33    4.34
   6   1   3   67.40    3.58
  -6  -1  -3   63.18    3.47
   6  -1   3   62.06    4.13
  -6   1  -3   62.84    3.62
   6  -1   3   65.42    3.58
   7   1   3    5.95    1.37
  -7   1  -3    8.15    1.66
   7  -1   3    4.21    1.33
  -7  -1  -3    1.40    1.05
  -7  -1  -3    8.18    1.61
   8   1   3   17.85    2.36
  -8   1  -3   11.44    1.91
  -8  -1  -3   11.27    1.94
   8  -1   3   15.74    2.25
   9   1   3    3.07    1.36
   9  -1   3    1.39    1.38
  -9   1  -3    1.03    1.20
  -9  -1  -3    1.68    1.38
 -10   2   3   14.57    2.56
  10   2  -3   12.45    2.08
 -10  -2   3   10.39    2.23
  10  -2  -3   13.07    2.34
  -9  -2   3    7.21    1.81
   9   2  -3    7.14    1.53
  -9   2   3    4.68    1.52
   9  -2  -3    6.66    1.68
  -8   2   3   11.97    1.83
   8  -2  -3    9.56    1.79
  -8  -2   3   16.72    2.17
   8   2  -3   10.77    1.68
  -8   2   3   13.94    1.43
   8   2  -3   10.28    1.35
  -7  -2   3   45.12    3.01
  -7   2   3   43.99    2.89
   7   2  -3   42.28    2.64
   7   2  -3   44.79    2.38
  -7   2   3   43.66    2.29
   7  -2  -3   43.75    2.97
  -6   2   3   33.98    1.88
  -6  -2   3   34.99    2.33
  -6   2   3   34.88    2.35
   6  -2  -3   39.18    2.35
   6   2  -3   33.70    1.92
  -6  -2   3   33.90    2.57
   6   2  -3   37.37    2.21
   5   2  -3  327.21    9.65
  -5  -2   3  320.02   10.64
   5   2  -3  324.30    9.71
  -5  -2   3  322.04   11.79
  -5   2   3  322.01    9.55
   5  -2  -3  317.28   10.05
  -5   2   3  324.29   10.57
   4  -2  -3  312.29    9.72
  -4   2   3  326.30    9.37
   4   2  -3  327.86    9.47
  -4   2   3  319.58   10.21
   4   2  -3  323.07    9.34
  -4  -2   3  309.99   10.22
   3  -2  -3  184.88    5.97
   3   2  -3  185.72    5.53
  -3  -2   3  179.41    6.23
  -3   2   3  186.65    5.69
  -3  -2   3  189.74    7.30
   3   2  -3  187.38    5.77
  -3   2   3  186.38    6.17
   2  -2  -3   67.92    2.95
  -2  -2   3   66.96    3.55
   2  -2  -3   65.07    2.61
   2   2  -3   66.34    2.11
   2   2  -3   65.32    2.47
  -2  -2   3   63.08    2.66
  -2   2   3   66.22    2.55
  -2   2   3   64.82    2.41
  -1   2   3  121.16    3.97
  -1   2   3  124.70    4.05
  -1  -2   3  121.03    4.27
   1  -2  -3  124.59    5.04
   1   2  -3  123.63    3.91
  -1   2   3  120.22    3.86
  -1  -2   3  123.25    5.20
   0   2   3 1190.45   31.46
   0  -2  -3 1159.52   33.56
   0   2  -3 1185.80   31.60
   0  -2   3 1194.72   31.11
   0   2   3 1176.09   31.60
   0  -2   3 1232.64   37.85
   0   2  -3 1168.73   33.87
   0  -2  -3 1157.94   37.92
   1   2   3  245.77    7.40
   1  -2   3  251.04    9.25
  -1  -2  -3  250.75    9.44
  -1   2  -3  242.82    7.13
   1   2   3  253.69    7.04
   1  -2   3  253.20    7.14
  -1  -2  -3  250.17    7.56
  -1   2  -3  244.53    7.88
  -2   2  -3  210.59    6.16
  -2   2  -3  206.72    6.97
   2  -2   3  213.86    8.23
  -2  -2  -3  208.29    8.50
   2   2   3  211.45    5.93
  -2  -2  -3  206.36    6.68
   3  -2   3  931.55   25.72
  -3   2  -3  939.54   27.66
   3   2   3  935.18   25.84
  -3  -2  -3  921.08   31.37
   3  -2   3  931.24   30.85
  -3  -2  -3  966.69   27.41
  -3   2  -3  942.56   25.24
   4   2   3   12.75    0.74
  -4  -2  -3   11.52    1.29
  -4  -2  -3   14.07    2.01
   4  -2   3   14.97    1.84
   4  -2   3   12.38    1.44
   4   2   3   13.63    1.51
  -4   2  -3   15.77    1.60
  -4   2  -3   11.72    0.90
   5  -2   3   33.10    2.63
  -5  -2  -3   30.82    2.09
   5  -2   3   29.88    2.25
   5   2   3   32.95    2.26
  -5   2  -3   33.36    2.43
  -5  -2  -3   31.41    2.93
   6   2   3   14.01    1.77
  -6  -2  -3   14.98    2.39
  -6  -2  -3   10.20    1.55
  -6   2  -3   10.89    1.77
   6  -2   3   11.58    1.75
  -7  -2  -3   11.85    2.28
  -7   2  -3    8.79    1.72
  -7  -2  -3   11.56    1.78
   7   2   3   15.60    2.04
   7  -2   3   10.31    1.82
  -8   2  -3    8.27    1.77
  -8  -2  -3    6.85    1.57
   8  -2   3    8.76    1.79
   8   2   3    7.38    1.65
   9   2   3    5.13    1.53
   9  -2   3   -0.31    1.13
  -9  -2  -3    1.37    1.23
  -9   2  -3    0.94    1.35
  -9  -3   3    0.57    1.09
  -9   3   3    5.32    1.01
  -9   3   3    2.83    1.28
   9  -3  -3    1.78    1.24
  -8   3   3    7.92    1.64
   8  -3  -3    7.83    1.66
   8   3  -3    8.19    1.27
  -8  -3   3    7.84    1.62
  -8   3   3    7.23    1.22
   8   3  -3    9.17    1.48
   7  -3  -3   32.55    2.61
   7   3  -3   42.84    2.81
   7   3  -3   35.35    2.16
  -7   3   3   33.64    2.54
  -7  -3   3   35.76    2.66
  -7   3   3   31.76    2.02
   6   3  -3    1.96    0.71
   6   3  -3    1.98    0.74
  -6  -3   3    0.17    0.78
  -6  -3   3    3.03    1.03
   6  -3  -3    2.79    0.95
  -6   3   3    3.04    0.78
  -6   3   3    1.79    0.94
   5   3  -3  129.20    4.53
  -5  -3   3  115.49    5.96
   5  -3  -3  117.97    4.86
  -5   3   3  120.15    4.81
  -5   3   3  118.88    4.32
   5   3  -3  118.88    4.40
  -5  -3   3  119.25    4.93
   4  -3  -3   29.43    1.94
  -4  -3   3   32.28    1.96
  -4  -3   3   31.07    2.74
   4   3  -3   30.62    1.63
  -4   3   3   29.68    1.70
   4   3  -3   31.31    1.77
   3  -3  -3   70.30    2.95
   3  -3  -3   68.01    3.03
  -3  -3   3   61.67    2.80
  -3  -3   3   61.79    3.76
  -3   3   3   63.92    2.67
   3   3  -3   65.74    2.67
  -3   3   3   63.00    2.59
   3   3  -3   61.26    2.39
  -2  -3   3  536.21   15.64
   2   3  -3  521.67   14.20
   2   3  -3  500.25   14.64
   2  -3  -3  522.73   14.88
  -2   3   3  520.22   15.33
  -2  -3   3  519.40   18.16
   2  -3  -3  530.98   17.60
  -2   3   3  532.08   14.66
   1   3  -3  586.88   15.63
  -1  -3   3  544.38   16.66
  -1   3   3  562.13   15.81
  -1   3   3  561.56   16.22
   1  -3  -3  559.58   19.08
  -1   3   3  548.85   15.58
  -1  -3   3  565.39   19.42
   1   3  -3  565.47   15.07
   0  -3   3  469.26   15.03
   0   3  -3  395.51   11.99
   0   3   3  413.64   11.96
   0   3   3  428.18   12.24
   0  -3  -3  419.55   15.11
   0  -3   3  426.66   11.66
   1  -3   3  468.03   16.49
   1   3   3  486.39   13.58
   1  -3   3  478.54   13.17
  -1  -3  -3  466.35   13.77
  -1  -3  -3  472.07   16.85
  -1   3  -3  482.21   13.37
  -2  -3  -3   67.95    4.11
   2  -3   3   65.28    3.81
   2   3   3   66.30    2.44
  -2  -3  -3   69.35    2.58
   2   3   3   67.11    2.94
  -2   3  -3   62.25    2.57
  -3  -3  -3 1059.23   30.35
  -3   3  -3 1054.07   30.79
  -3   3  -3 1055.89   28.39
  -3  -3  -3 1030.03   35.19
   3  -3   3 1043.97   28.67
   3   3   3 1059.11   28.08
   3  -3   3 1034.48   34.47
   3   3   3 1029.56   28.79
   4  -3   3   47.50    3.17
  -4  -3  -3   42.87    3.52
  -4   3  -3   45.37    2.69
   4  -3   3   45.28    2.58
  -4  -3  -3   44.89    2.36
   4   3   3   45.18    2.55
  -4   3  -3   44.69    2.13
  -5   3  -3   59.26    3.38
  -5  -3  -3   59.07    3.04
   5  -3   3   58.46    3.77
   5   3   3   62.42    3.14
  -5   3  -3   48.70    2.43
   5  -3   3   60.70    3.27
  -5  -3  -3   60.18    4.23
   6   3   3   33.04    2.44
  -6  -3  -3   30.62    2.31
  -6  -3  -3   34.42    3.84
  -6   3  -3   33.24    2.74
   6  -3   3   29.67    2.63
  -7  -3  -3   11.03    2.43
  -7  -3  -3   10.18    1.64
   7   3   3   10.95    1.68
   7  -3   3   11.13    1.90
  -7   3  -3    7.85    1.63
  -8   3  -3    3.17    1.35
   8  -3   3    0.49    1.17
   8   3   3    2.61    1.09
  -8  -3  -3    3.25    1.80
  -8  -3  -3    1.54    1.06
  -9   4   3    2.88    1.40
  -9   4   3    2.57    0.85
  -9  -4   3    1.50    1.09
   9  -4  -3    1.93    1.31
  -8   4   3    6.64    1.62
  -8   4   3    3.23    0.92
  -8  -4   3    4.00    1.27
   8  -4  -3    2.91    1.33
   8   4  -3    4.65    1.05
  -7   4   3   28.88    2.56
   7   4  -3   27.14    1.98
  -7  -4   3   27.52    3.28
  -7  -4   3   22.59    2.33
   7  -4  -3   28.15    2.76
  -7   4   3   26.98    1.96
   6  -4  -3    9.96    1.73
  -6   4   3    9.90    1.38
   6   4  -3    9.49    1.28
  -6  -4   3   15.44    1.68
  -6  -4   3   11.20    2.31
  -6   4   3   13.56    1.67
  -5   4   3    3.60    0.87
   5  -4  -3    4.83    1.09
  -5  -4   3    5.89    1.14
  -5   4   3    2.79    0.85
   5   4  -3    4.38    0.91
   5   4  -3    2.41    0.81
  -5  -4   3    3.69    1.54
  -4  -4   3   37.44    2.21
   4  -4  -3   35.30    2.39
  -4  -4   3   44.80    3.56
   4   4  -3   38.61    1.93
  -4   4   3   35.76    2.09
   4   4  -3   40.40    2.15
  -4   4   3   41.23    2.12
   3   4  -3  125.35    4.64
  -3  -4   3  126.03    6.36
   3   4  -3  126.73    4.17
   3  -4  -3  132.29    5.55
   3  -4  -3  127.74    4.95
  -3   4   3  125.17    4.53
  -3  -4   3  127.35    4.66
  -3   4   3  123.58    4.49
  -2   4   3  210.68    6.63
   2   4  -3  202.36    6.77
  -2   4   3  219.51    6.88
   2   4  -3  207.12    6.31
   2  -4  -3  214.46    7.06
   2  -4  -3  217.55    8.44
  -2  -4   3  215.12    9.16
  -1  -4   3   31.05    1.47
  -1   4   3   23.16    1.62
   1   4  -3   32.82    1.67
  -1   4   3   25.07    1.64
  -1  -4   3   19.87    2.72
   1  -4  -3   25.86    2.34
   0   4  -3   21.73    1.36
   0   4   3   17.61    1.32
   0  -4   3   22.43    1.35
   0  -4  -3   19.54    2.38
   0   4   3   22.90    1.64
   0   4  -3   21.85    1.47
   0  -4   3   23.71    2.20
  -1  -4  -3   20.67    2.47
   1   4   3   20.18    1.44
   1  -4   3   21.53    2.40
   1   4   3   19.15    1.29
  -1   4  -3   18.48    1.39
  -1   4  -3   19.72    1.39
   1  -4   3   17.34    1.26
  -2  -4  -3  112.57    6.00
   2  -4   3  107.96    4.11
   2   4   3  116.32    4.41
   2  -4   3  110.91    5.55
  -2   4  -3  101.66    3.96
  -3  -4  -3   66.57    4.61
   3  -4   3   69.62    3.21
  -3   4  -3   72.73    3.03
   3   4   3   74.60    3.31
  -3   4  -3   73.12    3.45
   3  -4   3   70.59    4.35
   3   4   3   71.77    2.85
  -4   4  -3  195.54    6.32
   4  -4   3  193.13    6.93
   4   4   3  187.06    6.87
   4  -4   3  190.67    8.41
  -4   4  -3  193.89    7.24
  -4  -4  -3  191.37    9.14
   5  -4   3  142.25    5.71
   5   4   3  141.27    5.72
  -5   4  -3  149.08    6.10
  -5  -4  -3  138.22    7.41
  -5   4  -3  127.07    4.97
  -6  -4  -3    5.79    2.00
   6  -4   3    2.55    1.24
   6   4   3    3.24    1.15
  -6   4  -3    1.82    1.09
   7   4   3    2.55    1.07
  -7   4  -3    4.17    1.21
   7  -4   3    4.14    1.45
  -7  -4  -3    4.05    1.82
  -8   4  -3    1.54    1.35
   8   4   3   -0.54    0.80
  -8  -4  -3    2.53    1.51
   8  -4   3    0.25    1.23
  -8   5   3    2.13    0.91
   8  -5  -3    3.39    1.54
  -7   5   3    3.25    0.98
   7   5  -3    2.66    1.02
  -7  -5   3    2.79    1.50
   7  -5  -3    0.33    0.96
   6   5  -3   91.59    4.05
  -6   5   3   88.02    3.94
  -6  -5   3   89.98    5.85
   6  -5  -3   88.22    4.62
  -5  -5   3   84.39    5.71
  -5   5   3   90.35    3.88
   5  -5  -3   86.80    4.44
   5   5  -3   92.30    4.02
   4  -5  -3    9.38    1.54
  -4   5   3   10.87    1.42
   4   5  -3    9.71    1.35
  -4  -5   3   10.88    2.37
   3  -5  -3    9.79    1.85
  -3  -5   3    7.52    1.80
   3   5  -3   10.27    1.37
  -3   5   3    8.18    1.18
   3  -5  -3    9.35    1.48
   2   5  -3   18.15    1.68
   2  -5  -3   18.10    2.39
  -2   5   3   17.27    1.64
   2  -5  -3   15.93    1.76
  -2  -5   3   17.15    2.75
  -1   5   3    1.41    0.62
  -1   5   3    0.83    0.63
   1  -5  -3   -0.48    0.93
   1   5  -3    1.42    0.61
  -1  -5   3    2.62    0.76
  -1  -5   3    2.36    1.40
   0   5  -3   40.75    1.85
   0  -5   3   32.51    1.91
   0  -5  -3   33.84    3.37
   0  -5   3   42.03    3.50
   0   5   3   33.49    2.04
   0   5  -3   43.59    2.15
   0   5   3   34.98    2.17
   1   5   3   60.01    2.72
  -1   5  -3   55.39    2.68
   1   5   3   59.86    2.96
  -1   5  -3   54.69    2.79
   1  -5   3   56.52    4.08
   1  -5   3   57.38    2.68
  -1  -5  -3   55.75    4.08
   2  -5   3   33.52    3.25
  -2  -5  -3   34.14    3.72
   2   5   3   30.67    1.92
   2  -5   3   27.56    1.97
  -2   5  -3   30.56    1.97
   2   5   3   32.01    2.12
  -2   5  -3   31.87    2.10
  -3   5  -3  142.41    5.57
   3  -5   3  145.26    7.38
   3  -5   3  140.45    5.46
  -3   5  -3  145.42    5.26
   3   5   3  139.33    5.58
  -3  -5  -3  137.40    7.81
  -4   5  -3  253.21    8.24
   4  -5   3  248.17   10.73
  -4   5  -3  244.17    8.99
   4   5   3  253.93    8.85
  -4  -5  -3  257.93   11.78
   4  -5   3  249.06    8.77
  -5   5  -3   16.43    2.27
   5   5   3   14.78    1.78
  -5   5  -3   16.42    1.71
   5  -5   3   15.68    2.06
  -5  -5  -3   17.41    3.08
  -6  -5  -3    0.24    1.35
   6  -5   3    0.12    0.94
  -6   5  -3   -0.64    0.90
   6   5   3    0.63    0.86
  -7  -5  -3    0.79    1.43
   7   5   3    1.41    0.87
   7  -5   3    2.72    1.37
  -7   5  -3    1.13    1.15
  -7   6   3   12.05    1.77
   7   6  -3   10.08    1.57
  -7  -6   3    9.47    2.49
   7  -6  -3    9.23    2.07
  -6   6   3   19.24    2.04
   6   6  -3   17.38    1.95
  -6  -6   3   17.33    3.01
   6  -6  -3   16.91    2.38
   5   6  -3    5.48    1.22
  -5   6   3    7.64    1.33
   5  -6  -3    7.19    1.65
  -5  -6   3    9.75    2.74
  -4  -6   3    0.77    1.19
  -4   6   3    1.89    0.78
   4  -6  -3    1.45    1.04
   4   6  -3   -0.41    0.70
   3  -6  -3   14.28    1.95
  -3   6   3   15.65    1.76
   3   6  -3   16.12    1.81
  -3  -6   3   19.10    3.16
  -2   6   3   12.07    1.52
   2  -6  -3   18.83    2.54
   2   6  -3   13.32    1.61
  -2  -6   3   12.74    2.48
   2  -6  -3   14.73    1.96
  -1   6   3   77.07    3.57
   1  -6  -3   78.97    5.07
   0   6   3    2.35    0.95
   0  -6   3    2.01    1.77
   0   6   3    1.28    0.75
   0  -6  -3    4.87    1.76
   0   6  -3    3.26    0.84
   1  -6   3   67.72    4.76
  -1   6  -3   69.38    3.43
   1  -6   3   68.42    3.28
   1   6   3   65.71    3.29
  -1  -6  -3   67.35    4.99
   1   6   3   77.62    3.74
  -2  -6  -3    6.42    2.09
  -2   6  -3    5.53    1.17
   2   6   3    8.05    1.39
   2   6   3    7.69    1.28
   2  -6   3    9.85    1.40
   2  -6   3   10.26    2.50
   3  -6   3    7.55    2.33
   3   6   3    5.65    1.27
   3   6   3    6.65    1.24
  -3  -6  -3    8.37    2.43
   3  -6   3    7.74    1.41
  -3   6  -3    6.72    1.30
   4   6   3    7.58    1.42
  -4  -6  -3    5.22    2.26
   4  -6   3   10.56    1.70
  -4   6  -3    7.14    1.29
   4  -6   3    9.25    2.35
   5   6   3   15.14    1.95
  -5   6  -3   15.07    1.70
  -5  -6  -3   13.95    3.20
   5  -6   3   15.23    2.20
   6  -6   3    0.10    1.13
  -6  -6  -3   -1.46    1.55
   6   6   3    0.19    0.67
  -6  -7   3    8.60    2.64
  -6   7   3    6.44    1.50
   6   7  -3    5.77    1.37
   6  -7  -3    8.04    2.17
  -5   7   3    8.63    1.51
   5   7  -3    9.20    1.48
   5  -7  -3   14.43    2.32
  -5  -7   3   11.66    2.79
   4   7  -3    3.57    1.07
  -4   7   3    7.34    1.42
  -4  -7   3    7.08    2.32
   4  -7  -3    4.75    1.44
  -3  -7   3   25.89    3.83
   3  -7  -3   21.57    2.47
  -3   7   3   26.48    2.33
  -2  -7   3    3.97    2.02
  -2   7   3    0.84    0.69
   2   7  -3    1.82    0.87
   2  -7  -3    2.48    1.10
   2  -7  -3    6.44    1.93
   1  -7  -3    1.01    1.47
  -1  -7   3    2.70    2.10
  -1   7   3    2.49    1.02
   1   7  -3    0.67    0.76
   1  -7  -3    2.66    1.17
   0   7   3    6.18    1.36
   0  -7   3    8.22    2.45
   0   7  -3    3.55    1.13
   0  -7  -3    4.09    1.84
   0   7   3    8.17    1.45
  -1   7  -3   17.60    1.86
   1  -7   3   14.36    2.93
   1   7   3   11.96    1.63
  -1  -7  -3   14.75    2.75
   1   7   3   15.19    1.84
  -2  -7  -3   15.23    2.99
   2   7   3   10.37    1.52
   2  -7   3    9.67    2.64
   2   7   3    9.19    1.65
  -2   7  -3    9.44    1.57
   3   7   3   -0.29    0.74
  -3   7  -3   -1.39    0.59
   3  -7   3    1.15    1.86
   3   7   3    0.92    0.79
  -3  -7  -3    0.31    1.45
  -4  -7  -3    3.79    2.09
  -4   7  -3    3.31    1.02
   4   7   3    4.76    1.15
  -5   7  -3    3.46    1.13
   5   7   3    8.29    1.72
  -5  -7  -3    4.33    2.30
  -3  -8   3   19.99    3.73
  -3   8   3   15.43    2.06
   3   8  -3   13.59    1.95
   3  -8  -3   19.60    2.55
  -2   8   3    4.21    1.20
  -2  -8   3    2.00    2.11
   2   8  -3   -0.55    0.76
   2  -8  -3    2.76    1.37
   1  -8  -3    1.39    1.32
   1   8  -3    1.40    0.92
   1  -8  -3    4.01    1.87
  -1  -8   3    2.44    2.02
  -1   8   3    1.80    1.16
   0   8  -3    9.60    1.69
   0  -8  -3   12.90    2.84
   0  -8   3   12.22    3.17
   0   8   3   13.06    1.86
   1  -8   3   38.42    4.84
  -1  -8  -3   51.70    4.78
   1   8   3   44.20    3.03
   1   8   3   53.86    3.28
  -1   8  -3   48.66    3.26
  -2   8  -3   12.67    1.93
   2  -8   3   12.50    3.41
   2   8   3    9.97    1.76
  -2  -8  -3   15.56    3.43
   2   8   3   15.95    1.93
 -10   0   4   -1.62    0.98
  10   0  -4   -1.06    0.91
   9   0  -4   14.50    1.60
   9   0  -4   14.30    2.05
  -9   0   4   18.64    2.52
   8   0  -4  217.29    8.11
  -8   0   4  210.94    8.45
   8   0  -4  217.82    7.35
   7   0  -4  125.20    4.77
  -7   0   4  125.38    5.61
   7   0  -4  130.85    5.25
   6   0  -4   58.42    2.89
   6   0  -4   56.63    2.60
  -6   0   4   57.76    3.15
   5   0  -4   39.07    1.97
  -5   0   4   39.02    2.40
   5   0  -4   41.61    2.09
  -4   0   4  144.88    5.44
  -4   0   4  153.24    5.53
   4   0  -4  158.85    5.03
   4   0  -4  154.51    5.04
   3   0  -4  165.87    5.07
  -3   0   4  157.09    5.90
   3   0  -4  166.99    5.17
  -3   0   4  168.22    5.71
  -2   0   4 1086.28   30.90
   2   0  -4 1068.86   28.26
   2   0  -4 1044.83   28.61
  -2   0   4 1072.50   33.95
  -1   0   4  199.98    5.51
  -1   0   4  192.09    6.33
   1   0  -4  193.53    5.64
  -1   0   4  192.79    7.12
   0   0   4  179.32    5.98
   0   0  -4  178.94    5.14
   0   0   4  180.82    6.93
   0   0   4  178.92    5.20
  -1   0  -4    3.81    0.31
  -1   0  -4    3.84    0.31
   1   0   4    8.13    1.18
  -1   0  -4    5.88    0.78
   2   0   4   98.54    3.45
   2   0   4   87.74    4.28
  -2   0  -4   96.89    3.65
  -3   0  -4   51.34    2.63
   3   0   4   50.57    3.39
   3   0   4   53.46    2.55
   4   0   4   11.58    1.97
  -4   0  -4   15.26    1.60
   4   0   4   13.98    1.51
   5   0   4   35.77    3.10
   5   0   4   36.86    2.42
  -5   0  -4   34.64    2.42
   6   0   4    2.53    1.11
  -6   0  -4    6.38    1.46
   6   0   4    4.18    1.52
   7   0   4   53.65    3.43
   8   0   4   17.97    2.34
  -8   0  -4   17.70    2.39
  -9   0  -4    0.58    1.30
   9   0   4    5.06    1.57
  10  -1  -4    2.65    1.42
 -10   1   4    1.71    1.32
 -10  -1   4    1.99    1.42
  10   1  -4    2.86    1.31
  -9   1   4   -0.20    1.07
  -9  -1   4   -0.45    0.98
   9  -1  -4    1.25    1.10
   9  -1  -4    0.47    0.66
   9   1  -4    1.71    1.06
   9   1  -4    0.26    0.65
   8   1  -4   88.80    4.45
   8  -1  -4   95.98    4.07
   8  -1  -4   91.17    4.57
  -8   1   4   98.75    4.92
  -8  -1   4   91.86    4.78
   8   1  -4   92.89    3.99
  -7   1   4  171.96    7.01
   7   1  -4  183.99    6.60
  -7  -1   4  170.17    6.99
   7   1  -4  171.23    6.04
   7  -1  -4  177.66    6.73
  -6   1   4   99.37    3.75
  -6  -1   4  102.12    4.49
   6   1  -4   97.96    3.82
   6  -1  -4   95.81    4.20
  -6   1   4  101.63    4.43
   6   1  -4   91.50    3.89
  -5  -1   4   10.72    1.40
   5  -1  -4   14.10    1.40
   5   1  -4   10.79    1.08
  -5   1   4   12.50    1.40
  -5   1   4   11.31    1.03
  -5  -1   4    6.66    1.23
   5   1  -4   11.19    1.17
  -4  -1   4  321.20   11.14
  -4  -1   4  315.56   10.30
   4   1  -4  320.85    9.38
  -4   1   4  326.84    9.31
   4   1  -4  317.16    9.24
   4  -1  -4  299.60    9.38
  -4   1   4  321.83   10.26
   3   1  -4  564.00   15.26
  -3   1   4  561.34   15.56
  -3  -1   4  558.57   18.58
  -3   1   4  573.40   16.87
   3  -1  -4  558.25   15.61
  -3  -1   4  561.20   16.94
  -3   1   4  556.87   18.06
   3   1  -4  565.43   15.62
  -2   1   4  216.68    7.61
  -2  -1   4  185.95    7.97
   2   1  -4  220.91    5.97
  -2  -1   4  224.29    7.13
  -2   1   4  232.60    7.00
   2   1  -4  220.87    6.46
   2  -1  -4  211.76    6.36
  -2   1   4  219.43    6.33
  -1   1   4  115.84    4.08
  -1   1   4  115.95    3.59
  -1  -1   4  118.36    4.94
   1   1  -4  111.23    3.66
  -1   1   4  117.70    3.72
  -1  -1   4  112.91    4.19
   0   1   4  335.20   11.95
   0  -1   4  348.53   10.56
   0  -1   4  327.78    9.23
   0   1   4  342.89    9.36
   0   1   4  341.51   10.36
   0   1  -4  331.21    9.43
   0  -1   4  357.38   12.00
   0   1   4  345.36    9.62
   1  -1   4  627.92   17.22
   1   1   4  647.47   17.50
   1   1   4  639.35   16.97
  -1   1  -4  630.66   17.09
   1  -1   4  648.18   21.36
  -1  -1  -4  635.21   18.70
   1   1   4  631.45   21.37
  -1   1  -4  633.81   18.85
  -2  -1  -4   23.07    1.44
  -2   1  -4   20.82    1.50
   2   1   4   20.93    2.19
  -2   1  -4   20.23    0.93
   2  -1   4   20.86    2.11
   2   1   4   20.49    1.37
   3  -1   4  154.23    5.35
  -3   1  -4  147.07    5.66
   3   1   4  150.88    6.80
   3   1   4  152.19    5.39
   3  -1   4  149.15    6.70
  -3  -1  -4  154.61    5.45
   4  -1   4   40.49    3.00
  -4  -1  -4   41.25    2.40
   4   1   4   42.89    2.48
   4   1   4   39.08    3.22
   4  -1   4   40.15    2.40
  -4   1  -4   40.34    2.48
  -5  -1  -4    2.07    0.83
  -5   1  -4    2.26    0.87
   5   1   4    2.92    0.94
   5  -1   4    2.66    1.36
   5  -1   4    3.26    0.99
   5   1   4    3.98    1.36
  -6  -1  -4    1.01    1.12
   6  -1   4    1.95    1.37
   6   1   4    0.20    0.71
   6  -1   4   -0.04    0.76
  -6  -1  -4    0.57    0.71
  -6   1  -4    2.10    1.01
   7  -1   4   35.55    3.07
   7   1   4   35.05    2.69
  -7  -1  -4   34.25    2.73
  -7  -1  -4   37.77    3.55
  -8   1  -4    3.78    1.34
   8   1   4    3.79    1.32
  -8  -1  -4    1.11    1.16
   8  -1   4    4.04    1.45
   9  -1   4    2.25    1.23
  -9   1  -4    1.95    1.38
   9   1   4    0.78    1.22
  -9  -1  -4    0.88    1.26
 -10   2   4    1.38    1.32
 -10  -2   4    0.75    1.25
  10  -2  -4    1.57    1.26
   9  -2  -4    4.44    1.49
   9   2  -4    8.42    1.57
  -9   2   4    6.72    1.13
   9   2  -4    7.37    1.29
  -9   2   4    4.16    1.64
  -9  -2   4    8.51    1.85
  -8   2   4    4.39    0.94
  -8   2   4    2.81    1.26
   8  -2  -4    2.56    1.14
   8   2  -4    2.21    1.06
   8   2  -4    3.51    0.96
  -8  -2   4    3.95    1.38
   7  -2  -4   16.89    2.05
   7   2  -4   19.05    1.83
   7   2  -4   16.30    1.52
  -7   2   4   20.48    2.21
  -7   2   4   18.20    1.55
  -7  -2   4   16.51    2.04
  -6   2   4   41.89    2.59
   6   2  -4   39.06    2.20
  -6  -2   4   42.97    2.70
   6  -2  -4   44.85    2.70
   6   2  -4   44.48    2.43
  -6   2   4   41.62    2.20
  -6  -2   4   40.98    2.98
  -5   2   4   31.94    1.76
   5   2  -4   32.15    1.77
  -5  -2   4   33.25    2.16
   5   2  -4   31.54    1.75
  -5   2   4   34.69    2.23
   5  -2  -4   33.00    2.08
  -5  -2   4   30.39    2.49
   4   2  -4  157.57    5.25
   4  -2  -4  159.65    5.51
  -4   2   4  157.50    5.71
   4   2  -4  157.10    4.98
  -4  -2   4  156.75    5.80
  -4   2   4  157.75    5.14
   3   2  -4  375.17   10.31
  -3   2   4  381.06   11.58
   3  -2  -4  373.58   10.89
  -3  -2   4  367.25   11.66
   3   2  -4  360.20   10.73
  -3   2   4  378.88   10.70
   3  -2  -4  382.34   12.48
  -2   2   4   93.19    3.13
   2   2  -4   93.82    3.19
  -2   2   4   76.73    3.36
   2  -2  -4   95.68    3.37
  -2  -2   4   94.29    3.57
   2  -2  -4   92.76    3.92
  -2  -2   4   92.31    4.37
  -1   2   4   18.59    1.04
  -1   2   4   19.93    1.18
  -1  -2   4   18.70    1.36
   1  -2  -4   18.07    1.62
  -1  -2   4   19.52    1.93
   1   2  -4   18.87    1.13
  -1   2   4   20.93    1.25
   0  -2   4   20.03    0.86
   0   2  -4   17.21    1.27
   0  -2  -4   20.18    1.13
   0   2  -4   20.25    1.09
   0   2   4   18.73    1.24
   0  -2   4   21.00    2.03
   0  -2  -4   17.44    1.91
  -1   2  -4  436.50   12.18
   1   2   4  444.02   11.98
  -1  -2  -4  437.48   13.06
  -1   2  -4  433.63   13.46
   1  -2   4  428.87   12.10
  -1  -2  -4  441.42   15.65
   1  -2   4  443.35   15.49
   1   2   4  443.41   12.55
   2  -2   4 1152.75   37.60
  -2   2  -4 1153.01   30.82
   2   2   4 1131.66   31.28
   2  -2   4 1170.79   31.01
  -2   2  -4 1144.89   33.56
  -2  -2  -4 1136.22   38.01
   2   2   4 1173.10   30.51
  -2  -2  -4 1149.58   33.23
  -3  -2  -4  715.45   24.88
  -3   2  -4  731.68   21.82
   3   2   4  717.35   19.18
   3  -2   4  722.18   20.17
  -3  -2  -4  733.50   21.45
  -3   2  -4  718.23   19.54
   3   2   4  706.80   20.32
   3  -2   4  718.44   24.51
   4  -2   4   54.74    3.70
  -4   2  -4   54.82    2.15
  -4   2  -4   56.70    3.14
  -4  -2  -4   52.89    3.90
   4  -2   4   54.56    2.85
   4   2   4   53.49    2.91
  -4  -2  -4   55.17    2.85
  -5   2  -4   23.56    2.26
   5  -2   4   21.86    2.54
  -5  -2  -4   23.02    2.83
   5   2   4   26.81    2.32
  -5  -2  -4   27.41    2.10
   5  -2   4   28.91    2.07
   6   2   4   26.51    2.36
  -6   2  -4   19.99    2.27
  -6  -2  -4   26.39    3.14
   6  -2   4   26.00    2.81
  -6  -2  -4   18.27    1.96
   6  -2   4   26.43    2.35
  -7  -2  -4    5.27    1.35
  -7   2  -4    5.11    1.41
  -7  -2  -4    3.36    1.80
   7   2   4    5.97    1.48
   7  -2   4    2.72    1.26
   8   2   4    0.89    0.98
   8  -2   4    1.55    1.21
  -8   2  -4    0.88    1.22
  -8  -2  -4    1.47    1.03
  -9   3   4    8.64    1.87
  -9  -3   4    4.90    1.57
   9  -3  -4    3.83    1.48
  -9   3   4    5.16    1.06
  -8   3   4    6.11    1.54
   8  -3  -4    5.67    1.43
  -8   3   4    3.89    0.97
  -8  -3   4    5.39    1.47
   8   3  -4    5.19    1.07
  -7   3   4    6.44    1.42
   7  -3  -4    6.12    1.46
  -7  -3   4    7.11    1.54
   7   3  -4    7.60    1.21
  -7   3   4    5.21    1.00
  -6  -3   4   27.33    2.20
   6   3  -4   31.34    1.99
   6  -3  -4   30.30    2.26
  -6   3   4   26.53    1.80
  -6   3   4   29.86    2.15
   5  -3  -4   12.38    1.55
   5   3  -4   11.10    1.24
   5   3  -4   13.08    1.22
  -5  -3   4   11.25    1.42
  -5   3   4   12.24    1.43
  -5   3   4    9.80    1.14
  -5  -3   4    8.79    1.81
  -4   3   4    2.17    0.66
   4   3  -4    2.39    0.65
  -4   3   4    0.36    0.34
  -4  -3   4    2.17    1.24
  -4  -3   4    2.50    0.76
   4   3  -4    2.33    0.45
   4  -3  -4    2.10    0.63
   3  -3  -4  257.54    8.94
   3  -3  -4  250.97    7.87
  -3   3   4  248.03    7.93
   3   3  -4  246.56    6.96
  -3   3   4  253.96    7.57
   3   3  -4  254.41    7.63
  -3  -3   4  233.80    8.12
  -3  -3   4  217.80    9.43
  -2  -3   4   45.84    3.16
   2  -3  -4   40.88    2.21
  -2  -3   4   41.23    2.24
   2  -3  -4   43.56    2.54
  -2   3   4   43.29    1.97
   2   3  -4   39.00    1.49
   2   3  -4   41.33    1.98
  -2   3   4   41.12    1.91
   1  -3  -4   12.36    1.62
  -1   3   4   13.04    0.92
  -1  -3   4   11.77    1.83
  -1  -3   4   14.19    1.20
  -1   3   4   12.63    1.01
  -1  -3   4   11.77    0.72
  -1   3   4   13.45    1.23
   1   3  -4   11.46    1.02
   0  -3  -4   36.39    1.57
   0   3   4   38.22    1.98
   0  -3  -4   37.01    2.71
   0  -3   4   37.55    2.68
   0   3  -4   37.66    1.79
   0   3   4   35.97    1.66
   0  -3   4   37.75    1.49
   0   3  -4   35.18    1.94
   1   3   4   49.99    2.40
   1   3   4   51.45    2.00
   1  -3   4   50.00    3.33
  -1   3  -4   50.72    2.19
  -1  -3  -4   50.70    2.06
   1  -3   4   51.39    2.12
  -1  -3  -4   50.89    3.48
  -1   3  -4   48.51    2.45
  -2  -3  -4  136.09    6.73
  -2   3  -4  133.42    5.10
   2   3   4  134.82    4.17
   2   3   4  130.80    4.88
   2  -3   4  129.15    6.17
  -2   3  -4  136.33    4.52
   2  -3   4  134.84    4.59
  -2  -3  -4  133.79    4.63
   3   3   4  126.93    4.95
  -3  -3  -4  125.56    6.71
   3  -3   4  126.36    6.14
  -3   3  -4  137.25    5.25
  -3  -3  -4  127.03    4.73
   3   3   4  128.42    4.02
  -3   3  -4  127.32    4.33
   4  -3   4   80.99    3.66
  -4   3  -4   79.19    3.89
  -4  -3  -4   77.36    3.54
  -4   3  -4   79.34    3.00
   4  -3   4   73.53    4.47
  -4  -3  -4   78.66    5.14
   5  -3   4   38.81    2.67
   5   3   4   36.09    2.49
  -5  -3  -4   43.16    2.55
  -5   3  -4   36.29    2.74
  -5  -3  -4   40.94    3.56
   5  -3   4   41.59    3.40
  -6  -3  -4   34.79    3.94
  -6  -3  -4   30.33    2.43
  -6   3  -4   33.48    2.84
   6   3   4   33.72    2.65
   6  -3   4   36.13    2.80
   7  -3   4    9.38    1.85
  -7  -3  -4   12.01    1.81
  -7   3  -4   10.41    1.90
   7   3   4   14.30    2.01
  -7  -3  -4   19.67    3.13
  -8  -3  -4   -0.32    1.50
   8  -3   4   -1.64    0.86
   8   3   4   -0.36    0.87
  -8  -3  -4    0.84    1.00
  -8   3  -4    1.70    1.28
  -9  -4   4    1.95    1.32
  -9   4   4   -0.09    0.75
   9  -4  -4   -1.78    1.20
  -9   4   4    2.29    1.24
  -8  -4   4   10.05    1.84
  -8   4   4   10.73    1.88
  -8   4   4   11.71    1.55
   8  -4  -4    6.02    1.54
   8   4  -4    7.96    1.30
  -7   4   4   22.74    1.93
  -7  -4   4   23.23    2.30
   7  -4  -4   18.58    2.25
  -7   4   4   24.99    2.30
  -7  -4   4   16.09    2.55
   7   4  -4   23.52    1.85
   6  -4  -4   23.97    2.29
  -6   4   4   25.56    2.11
  -6   4   4   23.17    1.76
  -6  -4   4   20.16    2.61
  -6  -4   4   19.58    2.09
   6   4  -4   23.10    1.75
  -5   4   4    8.39    1.21
  -5  -4   4    6.19    1.20
   5  -4  -4    7.07    1.34
  -5   4   4    7.37    1.18
   5   4  -4    7.48    1.17
  -5  -4   4    7.23    1.94
   4  -4  -4    1.29    0.75
  -4  -4   4   -0.38    0.52
  -4   4   4    0.14    0.46
  -4  -4   4    1.12    1.22
   4   4  -4    0.63    0.57
  -4   4   4    0.67    0.61
  -3  -4   4   12.74    2.29
   3  -4  -4   22.95    2.06
  -3   4   4   16.96    1.26
  -3  -4   4   11.38    1.31
   3   4  -4   16.39    1.39
   3  -4  -4   16.96    1.65
  -3   4   4   16.73    1.43
  -2  -4   4   90.12    5.07
  -2  -4   4   90.12    3.67
  -2   4   4   89.98    3.43
   2   4  -4   86.76    3.47
  -2   4   4   78.04    3.06
   2  -4  -4   91.10    4.66
   2  -4  -4   97.45    3.90
   1   4  -4  210.48    6.55
  -1  -4   4  198.62    6.88
   1  -4  -4  192.72    8.46
  -1  -4   4  200.16    8.80
  -1  -4   4  199.95    5.99
  -1   4   4  200.88    6.42
  -1   4   4  203.66    6.78
   0  -4  -4   79.65    4.61
   0   4   4   88.14    3.29
   0  -4   4   91.98    4.71
   0   4  -4   79.64    3.25
   0  -4   4   86.09    3.05
   0   4   4   88.71    3.56
   0   4  -4   83.93    3.48
   1  -4   4    9.05    1.87
  -1   4  -4    5.98    0.89
   1  -4   4    8.80    0.93
   1   4   4   10.52    1.27
   1   4   4    9.92    1.02
  -1  -4  -4   11.66    2.00
   2  -4   4  101.26    3.90
  -2   4  -4   99.50    4.24
   2   4   4  102.28    4.20
  -2   4  -4  102.53    3.92
   2   4   4  100.80    3.62
   2  -4   4   97.89    5.44
  -2  -4  -4  101.89    5.86
  -3   4  -4  164.98    6.54
   3   4   4  180.97    5.58
  -3   4  -4  170.92    5.83
  -3  -4  -4  178.10    8.71
   3   4   4  176.19    6.38
   3  -4   4  166.49    7.98
   4  -4   4  105.64    5.87
  -4   4  -4  103.98    4.82
   4   4   4  107.51    4.70
  -4   4  -4  104.48    4.03
   4  -4   4  106.91    4.61
  -4  -4  -4   99.90    6.31
   5   4   4   86.62    4.25
   5  -4   4   89.14    4.35
  -5   4  -4   92.97    4.60
   5  -4   4   94.01    5.37
  -5  -4  -4   87.17    6.03
   6   4   4    3.75    1.20
   6  -4   4    5.89    1.58
  -6  -4  -4    6.22    2.13
  -6   4  -4    4.96    1.51
   7   4   4    2.73    1.01
   7  -4   4    2.04    1.34
  -7  -4  -4    0.12    1.46
  -7   4  -4    1.27    1.16
  -8   4  -4    0.92    1.22
   8   4   4    1.93    1.17
   8  -4   4    1.73    1.33
  -8  -4  -4    0.61    1.45
   8   5  -4    1.66    0.85
   8  -5  -4    2.44    1.45
  -8   5   4    0.43    0.81
  -7   5   4    6.77    1.26
   7  -5  -4    3.38    1.36
   7   5  -4    4.75    1.08
  -7  -5   4    6.34    2.05
   6   5  -4    9.70    1.45
  -6   5   4    7.29    1.29
   6  -5  -4    7.50    1.59
  -6  -5   4    7.93    2.09
  -5  -5   4   12.20    2.53
   5  -5  -4   14.33    2.00
  -5   5   4   17.90    1.76
   5   5  -4   15.21    1.73
   4  -5  -4    2.10    0.93
   4   5  -4    2.90    0.92
  -4  -5   4    5.21    1.98
  -4   5   4    2.28    0.77
  -3   5   4   59.92    2.87
  -3  -5   4   47.57    4.09
   3  -5  -4   55.49    3.16
   3   5  -4   58.98    2.93
  -2  -5   4    9.97    2.41
   2  -5  -4   12.82    2.06
   2   5  -4   12.88    1.40
  -2   5   4   12.43    1.36
   2  -5  -4   11.65    1.52
  -1  -5   4  154.77    7.44
  -1   5   4  138.58    5.58
   1   5  -4  158.14    5.23
   1   5  -4  148.91    5.10
   1  -5  -4  114.25    6.65
  -1   5   4  128.82    5.17
   0  -5   4   88.03    5.14
   0   5  -4   75.49    3.42
   0   5  -4   80.28    3.37
   0  -5  -4   74.21    4.88
   0   5   4   75.91    3.58
   0   5   4   75.51    3.35
   1  -5   4   42.05    3.58
   1  -5   4   41.25    2.19
  -1  -5  -4   42.59    3.82
   1   5   4   41.46    2.46
  -1   5  -4   41.12    2.37
   1   5   4   39.53    2.18
  -2   5  -4    9.00    1.23
  -2  -5  -4   10.31    2.46
  -2   5  -4    8.27    1.33
   2   5   4    8.37    1.32
   2  -5   4   10.97    2.40
   2   5   4    7.55    1.08
   2  -5   4    7.45    1.21
   3  -5   4   -0.35    0.59
   3   5   4    0.78    0.68
  -3   5  -4    3.60    0.91
  -3   5  -4    0.22    0.58
   3  -5   4    1.20    1.76
   3   5   4    0.67    0.72
  -3  -5  -4    3.30    1.68
  -4   5  -4   64.23    3.58
   4  -5   4   59.82    3.44
  -4   5  -4   61.43    3.07
   4   5   4   62.02    3.59
  -4  -5  -4   61.76    4.97
   4  -5   4   65.30    4.77
  -5   5  -4   36.33    2.86
   5   5   4   32.41    2.50
   5  -5   4   31.83    2.84
  -5  -5  -4   34.70    4.21
  -6  -5  -4    1.01    1.44
   6   5   4    0.96    0.92
  -6   5  -4    1.65    1.19
   6  -5   4    0.94    1.16
   7   5   4    0.49    0.78
  -7  -5  -4    2.24    1.96
   7  -5   4   -0.36    1.29
  -7   5  -4   -0.41    1.01
  -7  -6   4   16.92    3.26
  -7   6   4   14.16    1.93
   7   6  -4   14.94    1.93
   7  -6  -4   13.71    2.25
   6   6  -4   53.73    3.14
  -6   6   4   48.51    2.95
   6  -6  -4   51.54    3.61
  -6  -6   4   56.20    4.81
  -5   6   4   32.16    2.30
   5   6  -4   31.22    2.33
  -5  -6   4   32.06    3.93
   5  -6  -4   33.36    2.99
   4   6  -4   33.32    2.34
  -4  -6   4   32.66    3.87
  -4   6   4   37.97    2.51
   4  -6  -4   33.74    2.90
  -3   6   4    2.74    1.05
  -3  -6   4    0.87    1.65
   3  -6  -4    1.39    0.98
   3   6  -4    1.18    0.76
   2  -6  -4    0.97    1.15
   2  -6  -4   -0.23    0.67
  -2  -6   4   -0.20    1.58
   2   6  -4    0.33    0.55
  -2   6   4   -0.49    0.63
  -1   6   4   14.54    1.56
  -1   6   4   14.82    1.81
  -1  -6   4   11.22    2.60
   1   6  -4   18.70    1.78
   1  -6  -4   12.51    2.32
   0  -6  -4    6.84    2.15
   0   6   4    5.99    1.15
   0  -6   4    7.25    2.33
   0   6  -4    5.10    0.99
   0   6   4    5.53    1.11
   1  -6   4    8.69    2.25
  -1   6  -4   11.03    1.49
  -1  -6  -4   16.75    3.04
   1   6   4   11.43    1.70
   1   6   4   11.05    1.42
  -2   6  -4    4.36    1.04
   2   6   4    2.45    0.93
  -2  -6  -4    3.23    1.64
   2  -6   4    5.98    2.22
   2   6   4    3.72    1.01
  -3  -6  -4   48.34    4.35
   3  -6   4   52.58    4.52
  -3   6  -4   47.64    2.74
   3   6   4   43.77    2.87
   4  -6   4    8.65    2.30
  -4   6  -4    7.02    1.34
  -4  -6  -4    9.08    2.54
   4   6   4    7.99    1.49
   5   6   4    1.61    0.90
  -5  -6  -4   -0.27    1.19
   5  -6   4    2.14    1.33
  -6  -6  -4    3.00    1.89
   6   6   4    4.32    1.35
   6  -6   4    2.65    1.46
   5  -7  -4    4.65    1.41
  -5   7   4    3.86    1.21
  -5  -7   4    1.29    1.69
   5   7  -4    2.60    0.93
  -4   7   4    5.66    1.35
   4  -7  -4    2.31    1.25
  -4  -7   4    3.42    2.10
   4   7  -4    4.07    0.97
   3  -7  -4   16.78    2.27
   3   7  -4   13.22    1.79
  -3  -7   4   15.17    2.88
  -3   7   4   15.37    1.75
  -2   7   4   18.49    2.00
   2  -7  -4   22.81    2.53
  -2  -7   4   18.35    3.31
   2   7  -4   14.12    1.72
   2  -7  -4   20.45    2.95
   1  -7  -4   10.10    2.48
   1  -7  -4   10.92    1.83
  -1  -7   4   12.62    2.64
   1   7  -4   13.95    1.71
  -1   7   4   12.20    1.62
   0  -7  -4   33.85    3.91
   0  -7   4   37.81    4.49
   0   7   4   35.35    2.52
   0   7   4   33.64    2.46
  -1   7  -4   10.42    1.58
   1  -7   4   12.43    2.79
   1   7   4   10.26    1.68
   1   7   4   10.87    1.59
  -1  -7  -4   11.05    2.56
   2  -7   4    3.72    2.25
  -2   7  -4    4.63    1.25
   2   7   4    3.46    1.19
  -2  -7  -4    3.54    1.93
   2   7   4    5.56    1.24
   3  -7   4    9.45    2.70
  -3  -7  -4    7.90    2.85
   3   7   4    9.22    1.61
  -3   7  -4    9.31    1.54
  -4   7  -4    5.75    1.27
  -4  -7  -4    4.06    1.91
   4   7   4    2.77    1.02
   3  -8  -4    2.97    1.53
  -3  -8   4    3.18    2.36
   3   8  -4    2.39    1.01
  -3   8   4    3.59    1.22
  -2   8   4   12.37    1.89
   2  -8  -4    7.16    1.68
  -2  -8   4   12.38    3.46
  -1   8   4   13.09    2.05
  -1  -8   4   17.86    3.75
   1  -8  -4   14.33    2.79
   1  -8  -4   11.71    2.10
   0   8   4    2.37    1.31
   0  -8  -4    4.06    1.90
   0   8   4    2.38    1.15
   0   8  -4    1.53    1.00
   0  -8   4    2.05    2.06
  -1  -8  -4   16.59    3.27
  -1   8  -4   17.80    2.24
   1   8   4   17.63    2.07
   1   8   4   14.89    2.11
   1  -8   4   12.73    3.22
   2   8   4   14.22    1.86
   2  -8   4   16.35    3.76
  -2  -8  -4   16.87    3.53
   2   8   4   11.91    1.95
  -2   8  -4   10.79    1.83
 -10   0   5    1.26    1.20
  10   0  -5    2.13    1.24
  10   0  -5    1.51    0.82
   9   0  -5   13.91    1.57
   9   0  -5   14.87    2.13
  -9   0   5   13.95    2.30
   8   0  -5  148.70    6.16
   8   0  -5  150.71    5.66
  -8   0   5  149.14    6.65
   7   0  -5    6.21    1.30
  -7   0   5    5.75    1.41
   7   0  -5    6.57    1.10
  -6   0   5   24.08    2.02
   6   0  -5   21.40    1.80
   6   0  -5   20.82    1.51
   5   0  -5   17.93    1.37
  -5   0   5   18.92    1.77
   5   0  -5   19.68    1.36
   4   0  -5  568.92   15.86
  -4   0   5  578.95   17.46
   4   0  -5  555.67   15.99
  -3   0   5  224.70    8.20
   3   0  -5  226.76    6.72
  -3   0   5  233.78    7.76
   3   0  -5  228.39    6.94
   2   0  -5  569.96   15.71
   2   0  -5  572.68   15.39
  -2   0   5  576.10   17.17
  -2   0   5  563.16   18.90
  -1   0   5    0.52    0.65
  -1   0   5    1.80    0.61
  -1   0   5    1.13    0.35
   1   0  -5    1.65    0.38
   0   0   5   98.66    3.23
   0   0   5  100.69    3.93
   0   0  -5  100.49    3.15
   0   0   5  101.22    4.61
   1   0   5   11.34    1.62
  -1   0  -5   10.84    0.62
  -1   0  -5   13.67    1.20
   2   0   5   26.00    2.28
  -2   0  -5   28.27    0.97
  -2   0  -5   29.16    1.81
   2   0   5   27.92    1.66
   3   0   5  555.18   16.13
  -3   0  -5  561.65   17.29
   3   0   5  563.09   19.91
   4   0   5    3.83    1.48
  -4   0  -5    4.94    1.08
   4   0   5    4.29    0.96
   5   0   5    0.52    1.13
   5   0   5    0.50    0.67
  -5   0  -5   -0.31    0.63
   6   0   5   15.97    2.69
   6   0   5   14.38    1.89
  -6   0  -5   14.02    1.93
  -7   0  -5    0.26    0.75
   7   0   5    1.95    1.75
   7   0   5    2.08    1.13
  -8   0  -5    3.26    1.35
   8   0   5    1.42    1.14
 -10   1   5    2.39    1.43
  10   1  -5    1.84    0.85
  10  -1  -5    2.16    1.40
  10  -1  -5    1.23    0.80
 -10  -1   5    1.90    1.39
  -9   1   5   12.00    2.07
   9   1  -5    8.56    1.33
   9   1  -5   11.55    1.91
   9  -1  -5   10.23    1.42
   9  -1  -5    9.60    1.90
  -9  -1   5   10.65    2.11
   8   1  -5   55.38    3.26
  -8  -1   5   58.13    3.76
   8  -1  -5   57.82    3.02
  -8   1   5   57.06    3.57
   8   1  -5   57.19    3.08
   8  -1  -5   57.73    3.58
   7  -1  -5  131.44    5.44
   7   1  -5  134.76    5.02
   7   1  -5  127.57    5.11
  -7  -1   5  128.33    5.78
  -7   1   5  132.37    5.90
   6  -1  -5    3.07    0.92
   6   1  -5    5.06    0.93
  -6   1   5    3.58    1.08
   6   1  -5    4.10    0.83
  -6   1   5    3.75    0.78
  -6  -1   5    4.68    1.18
  -5   1   5   18.06    1.69
   5  -1  -5   15.72    1.48
   5   1  -5   15.06    1.21
   5   1  -5   16.34    1.21
  -5  -1   5   13.83    1.64
  -5  -1   5   16.55    1.67
  -5   1   5   15.11    1.18
  -4  -1   5  292.89    9.62
   4   1  -5  281.86    8.36
  -4  -1   5  274.78   10.31
   4  -1  -5  294.65    8.76
  -4   1   5  291.11    9.48
  -4   1   5  289.97    8.58
   4   1  -5  287.99    8.70
   3   1  -5  488.88   13.64
   3  -1  -5  483.52   13.52
  -3  -1   5  470.30   14.83
   3   1  -5  480.29   13.10
  -3  -1   5  481.18   16.38
  -3   1   5  493.65   13.53
  -3   1   5  483.90   14.69
  -3   1   5  465.13   15.88
   2   1  -5   86.82    2.61
  -2   1   5   89.43    3.05
   2   1  -5   86.03    3.10
  -2   1   5   88.11    3.97
   2  -1  -5   83.76    3.06
  -2   1   5   89.71    3.52
  -2  -1   5   87.01    3.63
  -2  -1   5   86.26    4.15
  -1  -1   5  371.22   13.35
  -1  -1   5  394.66   10.08
  -1   1   5  376.51   10.53
  -1  -1   5  371.56   11.79
  -1   1   5  378.45   11.64
   1   1  -5  366.95   10.67
  -1   1   5  379.36   13.24
   0  -1   5   83.78    2.80
   0   1   5   90.24    3.17
   0   1  -5   91.17    2.95
   0  -1   5   90.34    4.39
   0   1   5   89.18    4.36
   0   1   5   92.60    2.88
   1  -1   5   66.13    2.48
   1  -1   5   70.94    3.82
   1   1   5   65.39    2.67
  -1   1  -5   67.46    2.27
  -1   1  -5   61.99    2.94
   1   1   5   65.95    2.13
  -1  -1  -5   67.62    2.90
   1   1   5   69.75    3.82
  -2   1  -5  325.16   10.76
   2   1   5  340.70   10.12
  -2  -1  -5  337.43    9.07
   2   1   5  335.82   12.73
  -2  -1  -5  339.14   10.70
   2  -1   5  337.37   12.59
  -2   1  -5  347.88    9.30
   3  -1   5   42.86    3.19
   3  -1   5   42.93    2.34
  -3  -1  -5   42.76    2.43
   3   1   5   40.54    3.31
   3   1   5   41.92    2.35
  -3   1  -5   45.62    2.57
   4   1   5    6.45    1.24
  -4   1  -5    3.98    0.99
   4  -1   5    4.16    1.44
   4  -1   5    4.65    1.06
  -4  -1  -5    6.09    1.21
   4   1   5    4.37    1.55
  -5   1  -5    1.17    0.83
  -5  -1  -5    0.90    0.76
   5   1   5    2.24    1.30
   5  -1   5    2.01    1.37
   5   1   5    1.23    0.87
   5  -1   5    1.06    0.85
   6  -1   5    6.66    1.48
   6   1   5   11.38    1.99
  -6  -1  -5    8.56    1.60
  -6   1  -5    9.77    1.80
   6  -1   5    9.18    2.25
   7  -1   5    2.45    1.14
   7   1   5    2.18    1.15
  -7  -1  -5    2.91    1.68
  -7  -1  -5    2.63    1.23
  -7   1  -5    4.22    1.45
   8   1   5    0.85    1.25
  -8   1  -5    0.72    1.07
  -8  -1  -5    1.09    1.10
   8  -1   5    1.70    1.17
  -9   2   5   -1.21    0.78
   9  -2  -5    0.32    1.05
  -9  -2   5    0.70    1.01
   9   2  -5    0.64    0.70
  -8  -2   5   12.69    2.02
  -8   2   5   11.50    1.95
   8   2  -5   10.87    1.44
  -8   2   5   13.38    1.50
   8  -2  -5   10.56    1.96
   7  -2  -5   32.68    2.51
   7   2  -5   32.88    2.15
  -7  -2   5   36.23    2.65
  -7   2   5   31.34    2.00
  -7   2   5   34.79    2.54
   6   2  -5  162.13    5.76
   6   2  -5  174.72    5.99
  -6  -2   5  162.41    6.58
   6  -2  -5  167.22    6.29
  -6   2   5  164.55    6.55
  -6   2   5  163.30    5.75
  -5   2   5   45.75    2.58
   5  -2  -5   44.34    2.55
   5   2  -5   47.18    2.38
  -5  -2   5   44.21    3.12
   5   2  -5   45.88    2.16
  -5   2   5   44.46    2.21
  -5  -2   5   47.97    2.79
   4   2  -5  219.87    6.56
   4   2  -5  223.97    7.07
   4  -2  -5  220.79    7.23
  -4  -2   5  225.47    7.82
  -4   2   5  221.47    6.97
  -4   2   5  226.64    7.66
  -3  -2   5   11.91    1.36
   3   2  -5   12.44    0.77
  -3  -2   5   13.10    1.67
   3   2  -5   10.68    1.08
  -3   2   5   11.31    1.05
  -3   2   5   11.32    1.23
   3  -2  -5   12.39    1.15
   3  -2  -5   11.52    1.24
   2   2  -5   16.08    1.11
  -2   2   5   15.52    1.04
   2  -2  -5   15.91    1.62
  -2  -2   5   12.32    1.34
  -2  -2   5   17.27    1.99
  -1  -2   5   34.28    2.67
  -1   2   5   36.17    1.91
  -1   2   5   37.97    2.67
   1   2  -5   39.00    1.74
  -1   2   5   39.89    1.90
  -1   2   5   36.80    1.65
  -1  -2   5   40.06    2.17
   0  -2  -5  411.90   12.17
   0   2  -5  413.79   11.38
   0   2  -5  409.55   12.57
   0   2   5  386.10   14.24
   0   2   5  374.70   11.45
   0  -2   5  414.97   14.53
   0   2   5  406.55   11.61
   0  -2   5  406.83   10.90
   1  -2   5  322.63   11.99
  -1   2  -5  320.00   10.31
   1  -2   5  322.78    9.12
  -1   2  -5  332.59    9.17
   1   2   5  318.69    8.89
   1   2   5  339.57    9.68
   1   2   5  286.04   11.72
  -1  -2  -5  314.74    9.95
  -2  -2  -5  111.88    4.30
   2  -2   5  115.89    5.71
   2   2   5  112.16    5.82
  -2   2  -5  112.51    4.55
   2   2   5  110.28    3.37
   2   2   5  117.02    4.34
   2  -2   5  114.00    4.03
  -2   2  -5  111.52    3.67
   3   2   5  224.57    7.68
   3  -2   5  224.16    9.61
  -3   2  -5  229.34    8.20
  -3  -2  -5  229.64    7.91
  -3   2  -5  250.49    7.04
   4   2   5   28.71    2.15
  -4  -2  -5   30.44    3.18
  -4  -2  -5   29.56    2.08
   4  -2   5   29.77    2.72
   4  -2   5   29.22    2.03
  -4   2  -5   30.99    2.23
   5   2   5    1.24    0.81
  -5  -2  -5    2.19    1.39
  -5  -2  -5    0.73    0.73
   5  -2   5    1.71    0.98
  -5   2  -5    0.15    0.84
   5  -2   5    2.12    1.35
   6  -2   5   37.09    3.22
  -6  -2  -5   41.90    4.12
  -6   2  -5   32.24    2.75
   6  -2   5   37.18    2.85
   6   2   5   34.27    2.68
  -6  -2  -5   34.99    2.62
  -7   2  -5   11.77    2.09
  -7  -2  -5   10.15    2.41
   7   2   5   11.06    2.00
  -7  -2  -5   11.12    1.76
   7  -2   5   12.30    2.09
  -8  -2  -5    0.44    1.66
   8   2   5    0.73    1.12
  -8   2  -5    0.53    1.30
   8  -2   5    3.49    1.41
  -8  -2  -5    3.24    1.38
  -9   3   5   10.40    1.55
  -9   3   5   15.53    2.30
   9  -3  -5   11.42    2.25
   9   3  -5   10.98    1.56
  -9  -3   5   11.60    2.13
   8   3  -5   30.62    2.15
  -8   3   5   31.93    2.65
   8  -3  -5   25.15    2.75
  -8   3   5   34.92    2.25
  -8  -3   5   29.18    2.82
   7   3  -5   11.15    1.44
  -7   3   5    9.63    1.31
  -7   3   5   10.96    1.69
  -7  -3   5   14.30    1.97
   7  -3  -5   12.03    1.89
  -6   3   5  133.44    4.99
  -6  -3   5  137.96    5.82
   6  -3  -5  133.53    5.53
   6   3  -5  133.87    5.07
  -6   3   5  133.65    5.63
   5   3  -5   25.44    1.78
  -5   3   5   24.81    1.91
  -5   3   5   25.68    1.71
   5  -3  -5   25.56    1.95
  -5  -3   5   29.96    2.12
  -4  -3   5   33.00    2.20
   4  -3  -5   33.66    2.12
   4   3  -5   36.76    2.01
  -4   3   5   34.79    1.89
  -3  -3   5  113.96    4.71
   3  -3  -5  111.27    4.90
   3   3  -5  115.95    4.23
  -3  -3   5  112.16    5.87
  -3   3   5  136.19    4.52
  -3   3   5  115.27    4.41
   3  -3  -5  116.85    4.49
  -2  -3   5  134.26    5.17
  -2  -3   5  129.91    6.20
  -2   3   5  137.55    4.76
  -2   3   5  132.75    5.18
  -2   3   5  134.98    4.57
   2  -3  -5  140.14    5.94
   2   3  -5  132.07    4.62
   1   3  -5   24.80    1.47
  -1   3   5   26.25    1.70
  -1   3   5   26.97    1.44
  -1  -3   5   25.72    2.55
  -1  -3   5   24.19    1.88
   1  -3  -5   30.97    2.44
  -1   3   5   25.68    1.52
   0  -3   5  186.41    5.21
   0   3  -5  170.66    6.21
   0  -3  -5  174.00    7.65
   0   3   5  171.94    5.43
   0   3  -5  174.84    5.65
   0  -3  -5  173.86    5.74
   0  -3   5  175.12    7.77
   0   3   5  175.54    5.98
  -1  -3  -5  127.56    6.38
   1   3   5  140.72    4.42
   1   3   5  135.72    4.94
   1  -3   5  140.39    4.47
  -1  -3  -5  140.59    4.77
  -1   3  -5  138.71    5.26
   1  -3   5  140.06    6.51
  -1   3  -5  141.30    4.60
   2   3   5   32.18    2.09
  -2  -3  -5   34.68    1.83
   2  -3   5   36.42    3.03
   2  -3   5   35.58    1.94
   2   3   5   35.30    1.52
  -2  -3  -5   37.43    3.10
  -2   3  -5   31.97    2.17
  -2   3  -5   34.85    1.78
   3  -3   5   45.83    3.43
  -3   3  -5   46.42    2.09
   3  -3   5   41.09    2.40
  -3   3  -5   48.61    2.74
  -3  -3  -5   40.19    3.55
  -3  -3  -5   45.15    2.33
   3   3   5   48.14    2.56
   4   3   5  217.59    7.88
  -4   3  -5  220.33    8.15
   4  -3   5  216.96    7.60
  -4  -3  -5  218.60   10.06
  -4  -3  -5  218.74    7.75
   4  -3   5  214.74    9.55
   5  -3   5   95.66    5.79
   5  -3   5   91.85    4.54
  -5   3  -5   95.68    4.77
  -5  -3  -5   99.06    6.55
   5   3   5   96.59    4.57
  -5  -3  -5   97.00    4.37
  -6  -3  -5  106.77    6.95
   6   3   5  113.70    5.32
   6  -3   5  114.40    5.27
  -6   3  -5  122.91    5.86
  -6  -3  -5  108.20    5.06
  -7  -3  -5   29.38    3.77
  -7  -3  -5   19.12    2.27
  -7   3  -5   21.07    2.71
   7   3   5   25.20    2.47
   7  -3   5   27.08    2.66
   8  -3   5    1.53    1.38
  -8  -3  -5    2.44    1.74
   8   3   5    2.58    1.32
  -8   3  -5    0.89    1.18
  -9   4   5    6.68    1.54
   9   4  -5    4.69    1.16
   9  -4  -5    6.77    1.99
  -9   4   5    6.41    1.35
  -9  -4   5    5.43    1.59
   8  -4  -5    7.56    1.74
  -8   4   5    8.08    1.35
  -8   4   5   12.16    1.95
   8   4  -5    7.67    1.28
  -8  -4   5   10.92    1.95
  -7  -4   5    4.07    1.21
  -7   4   5    2.04    1.05
  -7   4   5    3.34    0.97
   7  -4  -5    4.27    1.32
   7   4  -5    3.04    0.92
   6  -4  -5   15.23    1.96
   6   4  -5   11.60    1.52
  -6  -4   5   11.75    1.73
  -6   4   5   13.15    1.56
  -6  -4   5    8.14    2.17
  -6   4   5   14.28    1.77
  -5   4   5   37.94    2.16
   5   4  -5   35.37    2.18
  -5  -4   5   31.76    2.34
   5  -4  -5   37.09    2.54
  -5   4   5   34.60    2.31
  -4  -4   5   75.97    3.62
   4  -4  -5   78.32    3.73
  -4  -4   5   76.15    4.84
   4   4  -5   78.27    3.43
  -4   4   5   74.09    3.36
  -4   4   5   76.13    3.28
  -3  -4   5   50.21    2.76
   3  -4  -5   51.66    2.69
  -3  -4   5   51.16    3.84
  -3   4   5   49.88    2.45
   3   4  -5   52.17    2.56
   3  -4  -5   53.21    3.22
  -3   4   5   51.60    2.46
   2  -4  -5    1.20    1.01
   2   4  -5    0.88    0.54
  -2   4   5    0.43    0.44
  -2  -4   5    1.18    0.72
  -2  -4   5   -0.68    0.91
   1   4  -5   87.53    3.49
  -1  -4   5   85.47    5.09
  -1   4   5   87.11    3.63
  -1   4   5   82.22    3.28
  -1  -4   5   79.30    3.73
   1  -4  -5   87.31    4.76
   0   4   5   37.56    1.87
   0   4  -5   37.92    2.04
   0  -4   5   36.90    3.26
   0   4   5   43.19    2.36
   0  -4  -5   40.27    3.33
   0   4  -5   36.23    2.24
   1  -4   5   20.37    2.69
   1  -4   5   16.90    1.23
  -1   4  -5   17.84    1.38
   1   4   5   18.21    1.68
  -1  -4  -5   15.27    2.37
  -1   4  -5   17.67    1.75
   2  -4   5   31.12    1.89
   2   4   5   34.06    1.71
   2  -4   5   32.84    3.02
  -2   4  -5   31.82    2.18
  -2   4  -5   29.46    1.82
  -2  -4  -5   39.51    3.76
   2   4   5   31.15    2.14
  -3   4  -5  116.38    4.34
  -3  -4  -5   99.23    6.27
   3   4   5  111.96    4.79
   3  -4   5  111.88    4.58
  -3   4  -5  110.71    4.89
   3  -4   5  103.90    5.97
   4  -4   5  108.64    6.10
   4   4   5  111.57    4.84
  -4   4  -5  108.72    5.05
  -4  -4  -5  109.23    6.58
   4  -4   5  108.43    4.72
   5  -4   5   70.82    3.86
  -5   4  -5   74.31    4.22
  -5  -4  -5   71.13    5.34
   5   4   5   71.27    3.93
   5  -4   5   75.57    5.01
   6  -4   5   18.54    2.35
  -6   4  -5   14.26    2.07
  -6  -4  -5   21.43    3.51
   6   4   5   17.04    2.19
  -7  -4  -5   -0.39    1.40
   7  -4   5    0.97    1.23
   7   4   5   -0.49    0.88
  -7   4  -5   -0.31    1.06
   8   5  -5    1.30    0.83
   8  -5  -5   -1.24    1.06
  -8   5   5    3.29    1.02
   7   5  -5    1.84    0.80
   7  -5  -5    0.81    0.96
  -7   5   5    3.47    1.03
  -7  -5   5   -0.15    1.51
   6  -5  -5   57.84    3.51
   6   5  -5   53.79    3.03
  -6   5   5   51.38    2.91
  -6  -5   5   54.21    4.57
   5   5  -5  203.56    7.40
   5  -5  -5  211.75    8.00
  -5   5   5  210.34    7.28
   4  -5  -5   30.58    2.28
   4   5  -5   29.21    2.09
  -4   5   5   32.12    2.13
  -4  -5   5   23.57    3.43
   3   5  -5   12.84    1.56
   3  -5  -5   16.06    1.79
  -3  -5   5   15.49    1.71
  -3   5   5   16.00    1.52
  -3  -5   5   13.62    2.78
  -2   5   5   -1.43    0.46
  -2  -5   5    0.02    0.71
  -2  -5   5    0.53    1.30
   2  -5  -5    0.23    0.63
   2   5  -5    0.11    0.47
   2  -5  -5    0.59    1.19
   1   5  -5   34.65    2.14
  -1  -5   5   38.64    3.53
  -1   5   5   32.79    2.20
   1  -5  -5   40.44    3.70
  -1   5   5   32.80    1.91
   1   5  -5   31.35    2.05
   0  -5   5   84.76    5.36
   0   5   5   78.47    3.82
   0   5   5   82.05    3.45
   0   5  -5   79.23    3.54
   0  -5  -5   79.09    5.29
   0   5  -5   76.49    3.62
   1  -5   5   86.06    5.48
  -1  -5  -5   87.73    5.63
   1   5   5   86.41    3.51
   1   5   5   87.79    4.05
  -1   5  -5   93.05    3.83
   2   5   5   28.82    1.80
   2   5   5   29.52    2.13
  -2   5  -5   27.43    2.13
  -2   5  -5   28.47    1.97
  -2  -5  -5   34.68    3.77
   2  -5   5   29.44    3.53
  -3   5  -5    6.96    1.24
  -3   5  -5    5.18    1.19
   3   5   5    4.30    1.14
   3  -5   5    7.05    2.30
  -3  -5  -5    7.83    2.30
   4   5   5   -0.35    0.65
   4  -5   5    0.68    1.57
  -4  -5  -5    0.56    1.37
  -4   5  -5    0.86    1.03
  -5   5  -5    4.79    1.33
   5   5   5    3.00    1.02
  -5  -5  -5    1.82    1.45
   5  -5   5    4.76    1.41
  -6   5  -5    8.63    1.84
   6  -5   5    7.06    1.60
  -6  -5  -5    9.05    2.64
   6   5   5    8.35    1.60
   7   6  -5    2.09    0.95
   7  -6  -5    4.58    1.72
  -7   6   5    6.68    1.45
  -7  -6   5    7.45    2.46
  -6   6   5   14.90    1.85
  -6  -6   5   15.06    3.27
   6   6  -5   14.30    1.89
   6  -6  -5   16.34    2.37
   5   6  -5    4.71    1.16
   5  -6  -5    4.51    1.30
  -5   6   5    6.71    1.27
  -5  -6   5    5.97    1.95
   4   6  -5   29.96    2.22
   4  -6  -5   33.28    2.59
  -4   6   5   31.84    2.30
  -4  -6   5   26.67    3.78
  -3  -6   5    1.60    1.93
   3   6  -5    1.91    0.76
  -3   6   5    0.18    0.86
   3  -6  -5    1.11    0.99
   2  -6  -5    1.94    1.56
  -2   6   5    3.26    1.01
   2   6  -5    1.92    0.76
  -2  -6   5    2.94    1.86
   2  -6  -5    2.01    1.04
  -1  -6   5    8.39    2.32
  -1   6   5   12.81    1.52
   1   6  -5   13.21    1.58
  -1   6   5   13.02    1.69
   1  -6  -5   10.29    2.28
   0  -6  -5   24.66    3.31
   0   6   5   20.78    1.87
   0  -6   5   24.09    3.19
   0   6  -5   15.01    1.57
   0   6   5   19.45    1.96
  -1  -6  -5   26.99    3.52
   1  -6   5   20.89    3.42
   1   6   5   19.62    1.77
   1   6   5   22.68    2.26
   2  -6   5    3.69    2.14
  -2   6  -5    4.55    1.10
  -2  -6  -5    2.92    1.94
   2   6   5    4.18    1.04
   2   6   5    3.04    0.95
  -3  -6  -5   39.85    4.65
   3   6   5   39.51    2.76
  -3   6  -5   36.69    2.43
   3  -6   5   39.89    4.43
  -4   6  -5   10.21    1.51
   4  -6   5   15.58    3.22
  -4  -6  -5    6.97    2.64
   4   6   5   11.07    1.82
   5   6   5   10.27    1.77
  -5  -6  -5   12.56    3.23
  -5  -7   5    2.29    2.22
   5  -7  -5    4.85    1.59
  -5   7   5    5.22    1.31
   5   7  -5    6.39    1.43
  -4   7   5   -0.63    0.69
  -4  -7   5    2.44    1.91
   4  -7  -5    1.96    1.15
   4   7  -5   -0.10    0.71
   3  -7  -5    0.77    1.12
  -3  -7   5    1.31    2.00
   3   7  -5    1.02    0.79
  -3   7   5    0.19    0.74
  -2   7   5   28.50    2.23
   2   7  -5   34.44    2.48
   2  -7  -5   29.26    2.76
  -2  -7   5   27.63    3.98
   1  -7  -5   18.22    2.99
  -1   7   5   18.95    1.99
  -1  -7   5   16.33    3.20
   1   7  -5   22.62    2.07
   0   7   5    1.70    0.85
   0  -7   5   -0.37    1.70
   0  -7  -5    1.30    1.31
   0   7  -5    0.44    0.64
   0   7   5    1.04    0.86
   1  -7   5    9.58    2.75
  -1   7  -5    7.60    1.40
   1   7   5    8.89    1.50
   1   7   5    9.67    1.44
  -1  -7  -5   12.17    2.91
   2  -7   5    0.00    1.98
  -2  -7  -5    1.40    1.64
  -2   7  -5   -0.10    0.74
   2   7   5    1.57    0.86
   3  -7   5    7.93    2.95
  -3   7  -5    5.34    1.23
  -3  -7  -5    2.51    2.01
   3   7   5    4.28    1.25
   4   7   5    6.46    1.49
  -4  -7  -5    3.97    2.31
  -4   7  -5    7.24    1.55
   2   8  -5    4.59    1.26
  -2   8   5    3.57    1.29
   2  -8  -5    3.68    1.50
  -2  -8   5    6.85    3.04
   1  -8  -5    7.12    1.78
   1  -8  -5    9.14    2.52
  -1   8   5   12.96    1.86
  -1  -8   5   10.82    3.14
   0   8   5    2.89    1.25
   0  -8  -5    1.46    1.50
   0   8  -5    0.88    0.95
   0  -8   5    3.81    2.33
   0   8   5    2.30    1.11
  -1  -8  -5    3.06    1.88
  -1   8  -5    2.32    1.12
   1   8   5    3.63    1.13
   1   8   5    0.43    0.99
   1  -8   5   -0.33    2.28
 -10   0   6    2.39    1.30
  10   0  -6    0.78    0.83
   9   0  -6    0.08    0.94
  -9   0   6    0.01    0.90
   9   0  -6   -0.63    0.52
  -8   0   6    0.74    0.97
   8   0  -6    0.51    0.63
   8   0  -6    2.47    1.01
   7   0  -6    2.50    0.95
   7   0  -6    2.90    0.85
  -7   0   6    4.98    1.37
   6   0  -6    7.40    1.10
   6   0  -6    9.19    1.19
  -6   0   6    9.29    1.53
   5   0  -6    2.01    0.60
  -5   0   6    1.36    0.84
   5   0  -6    1.15    0.55
  -4   0   6  289.76   10.52
   4   0  -6  299.33    9.02
  -4   0   6  306.22   10.07
   4   0  -6  300.14    8.85
  -3   0   6   63.80    3.03
   3   0  -6   69.55    2.74
  -3   0   6   72.89    3.54
   3   0  -6   70.75    2.57
   2   0  -6 1872.84   49.60
   2   0  -6 1823.12   48.98
  -2   0   6 1897.88   53.59
  -1   0   6  523.03   14.21
  -1   0   6  522.62   18.01
  -1   0   6  515.09   15.91
   1   0  -6  518.48   14.40
   0   0   6  113.58    5.44
   0   0  -6  111.27    3.59
   0   0   6  114.71    3.70
  -1   0  -6   11.14    0.66
   1   0   6    9.30    0.90
  -1   0  -6   13.58    1.35
   1   0   6   12.66    1.92
  -2   0  -6   34.73    2.08
   2   0   6   34.96    1.90
   2   0   6   31.53    2.60
   3   0   6   23.60    2.87
  -3   0  -6   26.50    1.98
   3   0   6   24.41    1.83
  -4   0  -6    8.69    1.47
   4   0   6    7.78    1.35
   4   0   6    8.36    2.06
   5   0   6    0.45    0.78
   5   0   6    1.58    1.46
  -5   0  -6    1.98    0.91
   6   0   6    0.35    0.86
   6   0   6   -0.32    1.52
  -6   0  -6    0.89    0.91
  -7   0  -6    0.45    1.00
   7   0   6   -0.41    0.91
   7   0   6    1.13    1.94
  -8   0  -6    0.71    1.13
   8   0   6   -0.53    0.96
  10  -1  -6    2.18    1.33
 -10   1   6    0.53    1.20
 -10  -1   6   -0.90    1.03
  10   1  -6   -0.26    0.69
  10  -1  -6   -0.71    0.65
  -9  -1   6   13.47    2.27
  -9   1   6   18.15    2.53
   9  -1  -6   10.01    1.49
   9   1  -6    9.87    1.45
   9  -1  -6   10.80    1.90
   8   1  -6    1.90    0.86
  -8  -1   6    0.63    1.01
  -8   1   6    1.51    1.22
   8  -1  -6    0.89    0.99
   8  -1  -6    1.07    0.66
   7  -1  -6   67.16    3.31
  -7  -1   6   63.46    3.77
   7  -1  -6   68.07    3.49
   7   1  -6   68.73    3.26
  -7   1   6   62.89    3.78
   6   1  -6  149.13    5.33
  -6  -1   6  152.17    6.22
   6  -1  -6  149.36    5.65
   6   1  -6  150.25    5.45
  -6   1   6  147.03    6.14
  -5  -1   6   21.75    1.79
   5   1  -6   21.71    1.39
  -5   1   6   22.38    1.49
   5   1  -6   22.01    1.54
   5  -1  -6   21.74    1.67
  -5  -1   6   20.58    1.96
  -5   1   6   20.12    1.88
   4  -1  -6   31.46    1.74
  -4  -1   6   27.09    2.27
  -4   1   6   29.48    1.95
  -4   1   6   30.66    1.72
  -4   1   6   29.68    2.07
   4   1  -6   30.75    1.49
   4   1  -6   27.94    1.73
  -4  -1   6   28.33    2.03
   3   1  -6    8.33    0.66
  -3   1   6    7.78    1.26
  -3  -1   6    9.74    1.29
  -3   1   6    9.02    0.93
   3  -1  -6    8.06    0.89
  -3   1   6   10.18    1.29
   3   1  -6    7.91    0.95
   2   1  -6   19.79    0.88
  -2  -1   6   21.89    2.14
  -2   1   6   17.65    1.91
  -2  -1   6   21.81    1.64
  -2   1   6   19.67    1.56
  -2   1   6   20.17    1.22
   2   1  -6   19.76    1.27
  -1   1   6  177.91    5.40
  -1  -1   6  180.29    7.50
  -1   1   6  180.37    7.39
   1   1  -6  172.52    5.52
  -1  -1   6  178.14    4.98
  -1  -1   6  171.18    6.37
  -1   1   6  182.92    6.20
   0   1   6   74.42    2.86
   0   1  -6   77.02    3.37
   0   1  -6   76.77    2.69
   0  -1   6   78.21    2.56
   0   1   6   76.15    2.61
   0   1   6   79.16    4.14
   0  -1   6   82.69    4.27
   0  -1  -6   76.29    3.26
   1   1   6   40.95    2.10
  -1   1  -6   41.38    1.67
   1   1   6   42.58    3.23
   1  -1   6   45.24    3.10
  -1  -1  -6   42.85    1.58
   1  -1   6   41.92    1.90
  -1  -1  -6   39.71    2.21
  -1   1  -6   42.63    2.39
   2   1   6  214.08    6.81
   2  -1   6  207.42    6.58
  -2   1  -6  203.71    7.40
   2  -1   6  207.26    8.85
   2   1   6  209.28    9.02
  -2  -1  -6  205.46    7.21
  -2   1  -6  208.18    5.97
   3  -1   6  118.54    6.11
  -3   1  -6  125.77    5.17
   3   1   6  124.24    6.40
   3   1   6  126.38    4.80
   3  -1   6  126.76    4.69
  -3  -1  -6  122.84    5.01
   4  -1   6   20.60    1.86
   4   1   6   23.33    2.07
   4  -1   6   25.45    2.86
   4   1   6   22.41    2.96
  -4  -1  -6   22.35    2.05
  -4   1  -6   23.07    2.16
   5   1   6    7.41    1.45
   5  -1   6    9.06    1.53
  -5  -1  -6    9.28    1.61
  -5   1  -6    6.83    1.50
   5   1   6    7.86    2.23
   5  -1   6    9.58    2.37
   6  -1   6    6.75    2.21
   6   1   6    4.69    1.42
   6   1   6    8.63    2.37
  -6  -1  -6    7.89    1.57
   6  -1   6    7.10    1.55
  -6   1  -6    6.92    1.57
   7   1   6    4.76    1.52
  -7  -1  -6    6.77    2.17
  -7   1  -6    3.56    1.42
  -7  -1  -6    5.25    1.45
   7  -1   6    4.44    1.41
  -8  -1  -6   11.04    2.03
   8   1   6   11.67    2.15
  -8   1  -6    8.48    1.90
   8  -1   6   11.88    2.32
   9  -2  -6    3.94    1.04
   9   2  -6    1.24    0.85
  -9  -2   6    3.96    1.44
  -9   2   6    3.35    1.46
   9  -2  -6    3.88    1.50
  -8   2   6   12.56    1.51
  -8   2   6   16.93    2.28
   8  -2  -6   15.21    2.17
   8   2  -6   13.82    1.66
  -8  -2   6   13.95    2.05
  -7   2   6  119.41    5.49
   7   2  -6  124.03    5.04
  -7  -2   6  124.36    5.74
  -7   2   6  125.14    4.77
   7  -2  -6  126.65    5.41
  -6   2   6  185.66    7.25
   6  -2  -6  184.65    6.79
  -6   2   6  188.53    6.43
  -6  -2   6  189.94    7.50
   6   2  -6  193.24    6.68
  -5   2   6  160.11    5.51
  -5  -2   6  158.10    6.29
   5  -2  -6  155.03    5.74
  -5  -2   6  158.01    6.94
  -5   2   6  163.30    6.21
   5   2  -6  162.34    5.66
  -4   2   6   81.44    3.72
   4  -2  -6   84.91    3.49
  -4  -2   6   81.70    3.88
   4   2  -6   85.46    3.36
  -4   2   6   85.76    3.35
   3  -2  -6   11.13    1.21
  -3   2   6   13.49    1.40
   3   2  -6   11.38    1.13
  -3  -2   6   13.86    2.07
  -3   2   6    9.82    1.05
  -3  -2   6   11.29    1.50
  -2  -2   6   95.05    4.03
   2   2  -6   91.94    3.38
  -2   2   6   91.49    4.52
  -2   2   6   79.85    3.59
  -2   2   6   90.50    3.70
  -2  -2   6   89.43    4.66
  -2   2   6   88.97    3.24
   1   2  -6   65.86    2.56
  -1   2   6   65.56    2.41
  -1   2   6   62.38    3.72
  -1  -2   6   62.30    3.07
  -1   2   6   52.04    2.61
  -1  -2   6   61.85    3.75
   0   2   6  160.25    7.10
   0   2  -6  156.70    5.83
   0   2   6  160.14    4.89
   0   2  -6  163.58    5.10
   0  -2   6  166.54    7.27
   0   2   6  162.05    5.39
   0  -2   6  158.52    4.64
   0  -2  -6  150.50    5.45
   1  -2   6   32.82    2.81
  -1   2  -6   25.94    1.95
   1   2   6   30.12    1.81
  -1   2  -6   30.83    1.48
   1  -2   6   30.64    1.51
  -1  -2  -6   27.18    1.69
   1   2   6   29.50    3.02
   1   2   6   28.68    1.32
  -2   2  -6    5.71    0.68
  -2   2  -6    5.40    1.06
  -2  -2  -6    5.78    0.97
   2   2   6    6.47    1.16
   2  -2   6    5.03    0.90
   2  -2   6    7.22    1.70
   2   2   6    3.79    1.57
  -3  -2  -6    8.88    1.32
   3   2   6    8.88    2.10
   3  -2   6   12.86    2.17
  -3   2  -6   10.17    1.44
   3   2   6    9.61    1.44
   3  -2   6    4.26    0.93
   4   2   6    4.26    1.09
   4  -2   6    6.18    1.72
  -4   2  -6    5.53    1.33
   4  -2   6    4.77    1.18
  -4  -2  -6    7.33    1.36
   5   2   6   -0.07    0.78
  -5   2  -6    2.64    1.14
   5  -2   6    0.41    1.52
   5  -2   6    3.69    1.33
  -5  -2  -6    2.84    1.07
  -5  -2  -6    3.11    1.63
   6  -2   6    5.19    2.19
  -6  -2  -6    7.90    2.27
  -6   2  -6    7.55    1.65
   6   2   6    6.73    1.50
   6  -2   6    6.90    1.72
  -6  -2  -6    7.35    1.58
  -7  -2  -6   31.21    3.77
  -7   2  -6   26.64    2.93
   7   2   6   31.24    2.83
   7  -2   6   28.97    2.96
   8  -2   6   14.91    2.32
   8   2   6   11.79    2.04
  -8  -2  -6   10.11    2.01
  -8   2  -6    7.57    1.86
  -8  -2  -6   10.48    2.88
  -9  -3   6    1.81    1.18
   9  -3  -6    2.25    1.34
   9   3  -6    0.56    0.76
  -9   3   6    0.94    0.79
  -9   3   6    2.45    1.33
  -8   3   6    2.92    1.24
  -8   3   6    2.20    0.83
  -8  -3   6    2.47    1.27
   8   3  -6    1.51    0.82
   8  -3  -6    4.20    1.39
  -7  -3   6    0.51    0.85
  -7   3   6   -0.78    0.47
   7   3  -6    0.20    0.68
  -7   3   6    0.80    0.91
   7  -3  -6    0.91    0.94
   6   3  -6   70.10    3.37
  -6   3   6   73.26    3.28
  -6  -3   6   66.95    3.82
  -6   3   6   70.47    3.79
   6  -3  -6   75.35    3.78
  -5   3   6   49.27    2.50
  -5  -3   6   44.34    2.87
   5  -3  -6   49.37    2.86
  -5  -3   6   50.87    3.77
   5   3  -6   49.70    2.58
  -5   3   6   45.28    2.75
   4  -3  -6   23.70    1.81
  -4   3   6   23.39    1.57
   4   3  -6   24.13    1.68
  -4  -3   6   21.36    2.44
  -4  -3   6   22.94    1.86
  -3  -3   6   39.53    3.19
   3   3  -6   41.39    2.07
  -3   3   6   31.12    1.79
   3  -3  -6   41.95    2.24
  -3  -3   6   40.86    2.47
   3  -3  -6   42.51    2.67
  -3   3   6   40.79    2.00
   2   3  -6    9.73    1.10
   2  -3  -6   13.98    1.82
  -2   3   6    7.70    1.17
  -2   3   6    8.71    0.97
  -2  -3   6   10.72    1.97
  -2  -3   6   11.57    1.46
  -2   3   6    9.14    1.09
  -1   3   6   18.61    1.58
  -1   3   6   15.89    1.16
  -1   3   6   18.68    1.38
  -1  -3   6   17.66    2.38
   1   3  -6   16.66    1.25
   1  -3  -6   18.16    2.16
  -1  -3   6   18.80    1.79
   0   3   6   12.24    1.37
   0   3  -6   10.57    1.05
   0  -3  -6    9.64    1.82
   0   3  -6   10.65    1.34
   0  -3  -6   12.22    1.11
   0  -3   6   12.50    1.91
  -1   3  -6   34.76    1.77
   1   3   6   28.13    1.86
  -1  -3  -6   32.46    2.95
  -1  -3  -6   29.84    1.71
   1   3   6   30.93    1.52
   1  -3   6   31.71    1.57
   1  -3   6   31.64    2.90
  -1   3  -6   28.20    2.12
   2  -3   6   85.78    3.42
   2  -3   6   87.09    5.15
   2   3   6   84.93    3.74
  -2   3  -6   87.09    4.02
  -2   3  -6   85.73    3.23
  -2  -3  -6   86.51    3.61
  -2  -3  -6   87.09    5.32
   3  -3   6    7.17    1.23
   3  -3   6    9.86    2.19
  -3  -3  -6    6.11    1.13
  -3  -3  -6    5.72    1.78
   3   3   6   10.19    1.56
  -3   3  -6    7.58    1.40
   4   3   6  157.51    5.98
  -4  -3  -6  149.12    7.90
   4  -3   6  153.04    7.54
  -4   3  -6  155.67    6.26
   4  -3   6  114.73    5.39
  -4  -3  -6  151.98    5.76
  -5  -3  -6   35.50    2.61
   5  -3   6   40.70    3.63
   5   3   6   35.57    2.82
   5  -3   6   37.95    2.69
  -5  -3  -6   34.52    3.82
  -5   3  -6   32.37    2.96
  -6   3  -6   33.33    2.82
   6  -3   6   30.11    2.82
  -6  -3  -6   30.25    2.61
   6   3   6   37.26    2.84
   6  -3   6   30.11    3.69
  -6  -3  -6   34.45    4.30
   7   3   6    7.33    1.66
  -7   3  -6    8.74    1.94
   7  -3   6    3.35    1.44
  -7  -3  -6    7.66    2.29
  -8  -4   6    1.22    0.95
   8  -4  -6    0.22    1.07
  -8   4   6    3.36    0.94
  -8   4   6    1.98    1.01
   8   4  -6    2.53    0.85
  -7  -4   6   27.79    2.81
   7   4  -6   28.59    2.15
  -7   4   6   31.54    2.61
   7  -4  -6   29.51    2.82
  -7   4   6   29.97    2.17
  -6  -4   6   16.79    2.64
   6   4  -6   31.69    2.22
  -6  -4   6   33.72    2.53
   6  -4  -6   31.81    2.43
  -6   4   6   28.01    2.12
  -6   4   6   32.08    2.38
  -5  -4   6   73.78    3.86
  -5  -4   6   74.27    5.14
  -5   4   6   73.39    3.71
  -5   4   6   76.03    3.47
   5   4  -6   74.83    3.59
   5  -4  -6   76.58    3.85
  -4  -4   6  104.83    5.98
   4   4  -6  106.72    4.42
  -4   4   6  103.02    4.20
   4  -4  -6  104.79    4.62
  -4   4   6  112.41    4.61
  -4  -4   6  104.25    4.79
   3  -4  -6   37.44    2.40
  -3   4   6   34.26    2.01
  -3  -4   6   34.54    2.48
  -3  -4   6   35.45    3.56
   3   4  -6   35.69    2.11
  -2   4   6   33.55    2.30
   2   4  -6   34.75    2.05
  -2  -4   6   35.99    2.42
  -2  -4   6   36.24    3.26
   2  -4  -6   35.09    2.88
  -2   4   6   35.74    1.96
  -1   4   6   15.59    1.55
  -1  -4   6   15.76    2.56
   1   4  -6   15.20    1.39
   1  -4  -6   17.53    2.27
  -1   4   6   12.73    1.20
   0   4  -6    8.59    1.06
   0   4   6    5.01    1.07
   0  -4   6    6.77    1.85
   0   4   6    8.49    1.00
   0   4  -6    6.59    1.27
   0  -4  -6    8.27    1.89
  -1   4  -6   13.36    1.55
  -1  -4  -6   14.86    2.34
   1   4   6   13.76    1.17
   1   4   6   12.23    1.53
  -1   4  -6   11.92    1.25
   1  -4   6   18.83    2.63
   2   4   6   25.31    1.99
  -2  -4  -6   25.24    3.19
  -2   4  -6   24.08    2.21
  -2   4  -6   24.37    1.66
   2  -4   6   26.88    3.24
  -3   4  -6   21.52    1.51
  -3  -4  -6   23.12    3.06
   3   4   6   19.61    2.17
   3  -4   6   22.79    3.08
  -3   4  -6   18.65    2.06
  -4   4  -6   24.26    2.38
   4  -4   6   14.42    1.85
   4  -4   6   27.18    3.50
   4   4   6   25.09    2.27
  -4  -4  -6   21.93    3.28
   5  -4   6   95.91    5.89
  -5   4  -6   93.32    4.89
  -5  -4  -6   89.16    6.44
   5  -4   6   96.48    4.70
   5   4   6   94.10    4.75
   6   4   6   32.49    2.90
  -6   4  -6   32.92    3.04
   6  -4   6   29.24    2.84
  -6  -4  -6   27.08    3.81
   7   4   6   -0.40    0.85
   7  -4   6   -0.64    1.17
  -7  -4  -6    0.80    1.92
  -7   4  -6   -0.61    0.96
   7   5  -6    6.75    1.35
  -7   5   6    8.35    1.51
   7  -5  -6   10.94    1.91
  -6   5   6    0.65    0.78
   6   5  -6    1.45    0.80
   6  -5  -6   -0.17    0.78
  -6  -5   6   -0.96    1.64
   5  -5  -6  110.14    5.04
  -5   5   6  102.59    4.46
   5   5  -6  107.64    4.62
  -5  -5   6  102.25    6.40
   4  -5  -6   53.78    3.15
  -4  -5   6   61.98    4.79
  -4  -5   6   56.73    3.37
  -4   5   6   61.93    3.04
   4   5  -6   61.07    3.15
  -3   5   6   43.03    2.44
   3  -5  -6   43.28    2.69
   3   5  -6   43.40    2.51
  -3  -5   6   43.01    2.71
  -3  -5   6   38.61    4.21
   2  -5  -6    9.20    2.06
  -2   5   6    7.58    1.24
  -2  -5   6    5.83    2.24
   2   5  -6    6.86    1.18
  -2  -5   6    5.72    1.23
  -1   5   6    0.23    0.72
   1   5  -6    0.17    0.40
   1  -5  -6    1.77    1.23
  -1   5   6    0.03    0.65
   1   5  -6    1.13    0.62
  -1  -5   6    1.48    1.47
   0   5  -6   23.17    1.61
   0  -5   6   23.33    3.33
   0   5   6   26.84    2.07
   0   5  -6   14.99    1.72
   0   5   6   24.42    1.71
   0  -5  -6   29.70    3.37
   1  -5   6    2.22    1.84
  -1  -5  -6    1.65    1.36
   1   5   6    0.49    0.43
  -1   5  -6   -0.06    0.55
   1   5   6    2.30    0.90
  -1   5  -6    2.58    0.92
  -2  -5  -6    5.14    2.03
  -2   5  -6    4.86    1.05
   2   5   6    4.06    1.01
   2  -5   6    8.03    2.35
  -2   5  -6    3.67    1.15
  -3  -5  -6   19.85    3.37
  -3   5  -6   15.56    1.95
   3  -5   6   19.37    3.30
   3   5   6   17.19    1.97
  -3   5  -6   22.20    1.87
   4   5   6   32.21    2.54
  -4   5  -6   29.05    2.51
  -4  -5  -6   38.47    4.50
  -5   5  -6   12.76    2.02
   5  -5   6   10.66    2.76
   5   5   6   11.45    1.84
  -5  -5  -6    5.84    2.37
   6   5   6   14.38    2.10
  -6   5  -6   17.14    2.48
  -6  -5  -6   14.39    3.21
  -6  -6   6    8.85    2.89
   6  -6  -6   12.56    2.08
   6   6  -6   12.07    1.62
  -6   6   6   11.17    1.67
  -5  -6   6   13.92    3.06
   5   6  -6   12.35    1.76
  -5   6   6   17.50    1.92
   5  -6  -6   17.12    2.25
   4  -6  -6   66.66    3.83
  -4  -6   6   65.60    5.38
   4   6  -6   60.82    3.38
  -4   6   6   64.93    3.42
  -3  -6   6   20.73    3.29
  -3   6   6   23.05    2.01
   3  -6  -6   19.60    2.08
   3   6  -6   22.21    2.06
  -2  -6   6    7.31    2.28
   2  -6  -6    1.53    1.03
   2  -6  -6    3.29    1.69
  -2   6   6    1.99    0.89
   2   6  -6    2.56    0.92
   1  -6  -6   10.07    2.37
  -1  -6   6    9.35    2.54
  -1   6   6   10.17    1.68
   1   6  -6    9.13    1.35
  -1   6   6   10.47    1.48
   0   6   6   14.78    1.37
   0   6  -6   13.70    1.60
   0   6   6   20.36    2.15
   0  -6  -6   23.31    3.82
   0  -6   6   25.52    3.74
   1   6   6   49.61    3.32
   1  -6   6   42.65    4.75
   1   6   6   52.43    2.71
  -1  -6  -6   49.95    5.08
   2  -6   6   11.80    2.85
  -2   6  -6    9.81    1.49
  -2  -6  -6    9.85    2.70
   2   6   6   10.91    1.70
  -3   6  -6   11.48    1.61
  -3  -6  -6    9.00    2.67
   3  -6   6   10.00    2.84
   3   6   6    5.76    1.48
   4   6   6    6.68    1.63
   4  -6   6   10.55    3.04
  -4  -6  -6   11.95    3.09
  -5  -6  -6    4.18    2.57
   5   6   6    3.00    1.27
   5  -7  -6    7.10    1.76
   5   7  -6    6.31    1.41
  -5  -7   6    8.74    2.37
  -5   7   6    8.89    1.56
   4   7  -6   13.33    1.98
  -4   7   6   15.26    1.97
   4  -7  -6   10.83    2.06
  -4  -7   6   18.17    3.64
   3  -7  -6   11.80    2.04
   3   7  -6   12.59    1.82
  -3  -7   6   12.40    3.31
  -3   7   6   10.29    1.63
   2  -7  -6    8.42    1.74
  -2  -7   6    6.84    2.67
   2   7  -6    6.80    1.36
  -2   7   6    6.60    1.47
  -1   7   6    6.40    1.23
   1  -7  -6    8.63    2.21
  -1   7   6    3.26    1.34
   1   7  -6    7.52    1.37
  -1  -7   6    3.59    2.34
   0   7  -6   16.37    1.90
   0  -7  -6   14.02    2.82
   0   7   6   17.26    1.77
   0   7   6   16.18    2.09
   0  -7   6   13.64    3.08
   1   7   6    8.86    1.58
   1   7   6    9.88    1.48
   1  -7   6    8.65    3.11
  -1  -7  -6   10.31    2.87
   2   7   6    5.06    1.29
  -2   7  -6    2.78    1.03
   2  -7   6    3.69    2.11
  -2  -7  -6    4.17    2.18
  -3   7  -6    7.39    1.43
   3  -7   6    7.06    2.86
   3   7   6    5.13    1.43
  -3  -7  -6    3.19    2.04
   9   0  -7    5.74    1.18
  -9   0   7    1.43    1.12
  -8   0   7    7.24    1.64
   8   0  -7    5.44    1.16
  -7   0   7   25.92    2.59
   7   0  -7   27.08    2.23
   7   0  -7   25.48    1.94
   6   0  -7   16.85    1.58
   6   0  -7   17.46    1.62
  -6   0   7   16.75    2.11
   5   0  -7   65.95    2.92
  -5   0   7   66.96    3.53
   5   0  -7   66.23    3.05
  -4   0   7   24.26    2.03
   4   0  -7   25.26    1.49
  -4   0   7   21.59    1.94
   4   0  -7   23.99    1.60
  -3   0   7   12.03    1.54
   3   0  -7   11.09    1.09
   3   0  -7   12.67    0.91
  -3   0   7   10.07    1.61
  -2   0   7    6.57    1.45
  -2   0   7    7.72    1.20
   2   0  -7    8.36    0.74
   2   0  -7    8.59    0.91
   1   0  -7   67.74    2.58
  -1   0   7   65.30    3.26
  -1   0   7   68.03    2.54
  -1   0   7   65.15    3.92
   0   0  -7   19.40    1.14
   0   0   7   20.88    1.23
   0   0   7   22.05    2.47
   0   0  -7   20.86    1.81
  -1   0  -7   52.47    2.79
  -1   0  -7   48.59    1.88
   1   0   7   52.24    2.36
   1   0   7   48.88    3.64
   2   0   7   59.01    3.88
  -2   0  -7   62.80    3.14
   2   0   7   56.03    2.71
  -3   0  -7  158.94    6.29
   3   0   7  152.35    7.77
   3   0   7  158.10    5.80
   4   0   7    5.04    1.93
  -4   0  -7    6.38    1.46
   4   0   7    7.38    1.41
  -5   0  -7    3.24    1.21
   5   0   7    1.29    1.60
   5   0   7    4.25    1.22
   6   0   7    3.16    1.38
  -6   0  -7    2.79    1.15
   6   0   7    2.12    2.05
   7   0   7    0.78    1.15
   7   0   7    3.25    2.10
  -7   0  -7    3.34    1.27
   9  -1  -7    1.40    0.81
   9   1  -7    0.63    0.62
  -9  -1   7    1.54    1.16
   9  -1  -7    0.47    1.12
  -9   1   7    1.13    1.14
  -8   1   7    3.98    1.33
   8  -1  -7    3.84    1.27
   8   1  -7    2.83    0.97
   8  -1  -7    2.76    0.83
  -8  -1   7    4.63    1.43
  -7  -1   7   40.67    3.02
  -7   1   7   40.19    3.20
   7  -1  -7   42.86    2.57
   7  -1  -7   42.93    2.80
   7   1  -7   38.93    2.47
  -6   1   7   51.68    3.28
   6  -1  -7   49.98    2.79
   6  -1  -7   52.76    2.89
  -6  -1   7   55.54    3.29
   6   1  -7   50.32    2.70
  -5  -1   7    6.79    1.36
   5  -1  -7    4.54    0.97
   5   1  -7    5.90    1.03
  -5   1   7    7.70    1.36
  -4   1   7   20.60    1.96
   4  -1  -7   22.10    1.48
  -4  -1   7   22.19    2.02
  -4   1   7   18.29    1.39
  -4  -1   7   23.72    2.29
   4   1  -7   21.09    1.49
  -4   1   7   20.54    1.90
   3   1  -7  303.47    9.26
  -3   1   7  310.81    9.16
  -3  -1   7  309.70   10.51
  -3   1   7  303.35   11.31
  -3   1   7  313.29   10.24
   3  -1  -7  291.21    8.98
   2   1  -7  191.62    6.31
  -2  -1   7  197.30    8.34
  -2   1   7  206.45    7.24
  -2   1   7  195.07    6.36
  -2   1   7  203.89    6.26
  -2  -1   7  207.03    7.40
  -1   1   7   85.42    3.78
  -1  -1   7   86.90    2.72
   1   1  -7   88.48    3.22
  -1  -1   7   83.95    3.94
  -1  -1   7   83.50    4.81
  -1   1   7   88.33    3.10
  -1   1   7   86.20    4.76
   0   1  -7  154.07    5.78
   0  -1   7  151.61    4.61
   0  -1   7  153.36    6.96
   0  -1  -7  148.96    5.56
   0  -1  -7  149.29    4.71
   0   1   7  154.47    7.09
   0   1  -7  153.16    4.79
  -1   1  -7   47.03    2.71
   1   1   7   45.21    2.32
  -1  -1  -7   54.70    2.74
   1  -1   7   44.85    3.51
   1  -1   7   47.96    2.16
   1   1   7   47.62    3.57
  -1   1  -7   48.52    1.90
  -1  -1  -7   49.72    1.82
   2  -1   7  107.49    5.76
  -2   1  -7  104.82    4.66
  -2  -1  -7  100.80    4.37
   2   1   7  106.18    5.87
   2  -1   7  103.89    4.04
   3   1   7  105.16    5.91
   3  -1   7  102.53    5.62
  -3  -1  -7  111.83    4.69
  -3   1  -7  105.89    4.61
   3   1   7  110.16    4.36
   3  -1   7   82.59    4.08
   4  -1   7   17.28    1.83
   4   1   7   16.94    2.79
  -4   1  -7   20.14    2.18
  -4  -1  -7   18.95    2.08
   4   1   7   15.75    1.82
   4  -1   7   16.66    2.54
   5   1   7   -1.26    0.63
   5  -1   7    1.06    1.39
  -5   1  -7    2.10    1.05
   5   1   7    2.89    1.68
  -5  -1  -7    0.80    0.89
   5  -1   7    1.36    0.96
   6  -1   7    5.06    2.03
  -6  -1  -7    2.84    1.14
  -6   1  -7    2.10    1.26
   6   1   7    2.29    1.22
   6   1   7    2.95    1.87
   6  -1   7    2.06    1.17
  -7   1  -7    3.85    1.51
   7  -1   7    3.42    1.42
   7   1   7    3.88    1.39
  -7  -1  -7    5.91    1.73
  -9   2   7    8.44    1.84
   9  -2  -7    6.03    1.61
  -9  -2   7   10.53    2.09
   9   2  -7    8.43    1.39
   9  -2  -7    9.47    1.53
  -8   2   7   12.50    1.54
  -8   2   7   14.95    2.12
   8  -2  -7   19.30    2.36
   8   2  -7   16.55    1.77
  -8  -2   7   13.38    2.19
  -7  -2   7   48.99    3.31
   7   2  -7   48.59    2.87
   7  -2  -7   47.59    3.11
  -7   2   7   52.40    2.75
  -7   2   7   53.03    3.35
  -6   2   7  143.63    6.29
   6   2  -7  148.95    5.68
  -6   2   7  149.07    5.48
   6  -2  -7  151.78    5.87
  -6  -2   7  151.67    6.58
  -5  -2   7   69.44    4.43
   5  -2  -7   72.94    3.40
  -5   2   7   69.41    3.63
  -5  -2   7   72.16    3.84
  -5   2   7   68.77    3.12
   5   2  -7   71.80    3.27
   4   2  -7   24.13    1.61
  -4   2   7   26.30    2.03
  -4   2   7   25.90    1.67
   4  -2  -7   26.47    1.75
  -4  -2   7   24.69    2.01
  -3   2   7   12.66    1.50
  -3   2   7   10.82    1.12
  -3  -2   7    7.77    1.69
  -3   2   7    9.78    1.67
   3  -2  -7    9.58    1.11
  -3  -2   7   10.68    1.52
   3   2  -7   10.31    1.14
   2   2  -7    8.25    0.98
  -2   2   7    8.28    1.09
  -2   2   7   10.76    1.32
  -2  -2   7    7.93    1.37
  -2  -2   7    9.30    1.84
  -2   2   7    8.37    0.94
   1   2  -7    9.80    0.98
  -1   2   7    8.09    1.13
  -1   2   7    9.65    1.92
  -1   2   7   10.46    1.29
  -1   2   7    8.54    0.90
  -1  -2   7    9.26    1.42
  -1  -2   7   12.89    2.05
   0   2   7   12.97    0.92
   0  -2   7   12.81    2.15
   0   2   7    9.97    2.01
   0   2  -7   12.09    1.45
   0  -2  -7   13.59    1.37
   0   2  -7   12.86    1.08
   0   2   7   12.10    1.26
  -1  -2  -7   22.30    1.70
   1  -2   7   22.02    2.69
   1   2   7   21.67    1.17
   1  -2   7   21.27    1.33
   1   2   7   22.97    2.89
  -1   2  -7   24.05    2.09
  -1   2  -7   21.88    1.30
   1   2   7   20.42    1.59
   2  -2   7    7.72    1.94
  -2   2  -7    8.42    1.37
   2   2   7    7.27    1.17
  -2  -2  -7   10.63    1.33
   2  -2   7    7.52    1.08
   2   2   7   11.62    2.33
  -3   2  -7   10.07    1.48
   3   2   7    9.61    2.23
   3  -2   7    7.86    1.23
   3  -2   7   11.04    2.32
   3   2   7   10.48    1.52
  -3  -2  -7    9.47    1.41
   4   2   7    1.41    0.88
   4   2   7    0.45    1.32
   4  -2   7    0.94    0.80
  -4   2  -7    1.24    0.99
  -4  -2  -7    0.89    0.80
   4  -2   7   -0.80    1.15
  -5  -2  -7    5.03    1.30
   5  -2   7    4.52    1.97
  -5  -2  -7    4.61    1.99
  -5   2  -7    5.44    1.47
   5  -2   7    4.50    1.36
   5   2   7    4.56    1.23
   6  -2   7   12.70    3.08
   6   2   7    9.58    1.71
  -6   2  -7   10.51    2.05
   6  -2   7   11.11    1.97
  -6  -2  -7    9.37    1.73
  -6  -2  -7    9.23    2.47
  -7   2  -7   28.04    3.13
   7  -2   7   22.81    2.59
  -7  -2  -7   27.65    3.81
   7   2   7   21.60    2.58
  -7  -2  -7   17.87    2.32
  -9   3   7   10.01    1.53
   9   3  -7    7.81    1.46
   9  -3  -7   10.14    1.98
  -9  -3   7    8.83    1.73
  -9   3   7    8.29    1.95
  -8  -3   7    4.85    1.41
  -8   3   7    4.55    1.06
   8   3  -7    2.75    0.92
   8  -3  -7    3.53    1.37
  -8   3   7    3.33    1.21
   7  -3  -7    3.08    1.13
  -7  -3   7    2.40    1.16
  -7   3   7    1.45    0.74
   7   3  -7    2.08    0.81
  -7   3   7    3.23    1.38
   6   3  -7    8.07    1.29
  -6   3   7    5.89    1.14
  -6  -3   7   10.08    1.71
   6  -3  -7    6.91    1.38
  -6   3   7    6.63    1.53
   5   3  -7  192.47    6.68
   5  -3  -7  194.43    6.96
  -5   3   7  183.96    6.42
  -5  -3   7  190.09    8.60
  -5  -3   7  192.04    7.51
  -5   3   7  195.18    7.20
  -4   3   7   89.95    4.12
   4   3  -7   94.28    3.85
  -4   3   7   86.95    3.68
  -4  -3   7   90.69    5.39
   4  -3  -7   88.02    3.95
  -4  -3   7   92.97    4.42
  -3  -3   7  318.76   11.30
   3  -3  -7  336.31   12.55
   3   3  -7  336.47   10.30
  -3   3   7  333.23   10.15
   3  -3  -7  336.07   10.47
  -3  -3   7  345.25   13.63
  -2  -3   7   89.00    4.23
   2  -3  -7   89.57    4.83
  -2   3   7   84.61    3.39
  -2   3   7   87.71    3.79
  -2  -3   7   86.74    5.18
  -2   3   7   88.65    3.73
   2   3  -7   88.04    3.57
   1   3  -7    8.12    1.02
   1  -3  -7    9.90    1.86
  -1   3   7    8.86    1.14
  -1  -3   7    8.31    1.42
  -1   3   7    7.35    1.14
  -1  -3   7    7.09    1.82
  -1   3   7    8.38    0.95
   0  -3  -7    8.32    1.07
   0  -3   7    9.99    2.06
   0   3  -7   10.43    1.09
   0   3   7   10.72    0.95
   0  -3  -7   10.92    1.94
   0   3  -7   10.33    1.45
   0   3   7   10.20    1.34
  -1  -3  -7    1.92    0.67
  -1  -3  -7    1.08    1.10
   1  -3   7    1.25    1.35
   1   3   7    0.74    0.66
  -1   3  -7    0.98    0.51
   1   3   7    1.17    0.46
  -1   3  -7    1.14    0.74
  -2   3  -7   14.09    1.72
   2  -3   7   10.94    2.16
  -2   3  -7   10.51    1.06
  -2  -3  -7   12.96    2.38
   2   3   7   10.73    1.50
  -2  -3  -7   13.22    1.40
   3   3   7    9.50    1.46
  -3  -3  -7   10.86    1.38
  -3  -3  -7   11.84    2.50
  -3   3  -7    9.43    1.67
   3  -3   7   10.79    2.43
   4  -3   7    1.92    0.98
  -4  -3  -7    4.52    2.14
  -4  -3  -7    6.34    1.23
   4  -3   7    5.78    2.03
   4   3   7    5.36    1.39
  -4   3  -7    5.60    1.44
   5   3   7    4.90    1.46
  -5  -3  -7    4.66    2.09
  -5  -3  -7    4.86    1.35
   5  -3   7    4.33    1.36
  -5   3  -7    5.90    1.62
   5  -3   7    2.94    1.84
   6  -3   7   16.40    2.34
  -6   3  -7   19.15    2.59
  -6  -3  -7   17.07    3.17
   6  -3   7   16.29    3.08
   6   3   7   15.38    2.39
   7   3   7    9.46    2.06
  -7   3  -7   12.03    2.26
   7  -3   7   10.46    2.09
  -7  -3  -7    8.76    2.80
  -8   4   7    1.42    1.21
  -8  -4   7    3.46    1.27
   8   4  -7    1.37    0.78
  -8   4   7    1.75    0.89
   8  -4  -7    2.07    1.15
   7  -4  -7   17.33    2.24
  -7  -4   7   19.30    2.31
   7   4  -7   17.53    1.85
  -7   4   7   17.76    2.11
  -7   4   7   17.98    1.91
  -6  -4   7    6.17    1.46
  -6  -4   7    8.26    2.17
  -6   4   7    5.73    1.39
   6   4  -7    6.05    1.23
  -6   4   7    5.44    1.08
   6  -4  -7    6.35    1.50
   5   4  -7   63.92    3.27
  -5   4   7   65.35    3.62
   5  -4  -7   67.68    3.56
  -5  -4   7   65.29    4.92
  -5   4   7   68.31    3.26
  -5  -4   7   63.39    3.70
   4   4  -7  137.34    5.26
  -4  -4   7  141.03    5.93
  -4  -4   7  138.42    7.37
  -4   4   7  138.42    5.20
   4  -4  -7  137.46    5.56
   3  -4  -7  157.67    5.96
   3   4  -7  155.09    5.66
  -3   4   7  159.86    5.57
  -3  -4   7  150.56    7.60
  -3  -4   7  153.33    6.34
  -2   4   7   27.97    2.08
  -2  -4   7   25.32    3.26
   2  -4  -7   28.01    2.86
   2   4  -7   21.53    1.71
  -2   4   7   32.29    2.28
  -2  -4   7   26.46    2.35
  -1   4   7    5.40    1.07
   1   4  -7    7.12    1.23
   1  -4  -7    6.16    1.65
   1   4  -7    4.85    0.94
  -1  -4   7    5.29    1.97
  -1   4   7    5.41    0.91
   0  -4  -7    0.86    1.01
   0  -4   7    1.35    1.29
   0   4   7    1.70    0.74
   0   4  -7    1.11    0.59
   0   4  -7    1.29    0.82
   0   4   7    1.23    0.54
  -1   4  -7    7.12    1.01
   1   4   7    6.58    0.91
  -1   4  -7    4.26    1.22
   1  -4   7    8.32    2.30
   1   4   7    6.68    1.22
  -1  -4  -7    8.50    2.45
   2  -4   7   25.76    3.26
  -2   4  -7   21.93    1.63
  -2  -4  -7   31.84    4.08
   2   4   7   22.50    2.11
  -2   4  -7   26.00    2.31
   3  -4   7   25.36    3.25
  -3   4  -7   18.55    2.13
   3   4   7   20.65    2.18
  -3  -4  -7   25.28    3.65
  -4  -4  -7    5.14    2.03
  -4   4  -7    4.75    1.27
   4   4   7    4.02    1.24
   4  -4   7    3.22    1.81
   5   4   7   13.07    2.06
   5  -4   7   12.09    2.83
  -5  -4  -7   14.38    2.85
  -5   4  -7   15.21    2.18
  -6   4  -7   10.90    2.05
  -6  -4  -7    7.41    2.66
   6   4   7    8.30    1.73
  -7   5   7    2.97    0.97
   7  -5  -7    3.04    1.40
   7   5  -7    1.10    0.86
  -6   5   7   -0.29    0.61
  -6  -5   7    2.29    2.05
   6   5  -7   -0.24    0.63
   6  -5  -7    0.16    0.92
  -5  -5   7    9.92    1.70
  -5  -5   7   10.51    2.84
   5   5  -7   12.06    1.56
  -5   5   7   11.84    1.56
   5  -5  -7    9.65    1.69
   4   5  -7   11.13    1.48
  -4  -5   7   11.52    1.89
   4  -5  -7   10.49    1.66
  -4   5   7   13.75    1.61
  -4  -5   7   11.28    2.88
   3   5  -7    2.33    0.87
   3  -5  -7    6.36    1.44
  -3  -5   7    4.40    1.35
  -3   5   7    3.60    0.93
  -3  -5   7   -0.43    1.69
  -2  -5   7   13.69    2.88
   2   5  -7   13.14    1.57
  -2   5   7   12.84    1.46
  -2  -5   7   12.24    1.76
  -2   5   7   15.19    2.19
   2  -5  -7   16.00    2.42
   1  -5  -7   10.61    2.13
   1   5  -7   10.52    1.37
  -1   5   7   10.93    1.34
  -1  -5   7    9.85    2.71
  -1   5   7    9.43    1.49
   1   5  -7   12.24    1.63
   0   5  -7   48.61    2.59
   0   5  -7   44.98    2.95
   0   5   7   46.60    2.98
   0  -5   7   48.63    4.38
   0  -5  -7   47.84    4.16
   0   5   7   44.12    2.46
   1  -5   7    3.56    2.12
  -1   5  -7    5.37    1.06
   1   5   7    5.68    1.25
  -1   5  -7    7.89    1.62
   1   5   7    5.92    0.98
  -1  -5  -7    6.82    2.19
   2   5   7   14.30    2.05
   2  -5   7   13.28    2.81
  -2  -5  -7   19.14    3.41
  -2   5  -7   11.67    1.79
  -3  -5  -7    4.02    2.01
   3   5   7    0.51    0.82
  -3   5  -7    1.78    1.11
   3  -5   7   -0.27    1.73
   4   5   7    6.91    1.54
   4  -5   7    7.85    2.48
  -4   5  -7    9.10    1.67
  -4  -5  -7   10.67    3.00
  -5   5  -7   16.19    2.29
   5   5   7   14.11    2.25
   5  -5   7   12.94    2.86
  -5  -5  -7   13.10    3.34
   6   6  -7    7.31    1.47
   6  -6  -7    7.80    1.69
  -6   6   7    9.74    1.63
  -6  -6   7    6.58    2.60
   5   6  -7    6.99    1.46
   5  -6  -7    8.03    1.70
  -5  -6   7    9.09    2.85
  -5   6   7    7.93    1.45
  -4  -6   7   10.63    2.76
  -4   6   7    6.49    1.30
   4  -6  -7    5.24    1.45
   4   6  -7    6.67    1.33
  -3  -6   7   24.11    3.58
   3   6  -7   18.12    1.92
  -3   6   7   19.64    1.90
   3  -6  -7   16.11    2.09
  -2  -6   7    8.86    2.65
   2   6  -7   10.12    1.42
   2  -6  -7    9.10    1.77
  -2   6   7    9.13    1.48
  -1   6   7   10.52    1.83
  -1  -6   7   10.35    2.71
   1  -6  -7    8.75    2.46
  -1   6   7   11.80    1.50
   1   6  -7   10.55    1.50
   0   6   7   26.39    2.55
   0  -6   7   26.87    4.05
   0   6  -7   27.58    2.11
   0  -6  -7   29.67    3.95
   0   6   7   29.49    2.07
   1  -6   7   19.72    3.46
  -1   6  -7   15.10    1.75
  -1  -6  -7   17.87    3.14
   1   6   7   18.47    2.31
  -2  -6  -7    7.51    2.53
   2  -6   7    8.79    2.76
  -2   6  -7    6.02    1.26
   2   6   7    5.91    1.30
  -3  -6  -7    7.54    2.50
   3  -6   7    7.07    2.69
   3   6   7    3.37    1.21
  -4  -6  -7    0.76    1.94
   4   6   7    3.02    1.30
  -4  -7   7   11.25    3.10
   4  -7  -7    7.41    1.75
   4   7  -7    5.84    1.37
  -4   7   7    7.97    1.55
   3   7  -7    7.04    1.38
  -3  -7   7    5.32    2.44
  -3   7   7    2.58    1.13
   3  -7  -7    4.13    1.43
  -2  -7   7    5.76    2.62
   2   7  -7    7.23    1.43
  -2   7   7    5.59    1.36
   2  -7  -7    6.05    1.61
   1  -7  -7    2.63    1.63
   1   7  -7    1.62    0.87
  -1  -7   7    2.50    2.42
  -1   7   7    3.46    1.21
  -1   7   7    2.25    0.86
   0  -7   7   13.84    3.53
   0  -7  -7   10.41    2.76
   0   7   7   15.85    1.91
   0   7   7   11.83    1.88
  -1  -7  -7    1.57    1.73
  -1   7  -7    1.42    0.89
   1  -7   7    2.84    2.19
   1   7   7    3.78    1.26
   2   7   7    2.83    1.17
  -2  -7  -7    1.65    2.25
   2  -7   7    3.53    2.68
  -2   7  -7    4.12    1.20
  -9   0   8    0.86    1.03
   9   0  -8    0.02    0.71
   8   0  -8    3.44    0.88
  -8   0   8    2.06    1.15
   7   0  -8    0.29    0.63
  -7   0   8    1.00    0.87
   6   0  -8    0.87    0.64
  -6   0   8    2.41    1.15
  -5   0   8   92.06    4.56
   5   0  -8   94.07    3.88
  -4   0   8    3.18    1.19
  -4   0   8    0.95    0.77
   4   0  -8    0.54    0.45
   3   0  -8   23.40    1.54
   3   0  -8   22.98    1.27
  -3   0   8   21.26    2.08
  -3   0   8   16.73    2.15
   2   0  -8   12.45    0.98
   2   0  -8   13.46    1.11
  -2   0   8   12.98    1.69
  -2   0   8    8.52    1.69
  -1   0   8   32.13    1.60
   1   0  -8   29.72    1.63
  -1   0   8   30.34    2.33
  -1   0   8   31.38    2.87
   0   0   8    4.39    1.53
   0   0  -8    4.12    0.64
   0   0   8    5.01    0.74
   0   0  -8    5.01    1.08
  -1   0  -8   80.11    3.78
   1   0   8   75.63    3.21
   1   0   8   76.35    4.83
  -2   0  -8   32.26    2.37
   2   0   8   33.36    3.03
   3   0   8   77.83    3.52
   3   0   8   74.88    5.36
  -3   0  -8   72.86    3.82
   4   0   8   72.59    3.71
   4   0   8   69.47    5.24
  -4   0  -8   72.92    4.10
   5   0   8   29.18    2.66
   5   0   8   30.27    3.90
  -5   0  -8   30.33    2.87
   6   0   8    1.52    1.01
  -6   0  -8    2.28    1.17
   6   0   8    2.05    1.97
  -7   0  -8    2.71    1.43
   7   0   8    1.65    2.04
   7   0   8    3.44    1.58
  -9   1   8   -0.08    0.94
  -9  -1   8    0.40    1.08
   9   1  -8    0.93    0.77
   9  -1  -8    1.92    0.82
  -8   1   8    9.17    1.90
  -8  -1   8    6.89    1.45
   8  -1  -8    7.62    1.32
   8   1  -8    8.73    1.39
   7  -1  -8   26.95    2.03
   7   1  -8   28.94    2.16
   7  -1  -8   30.19    2.35
  -7  -1   8   22.73    2.47
  -7   1   8   20.91    2.30
  -6   1   8   53.62    3.34
   6  -1  -8   52.58    2.84
   6   1  -8   50.51    2.80
  -6  -1   8   52.06    3.37
   6  -1  -8   50.55    2.73
   5   1  -8   18.04    1.65
   5  -1  -8   16.74    1.58
  -5  -1   8   11.65    1.41
   5  -1  -8   19.29    1.69
  -5   1   8   20.67    2.21
  -4  -1   8   11.71    1.90
   4  -1  -8   18.56    1.39
  -4  -1   8   19.57    1.98
   4   1  -8   16.67    1.53
  -4   1   8   18.86    1.91
   4  -1  -8   18.73    1.49
  -3  -1   8   33.42    2.37
   3  -1  -8   34.84    1.97
  -3  -1   8   33.69    2.86
  -3   1   8   35.51    2.84
   3  -1  -8   37.64    1.95
  -3   1   8   33.63    2.37
   3   1  -8   35.55    1.97
  -2  -1   8    1.08    1.12
  -2   1   8   -0.21    1.09
   2  -1  -8    0.71    0.45
  -2  -1   8    0.32    0.75
  -2   1   8    0.43    0.78
  -2   1   8    0.83    0.57
   2   1  -8    0.68    0.49
  -1   1   8  224.12    7.20
  -1   1   8  232.22    8.25
   1  -1  -8  224.03    6.98
  -1  -1   8  241.27    8.49
  -1   1   8  231.67    9.69
   1   1  -8  227.57    7.06
  -1  -1   8  217.49    9.53
   0  -1  -8  220.35    8.07
   0  -1   8  242.88    6.90
   0  -1  -8  230.73    6.94
   0   1   8  225.50    9.73
   0  -1   8  233.84   10.01
   0   1  -8  243.80    8.32
   0   1  -8  232.42    7.04
  -1  -1  -8    5.84    1.20
   1   1   8    6.35    1.83
   1  -1   8    6.96    1.85
  -1   1  -8    7.65    1.34
   1  -1   8    6.52    0.93
  -1   1  -8    7.38    0.74
   1   1   8    5.95    1.05
   2   1   8    7.52    1.22
  -2   1  -8   10.18    1.63
   2  -1   8    9.91    2.20
   2   1   8    9.71    2.30
   2  -1   8   10.60    1.24
  -2  -1  -8    9.22    1.37
  -3  -1  -8   11.95    1.67
   3   1   8   13.87    2.77
   3  -1   8   14.77    2.76
  -3   1  -8   11.52    1.73
   3   1   8   11.17    1.62
  -4   1  -8   46.23    3.17
   4   1   8   41.64    4.57
  -4  -1  -8   46.60    3.08
   4  -1   8   45.24    2.85
   4  -1   8   45.54    3.86
   4   1   8   51.51    3.09
   5   1   8   22.77    3.64
   5  -1   8   22.37    3.45
   5   1   8   15.42    1.93
   5  -1   8   18.38    2.19
  -5   1  -8   18.28    2.41
  -5  -1  -8   20.47    2.38
   6  -1   8    2.61    1.37
  -6  -1  -8    1.59    0.99
   6   1   8    1.21    1.89
   6  -1   8    2.58    1.93
  -6   1  -8    0.15    0.95
   6   1   8    0.78    1.06
  -7  -1  -8    1.17    1.13
   7  -1   8    0.62    1.36
  -7   1  -8    0.62    1.15
   7   1   8   -0.36    0.95
   7  -1   8   -1.56    1.84
   9  -2  -8    1.66    1.01
   9  -2  -8    1.61    1.41
  -9  -2   8    2.39    1.33
   9   2  -8    2.69    0.95
  -9   2   8    1.22    1.22
   8   2  -8    8.45    1.43
   8  -2  -8    8.46    1.77
  -8  -2   8    4.86    1.49
   8  -2  -8    6.81    1.30
  -8   2   8    8.09    1.79
  -7   2   8    0.54    0.96
   7  -2  -8    1.79    1.05
  -7  -2   8    1.11    0.94
  -7   2   8    1.91    0.74
   7   2  -8    1.58    0.90
  -6  -2   8    7.70    1.68
   6  -2  -8    3.88    1.13
  -6   2   8    8.12    1.25
  -6   2   8    5.74    1.49
   6   2  -8    7.44    1.33
   5   2  -8  141.03    5.34
   5  -2  -8  137.94    5.30
  -5   2   8  138.65    5.15
  -5   2   8  137.93    5.92
  -5  -2   8  143.25    6.88
  -5  -2   8  133.18    5.93
  -4  -2   8   51.59    3.65
  -4   2   8   52.17    3.00
   4  -2  -8   48.07    2.54
   4   2  -8   49.58    2.60
  -4   2   8   50.30    2.54
  -4  -2   8   51.77    3.29
  -3  -2   8   49.63    3.64
  -3  -2   8   51.71    2.99
   3   2  -8   46.15    2.43
  -3   2   8   48.44    3.54
  -3   2   8   49.69    2.41
  -3   2   8   50.27    2.87
   3  -2  -8   47.46    2.51
  -2  -2   8  135.10    6.74
  -2   2   8  133.28    5.40
   2   2  -8  131.61    4.70
  -2  -2   8  136.20    5.64
  -2   2   8  128.04    4.88
  -2   2   8  127.50    4.57
  -1   2   8   61.71    4.15
  -1   2   8   58.89    2.50
  -1  -2   8   49.84    3.06
  -1   2   8   63.13    2.93
   1   2  -8   61.90    2.63
  -1  -2   8   61.60    4.35
  -1   2   8   62.46    3.19
   0  -2   8   53.93    4.03
   0   2   8   52.68    2.64
   0   2   8   55.60    4.12
   0  -2  -8   51.70    2.77
   0   2  -8   56.03    3.21
   0   2   8   55.91    2.26
   0   2  -8   52.08    2.36
  -1   2  -8   23.69    1.43
   1  -2   8   21.81    2.93
   1   2   8   23.84    3.10
  -1   2  -8   25.14    2.30
   1   2   8   20.79    1.80
  -1  -2  -8   25.07    1.89
   2   2   8   39.83    4.12
   2   2   8   43.73    2.53
  -2   2  -8   38.51    2.79
  -2  -2  -8   39.22    2.54
   2  -2   8   40.04    3.67
   3  -2   8   -0.27    1.05
   3   2   8   -0.79    0.52
   3   2   8    1.60    1.43
  -3   2  -8   -1.04    0.59
  -3  -2  -8    0.58    0.70
   3  -2   8    0.93    0.67
  -4   2  -8    1.19    1.00
   4   2   8    1.98    1.82
   4  -2   8    2.12    1.63
  -4  -2  -8    3.37    1.14
   4  -2   8    0.39    0.62
   4   2   8    2.40    1.09
   5   2   8    8.42    1.66
   5  -2   8    8.51    2.26
  -5   2  -8   14.24    2.18
  -5  -2  -8   12.24    1.86
   5  -2   8    7.87    1.67
   6   2   8    3.43    1.32
  -6  -2  -8    2.03    1.54
  -6  -2  -8    3.75    1.35
   6  -2   8    1.31    1.24
  -6   2  -8    5.17    1.53
   6  -2   8    0.24    1.86
  -7   2  -8    4.12    1.56
   7   2   8    2.53    1.57
  -7  -2  -8    4.72    1.63
  -7  -2  -8    4.42    2.38
   7  -2   8    4.15    1.49
   8  -3  -8   24.50    2.72
   8   3  -8   20.16    2.07
  -8   3   8   20.72    2.10
  -8  -3   8   23.09    2.76
  -8   3   8   22.01    2.49
  -7  -3   8   16.08    2.25
  -7   3   8   15.82    1.73
   7  -3  -8   16.05    2.12
   7   3  -8   13.50    1.70
  -7   3   8   12.76    1.74
  -6  -3   8   53.78    3.47
  -6   3   8   54.13    3.32
  -6   3   8   59.79    3.02
   6   3  -8   50.35    2.88
   6  -3  -8   52.79    3.14
  -5   3   8  167.46    6.10
   5   3  -8  164.33    6.08
  -5   3   8  170.60    6.73
   5  -3  -8  165.64    6.32
  -5  -3   8  165.03    7.00
  -5  -3   8  172.16    8.38
   4   3  -8  178.06    6.31
  -4  -3   8  175.13    8.46
  -4   3   8  175.93    6.19
  -4  -3   8  175.68    7.25
   4  -3  -8  177.94    6.46
  -4   3   8  177.51    6.77
  -3   3   8  154.76    5.42
  -3  -3   8  151.85    6.41
  -3  -3   8  152.17    7.64
   3   3  -8  147.81    5.52
   3  -3  -8  155.93    5.72
  -2  -3   8   89.98    5.49
  -2   3   8   93.01    3.57
   2   3  -8   87.93    3.67
  -2  -3   8   92.88    4.48
   2  -3  -8   88.14    5.08
  -2   3   8   86.70    4.00
  -1   3   8    6.12    0.89
  -1  -3   8    5.82    1.84
   1  -3  -8    5.78    1.56
   1   3  -8    5.86    0.96
  -1   3   8    7.98    1.20
   0   3   8    6.28    1.12
   0  -3   8    4.39    1.71
   0  -3  -8    7.09    1.78
   0   3  -8    6.88    1.15
   0   3   8    6.46    0.86
   0   3  -8    6.21    0.96
   0  -3  -8    6.89    1.10
   1   3   8    0.87    0.76
  -1  -3  -8    2.37    0.91
  -1   3  -8    2.32    0.66
  -1  -3  -8   -0.20    1.05
  -1   3  -8    1.66    0.96
   1  -3   8   -0.92    1.25
  -2   3  -8    3.49    1.00
   2  -3   8    3.11    1.57
  -2  -3  -8    2.44    0.89
   2   3   8    1.68    0.87
  -2  -3  -8    3.95    1.51
   3  -3   8    1.59    1.52
  -3  -3  -8    1.74    1.33
   3   3   8    1.08    0.86
  -3  -3  -8    0.43    0.66
  -3   3  -8    0.27    0.77
  -4  -3  -8   14.52    3.08
  -4   3  -8   12.13    1.95
   4  -3   8   13.21    2.96
   4   3   8   13.21    1.95
   5  -3   8    5.37    2.21
  -5   3  -8    5.34    1.48
   5   3   8    5.47    1.41
  -5  -3  -8    3.19    1.70
  -6  -3  -8    4.53    2.08
   6  -3   8    3.02    2.15
   6   3   8    3.70    1.35
  -6   3  -8    5.06    1.52
  -8  -4   8    4.32    1.43
   8   4  -8    3.01    1.03
  -8   4   8    5.76    1.33
   8  -4  -8    5.91    1.71
  -7  -4   8    3.76    1.28
   7  -4  -8    4.36    1.35
  -7   4   8    4.50    1.10
   7   4  -8    4.40    1.11
  -6  -4   8    0.40    1.52
  -6  -4   8    0.10    0.82
   6  -4  -8    0.83    0.78
   6   4  -8    0.11    0.56
  -6   4   8   -0.07    0.62
   5  -4  -8   16.43    2.00
  -5  -4   8   11.25    1.80
  -5   4   8   15.29    1.67
  -5  -4   8   22.84    3.42
   5   4  -8   13.38    1.65
  -4  -4   8  192.62    7.67
  -4   4   8  182.08    6.47
  -4  -4   8  176.80    8.95
   4  -4  -8  188.88    6.95
   4   4  -8  181.81    6.66
   3  -4  -8  111.03    4.72
   3   4  -8  108.38    4.49
  -3  -4   8  104.70    5.16
  -3   4   8  108.15    4.28
  -3  -4   8  106.84    6.53
  -2  -4   8   64.40    4.88
  -2  -4   8   66.34    3.82
   2  -4  -8   64.65    4.31
   2   4  -8   68.49    3.21
  -2   4   8   71.52    3.58
  -2   4   8   67.52    3.06
   1  -4  -8   25.38    3.33
  -1  -4   8   30.11    3.46
   1   4  -8   22.63    1.71
   1   4  -8   22.76    2.17
  -1   4   8   22.34    1.56
  -1   4   8   23.34    2.11
   0  -4   8    5.61    1.95
   0   4  -8    5.59    1.01
   0  -4  -8    5.68    1.97
   0   4  -8    4.34    1.26
   0   4   8    5.11    1.15
   1   4   8   17.69    1.95
   1  -4   8   24.76    3.47
  -1   4  -8   21.36    2.19
  -1   4  -8   18.85    1.47
  -1  -4  -8   22.37    3.14
  -2   4  -8   12.45    1.88
   2   4   8   14.00    1.99
  -2  -4  -8   12.24    2.56
   2  -4   8   12.41    2.80
   3   4   8    6.67    1.42
  -3  -4  -8    5.26    2.18
   3  -4   8    9.79    2.72
  -3   4  -8    6.20    1.60
  -4  -4  -8    4.50    2.29
   4   4   8    4.38    1.34
  -4   4  -8    4.48    1.31
   4  -4   8    6.78    2.52
  -5   4  -8    2.25    1.18
   5   4   8    1.93    1.09
   5  -4   8    5.54    2.15
  -5  -4  -8    2.34    1.92
   7   5  -8    5.49    1.33
  -7   5   8    3.77    1.17
   7  -5  -8    4.55    1.50
  -6  -5   8   -0.32    1.68
   6  -5  -8   -1.67    0.73
   6   5  -8    0.61    0.69
  -6   5   8    1.11    0.81
  -6  -5   8    0.52    0.93
  -5  -5   8   35.53    2.73
  -5  -5   8   30.58    3.87
  -5   5   8   33.53    2.32
   5   5  -8   37.87    2.55
   5  -5  -8   34.54    2.96
   4   5  -8   39.11    2.52
  -4   5   8   37.13    2.44
  -4  -5   8   40.27    3.03
   4  -5  -8   39.89    2.82
  -4  -5   8   38.03    4.18
   3   5  -8    4.12    1.05
  -3   5   8    2.78    0.90
  -3  -5   8    2.13    1.16
  -3  -5   8    4.40    2.28
   3  -5  -8    3.86    1.22
  -2   5   8    8.76    1.52
  -2  -5   8    7.79    2.53
   2  -5  -8    8.46    1.95
  -2   5   8   10.41    1.76
   2   5  -8    8.60    1.38
  -1  -5   8   12.95    2.72
  -1   5   8    7.20    1.19
   1  -5  -8   13.21    2.57
  -1   5   8    9.56    1.50
   1   5  -8   11.16    1.71
   1   5  -8    7.97    1.33
   0   5  -8    1.56    1.01
   0  -5   8    2.47    1.70
   0   5   8    0.47    0.83
   0   5   8    0.41    0.59
   0  -5  -8    1.32    1.40
   0   5  -8    1.10    0.68
  -1   5  -8   40.52    2.51
  -1   5  -8   53.53    3.80
   1   5   8   43.11    2.86
   1  -5   8   41.74    4.60
  -1  -5  -8   45.81    4.60
   2  -5   8   26.14    3.76
   2   5   8   31.85    2.43
  -2  -5  -8   31.30    3.97
  -2   5  -8   28.48    2.41
   3  -5   8    1.34    1.73
   3   5   8    4.61    1.29
  -3   5  -8    1.56    0.94
  -3  -5  -8    3.68    1.91
  -4  -5  -8    2.25    1.56
   4   5   8    0.55    0.99
  -4   5  -8    1.65    1.14
   4  -5   8    2.56    2.10
  -5  -6   8    9.56    2.97
   5   6  -8    3.23    1.09
   5  -6  -8    2.96    1.29
  -5   6   8    5.24    1.27
  -4  -6   8    0.32    1.60
   4  -6  -8    2.80    1.30
  -4   6   8    3.71    1.08
   4   6  -8    4.94    1.18
  -3   6   8    5.99    1.25
   3  -6  -8    9.43    1.85
   3   6  -8    7.97    1.43
  -3  -6   8    7.53    2.58
  -2  -6   8    5.81    2.67
   2  -6  -8    5.82    1.55
   2   6  -8    7.05    1.32
  -2   6   8    7.29    1.25
  -1   6   8    6.06    1.16
  -1   6   8    3.71    1.11
  -1  -6   8    4.00    2.25
   1   6  -8    2.51    0.84
   1  -6  -8    4.39    2.16
   0   6   8    7.29    1.31
   0   6  -8    5.86    1.24
   0   6   8   10.19    1.69
   0  -6  -8    5.97    2.22
   0  -6   8    9.48    2.73
   1  -6   8    5.19    2.52
  -1  -6  -8    3.73    1.88
   1   6   8    4.72    1.27
  -1   6  -8    4.99    1.08
   2  -6   8    4.42    2.40
   2   6   8    0.54    0.86
  -2  -6  -8    1.62    1.67
  -3  -6  -8    1.18    1.78
   3  -6   8    0.52    2.06
   3   6   8    2.37    1.12
  -3   7   8    2.50    1.14
  -3  -7   8    2.33    2.26
   3  -7  -8    4.16    1.50
   3   7  -8    2.65    1.09
  -2   7   8   10.47    1.65
  -2  -7   8   11.42    3.09
   2   7  -8    7.66    1.42
   2  -7  -8    9.92    1.92
  -1  -7   8    5.99    2.99
  -1   7   8    2.52    1.03
   1   7  -8    2.03    0.99
  -1   7   8    2.22    1.23
   0  -7   8    3.42    2.47
   0  -7  -8    1.07    1.56
   0   7   8    0.43    0.98
   0   7  -8    0.38    0.77
  -9   0   9   13.33    2.29
   9   0  -9   16.68    2.09
   8   0  -9    3.57    0.99
  -8   0   9    1.92    1.27
   7   0  -9   16.07    1.67
  -7   0   9   18.47    2.29
  -6   0   9   10.91    1.97
   6   0  -9   11.56    1.51
   5   0  -9   12.42    1.45
  -5   0   9   11.49    1.81
  -4   0   9    5.12    1.45
   4   0  -9    4.34    0.91
  -4   0   9    3.21    1.43
   3   0  -9   26.12    1.59
  -3   0   9   21.78    2.20
   2   0  -9   93.73    3.66
  -2   0   9   93.06    4.57
  -2   0   9   94.58    5.26
  -1   0   9   71.04    3.83
   1   0  -9   74.75    3.00
  -1   0   9   77.25    4.62
   0   0  -9    3.38    1.01
   0   0   9    4.65    1.85
   0   0  -9    1.79    0.51
   0   0   9    3.85    0.79
   1   0   9   43.03    2.22
   1   0   9   41.34    3.59
  -1   0  -9   42.08    2.84
  -2   0  -9    6.69    1.44
   2   0   9    8.19    2.23
  -3   0  -9    1.83    0.94
   3   0   9    2.10    0.87
   3   0   9    2.35    1.69
   4   0   9    5.41    1.31
  -4   0  -9    5.50    1.39
   4   0   9    4.92    2.23
   5   0   9   14.08    3.24
  -5   0  -9   12.50    2.03
   5   0   9    7.75    1.56
  -6   0  -9    6.24    1.78
   6   0   9    4.89    1.40
   6   0   9    5.41    2.73
   9   1  -9    4.86    1.24
   9  -1  -9    6.06    1.29
  -9  -1   9    4.97    1.72
  -9   1   9    5.52    1.49
  -8  -1   9    2.79    1.21
  -8   1   9    3.41    1.21
   8  -1  -9    3.31    1.01
   8   1  -9    4.87    1.13
  -7   1   9    5.28    1.36
   7   1  -9    6.14    1.21
   7  -1  -9    5.43    1.13
  -7  -1   9    6.53    1.61
   6   1  -9   48.84    2.80
  -6  -1   9   44.20    2.98
  -6   1   9   48.68    3.30
   6  -1  -9   50.52    2.76
  -5  -1   9    8.33    1.62
   5   1  -9    8.42    1.25
   5  -1  -9    6.35    1.07
  -5   1   9    9.64    1.68
  -4   1   9   47.56    3.21
   4   1  -9   52.10    2.68
  -4  -1   9   55.43    3.39
  -4  -1   9   50.59    3.75
   4  -1  -9   50.48    2.60
   3  -1  -9   22.27    1.47
  -3   1   9   21.29    2.69
   3  -1  -9   24.34    1.57
  -3   1   9   27.97    2.24
  -3  -1   9   19.97    2.24
   3   1  -9   22.56    1.60
  -3  -1   9   19.57    2.66
  -2  -1   9   13.24    2.26
  -2   1   9   15.32    2.51
  -2  -1   9   14.68    2.02
  -2   1   9   17.33    2.01
   2  -1  -9   13.88    1.25
  -2   1   9   15.25    1.38
   2   1  -9   15.26    1.31
   1   1  -9   26.19    1.58
  -1  -1   9   19.75    2.74
  -1   1   9   30.82    2.45
  -1   1   9   25.04    3.13
   1  -1  -9   25.27    1.53
  -1  -1   9   24.83    2.47
  -1   1   9   24.76    1.74
   0  -1   9   20.91    2.97
   0  -1  -9   19.76    1.95
   0   1  -9   18.93    1.26
   0   1  -9   21.90    2.10
   0   1   9   21.91    2.87
  -1   1  -9    5.99    1.38
   1   1   9    3.42    1.87
   1   1   9    5.62    1.02
   1  -1   9    4.78    1.91
  -1  -1  -9    5.74    1.27
   2   1   9   -0.33    0.62
  -2  -1  -9    0.69    0.74
   2   1   9    1.60    1.59
   2  -1   9   -0.44    1.01
  -2   1  -9    1.33    1.00
   3   1   9    5.04    1.34
  -3  -1  -9    6.02    1.36
   3   1   9    6.60    2.25
   3  -1   9   12.28    1.61
   3  -1   9    4.47    2.00
  -3   1  -9    4.99    1.32
   4  -1   9   19.22    3.15
   4  -1   9   18.18    2.03
   4   1   9   17.33    2.08
   4   1   9   17.45    3.34
  -4   1  -9   14.20    2.06
  -4  -1  -9   16.78    2.15
   5  -1   9   13.10    2.98
  -5   1  -9   11.49    1.98
  -5  -1  -9   10.57    1.98
   5  -1   9   14.42    2.06
   5   1   9    9.55    1.77
   5   1   9    7.48    2.75
  -6   1  -9    0.97    1.11
  -6  -1  -9    2.68    1.27
   6   1   9    0.70    1.06
   6  -1   9    0.23    1.04
   6   1   9    1.88    2.18
   6  -1   9    2.77    2.25
   8  -2  -9    7.33    1.40
  -8  -2   9    7.92    1.87
   8   2  -9    8.13    1.50
  -8   2   9    9.11    1.83
   7  -2  -9    1.33    1.07
  -7   2   9    2.07    1.11
  -7  -2   9    0.77    0.84
   7   2  -9    1.15    0.77
  -6  -2   9   25.05    2.63
  -6   2   9   26.55    2.59
   6   2  -9   26.64    2.06
  -6   2   9   23.59    1.87
   6  -2  -9   25.98    2.28
   5  -2  -9    8.75    1.38
  -5   2   9    9.23    1.31
  -5  -2   9    8.61    1.83
   5   2  -9    7.39    1.19
  -5   2   9    7.43    1.58
  -5  -2   9   11.42    2.25
   4  -2  -9    2.92    0.91
  -4   2   9    5.68    1.45
   4   2  -9    4.04    0.89
  -4  -2   9    4.12    1.26
  -4   2   9    3.88    0.98
  -4  -2   9    4.95    1.61
   3   2  -9   21.41    1.59
  -3  -2   9   21.35    2.31
  -3  -2   9   25.30    2.99
   3  -2  -9   21.61    1.69
  -3   2   9   23.77    1.67
  -3   2   9   23.54    2.27
  -3   2   9   23.43    2.85
  -2  -2   9  282.16   11.98
  -2   2   9  287.74   10.13
  -2   2   9  281.67   11.74
  -2  -2   9  278.76   10.26
  -2   2   9  287.39    9.03
  -2   2   9  285.77    8.76
   2   2  -9  287.18    8.94
  -1  -2   9  205.41    9.36
   1   2  -9  193.66    6.48
  -1   2   9  194.35    6.76
  -1   2   9  197.70    7.55
  -1   2   9  195.28    9.15
  -1  -2   9  199.24    7.94
   0   2   9   23.57    1.86
   0   2  -9   23.95    2.32
   0  -2  -9   25.74    1.98
   0   2   9   31.62    3.50
   0   2   9   28.47    1.59
   0   2  -9   27.80    1.68
   0  -2   9   27.53    3.43
  -1   2  -9   41.55    2.86
   1  -2   9   26.27    3.32
   1   2   9   38.87    2.31
  -1  -2  -9   35.05    2.35
   1   2   9   44.21    4.33
   2   2   9   17.41    1.84
  -2  -2  -9   19.23    1.93
   2  -2   9   16.70    2.84
  -2   2  -9   19.43    2.27
   2   2   9   17.18    3.08
   3   2   9    3.15    1.10
  -3  -2  -9    4.15    1.24
  -3   2  -9    2.79    1.13
   3  -2   9    3.97    1.92
   3   2   9    1.89    1.80
  -4  -2  -9    3.57    1.18
   4   2   9    1.34    0.97
   4  -2   9    0.31    1.59
  -4   2  -9   -0.34    0.81
   4   2   9    2.51    1.77
   5  -2   9    7.40    2.44
  -5   2  -9   10.18    2.01
  -5  -2  -9   13.10    2.06
   5   2   9    9.56    1.85
   6  -2   9   13.12    3.45
  -6   2  -9    9.00    2.16
  -6  -2  -9    8.91    2.65
  -6  -2  -9    9.33    1.83
   6   2   9    7.52    1.81
  -8   3   9   -0.61    0.84
   8   3  -9    0.81    0.83
   8  -3  -9    0.20    1.09
  -8   3   9    0.44    0.74
  -8  -3   9   -1.00    0.70
  -7   3   9    0.15    0.61
   7  -3  -9    1.67    0.93
   7   3  -9    1.18    0.73
  -7   3   9    0.98    0.87
  -7  -3   9    1.23    1.04
   6   3  -9    6.02    1.31
   6  -3  -9    6.58    1.36
  -6   3   9    5.10    1.11
  -6   3   9    7.68    1.65
  -6  -3   9    8.28    1.65
  -5   3   9    0.01    0.66
   5   3  -9    0.92    0.70
  -5   3   9   -0.24    0.89
  -5  -3   9    3.44    1.76
   5  -3  -9    1.57    0.81
  -5  -3   9    1.24    0.98
  -4  -3   9   66.93    4.91
  -4   3   9   72.05    3.76
   4   3  -9   63.92    3.26
  -4  -3   9   69.54    4.04
   4  -3  -9   65.70    3.44
  -4   3   9   68.90    3.26
  -3  -3   9  118.33    6.63
  -3   3   9  110.80    4.38
   3   3  -9  110.60    4.52
   3  -3  -9  110.95    4.62
  -3  -3   9  104.85    5.27
  -3   3   9  112.63    5.02
   2  -3  -9   99.48    5.73
  -2  -3   9  101.93    6.20
  -2   3   9  104.80    3.99
  -2   3   9   99.16    4.39
  -2  -3   9   96.66    5.11
   2   3  -9   97.43    4.04
   1  -3  -9   68.67    3.40
  -1  -3   9   71.88    5.10
  -1   3   9   62.35    3.26
   1   3  -9   72.17    3.13
  -1   3   9   69.39    2.92
   1   3  -9   76.27    3.86
   0   3  -9    4.19    1.21
   0   3  -9    6.02    0.98
   0  -3   9    6.67    2.19
   0   3   9    6.92    1.24
   0  -3  -9    6.69    1.16
   1  -3   9   38.58    4.22
  -1  -3  -9   45.89    3.00
  -1   3  -9   38.54    2.85
   1   3   9   41.08    2.56
   2  -3   9   15.75    2.82
  -2  -3  -9   10.94    2.47
  -2   3  -9   12.84    1.89
   2   3   9   13.77    1.77
  -3   3  -9   16.57    2.18
  -3  -3  -9   15.03    2.87
   3   3   9   19.18    2.13
   3  -3   9   17.63    3.13
  -4  -3  -9   16.20    3.23
   4   3   9   13.69    1.96
  -4   3  -9   12.61    2.03
   4  -3   9   16.11    2.97
   5   3   9    1.24    1.13
  -5  -3  -9   -1.13    1.31
  -5   3  -9    1.87    1.16
   5  -3   9    2.97    1.92
   7  -4  -9    3.63    1.30
  -7   4   9    4.49    1.16
  -7  -4   9    6.79    1.63
   7   4  -9    5.70    1.31
  -6   4   9    4.80    1.15
  -6  -4   9    3.55    1.13
   6   4  -9    5.24    1.18
   6  -4  -9    5.38    1.28
  -5   4   9    8.27    1.33
  -5  -4   9    4.90    1.30
  -5  -4   9    9.27    2.54
   5   4  -9    7.70    1.37
   5  -4  -9    9.51    1.68
  -4  -4   9   83.46    5.82
   4  -4  -9   86.44    4.25
   4   4  -9   81.43    3.87
  -4  -4   9   74.67    4.41
  -4   4   9   81.12    3.77
  -3  -4   9   15.22    2.28
   3   4  -9   19.46    1.87
   3  -4  -9   17.59    2.02
  -3   4   9   18.91    1.75
  -3  -4   9   20.19    3.28
  -2   4   9    4.02    1.09
  -2  -4   9    4.79    1.51
  -2  -4   9    8.02    2.30
  -2   4   9    2.71    0.82
   2   4  -9    3.21    0.87
   2  -4  -9    6.76    2.03
   1   4  -9   10.69    1.35
   1   4  -9    7.36    1.44
   1  -4  -9    8.67    2.22
  -1   4   9    7.73    1.16
  -1  -4   9    8.73    2.54
  -1   4   9    8.04    1.40
   0   4  -9    8.29    1.65
   0  -4   9   13.40    2.83
   0  -4  -9    5.84    1.84
   0   4   9    8.24    1.38
   0   4  -9    8.04    1.20
   1  -4   9   14.57    3.17
  -1  -4  -9   16.04    2.78
  -1   4  -9   12.38    1.32
  -1   4  -9   13.59    2.01
   1   4   9   15.05    1.92
  -2  -4  -9    5.73    2.11
   2   4   9    7.09    1.55
  -2   4  -9    5.21    1.44
   2  -4   9    7.20    2.46
  -3   4  -9    6.92    1.59
   3  -4   9   11.97    3.06
   3   4   9    9.45    1.69
  -3  -4  -9    5.19    2.16
  -4   4  -9    1.67    1.12
   4  -4   9    2.79    2.05
   4   4   9   -0.59    0.81
  -4  -4  -9    0.54    1.59
  -5   4  -9   -0.18    0.99
   5  -4   9   -0.46    2.01
   5   4   9    2.82    1.38
  -5  -4  -9    1.01    2.22
  -6  -5   9    3.80    2.31
  -6  -5   9    1.13    1.11
   6   5  -9    2.03    0.86
   6  -5  -9    0.74    0.93
  -6   5   9    3.03    1.06
  -5  -5   9    3.65    2.22
  -5   5   9    2.26    0.99
   5   5  -9    2.11    0.90
   5  -5  -9    3.82    1.31
  -5  -5   9    4.68    1.47
   4   5  -9   40.22    2.66
  -4   5   9   37.85    2.53
   4  -5  -9   37.23    2.88
  -4  -5   9   41.77    4.81
  -4  -5   9   44.83    3.37
   3   5  -9   39.18    2.55
  -3  -5   9   26.46    2.94
  -3  -5   9   44.12    4.72
  -3   5   9   40.50    2.47
   3  -5  -9   34.16    2.65
  -2   5   9    6.07    1.14
   2   5  -9    6.45    1.42
   2   5  -9    3.71    1.00
  -2  -5   9    3.60    1.97
  -2   5   9    6.95    1.64
  -1   5   9    6.13    1.31
   1  -5  -9   10.73    2.39
  -1   5   9    8.81    1.23
   1   5  -9    6.26    1.18
  -1  -5   9   10.72    2.76
   1   5  -9    6.42    1.15
   0  -5  -9    0.85    1.62
   0   5   9    1.31    0.88
   0   5  -9    2.67    1.14
   0   5  -9    1.79    0.76
   0  -5   9    3.62    2.15
   1  -5   9    4.56    2.08
  -1  -5  -9    4.23    2.16
   1   5   9    3.46    1.23
  -1   5  -9    3.00    0.93
  -1   5  -9    7.66    1.96
  -2  -5  -9    6.74    2.48
  -2   5  -9    9.41    1.79
   2  -5   9    9.61    3.15
   2   5   9    8.43    1.66
  -3  -5  -9    0.74    1.62
   3  -5   9   -0.50    1.87
  -3   5  -9    0.48    0.98
   3   5   9    2.11    1.15
   4   5   9   -0.51    0.88
  -4   5  -9    0.25    0.96
  -4  -5  -9    1.07    1.93
   4  -5   9    0.51    1.95
   4   6  -9    1.25    0.86
   4  -6  -9    2.29    1.23
  -4   6   9    4.01    1.19
  -4  -6   9    1.56    2.28
  -3   6   9    7.79    1.39
   3   6  -9    8.71    1.45
  -3  -6   9   10.80    3.25
   3  -6  -9   11.57    2.09
  -2  -6   9   -0.10    1.75
  -2   6   9    0.78    0.73
   2   6  -9   -0.31    0.62
  -1   6   9    1.84    1.15
   1  -6  -9    0.75    1.58
  -1  -6   9   -0.02    1.64
  -1   6   9    2.48    0.96
   1   6  -9    0.62    0.69
   0   6   9   11.54    1.92
   0   6  -9    8.96    1.52
   0  -6   9    8.13    2.81
   0  -6  -9   11.91    2.73
  -1  -6  -9    4.57    2.21
  -1   6  -9    3.63    1.08
   1  -6   9    6.66    2.97
   1   6   9    6.36    1.58
   2  -6   9    1.23    2.10
   2   6   9    3.22    1.28
  -2  -6  -9   -0.88    1.56
  -2   6  -9    0.70    1.00
  -8   0  10    8.13    1.78
   8   0 -10    6.41    1.35
   7   0 -10    0.81    0.61
  -7   0  10    0.35    0.66
  -6   0  10   25.35    2.66
   6   0 -10   25.43    2.01
  -5   0  10  157.58    6.85
   5   0 -10  150.02    5.77
  -4   0  10   22.39    2.45
   4   0 -10   21.82    1.66
  -3   0  10    2.77    1.21
   3   0 -10    3.83    0.82
  -3   0  10    4.51    1.64
  -2   0  10   10.27    2.12
  -2   0  10   12.05    1.97
   2   0 -10   15.43    1.36
  -1   0  10    8.91    2.38
   1   0 -10    9.69    1.06
   0   0  10   19.04    3.07
   0   0 -10   22.40    2.03
   1   0  10   55.71    4.36
  -1   0 -10   59.18    3.59
  -2   0 -10    1.36    0.98
   2   0  10    1.05    1.61
   2   0  10    1.50    0.84
   3   0  10    0.66    0.79
  -3   0 -10    0.60    0.86
   3   0  10    0.96    1.61
  -4   0 -10   12.49    2.00
   4   0  10   15.32    3.36
   4   0  10   11.79    1.64
  -5   0 -10    1.96    1.09
   5   0  10    1.11    1.01
   5   0  10    1.88    2.19
   8   1 -10    0.90    0.79
   8  -1 -10    1.23    0.86
  -8  -1  10    4.00    1.38
  -8   1  10    3.83    1.33
   7  -1 -10    1.53    0.73
  -7  -1  10    0.83    0.91
   7   1 -10    2.66    0.85
  -7   1  10    1.57    1.11
   6   1 -10   15.15    1.72
   6  -1 -10   13.47    1.66
  -6   1  10   16.09    2.21
  -6  -1  10   13.12    2.09
   5   1 -10   12.72    1.54
   5  -1 -10   12.90    1.50
  -5   1  10   13.65    2.06
  -5  -1  10   12.35    2.07
   4   1 -10   12.65    1.47
  -4   1  10   17.38    2.11
   4  -1 -10   15.09    1.50
  -4  -1  10   15.99    2.17
  -3   1  10   20.01    2.25
   3   1 -10   17.73    1.60
  -3  -1  10   12.47    2.25
  -3  -1  10   19.71    2.41
   3  -1 -10   22.46    1.56
  -2   1  10    1.36    1.11
  -2  -1  10    0.38    1.40
  -2  -1  10   -0.17    0.94
   2   1 -10   -0.01    0.44
  -2   1  10   -0.09    1.36
   2  -1 -10   -0.16    0.46
   1   1 -10   44.61    2.36
   1  -1 -10   44.41    2.23
  -1   1  10   51.78    4.37
  -1   1  10   48.83    2.53
  -1  -1  10   47.01    4.20
   0  -1 -10   22.24    1.96
   0  -1  10   21.61    3.07
   0   1 -10   22.79    1.93
   0   1  10   33.64    3.88
   0   1  10   23.61    1.70
  -1  -1 -10    6.41    1.45
  -1   1 -10    4.11    1.32
   1  -1  10    5.92    2.09
   1   1  10    6.60    2.27
  -2   1 -10    3.14    1.19
   2  -1  10    5.93    2.10
   2   1  10    6.17    2.36
   2   1  10    4.24    1.03
  -2  -1 -10    4.23    1.21
   3  -1  10    4.28    1.81
  -3   1 -10    2.64    1.03
  -3  -1 -10    4.44    1.22
   3   1  10    1.62    0.87
   3   1  10    1.34    1.62
   4   1  10    0.97    2.07
   4  -1  10   -1.53    1.51
  -4  -1 -10    0.37    0.94
   4   1  10    0.10    1.01
  -4   1 -10    1.74    0.99
   5  -1  10    1.79    2.17
  -5   1 -10    1.08    1.10
  -5  -1 -10   -1.39    0.87
   5   1  10    1.80    1.16
   5   1  10   -1.58    1.89
   8   2 -10    4.34    1.16
  -8  -2  10    3.54    1.36
  -8   2  10    3.23    1.27
   8  -2 -10    1.83    0.88
   7   2 -10   14.33    1.81
   7  -2 -10   15.00    1.88
  -7   2  10   13.28    2.08
  -7  -2  10   16.18    2.36
  -6  -2  10    5.10    1.49
   6   2 -10    3.37    0.93
  -6   2  10    5.12    1.37
   6  -2 -10    3.88    1.04
  -5  -2  10   45.85    3.33
  -5   2  10   44.75    3.21
   5   2 -10   48.10    2.78
  -4   2  10   31.90    2.05
  -4   2  10   33.49    2.61
  -4  -2  10   21.23    3.00
   4   2 -10   32.36    2.17
   4  -2 -10   35.85    2.23
  -4  -2  10   35.92    2.90
   3  -2 -10   11.72    1.48
   3   2 -10   10.69    1.33
  -3   2  10   12.49    1.91
  -3   2  10   11.14    1.36
  -3  -2  10    8.41    2.06
  -3  -2  10   13.69    2.10
  -2   2  10   31.10    2.76
  -2   2  10   26.43    1.69
  -2  -2  10   19.28    3.13
  -2  -2  10   25.73    2.77
  -2   2  10   27.79    3.36
  -2   2  10   16.82    1.74
   2   2 -10   24.61    1.77
  -1  -2  10   52.43    4.41
   1  -2 -10   49.53    3.01
   1   2 -10   51.22    2.50
   1   2 -10   54.09    3.29
   1  -2 -10   47.63    2.39
  -1   2  10   50.97    2.70
  -1   2  10   51.43    4.48
   0   2  10   34.53    2.25
   0  -2  10   27.22    3.68
   0   2  10   36.22    3.99
   0  -2 -10   35.46    2.49
   0   2 -10   28.67    2.41
  -1  -2 -10   45.48    2.93
   1  -2  10   27.74    3.79
   1   2  10   42.50    4.55
  -1   2 -10   42.53    3.20
   1   2  10   42.50    2.56
   2  -2  10    6.03    2.16
   2   2  10   12.06    1.66
   2   2  10    9.98    2.83
  -2   2 -10   11.81    1.98
  -2  -2 -10   10.82    1.63
  -3  -2 -10    3.59    1.27
   3   2  10    4.07    2.30
   3   2  10    4.98    1.33
   3  -2  10    2.07    1.75
  -3   2 -10    6.08    1.44
  -4  -2 -10    0.34    0.84
   4  -2  10    6.19    2.27
   4   2  10    1.48    1.68
  -4   2 -10    0.91    1.00
   4   2  10    0.70    0.96
  -5   2 -10    9.61    2.16
   5   2  10    9.14    1.90
  -5  -2 -10   14.74    2.24
   5  -2  10   12.05    2.86
  -7   3  10    5.15    1.17
   7   3 -10    8.10    1.40
  -7   3  10    6.44    1.39
   7  -3 -10    6.93    1.60
  -7  -3  10    5.87    1.64
  -6   3  10   -0.31    0.59
   6  -3 -10    0.51    0.88
  -6   3  10   -0.45    0.86
  -6  -3  10    2.80    1.15
   6   3 -10    0.35    0.61
  -5   3  10    8.54    1.41
  -5  -3  10    9.65    2.44
  -5  -3  10    7.98    1.72
   5  -3 -10   10.35    1.59
  -5   3  10    9.81    1.85
   5   3 -10    7.94    1.34
  -4   3  10   34.38    2.26
  -4   3  10   36.42    2.89
   4  -3 -10   37.30    2.50
   4   3 -10   36.85    2.40
  -4  -3  10   45.87    4.11
  -4  -3  10   38.02    3.04
   3  -3 -10   21.13    2.01
   3   3 -10   20.00    1.85
  -3   3  10   20.90    1.68
  -3  -3  10   24.22    3.47
  -3  -3  10   19.13    2.49
  -3   3  10   23.89    2.39
  -2  -3  10   79.39    4.40
  -2   3  10   99.31    4.73
   2   3 -10   93.03    4.00
  -2   3  10   95.63    3.84
  -2  -3  10   88.62    6.02
  -2   3  10   99.00    4.31
   1   3 -10    9.16    1.69
  -1  -3  10    5.48    2.13
   1  -3 -10    7.39    1.26
  -1   3  10    9.42    1.43
   1   3 -10    8.36    1.23
   0   3 -10   22.44    1.60
   0   3  10   24.93    2.33
   0  -3  10   16.87    3.11
   0   3 -10   22.86    2.44
   1  -3  10    8.03    2.42
   1   3  10    6.75    1.33
  -1   3 -10    8.23    1.78
  -2   3 -10   28.21    2.66
   2  -3  10   23.66    3.57
   2   3  10   23.70    2.26
  -3   3 -10    7.37    1.66
  -3  -3 -10    5.17    2.26
   3  -3  10    8.11    2.69
   3   3  10    7.75    1.56
   4  -3  10    3.99    1.98
   4   3  10    0.76    1.07
  -4   3 -10    2.03    1.27
  -4  -3 -10    1.36    1.75
   5  -3  10    0.91    2.13
   5   3  10   -1.65    0.82
  -5  -3 -10    2.39    2.12
  -5   3 -10    0.84    1.18
  -7  -4  10   -1.20    0.90
   7   4 -10    0.71    0.73
  -7   4  10    0.38    0.80
   7  -4 -10   -0.23    0.95
  -6  -4  10    5.46    1.65
  -6   4  10    6.68    1.36
   6   4 -10    5.97    1.26
   6  -4 -10    6.88    1.63
  -5  -4  10    2.75    1.83
  -5  -4  10    0.85    1.20
   5  -4 -10    0.96    0.91
   5   4 -10    1.60    0.81
  -5   4  10    4.80    1.09
  -4   4  10    9.75    1.49
   4  -4 -10   10.75    1.75
   4   4 -10   12.12    1.64
  -4  -4  10   11.22    2.82
  -4  -4  10   13.14    2.16
  -3  -4  10   61.52    5.23
   3  -4 -10   74.93    3.84
   3   4 -10   74.35    3.63
  -3   4  10   70.52    3.39
  -3  -4  10   64.82    4.51
  -2  -4  10   69.79    5.49
   2   4 -10   70.59    3.40
  -2   4  10   70.41    3.30
  -2   4  10   68.28    3.68
  -1   4  10    4.71    1.13
  -1  -4  10    5.53    2.20
   1   4 -10    6.50    1.16
   1  -4 -10    4.87    1.94
   1   4 -10    3.97    1.37
  -1   4  10    3.89    0.97
   0  -4 -10    2.00    1.60
   0  -4  10    6.14    2.40
   0   4  10    2.60    1.07
   0   4 -10    2.40    1.14
   0   4 -10    1.31    0.69
   1   4  10    4.09    1.16
  -1  -4 -10    3.95    1.92
   1  -4  10    7.31    2.75
  -1   4 -10    4.19    1.15
   2   4  10    8.90    1.55
  -2  -4 -10    5.19    2.28
   2  -4  10    8.66    2.80
  -2   4 -10    6.09    1.58
   3   4  10   10.38    1.78
  -3   4 -10   10.32    2.05
   3  -4  10   13.73    3.07
  -3  -4 -10   10.55    2.79
   4   4  10    1.98    1.16
  -4   4 -10    2.27    1.25
  -4  -4 -10    1.25    1.76
   4  -4  10    1.92    2.36
   5  -5 -10    1.38    1.31
  -5   5  10    1.45    0.89
   5   5 -10    2.79    1.01
  -5  -5  10    0.56    1.10
  -5  -5  10    2.52    1.89
  -4  -5  10    6.44    1.78
  -4   5  10    5.58    1.32
   4  -5 -10    4.86    1.51
   4   5 -10    5.72    1.29
  -4  -5  10   11.61    2.90
   3   5 -10   36.80    2.52
   3  -5 -10   33.76    2.93
  -3  -5  10   38.33    4.50
  -3   5  10   37.68    2.41
  -3  -5  10   29.52    3.23
   2   5 -10   45.36    2.95
   2   5 -10   51.46    3.33
  -2   5  10   60.69    3.68
  -2  -5  10   54.65    4.90
  -2   5  10   53.78    2.90
   1   5 -10   -1.77    0.78
  -1   5  10   -0.17    0.66
  -1  -5  10   -2.54    1.86
   1  -5 -10    0.99    1.60
   1   5 -10    1.51    0.75
   0   5  10    8.40    1.53
   0  -5 -10    3.80    1.83
   0   5 -10    5.84    1.14
   0   5 -10    4.63    1.54
   0  -5  10    5.14    2.62
   1  -5  10    1.12    2.04
   1   5  10   -0.22    0.74
  -1   5 -10    0.77    1.13
  -1  -5 -10    2.53    1.63
  -2  -5 -10    0.86    1.54
   2  -5  10   -1.51    1.99
   2   5  10    0.91    1.03
  -2   5 -10    0.50    1.07
   3  -6 -10   17.88    2.60
  -3   6  10   16.69    1.89
   3   6 -10   16.36    2.05
  -3  -6  10   15.41    3.68
  -2   6  10    5.26    1.17
  -2  -6  10    8.12    2.73
   2   6 -10    5.55    1.29
   1   6 -10    1.54    0.89
  -1  -6  10    4.18    2.51
  -1   6  10    2.97    1.32
   0   6 -10    4.12    1.19
   0   6 -10    3.46    1.10
   0   6  10    2.42    1.03
   0  -6  10    4.76    2.74
   0  -6 -10    3.68    2.03
  -8   0  11   10.25    2.14
   8   0 -11    6.55    1.37
   7   0 -11   -0.10    0.68
  -7   0  11    0.27    0.91
   6   0 -11    0.35    0.60
  -6   0  11    0.26    0.98
   5   0 -11   22.89    2.04
  -5   0  11   23.88    2.76
  -4   0  11   66.85    4.24
   4   0 -11   73.48    3.47
   3   0 -11    0.41    0.57
  -3   0  11    2.78    1.69
  -3   0  11    1.89    1.30
  -2   0  11    8.45    1.92
   2   0 -11    9.77    1.25
  -2   0  11    7.86    2.29
  -1   0  11    1.13    1.53
   1   0 -11   -0.32    0.66
   0   0  11   13.70    2.70
   0   0 -11   14.93    2.05
  -1   0 -11   42.22    3.11
   1   0  11   38.33    4.25
   2   0  11    1.78    1.80
  -2   0 -11    1.53    1.02
   3   0  11    6.68    2.47
  -3   0 -11    4.13    1.44
   4   0  11    3.79    2.46
  -4   0 -11    3.35    1.38
   5   0  11   -1.10    2.32
  -5   0 -11    1.69    1.27
  -7  -1  11    1.60    1.55
  -7   1  11   -0.17    0.94
   7   1 -11    1.98    0.86
   7  -1 -11    2.52    0.89
   6   1 -11   19.89    2.02
   6  -1 -11   21.22    2.00
  -6  -1  11   18.84    2.63
  -6   1  11   16.30    2.30
  -5   1  11   13.15    2.14
  -5  -1  11    9.85    1.95
   5  -1 -11   10.15    1.43
   5   1 -11    9.58    1.44
  -4   1  11    6.29    1.61
  -4  -1  11    1.44    1.15
   4   1 -11    3.14    0.86
   4  -1 -11    2.89    0.89
  -4  -1  11    0.60    1.43
   3  -1 -11    3.68    0.87
  -3   1  11    2.26    1.62
  -3  -1  11    2.34    1.69
  -3  -1  11    4.80    1.68
   3   1 -11    4.87    0.98
  -3   1  11    4.15    1.48
  -2  -1  11    9.02    2.11
   2   1 -11    8.22    1.15
  -2   1  11    8.69    2.31
  -2   1  11   11.33    2.10
  -2  -1  11    6.28    2.18
   2  -1 -11    8.29    1.19
  -1   1  11  115.04    6.88
   1   1 -11  115.72    4.43
   1  -1 -11  116.86    5.41
   1   1 -11  115.30    5.47
   0  -1 -11  144.59    6.30
   0   1  11  139.67    7.94
   0   1 -11  143.62    6.40
   1   1  11   13.57    3.16
  -1  -1 -11   11.49    1.97
  -1   1 -11   11.81    2.06
   1  -1  11    7.53    2.17
  -2  -1 -11    5.47    1.54
   2   1  11    5.18    1.22
  -2   1 -11    6.88    1.65
   2  -1  11    6.31    2.33
   2   1  11    3.25    1.93
  -3  -1 -11    0.46    1.00
   3   1  11    2.35    2.06
   3  -1  11   -1.76    1.27
   3   1  11    2.18    1.04
  -3   1 -11    0.91    0.99
   4  -1  11    1.58    2.20
   4   1  11    0.13    2.16
   4   1  11   -0.54    0.80
  -4  -1 -11    0.48    0.97
  -4   1 -11   -0.95    0.78
  -7   2  11    0.57    1.08
  -7  -2  11    0.98    1.19
   7   2 -11    1.32    0.82
   7  -2 -11    1.74    0.82
   6  -2 -11    2.08    0.84
  -6  -2  11    0.62    0.96
  -6   2  11    2.00    1.11
   6   2 -11    0.03    0.65
   5  -2 -11    1.24    0.69
  -5   2  11    3.34    1.24
   5   2 -11    3.04    0.93
  -5  -2  11    0.40    0.93
   4  -2 -11   42.22    2.52
  -4  -2  11   41.46    3.30
  -4  -2  11   44.47    4.13
  -4   2  11   37.70    3.10
   4   2 -11   42.31    2.66
  -3   2  11   51.45    3.59
   3  -2 -11   48.01    2.64
   3   2 -11   50.58    2.79
  -3  -2  11   52.59    3.75
  -3  -2  11   54.00    4.47
  -2   2  11   20.35    3.22
  -2  -2  11   14.63    2.45
  -2  -2  11   16.20    2.93
  -2   2  11   14.81    2.17
   2   2 -11   16.91    1.62
   2  -2 -11   17.81    1.53
  -1  -2  11   79.21    5.65
  -1   2  11   66.59    5.39
   1  -2 -11   71.13    3.80
   1   2 -11   70.87    4.02
   1   2 -11   70.70    3.21
   0  -2  11   24.05    3.58
   0   2 -11   44.96    3.19
   0  -2 -11   42.46    2.82
   0   2  11   41.41    2.53
   0   2  11   38.11    4.44
   1   2  11    5.68    1.26
   1   2  11   11.78    2.91
   1  -2  11   10.66    2.56
  -1  -2 -11    7.83    1.47
  -1   2 -11    9.53    1.94
  -2   2 -11    1.05    0.93
   2  -2  11   -0.33    1.56
  -2  -2 -11    0.68    0.79
   2   2  11    1.05    1.75
   2   2  11    1.65    0.81
   3  -2  11   -0.26    1.66
   3   2  11    0.74    2.13
   3   2  11    3.18    1.17
  -3   2 -11    0.73    1.03
  -3  -2 -11   -0.32    0.89
   4   2  11    1.33    0.92
  -4  -2 -11    2.71    1.15
   4  -2  11    3.23    2.08
   4   2  11   -1.06    1.87
  -4   2 -11    1.95    1.17
  -7   3  11   13.62    2.14
  -7  -3  11   13.29    2.34
   7   3 -11   16.10    2.02
   6   3 -11    6.72    1.30
  -6   3  11    4.19    1.43
  -6   3  11    7.36    1.35
  -6  -3  11    3.43    1.47
   5   3 -11    2.79    0.87
  -5  -3  11    2.09    1.23
  -5   3  11    2.72    1.29
  -5   3  11    3.28    0.90
  -4  -3  11    6.82    2.30
   4  -3 -11    5.53    1.37
  -4   3  11    6.04    1.21
  -4   3  11    3.60    1.38
  -4  -3  11    3.56    1.59
   4   3 -11    6.40    1.21
   3   3 -11   21.61    1.99
  -3  -3  11   19.30    2.65
  -3  -3  11   19.05    3.29
  -3   3  11   21.84    2.49
   3  -3 -11   22.95    2.15
  -3   3  11   20.18    1.82
  -2   3  11    2.14    0.82
  -2   3  11    3.01    1.00
  -2   3  11    3.44    1.29
  -2  -3  11    0.23    1.18
  -2  -3  11    1.78    1.79
   2   3 -11    3.33    0.93
  -1  -3  11    4.82    2.31
   1   3 -11    2.66    1.20
   1   3 -11    5.07    1.03
  -1   3  11    5.90    1.41
  -1   3  11    3.67    2.29
   0   3 -11    2.94    1.32
   0   3  11    5.53    2.53
   0  -3  11    3.57    1.99
   0   3  11    3.54    1.07
   1   3  11    2.51    1.03
  -1   3 -11    1.16    1.02
   1  -3  11    1.65    1.70
  -2   3 -11    3.93    1.31
   2   3  11    3.56    1.15
   2  -3  11    0.48    1.89
   3  -3  11    3.99    2.04
  -3   3 -11    0.71    0.95
   3   3  11    3.85    1.33
  -3  -3 -11    2.42    1.93
   4   3  11    6.93    1.78
  -4   3 -11    3.57    1.49
   4  -3  11    0.92    2.13
  -4  -3 -11    6.22    2.61
   6  -4 -11    1.78    1.06
  -6  -4  11    2.04    1.38
  -6   4  11    1.15    0.90
   6   4 -11    1.55    0.94
  -5   4  11    2.57    0.87
  -5  -4  11    1.08    1.78
   5  -4 -11    0.03    1.00
   5   4 -11    0.83    0.79
  -5  -4  11    1.28    1.15
   4  -4 -11    0.86    1.02
  -4  -4  11    0.92    1.71
  -4   4  11    1.18    0.87
  -4  -4  11    1.04    1.30
   4   4 -11    0.82    0.66
  -3  -4  11   54.99    5.25
  -3   4  11   42.15    2.64
   3   4 -11   46.32    2.84
   3  -4 -11   48.27    3.15
   2   4 -11   20.01    2.33
  -2  -4  11   22.74    3.72
   2   4 -11   18.25    1.86
  -2   4  11   16.50    1.69
  -2   4  11   17.80    2.10
   1   4 -11   12.62    1.57
  -1   4  11   11.30    1.70
   1  -4 -11   15.82    3.05
   1   4 -11   12.71    1.85
   0  -4  11    3.51    2.16
   0   4 -11    2.29    1.25
   0   4  11    1.90    1.11
   0  -4 -11   -0.72    1.18
   1   4  11    0.46    0.85
   1  -4  11    0.58    2.17
  -1  -4 -11    1.20    1.58
  -1   4 -11   -0.19    0.90
  -2   4 -11    8.58    1.84
  -2  -4 -11    7.01    2.73
   2  -4  11    6.40    2.80
   2   4  11    7.95    1.63
   3   4  11   12.43    2.01
  -3   4 -11    8.85    1.99
  -3  -4 -11   15.75    3.50
   3  -4  11   10.27    3.26
  -4  -5  11    1.88    1.59
  -4  -5  11    3.60    2.31
   4  -5 -11    2.70    1.34
   4   5 -11    2.48    0.98
  -4   5  11    3.45    1.03
   3  -5 -11    8.35    1.81
  -3  -5  11    5.76    2.56
   3   5 -11    8.09    1.45
  -3   5  11    9.43    1.52
  -2   5  11   30.24    3.02
  -2   5  11   25.01    1.98
   2   5 -11   29.18    2.31
  -2  -5  11   25.12    4.30
   2   5 -11   27.93    2.82
   1   5 -11    8.57    1.76
  -1   5  11    1.69    1.11
   1   5 -11    3.15    0.93
  -1  -5  11    2.13    2.49
   1  -5 -11    5.88    2.13
   0  -5 -11    4.77    1.98
   0   5  11    4.05    1.26
   0  -5  11    5.60    2.90
   0   5 -11    5.82    1.64
  -1   5 -11    2.30    1.38
   1  -5  11    1.03    2.38
   1   5  11    2.88    1.22
  -1  -5 -11    0.27    1.86
  -7   0  12    0.27    1.13
   7   0 -12    0.02    0.70
  -6   0  12    3.64    1.50
   6   0 -12    5.12    1.20
   5   0 -12   12.50    1.65
  -5   0  12   11.03    2.06
   4   0 -12   -0.08    0.53
  -4   0  12   -0.21    1.04
  -3   0  12    2.42    1.81
   3   0 -12    0.10    0.59
  -3   0  12    0.58    1.31
  -2   0  12   13.48    2.40
  -2   0  12    7.01    2.41
   2   0 -12    7.12    1.12
   1   0 -12    0.78    0.82
  -1   0  12    0.74    1.47
   0   0  12   16.95    3.05
   0   0 -12   14.43    2.16
   1   0  12   48.78    5.58
  -1   0 -12   52.63    3.75
  -2   0 -12    1.94    1.03
   2   0  12    1.99    1.82
   3   0  12   -0.02    1.88
  -3   0 -12   -1.92    0.94
  -7   1  12    1.50    1.26
   7  -1 -12    0.45    0.76
  -7  -1  12    0.23    1.15
   7   1 -12    1.12    0.81
   6   1 -12    0.58    0.74
   6  -1 -12    0.92    0.75
  -6  -1  12    2.75    1.42
  -6   1  12    1.79    1.28
  -5  -1  12    1.38    1.34
  -5   1  12    3.13    1.29
   5  -1 -12    2.63    0.90
   5   1 -12    4.11    1.06
   4   1 -12    8.81    1.32
   4  -1 -12    8.43    1.32
  -4  -1  12    8.79    2.04
  -4   1  12    9.61    1.99
   3   1 -12   32.38    2.12
  -3   1  12   23.28    3.38
   3  -1 -12   27.32    1.87
  -3   1  12   29.97    3.07
  -3  -1  12   22.07    2.93
  -2   1  12   22.76    3.49
  -2   1  12   22.69    2.79
   2   1 -12   23.82    1.74
  -2  -1  12   23.48    2.85
   1  -1 -12   27.23    2.66
  -1   1  12   33.77    4.15
   1   1 -12   31.08    2.63
   0   1  12   40.30    4.74
   0   1 -12   39.70    3.10
   0  -1  12   28.94    3.84
   0  -1 -12   36.03    2.88
   1  -1  12   52.42    4.94
  -1   1 -12   51.60    3.76
  -1  -1 -12   51.57    3.58
   1   1  12   48.32    5.46
   2   1  12   19.02    3.89
   2  -1  12   16.54    3.32
  -2   1 -12   23.31    2.67
  -2  -1 -12   19.89    2.50
  -3   1 -12   -0.28    1.07
  -3  -1 -12    0.25    1.19
   3   1  12    1.24    2.07
   3  -1  12    0.97    2.27
   6   2 -12    4.89    1.21
   6  -2 -12    3.38    0.99
  -6  -2  12    6.35    1.76
  -6   2  12    2.84    1.33
   5  -2 -12    3.67    0.89
   5   2 -12    5.35    1.22
  -5   2  12    4.82    1.42
  -5  -2  12    4.11    1.48
  -4  -2  12   18.71    2.72
  -4  -2  12   14.81    2.79
  -4   2  12   16.64    2.28
   4  -2 -12   12.36    1.50
   4   2 -12   13.54    1.66
  -3  -2  12   12.51    2.84
  -3   2  12   18.89    2.64
   3  -2 -12   20.36    1.74
   3   2 -12   19.38    1.91
  -3  -2  12   16.74    2.79
   2   2 -12    2.28    0.78
  -2  -2  12    2.77    1.75
  -2   2  12    0.75    1.76
   1  -2 -12   15.03    2.03
   1   2 -12   14.77    2.22
  -1   2  12   13.19    2.98
   0  -2  12    8.94    2.45
   0  -2 -12    9.53    1.80
   0   2 -12   11.95    2.05
   0   2  12   11.39    2.98
   1   2  12    9.96    3.13
  -1   2 -12   14.42    2.29
   1  -2  12    8.27    2.52
  -1  -2 -12   15.27    2.29
   2   2  12    2.48    1.13
   2   2  12    3.95    2.71
  -2   2 -12    4.39    1.32
   2  -2  12    1.99    2.09
  -2  -2 -12    4.27    1.33
  -3  -2 -12    0.00    1.06
   3  -2  12    1.60    2.16
   3   2  12    2.02    1.21
  -3   2 -12    0.58    1.16
   3   2  12    1.87    2.56
  -6  -3  12    0.87    1.50
  -6   3  12    1.04    1.18
   6  -3 -12    2.47    1.05
   6   3 -12    2.57    0.95
   5   3 -12    0.96    0.74
  -5   3  12   -0.07    1.12
  -5  -3  12    2.27    1.43
  -4   3  12    5.29    1.11
   4   3 -12    3.93    1.02
  -4  -3  12    6.60    2.31
  -4  -3  12    6.34    1.92
  -4   3  12    7.24    1.85
   3   3 -12    5.04    1.08
  -3  -3  12    4.66    2.27
  -3  -3  12    3.06    1.52
  -3   3  12    4.18    1.76
  -2  -3  12   17.43    3.15
   2   3 -12   17.16    2.29
   2   3 -12   16.05    1.72
  -2   3  12   18.59    2.11
  -1   3  12    6.60    1.39
  -1   3  12    7.78    2.63
   1   3 -12    6.75    1.59
  -1  -3  12    5.92    2.20
   0  -3  12    1.04    1.72
   0   3  12    1.31    0.93
   0   3  12    1.60    2.03
   0   3 -12    0.99    1.18
   1   3  12    2.29    1.03
  -1   3 -12    2.79    1.25
   1  -3  12    1.12    1.86
   2  -3  12    9.68    2.87
   2   3  12    7.66    1.53
  -2   3 -12    7.00    1.78
  -4   4  12    0.88    0.83
  -4  -4  12    0.70    1.45
   4   4 -12    0.63    0.73
  -4  -4  12    1.22    1.98
   3   4 -12    9.91    1.60
   3  -4 -12    9.67    1.82
  -3  -4  12    8.10    2.93
  -3  -4  12    7.26    2.14
  -3   4  12    7.46    1.34
   2   4 -12    3.86    1.02
   2   4 -12    3.30    1.27
  -2  -4  12    3.50    2.17
  -2   4  12    3.00    1.44
   1   4 -12    2.85    1.21
  -1   4  12    2.45    0.99
  -1  -4  12    2.05    2.26
   1  -4 -12    0.75    1.38
   0  -4 -12    0.86    1.84
   0   4  12    0.99    0.85
   0  -4  12   -1.05    1.81
   0   4 -12   -1.66    0.85
  -1   4 -12    4.13    1.70
   1  -4  12    2.43    2.50
  -1  -4 -12    0.11    1.75
   1   4  12    0.33    1.31
  -6   0  13    5.60    1.71
   6   0 -13    4.44    1.24
  -5   0  13    2.89    1.56
   5   0 -13    2.37    0.94
  -4   0  13    5.95    1.96
   4   0 -13    4.68    1.01
  -3   0  13   -0.35    1.50
   3   0 -13    0.92    0.66
  -3   0  13    1.90    1.52
  -2   0  13    3.57    1.97
  -1   0  13    7.38    2.29
   1   0 -13    2.27    1.23
   0   0 -13   46.29    3.67
   0   0  13   58.08    6.01
  -1   0 -13   96.71    5.52
   1   0  13  101.62    7.49
   2   0  13   56.36    5.80
  -2   0 -13   46.52    3.69
  -6   1  13   -0.82    1.05
  -6  -1  13    0.15    1.23
   6  -1 -13    1.03    0.81
   6   1 -13    0.43    0.72
  -5  -1  13    2.17    1.58
   5  -1 -13    1.60    0.92
   5   1 -13    1.32    0.83
  -5   1  13    1.63    1.31
   4  -1 -13   16.55    1.74
  -4  -1  13   16.86    2.65
   4   1 -13   16.58    1.84
  -4   1  13   16.44    2.72
  -3  -1  13    1.35    1.64
   3  -1 -13    6.67    1.16
  -3   1  13    8.76    2.21
  -3  -1  13    8.69    2.30
   3   1 -13    7.75    1.27
  -2   1  13    9.90    2.81
  -2  -1  13   11.49    2.63
   1   1 -13    6.49    1.74
  -1   1  13    7.66    2.91
   1  -1 -13    5.31    1.36
  -1  -1  13    8.15    2.46
   0  -1  13    6.35    2.73
   0   1 -13    6.75    1.75
   0   1  13    6.01    2.69
   0  -1 -13    5.62    1.57
   1  -1  13   14.07    3.33
  -1   1 -13   13.91    2.43
   1   1  13   12.75    3.44
  -1  -1 -13   15.28    2.46
  -2   1 -13    0.40    1.27
   2  -1  13    1.53    2.00
   2   1  13    5.32    2.63
  -2  -1 -13    3.40    1.43
   5  -2 -13    2.19    0.85
  -5   2  13    0.88    1.43
   5   2 -13    2.96    0.95
  -5  -2  13    1.32    1.37
   4   2 -13    0.26    0.70
   4  -2 -13    1.95    0.78
  -4   2  13    1.69    1.40
  -4  -2  13    1.97    1.42
  -3  -2  13    1.52    1.72
   3   2 -13   -1.38    0.54
  -3  -2  13   -0.04    1.09
  -3   2  13    0.25    1.26
   2   2 -13    8.51    1.84
   2  -2 -13   12.31    1.94
  -2   2  13    9.45    2.85
  -1  -2  13    2.12    1.98
   1   2 -13    1.53    1.10
  -1   2  13   -1.34    1.63
   1  -2 -13    1.88    0.95
   0  -2  13    3.01    2.03
   0  -2 -13    2.88    1.24
   0   2 -13    4.30    1.46
   0   2  13    6.62    2.68
  -1   2 -13    0.78    1.08
   1   2  13    1.04    2.23
  -1  -2 -13    5.84    1.78
   1  -2  13    3.50    2.41
  -4  -3  13    1.51    2.10
   4  -3 -13    1.62    0.82
   4   3 -13    1.79    0.82
  -4  -3  13    1.84    1.78
  -3  -3  13    0.23    1.59
  -3  -3  13    2.61    2.13
   3   3 -13    0.00    0.71
  -2  -3  13    3.62    2.24
   2   3 -13    9.29    1.95
  -1  -3  13    3.31    2.09
  -1   3  13    8.71    3.02
   1   3 -13    7.02    1.78
   0  -3  13   -0.56    1.72
   0   3 -13    2.26    1.24
   0   3  13    2.02    2.39
  -4   0  14    0.07    1.52
   4   0 -14    0.72    0.66
  -3   0  14    6.10    2.10
   2   0 -14    0.39    1.00
  -2   0  14    5.41    2.54
  -1   0  14    4.46    2.97
   1   0 -14    3.10    1.29
   0   0 -14   10.18    2.20
   0   0  14   20.24    4.00
  -4   1  14    0.60    1.66
  -4  -1  14    2.02    1.81
   4   1 -14    1.21    0.87
   4  -1 -14    1.72    0.79
  -3  -1  14    2.61    2.04
  -3   1  14    1.49    1.64
  -3  -1  14    2.85    1.76
   2  -1 -14    0.80    0.94
   2   1 -14   -0.71    0.77
  -2  -1  14    1.73    2.45
  -2   1  14    2.17    1.95
  -1  -1  14    4.58    2.57
  -1   1  14    3.43    2.57
   1   1 -14    3.07    1.39
   1  -1 -14    3.77    1.41
   0  -1 -14    5.90    1.68
   0   1  14    9.08    3.48
   0  -1  14    3.70    2.41
   0   1 -14    6.95    1.85
   2  -2 -14    6.88    1.51
  -2  -2  14    3.44    2.49
   2   2 -14    7.72    1.74
   0   0   0    0.00    0.00
;
_shelx_hkl_checksum              47027
_shelx_res_file
;
TITL ch2_m in P2(1)
 ch2_m.res created by SHELXL-2016/4 at 16:28:36 on 26-Nov-2016
CELL 0.71073   8.7149   7.3011  12.1128  90.000 101.209  90.000
ZERR    2.00   0.0046   0.0039   0.0064   0.000   0.009   0.000
LATT -1
SYMM -X, 0.5+Y, -Z
SFAC  C   H   N   O
UNIT   32   34   6   6
SIZE 0.35 0.25 0.15
TEMP 0
L.S. 8
BOND $H
ACTA
FMAP 2
PLAN 20
EADP C2A  C2B
REM EXYZ C2A  C2B
SADI C2A O1A C2B O1B
SIMU C2A > O1B
WGHT    0.113900    0.099700
FVAR       1.05387   0.61023
PART 1
SAME C2A  O1A
C2A   1    0.432256   -0.284594   -0.109438    21.00000    0.08575    0.07063 =
         0.09738   -0.01481    0.04959   -0.00490
AFIX  23
H2A1  2    0.474773   -0.398344   -0.075005    21.00000   -1.20000
H2A2  2    0.399222   -0.304324   -0.189741    21.00000   -1.20000
AFIX   0
O1A   4    0.545932   -0.144755   -0.088748    21.00000    0.10882    0.10937 =
         0.12534   -0.05219    0.06273   -0.02864
AFIX  83
H1A   2    0.567622   -0.123296   -0.021052    21.00000   -1.50000
AFIX   0
PART 2
SAME C2B  O1B
C2B   1    0.444836   -0.277331   -0.090101   -21.00000    0.08575    0.07063 =
         0.09738   -0.01481    0.04959   -0.00490
AFIX  23
H2B1  2    0.430161   -0.396496   -0.126013   -21.00000   -1.20000
H2B2  2    0.467401   -0.191108   -0.145752   -21.00000   -1.20000
AFIX   0
O1B   4    0.577800   -0.287059   -0.001744   -21.00000    0.06948    0.09311 =
         0.10959    0.03259    0.03272    0.02897
AFIX  83
H1B   2    0.560748   -0.359343    0.046267   -21.00000   -1.50000
AFIX   0
PART 0
O19   4    0.089722    0.288986    0.340408    11.00000    0.06902    0.05258 =
         0.06034   -0.01594    0.01728   -0.01604
C11   1   -0.168864   -0.109993    0.296160    11.00000    0.04794    0.04537 =
         0.05990    0.00149    0.01264   -0.00101
AFIX  43
H11   2   -0.191640   -0.210542    0.248665    11.00000   -1.20000
AFIX   0
C9    1    0.041141   -0.005757    0.191972    11.00000    0.04699    0.03889 =
         0.04726    0.00067    0.00770    0.00280
C10   1   -0.051759    0.011131    0.279057    11.00000    0.04778    0.04052 =
         0.04821    0.00183    0.01104    0.00232
C18   1   -0.021939    0.160326    0.351351    11.00000    0.05204    0.05071 =
         0.05128    0.00169    0.01314   -0.00218
C20   1    0.175419    0.276884    0.257277    11.00000    0.05273    0.05542 =
         0.05841   -0.00277    0.01441   -0.01403
C22   1    0.148539    0.121671    0.184404    11.00000    0.05154    0.04761 =
         0.04940    0.00048    0.01537   -0.00356
AFIX  43
H22   2    0.208492    0.108718    0.129199    11.00000   -1.20000
AFIX   0
C17   1   -0.101483    0.186737    0.437926    11.00000    0.07084    0.06033 =
         0.05504   -0.00566    0.01856    0.00242
AFIX  43
H17   2   -0.078051    0.286037    0.486358    11.00000   -1.20000
AFIX   0
N5    3    0.112586   -0.175908    0.033897    11.00000    0.05886    0.03769 =
         0.05391   -0.00419    0.01395    0.00347
C12   1   -0.251917   -0.085766    0.380987    11.00000    0.04896    0.05932 =
         0.06328    0.01454    0.01835    0.00730
C8    1    0.011727   -0.169661    0.115917    11.00000    0.06578    0.04631 =
         0.06671   -0.00926    0.02789   -0.01072
AFIX  23
H8A   2    0.027464   -0.279960    0.161356    11.00000   -1.20000
H8B   2   -0.096445   -0.168051    0.076627    11.00000   -1.20000
AFIX   0
O21   4    0.270520    0.397453    0.253887    11.00000    0.08268    0.07253 =
         0.09156   -0.02311    0.03068   -0.03875
C7    1    0.195246   -0.096468   -0.112514    11.00000    0.07984    0.03915 =
         0.04506    0.00763    0.02467    0.00114
AFIX  43
H7    2    0.204076   -0.038826   -0.179462    11.00000   -1.20000
AFIX   0
N4    3    0.244026   -0.274985    0.035822    11.00000    0.07989    0.05923 =
         0.08421   -0.00835    0.02338    0.00251
C16   1   -0.215460    0.064586    0.451508    11.00000    0.06490    0.06782 =
         0.06541    0.00602    0.02668    0.01109
AFIX  43
H16   2   -0.269929    0.082688    0.509450    11.00000   -1.20000
AFIX   0
N6    3    0.084212   -0.067625   -0.056153    11.00000    0.07677    0.04819 =
         0.06565    0.00505    0.01909    0.00814
C3    1    0.294768   -0.222492   -0.058635    11.00000    0.07043    0.05541 =
         0.07152   -0.00929    0.03021   -0.00614
C13   1   -0.383327   -0.212822    0.397624    11.00000    0.05790    0.07079 =
         0.08043    0.01520    0.02384   -0.00177
AFIX  13
H13   2   -0.392494   -0.200590    0.476651    11.00000   -1.20000
AFIX   0
C14   1   -0.349606   -0.407735    0.380558    11.00000    0.11852    0.06506 =
         0.19942    0.00039    0.07900   -0.02451
AFIX 137
H14A  2   -0.429774   -0.482233    0.401963    11.00000   -1.50000
H14B  2   -0.250109   -0.439262    0.425926    11.00000   -1.50000
H14C  2   -0.347001   -0.428504    0.302684    11.00000   -1.50000
AFIX   0
C15   1   -0.536351   -0.150965    0.329121    11.00000    0.06323    0.13421 =
         0.15276    0.04715   -0.00199   -0.02048
AFIX 137
H15A  2   -0.542993   -0.187489    0.252200    11.00000   -1.50000
H15B  2   -0.543668   -0.020020    0.333103    11.00000   -1.50000
H15C  2   -0.620528   -0.205715    0.358126    11.00000   -1.50000
MOLE   2
AFIX   0
HKLF 4
REM  ch2_m in P2(1)
REM R1 =  0.0579 for    2307 Fo > 4sig(Fo)  and  0.0655 for all    2680 data
REM    214 parameters refined using     38 restraints
END
WGHT      0.1134      0.1007
REM Highest difference peak  0.249,  deepest hole -0.283,  1-sigma level  0.052
Q1    1   0.1535 -0.1148 -0.1201  11.00000  0.05    0.25
Q2    1   0.2144 -0.0756 -0.0744  11.00000  0.05    0.24
Q3    1  -0.3688 -0.3384  0.4836  11.00000  0.05    0.23
Q4    1   0.3052 -0.3812  0.1056  11.00000  0.05    0.22
Q5    1  -0.2728 -0.0610  0.3074  11.00000  0.05    0.15
Q6    1  -0.4116  0.1205  0.3435  11.00000  0.05    0.15
Q7    1  -0.2722  0.0369  0.3751  11.00000  0.05    0.15
Q8    1   0.6020 -0.2779 -0.0180  11.00000  0.05    0.14
Q9    1  -0.6393 -0.2416  0.2992  11.00000  0.05    0.14
Q10   1  -0.3432  0.0906  0.3160  11.00000  0.05    0.14
Q11   1   0.7099 -0.1931  0.0557  11.00000  0.05    0.14
Q12   1  -0.4143 -0.2608  0.3232  11.00000  0.05    0.14
Q13   1  -0.7283 -0.2825  0.3005  11.00000  0.05    0.13
Q14   1  -0.7806 -0.2173  0.2893  11.00000  0.05    0.13
Q15   1   0.6816 -0.2540 -0.0632  11.00000  0.05    0.13
Q16   1  -0.2474 -0.4393  0.3657  11.00000  0.05    0.12
Q17   1  -0.5456 -0.1109  0.2429  11.00000  0.05    0.12
Q18   1  -0.1576 -0.1399  0.3788  11.00000  0.05    0.12
Q19   1  -0.0234 -0.1350 -0.1270  11.00000  0.05    0.12
Q20   1   0.0415  0.0968  0.1631  11.00000  0.05    0.12
;
_shelx_res_checksum              34192
loop_
_space_group_symop_operation_xyz
'x, y, z'
'-x, y+1/2, -z'
loop_
_atom_site_type_symbol
_atom_site_label
_atom_site_fract_x
_atom_site_fract_y
_atom_site_fract_z
_atom_site_U_iso_or_equiv
_atom_site_adp_type
_atom_site_calc_flag
_atom_site_occupancy
_atom_site_disorder_assembly
_atom_site_disorder_group
C C2A 0.432(4) -0.285(8) -0.109(3) 0.080(3) Uani d 0.610(13) A 1
H H2A1 0.474773 -0.398344 -0.075005 0.096 Uiso calc 0.610(13) A 1
H H2A2 0.399222 -0.304324 -0.189741 0.096 Uiso calc 0.610(13) A 1
O O1A 0.5459(9) -0.1448(13) -0.0887(7) 0.109(4) Uani d 0.610(13) A 1
H H1A 0.567622 -0.123296 -0.021052 0.164 Uiso calc 0.610(13) A 1
C C2B 0.445(6) -0.277(14) -0.090(6) 0.080(3) Uani d 0.390(13) A 2
H H2B1 0.430161 -0.396496 -0.126013 0.096 Uiso calc 0.390(13) A 2
H H2B2 0.467401 -0.191108 -0.145752 0.096 Uiso calc 0.390(13) A 2
O O1B 0.5778(11) -0.2871(17) -0.0017(10) 0.089(4) Uani d 0.390(13) A 2
H H1B 0.560748 -0.359343 0.046267 0.133 Uiso calc 0.390(13) A 2
O O19 0.0897(4) 0.2890(4) 0.3404(2) 0.0600(8) Uani d 1 . .
C C11 -0.1689(4) -0.1100(6) 0.2962(4) 0.0508(10) Uani d 1 . .
H H11 -0.191640 -0.210542 0.248665 0.061 Uiso calc 1 . .
C C9 0.0411(4) -0.0058(5) 0.1920(3) 0.0446(9) Uani d 1 . .
C C10 -0.0518(5) 0.0111(5) 0.2791(3) 0.0453(9) Uani d 1 . .
C C18 -0.0219(5) 0.1603(6) 0.3514(4) 0.0509(10) Uani d 1 . .
C C20 0.1754(5) 0.2769(6) 0.2573(4) 0.0550(11) Uani d 1 . .
C C22 0.1485(5) 0.1217(6) 0.1844(3) 0.0488(10) Uani d 1 . .
H H22 0.208492 0.108718 0.129199 0.059 Uiso calc 1 . .
C C17 -0.1015(6) 0.1867(7) 0.4379(4) 0.0612(12) Uani d 1 . .
H H17 -0.078051 0.286037 0.486358 0.073 Uiso calc 1 . .
N N5 0.1126(4) -0.1759(5) 0.0339(3) 0.0497(8) Uani d 1 . .
C C12 -0.2519(5) -0.0858(7) 0.3810(4) 0.0562(11) Uani d 1 . .
C C8 0.0117(5) -0.1697(6) 0.1159(4) 0.0576(11) Uani d 1 . .
H H8A 0.027464 -0.279960 0.161356 0.069 Uiso calc 1 . .
H H8B -0.096445 -0.168051 0.076627 0.069 Uiso calc 1 . .
O O21 0.2705(4) 0.3975(6) 0.2539(3) 0.0804(11) Uani d 1 . .
C C7 0.1952(5) -0.0965(6) -0.1125(3) 0.0530(10) Uani d 1 . .
H H7 0.204076 -0.038826 -0.179462 0.064 Uiso calc 1 . .
N N4 0.2440(5) -0.2750(7) 0.0358(4) 0.0734(12) Uani d 1 . .
C C16 -0.2155(6) 0.0646(7) 0.4515(4) 0.0642(12) Uani d 1 . .
H H16 -0.269929 0.082688 0.509450 0.077 Uiso calc 1 . .
N N6 0.0842(5) -0.0676(5) -0.0562(3) 0.0628(10) Uani d 1 . .
C C3 0.2948(6) -0.2225(7) -0.0586(4) 0.0636(12) Uani d 1 . .
C C13 -0.3833(5) -0.2128(8) 0.3976(5) 0.0683(13) Uani d 1 . .
H H13 -0.392494 -0.200590 0.476651 0.082 Uiso calc 1 . .
C C14 -0.3496(9) -0.4077(10) 0.3806(8) 0.121(3) Uani d 1 . .
H H14A -0.429774 -0.482233 0.401963 0.182 Uiso calc 1 . .
H H14B -0.250109 -0.439262 0.425926 0.182 Uiso calc 1 . .
H H14C -0.347001 -0.428504 0.302684 0.182 Uiso calc 1 . .
C C15 -0.5364(6) -0.1510(13) 0.3291(7) 0.120(3) Uani d 1 . .
H H15A -0.542993 -0.187489 0.252200 0.180 Uiso calc 1 . .
H H15B -0.543668 -0.020020 0.333103 0.180 Uiso calc 1 . .
H H15C -0.620528 -0.205715 0.358126 0.180 Uiso calc 1 . .
loop_
_atom_site_aniso_label
_atom_site_aniso_U_11
_atom_site_aniso_U_22
_atom_site_aniso_U_33
_atom_site_aniso_U_12
_atom_site_aniso_U_13
_atom_site_aniso_U_23
C2A 0.086(6) 0.071(6) 0.097(12) -0.005(5) 0.050(5) -0.015(11)
O1A 0.109(6) 0.109(7) 0.125(7) -0.029(5) 0.063(5) -0.052(5)
C2B 0.086(6) 0.071(6) 0.097(12) -0.005(5) 0.050(5) -0.015(11)
O1B 0.069(6) 0.093(8) 0.110(8) 0.029(6) 0.033(6) 0.033(6)
O19 0.0690(18) 0.0526(18) 0.0603(17) -0.0160(15) 0.0173(15) -0.0159(14)
C11 0.048(2) 0.045(2) 0.060(2) -0.0010(19) 0.0126(18) 0.0015(19)
C9 0.047(2) 0.0389(19) 0.047(2) 0.0028(17) 0.0077(16) 0.0007(16)
C10 0.048(2) 0.041(2) 0.048(2) 0.0023(16) 0.0110(16) 0.0018(17)
C18 0.052(2) 0.051(2) 0.051(2) -0.0022(19) 0.0131(17) 0.0017(19)
C20 0.053(2) 0.055(3) 0.058(2) -0.014(2) 0.0144(19) -0.003(2)
C22 0.052(2) 0.048(2) 0.049(2) -0.0036(19) 0.0154(17) 0.0005(18)
C17 0.071(3) 0.060(3) 0.055(2) 0.002(2) 0.019(2) -0.006(2)
N5 0.0589(19) 0.0377(17) 0.0539(19) 0.0035(16) 0.0139(15) -0.0042(15)
C12 0.049(2) 0.059(3) 0.063(2) 0.007(2) 0.0184(18) 0.015(2)
C8 0.066(2) 0.046(2) 0.067(3) -0.011(2) 0.028(2) -0.009(2)
O21 0.083(2) 0.073(2) 0.092(2) -0.039(2) 0.0307(19) -0.023(2)
C7 0.080(3) 0.039(2) 0.045(2) 0.001(2) 0.0247(19) 0.0076(18)
N4 0.080(3) 0.059(3) 0.084(3) 0.003(2) 0.023(2) -0.008(2)
C16 0.065(3) 0.068(3) 0.065(3) 0.011(2) 0.027(2) 0.006(2)
N6 0.077(2) 0.048(2) 0.066(2) 0.0081(19) 0.0191(18) 0.0050(18)
C3 0.070(3) 0.055(3) 0.072(3) -0.006(2) 0.030(2) -0.009(2)
C13 0.058(3) 0.071(3) 0.080(3) -0.002(2) 0.024(2) 0.015(3)
C14 0.119(6) 0.065(4) 0.199(8) -0.025(4) 0.079(6) 0.000(5)
C15 0.063(3) 0.134(7) 0.153(7) -0.020(4) -0.002(4) 0.047(6)
loop_
_atom_type_symbol
_atom_type_description
_atom_type_scat_dispersion_real
_atom_type_scat_dispersion_imag
_atom_type_scat_source
C C 0.0033 0.0016 'International Tables Vol C Tables 4.2.6.8 and 6.1.1.4'
H H 0.0000 0.0000 'International Tables Vol C Tables 4.2.6.8 and 6.1.1.4'
N N 0.0061 0.0033 'International Tables Vol C Tables 4.2.6.8 and 6.1.1.4'
O O 0.0106 0.0060 'International Tables Vol C Tables 4.2.6.8 and 6.1.1.4'
loop_
_geom_angle_atom_site_label_1
_geom_angle_atom_site_label_2
_geom_angle_atom_site_label_3
_geom_angle
O1Aa C2Aa C3 107(4)
O1Aa C2Aa H2A1 110.3
C3 C2Aa H2A1 110.3
O1Aa C2Aa H2A2 110.3
C3 C2Aa H2A2 110.3
H2A1a C2Aa H2A2 108.5
C2Aa O1Aa H1A 109.5
O1Bb C2Bb C3 117(5)
O1Bb C2Bb H2B1 108.1
C3 C2Bb H2B1 108.1
O1Bb C2Bb H2B2 108.1
C3 C2Bb H2B2 108.1
H2B1b C2Bb H2B2 107.3
C2Bb O1Bb H1B 109.5
C20 O19 C18 121.6(3)
C12 C11 C10 122.3(4)
C12 C11 H11 118.9
C10 C11 H11 118.9
C22 C9 C10 119.2(4)
C22 C9 C8 123.5(4)
C10 C9 C8 117.4(3)
C18 C10 C11 117.1(4)
C18 C10 C9 117.5(4)
C11 C10 C9 125.5(4)
O19 C18 C17 116.6(4)
O19 C18 C10 121.5(4)
C17 C18 C10 121.9(4)
O21 C20 O19 116.8(4)
O21 C20 C22 125.8(4)
O19 C20 C22 117.3(3)
C9 C22 C20 122.9(4)
C9 C22 H22 118.5
C20 C22 H22 118.5
C16 C17 C18 119.0(5)
C16 C17 H17 120.5
C18 C17 H17 120.5
N6 N5 N4 110.7(4)
N6 N5 C8 120.1(3)
N4 N5 C8 129.1(4)
C11 C12 C16 118.0(4)
C11 C12 C13 122.7(5)
C16 C12 C13 119.3(4)
N5 C8 C9 113.1(3)
N5 C8 H8A 109.0
C9 C8 H8A 109.0
N5 C8 H8B 109.0
C9 C8 H8B 109.0
H8A C8 H8B 107.8
N6 C7 C3 109.3(4)
N6 C7 H7 125.3
C3 C7 H7 125.3
N5 N4 C3 104.4(4)
C17 C16 C12 121.7(4)
C17 C16 H16 119.1
C12 C16 H16 119.1
C7 N6 N5 107.1(4)
C7 C3 N4 108.5(4)
C7 C3 C2B 125(3)
N4 C3 C2B 126(3)
C7 C3 C2A 120(2)
N4 C3 C2A 132(2)
C14 C13 C15 113.2(7)
C14 C13 C12 113.3(5)
C15 C13 C12 110.9(5)
C14 C13 H13 106.3
C15 C13 H13 106.3
C12 C13 H13 106.3
C13 C14 H14A 109.5
C13 C14 H14B 109.5
H14A C14 H14B 109.5
C13 C14 H14C 109.5
H14A C14 H14C 109.5
H14B C14 H14C 109.5
C13 C15 H15A 109.5
C13 C15 H15B 109.5
H15A C15 H15B 109.5
C13 C15 H15C 109.5
H15A C15 H15C 109.5
H15B C15 H15C 109.5
loop_
_geom_bond_atom_site_label_1
_geom_bond_atom_site_label_2
_geom_bond_distance
C2Aa O1A 1.41(4)
C2Aa C3 1.52(5)
C2Aa H2A1 0.9700
C2Aa H2A2 0.9700
O1Aa H1A 0.8200
C2Bb O1B 1.42(4)
C2Bb C3 1.49(8)
C2Bb H2B1 0.9700
C2Bb H2B2 0.9700
O1Bb H1B 0.8200
O19 C20 1.368(5)
O19 C18 1.377(5)
C11 C12 1.378(6)
C11 C10 1.396(5)
C11 H11 0.9300
C9 C22 1.335(6)
C9 C10 1.454(5)
C9 C8 1.502(6)
C10 C18 1.390(6)
C18 C17 1.378(6)
C20 O21 1.215(5)
C20 C22 1.428(6)
C22 H22 0.9300
C17 C16 1.368(7)
C17 H17 0.9300
N5 N6 1.331(5)
N5 N4 1.351(5)
N5 C8 1.450(5)
C12 C16 1.389(7)
C12 C13 1.517(6)
C8 H8A 0.9700
C8 H8B 0.9700
C7 N6 1.305(6)
C7 C3 1.343(7)
C7 H7 0.9300
N4 C3 1.359(7)
C16 H16 0.9300
C13 C14 1.476(10)
C13 C15 1.497(8)
C13 H13 0.9800
C14 H14A 0.9600
C14 H14B 0.9600
C14 H14C 0.9600
C15 H15A 0.9600
C15 H15B 0.9600
C15 H15C 0.9600
loop_
_geom_hbond_atom_site_label_D
_geom_hbond_atom_site_label_H
_geom_hbond_atom_site_label_A
_geom_hbond_site_symmetry_A
_geom_hbond_distance_DH
_geom_hbond_distance_HA
_geom_hbond_distance_DA
_geom_hbond_angle_DHA
_geom_hbond_publ_flag
C8 H8A N6 2_545 0.97 2.55 3.070(6) 114 yes

_cod_database_fobs_code 1544820
