#------------------------------------------------------------------------------
#$Date: 2016-09-24 04:21:23 +0300 (Sat, 24 Sep 2016) $
#$Revision: 186759 $
#$URL: file:///home/coder/svn-repositories/cod/cif/1/54/41/1544195.cif $
#------------------------------------------------------------------------------
#
# This file is available in the Crystallography Open Database (COD),
# http://www.crystallography.net/. The original data for this entry
# were provided by IUCr Journals, http://journals.iucr.org/.
#
# The file may be used within the scientific community so long as
# proper attribution is given to the journal article from which the
# data were obtained.
#
data_1544195
loop_
_publ_author_name
'Golen, James A.'
'Manke, David R.'
_publ_section_title
;
 4,7-Dichloro-1<i>H</i>-indole-2,3-dione
;
_journal_coeditor_code           VM4014
_journal_issue                   9
_journal_name_full               IUCrData
_journal_page_first              x161485
_journal_paper_doi               10.1107/S2414314616014851
_journal_volume                  1
_journal_year                    2016
_chemical_formula_iupac          'C8 H3 Cl2 N O2'
_chemical_formula_moiety         'C8 H3 Cl2 N O2'
_chemical_formula_sum            'C8 H3 Cl2 N O2'
_chemical_formula_weight         216.01
_chemical_name_systematic
;
4,7-Dichloro-1<i>H</i>-indole-2,3-dione
;
_space_group_crystal_system      monoclinic
_space_group_IT_number           14
_space_group_name_Hall           '-P 2ybc'
_space_group_name_H-M_alt        'P 1 21/c 1'
_symmetry_space_group_name_Hall  '-P 2ybc'
_symmetry_space_group_name_H-M   'P 1 21/c 1'
_atom_sites_solution_hydrogens   mixed
_audit_creation_method
;
Olex2 1.2
(compiled 2016.09.09 svn.r3337 for OlexSys, GUI svn.r5227)
;
_cell_angle_alpha                90
_cell_angle_beta                 93.313(9)
_cell_angle_gamma                90
_cell_formula_units_Z            4
_cell_length_a                   3.8639(10)
_cell_length_b                   13.933(4)
_cell_length_c                   15.019(4)
_cell_measurement_reflns_used    9837
_cell_measurement_temperature    120(2)
_cell_measurement_theta_max      25.65
_cell_measurement_theta_min      3.09
_cell_volume                     807.2(4)
_computing_cell_refinement
;
SAINT (Bruker, 2014)
;
_computing_data_collection
;
APEX2 (Bruker, 2014)
;
_computing_data_reduction
;
SAINT (Bruker, 2014)
;
_computing_molecular_graphics
;
<i>OLEX2</i> (Dolomanov <i>et al.</i>,  2009)
;
_computing_publication_material
;
<i>OLEX2</i> (Dolomanov <i>et al.</i>,  2009) and publCIF (Westrip,
2010)
;
_computing_structure_refinement
;
SHELXL2014 (Sheldrick, 2015)
;
_computing_structure_solution
;
SHELXS97 (Sheldrick, 2008)
;
_diffrn_ambient_temperature      120.03
_diffrn_measured_fraction_theta_full 0.102
_diffrn_measured_fraction_theta_max 0.997
_diffrn_measurement_device_type  'Bruker D8 Venture CMOS'
_diffrn_measurement_method       '\f and \w scans'
_diffrn_radiation_monochromator  TRIUMPH
_diffrn_radiation_type           MoK\a
_diffrn_radiation_wavelength     0.71073
_diffrn_reflns_av_R_equivalents  0.0425
_diffrn_reflns_limit_h_max       4
_diffrn_reflns_limit_h_min       -4
_diffrn_reflns_limit_k_max       16
_diffrn_reflns_limit_k_min       -16
_diffrn_reflns_limit_l_max       18
_diffrn_reflns_limit_l_min       -18
_diffrn_reflns_number            29667
_diffrn_reflns_theta_full        68.000
_diffrn_reflns_theta_max         25.682
_diffrn_reflns_theta_min         2.924
_diffrn_standards_number         0
_exptl_absorpt_coefficient_mu    0.760
_exptl_absorpt_correction_T_max  0.7445
_exptl_absorpt_correction_T_min  0.7015
_exptl_absorpt_correction_type   multi-scan
_exptl_absorpt_process_details
;
(SADABS; Bruker, 2014)
;
_exptl_crystal_colour            orange
_exptl_crystal_density_diffrn    1.778
_exptl_crystal_description       block
_exptl_crystal_F_000             432
_exptl_crystal_size_max          0.22
_exptl_crystal_size_mid          0.2
_exptl_crystal_size_min          0.1
_refine_diff_density_max         0.303
_refine_diff_density_min         -0.239
_refine_ls_extinction_method     none
_refine_ls_goodness_of_fit_ref   1.078
_refine_ls_hydrogen_treatment    mixed
_refine_ls_matrix_type           full
_refine_ls_number_parameters     121
_refine_ls_number_reflns         1531
_refine_ls_number_restraints     1
_refine_ls_restrained_S_all      1.078
_refine_ls_R_factor_all          0.0278
_refine_ls_R_factor_gt           0.0251
_refine_ls_shift/su_max          0.001
_refine_ls_shift/su_mean         0.000
_refine_ls_structure_factor_coef Fsqd
_refine_ls_weighting_details
'w=1/[\s^2^(Fo^2^)+(0.0214P)^2^+0.6864P] where P=(Fo^2^+2Fc^2^)/3'
_refine_ls_weighting_scheme      calc
_refine_ls_wR_factor_gt          0.0596
_refine_ls_wR_factor_ref         0.0613
_reflns_number_gt                1415
_reflns_number_total             1531
_reflns_threshold_expression     'I > 2\s(I)'
_cod_data_source_file            vm4014sup1.cif
_cod_data_source_block           I
_cod_database_code               1544195
_shelx_space_group_comment
;
The symmetry employed for this shelxl refinement is uniquely defined
by the following loop, which should always be used as a source of
symmetry information in preference to the above space-group names.
They are only intended as comments.
;
_shelx_estimated_absorpt_t_min   0.851
_shelx_estimated_absorpt_t_max   0.928
_shelx_hkl_file
;
   1   0   0 3252.27  137.49
   1   0   0 3043.80  137.29
   1   0   0 3218.18  137.49
   1   0   0 3039.30  137.49
  -1   0   0 3040.40  137.49
  -1   0   0 3064.99  137.49
  -1   0   0 2974.00  137.29
  -1   0   0 2910.81  137.29
  -1   0   0 3003.70  137.49
  -1   0   0 3112.29  137.49
   1   0   0 3166.88  137.49
  -2   0   0    3.20    2.00
  -2   0   0    2.70    2.20
  -2   0   0   -0.30    1.80
  -2   0   0    1.80    1.90
   2   0   0    4.10    2.30
   2   0   0    3.60    2.00
  -2   0   0    4.10    2.40
  -2   0   0    0.80    2.00
   2   0   0    5.00    2.30
   2   0   0    5.70    2.30
   2   0   0    2.90    2.00
   2   0   0    3.70    1.80
   3   0   0  896.71   41.90
   3   0   0  809.02   41.80
  -3   0   0  896.71   42.30
  -3   0   0  913.51   42.30
  -3   0   0  948.91   41.80
   3   0   0  916.31   42.50
   3   0   0 1014.50   42.60
  -3   0   0  788.32   42.10
   3   0   0  897.41   42.30
   3   0   0  865.31   42.20
  -3   0   0  856.31   42.30
  -3   0   0  895.61   41.70
   4   0   0  144.59   11.30
   4   0   0  160.38   12.40
  -4   0   0  130.29   11.50
  -4   0   0  135.79   10.80
  -4   0   0  147.39   12.50
  -4   0   0  158.48   12.60
   4   0   0  145.89   12.20
   4   0   0  142.99   12.20
   4   0   0  146.19   11.90
   4   0   0  127.39   12.60
  -1  -1   0  810.12   38.10
  -1  -1   0  831.12   37.90
   1  -1   0  845.52   38.10
  -1  -1   0  861.11   38.10
  -1  -1   0  851.31   38.10
   1  -1   0  841.52   38.10
  -1  -1   0  878.01   38.10
   1  -1   0  813.12   38.20
   1  -1   0  786.72   38.10
  -1  -1   0  835.22   37.90
   1  -1   0  756.02   38.20
   1  -1   0  881.11   38.30
   1   1   0  871.11   38.10
   1   1   0  829.92   38.10
  -1   1   0  910.71   38.30
   1   1   0  834.22   38.00
   1   1   0  803.02   37.90
  -1   1   0  865.31   38.30
  -1   1   0  826.32   38.00
  -1   1   0  879.41   38.20
  -1   1   0  888.31   38.20
  -1   1   0  801.32   38.00
   1   1   0  820.52   38.00
   1   1   0  818.02   38.10
   2  -1   0  883.41   40.20
   2  -1   0  905.01   40.50
   2  -1   0  869.91   40.40
  -2  -1   0  847.52   40.20
  -2  -1   0  813.32   40.20
  -2  -1   0  899.01   40.00
  -2  -1   0  905.41   40.40
   2  -1   0  858.31   40.30
  -2  -1   0  907.21   40.40
  -2  -1   0  932.61   40.00
   2  -1   0  844.22   40.10
   2  -1   0  784.12   40.30
  -2   1   0  848.22   40.40
   2   1   0  916.41   40.30
   2   1   0  848.02   40.00
   2   1   0  924.41   40.50
   2   1   0  825.62   40.20
  -2   1   0  876.71   40.10
  -2   1   0  849.81   40.00
  -2   1   0  923.41   40.60
  -2   1   0  861.01   40.40
  -2   1   0  837.02   40.30
   2   1   0  839.92   40.20
   3  -1   0    4.70    3.50
   3  -1   0    9.20    3.10
   3  -1   0    5.70    3.80
  -3  -1   0    7.50    3.60
  -3  -1   0    5.90    3.40
  -3  -1   0   11.30    2.90
  -3  -1   0   11.30    3.30
  -3  -1   0   10.20    3.20
   3  -1   0    8.30    3.00
   3  -1   0    3.80    3.20
  -3  -1   0    7.50    3.40
   3  -1   0    3.40    3.30
  -3   1   0    9.40    3.80
  -3   1   0   10.70    3.10
  -3   1   0    8.00    3.50
   3   1   0    6.10    3.40
   3   1   0   10.50    3.50
   3   1   0    5.50    3.10
  -3   1   0    6.00    2.90
   3   1   0    6.10    3.90
   3   1   0   14.20    3.80
   3   1   0    7.80    3.30
  -3   1   0   11.70    3.90
  -3   1   0    6.20    3.60
   4  -1   0  348.77   20.10
   4  -1   0  352.16   20.60
   4  -1   0  333.97   19.50
  -4  -1   0  343.27   19.90
  -4  -1   0  318.67   20.00
  -4  -1   0  308.47   19.80
   4  -1   0  364.06   20.30
  -4  -1   0  320.67   18.60
   4  -1   0  362.76   19.80
   4  -1   0  353.86   19.60
  -4  -1   0  342.47   18.70
  -4   1   0  356.06   19.10
   4   1   0  350.06   19.80
   4   1   0  330.17   19.40
  -4   1   0  338.67   19.80
  -4   1   0  339.57   20.20
   4   1   0  328.27   19.30
  -4   1   0  324.97   20.10
   4   1   0  380.96   19.90
   4   1   0  305.37   19.20
   4   1   0  353.66   20.20
  -4   1   0  346.57   20.30
   0  -2   0  260.77   13.20
   0   2   0  302.27   13.20
   0   2   0  285.57   13.20
   0   2   0  292.87   13.20
  -1  -2   0    1.40    1.20
   1  -2   0    2.40    1.30
   1  -2   0    1.90    1.30
  -1  -2   0    1.00    0.90
  -1  -2   0    1.60    0.90
  -1  -2   0    0.40    1.00
  -1  -2   0    2.10    1.10
   1  -2   0    1.80    1.10
  -1  -2   0    1.00    1.10
   1  -2   0    1.10    1.40
   1  -2   0    1.40    1.30
   1  -2   0    1.50    1.20
  -1   2   0    0.00    1.30
  -1   2   0    1.90    1.20
   1   2   0    1.40    1.10
  -1   2   0    0.10    1.30
  -1   2   0    0.20    1.30
   1   2   0    1.60    1.00
   1   2   0    1.40    1.20
   1   2   0    2.50    1.00
   1   2   0    3.10    1.20
   1   2   0    0.80    1.00
  -1   2   0    1.50    1.30
  -1   2   0    0.10    1.20
   2  -2   0  419.56   20.20
  -2  -2   0  408.56   19.40
  -2  -2   0  384.96   19.80
   2  -2   0  416.16   19.80
  -2  -2   0  405.56   19.40
   2  -2   0  395.46   20.10
   2  -2   0  413.26   20.00
   2  -2   0  432.66   20.20
  -2  -2   0  394.86   19.80
  -2  -2   0  392.76   19.80
   2  -2   0  403.96   19.80
  -2  -2   0  360.66   19.70
   2   2   0  409.16   19.80
   2   2   0  407.56   19.60
  -2   2   0  399.76   20.00
  -2   2   0  440.46   20.10
  -2   2   0  413.36   20.20
   2   2   0  433.76   20.00
   2   2   0  393.96   19.70
   2   2   0  393.86   19.80
  -2   2   0  409.16   19.70
  -2   2   0  476.25   20.40
   2   2   0  402.66   19.60
   3  -2   0  326.57   16.90
   3  -2   0  302.67   16.20
  -3  -2   0  276.17   16.40
   3  -2   0  293.17   16.70
  -3  -2   0  280.37   16.30
  -3  -2   0  318.67   15.80
  -3  -2   0  297.27   16.20
  -3  -2   0  319.27   15.70
   3  -2   0  312.37   16.40
   3  -2   0  323.27   17.00
   3  -2   0  317.17   16.80
  -3  -2   0  299.07   16.40
  -3   2   0  270.67   15.90
   3   2   0  306.07   16.10
   3   2   0  316.87   16.40
  -3   2   0  313.37   16.60
   3   2   0  322.17   16.50
  -3   2   0  304.27   16.00
  -3   2   0  287.27   16.80
   3   2   0  302.07   16.20
   3   2   0  285.27   16.50
  -3   2   0  315.77   16.90
  -3   2   0  295.37   16.40
  -4  -2   0  237.68   16.00
   4  -2   0  243.08   16.50
  -4  -2   0  234.98   14.20
  -4  -2   0  289.57   16.30
  -4  -2   0  252.17   14.30
   4  -2   0  258.07   16.80
   4  -2   0  251.77   15.50
   4  -2   0  197.68   15.70
   4  -2   0  219.38   15.40
  -4  -2   0  226.18   15.80
   4  -2   0  250.07   16.30
  -4   2   0  254.27   15.30
  -4   2   0  230.78   15.50
  -4   2   0  240.38   16.70
   4   2   0  226.78   15.90
  -4   2   0  235.98   16.30
   4   2   0  240.08   15.40
   4   2   0  246.48   15.30
  -4   2   0  242.88   16.40
   4   2   0  237.98   15.60
   4   2   0  224.18   15.50
   4   2   0  249.28   15.40
  -4   2   0  187.58   17.60
   0  -3   0   -0.20    0.80
   0  -3   0   -1.50    0.80
   0  -3   0   -1.90    0.70
   0  -3   0   -2.40    0.60
   0  -3   0   -2.00    0.70
   0   3   0   -2.70    0.70
   0   3   0   -2.80    0.60
   0   3   0   -0.50    0.70
   0   3   0   -2.10    0.80
   0   3   0   -2.30    0.70
   0   3   0   -2.70    0.70
   1  -3   0  226.88   11.40
   1  -3   0  210.98   11.40
  -1  -3   0  236.88   11.00
  -1  -3   0  240.58   11.20
   1  -3   0  240.28   11.30
  -1  -3   0  241.08   11.20
   1  -3   0  202.38   11.40
  -1  -3   0  228.58   11.20
   1  -3   0  232.68   11.20
  -1  -3   0  241.38   10.90
   1  -3   0  258.37   11.60
   1   3   0  220.78   11.20
   1   3   0  235.88   11.10
   1   3   0  234.98   11.00
  -1   3   0  225.98   11.30
  -1   3   0  236.88   11.60
   1   3   0  223.68   11.20
  -1   3   0  213.78   11.30
   1   3   0  228.78   11.00
   1   3   0  241.58   11.20
  -1   3   0  241.78   11.50
  -1   3   0  228.08   11.40
   2  -3   0  117.79    7.40
   2  -3   0  119.79    7.30
  -2  -3   0  117.49    7.20
  -2  -3   0  119.29    7.30
  -2  -3   0  119.29    7.20
   2  -3   0  116.59    7.20
   2  -3   0  119.49    7.70
  -2  -3   0  127.99    6.80
   2  -3   0  120.89    7.60
  -2  -3   0  121.49    7.30
   2  -3   0  117.49    7.70
  -2  -3   0  123.19    6.70
  -2   3   0  126.19    7.50
   2   3   0  125.89    7.00
  -2   3   0  124.89    7.70
  -2   3   0  121.69    7.30
   2   3   0  120.09    6.90
   2   3   0  121.29    7.30
  -2   3   0  113.99    7.50
   2   3   0  119.39    7.10
   2   3   0  119.79    7.30
  -2   3   0  119.39    7.70
   2   3   0  112.89    7.00
  -2   3   0  111.19    7.10
   3  -3   0   63.19    6.60
   3  -3   0   54.39    7.30
  -3  -3   0   64.69    6.80
  -3  -3   0   74.49    6.60
  -3  -3   0   60.69    6.80
   3  -3   0   67.29    6.70
   3  -3   0   63.49    7.40
   3  -3   0   77.39    6.90
  -3  -3   0   67.19    5.70
   3  -3   0   63.79    6.50
  -3  -3   0   70.89    6.60
  -3  -3   0   59.69    5.80
   3   3   0   54.49    6.30
  -3   3   0   65.29    7.50
   3   3   0   59.49    6.00
   3   3   0   63.49    6.60
   3   3   0   63.19    6.40
  -3   3   0   80.49    7.70
  -3   3   0   85.69    7.10
  -3   3   0   70.39    7.30
  -3   3   0   55.09    6.50
   3   3   0   67.59    6.30
   3   3   0   63.49    6.90
  -3   3   0   66.89    6.50
   4  -3   0  145.99   14.20
   4  -3   0  196.18   13.80
   4  -3   0  190.48   14.40
  -4  -3   0  199.48   14.00
   4  -3   0  199.48   14.50
   4  -3   0  190.38   14.60
  -4  -3   0  204.78   13.50
  -4  -3   0  184.88   11.90
   4  -3   0  214.28   13.90
  -4  -3   0  177.28   11.90
  -4  -3   0  174.08   13.80
  -4  -3   0  207.28   13.90
   4   3   0  183.58   13.30
  -4   3   0  184.88   14.00
   4   3   0  216.58   13.40
  -4   3   0  198.98   13.70
   4   3   0  166.68   13.20
  -4   3   0  205.78   13.60
   4   3   0  159.48   13.20
  -4   3   0  171.18   13.50
  -4   3   0  169.28   14.50
   4   3   0  172.58   13.90
   4   3   0  181.38   13.20
  -4   3   0  203.68   15.40
   0  -4   0    2.80    1.00
   0  -4   0    4.30    1.10
   0  -4   0    4.00    0.90
   0  -4   0    4.00    1.10
   0  -4   0    3.40    0.90
   0  -4   0    2.80    0.90
   0   4   0    3.30    1.00
   0   4   0    5.60    1.20
   0   4   0    2.70    1.00
   0   4   0    3.20    1.00
   0   4   0    3.30    1.00
   0   4   0    4.10    1.00
  -1  -4   0 2736.13  120.09
   1  -4   0 2976.70  120.89
   1  -4   0 2547.95  120.69
  -1  -4   0 2746.83  120.39
  -1  -4   0 2713.93  120.19
   1  -4   0 2676.03  120.49
   1  -4   0 2736.83  120.79
   1  -4   0 2593.14  120.69
  -1  -4   0 2681.03  120.39
   1  -4   0 2683.73  120.49
  -1  -4   0 2649.33  120.39
   1   4   0 2606.54  120.19
  -1   4   0 2820.52  120.79
  -1   4   0 2701.23  120.49
  -1   4   0 2456.95  120.69
   1   4   0 2675.03  120.39
   1   4   0 2751.82  120.29
  -1   4   0 2603.94  120.49
  -1   4   0 2878.51  120.79
   1   4   0 2723.53  120.49
  -1   4   0 2612.04  120.79
   1   4   0 2585.24  120.39
   2  -4   0  437.36   22.50
  -2  -4   0  450.65   22.20
  -2  -4   0  456.15   21.60
   2  -4   0  448.26   22.20
  -2  -4   0  478.35   22.20
   2  -4   0  457.55   22.60
  -2  -4   0  456.75   22.20
   2  -4   0  459.75   22.70
   2  -4   0  451.55   22.70
   2  -4   0  451.65   22.20
  -2  -4   0  489.05   21.80
  -2  -4   0  468.75   22.10
  -2   4   0  486.65   22.80
   2   4   0  448.16   22.20
  -2   4   0  414.46   22.60
   2   4   0  465.05   22.10
  -2   4   0  455.65   22.60
   2   4   0  465.75   22.10
  -2   4   0  466.75   22.30
  -2   4   0  497.35   22.40
   2   4   0  446.96   22.10
  -2   4   0  472.35   22.60
   2   4   0  480.35   22.00
   2   4   0  482.45   22.00
  -3  -4   0   28.90    3.80
   3  -4   0   40.00    5.80
   3  -4   0   33.40    5.40
   3  -4   0   40.40    5.70
   3  -4   0   34.00    4.80
  -3  -4   0   32.80    4.80
  -3  -4   0   30.00    4.50
   3  -4   0   43.30    5.10
  -3  -4   0   33.80    4.90
   3  -4   0   37.30    5.80
  -3  -4   0   33.50    5.00
  -3  -4   0   34.00    4.20
  -3   4   0   37.60    5.40
   3   4   0   30.50    4.80
   3   4   0   28.80    4.20
   3   4   0   32.60    4.90
  -3   4   0   30.60    5.20
   3   4   0   36.90    5.50
  -3   4   0   39.50    5.00
   3   4   0   38.10    5.30
  -3   4   0   41.50    5.20
  -3   4   0   34.10    5.50
   3   4   0   37.10    5.10
  -3   4   0   41.90    6.00
   4  -4   0   11.30    5.80
  -4  -4   0   13.80    6.30
  -4  -4   0   12.30    5.80
   4  -4   0   13.70    6.10
   4  -4   0   13.90    6.90
   4  -4   0    3.90    5.40
  -4  -4   0   18.20    6.20
  -4  -4   0    3.00    4.30
   4  -4   0   16.80    5.90
   4  -4   0   12.00    6.50
  -4  -4   0   18.50    6.10
  -4  -4   0    4.50    4.20
   4   4   0    9.30    6.10
  -4   4   0   17.20    7.40
  -4   4   0    7.40    5.40
   4   4   0   13.00    5.50
  -4   4   0   -1.10    5.60
   4   4   0    2.80    5.10
  -4   4   0   10.20    6.80
   4   4   0   13.50    5.80
  -4   4   0    4.30    7.10
  -4   4   0   18.00    6.30
   4   4   0    9.30    6.10
   4   4   0    5.00    5.30
   0  -5   0    0.70    0.90
   0  -5   0    0.40    1.10
   0  -5   0   -0.90    0.80
   0  -5   0   -1.30    0.80
   0  -5   0   -1.10    0.90
   0  -5   0   -0.30    0.90
   0   5   0   -0.50    1.00
   0   5   0   -0.90    0.90
   0   5   0    0.20    1.00
   0   5   0   -0.90    1.00
   0   5   0    0.10    1.00
   0   5   0   -0.40    1.00
  -1  -5   0  125.29    6.70
  -1  -5   0  136.09    6.30
   1  -5   0  129.19    6.90
   1  -5   0  130.79    6.80
   1  -5   0  137.39    7.30
  -1  -5   0  118.09    6.60
  -1  -5   0  122.89    6.70
   1  -5   0  127.29    7.10
  -1  -5   0  124.19    6.40
   1  -5   0  120.69    7.20
   1  -5   0  133.59    7.30
   1   5   0  124.99    6.70
   1   5   0  120.49    6.60
  -1   5   0  127.29    7.20
  -1   5   0  129.09    7.10
  -1   5   0  125.29    7.20
  -1   5   0  122.39    6.90
   1   5   0  110.69    6.60
  -1   5   0  129.49    6.90
  -1   5   0  125.39    7.30
   1   5   0  122.19    6.50
   1   5   0  123.79    6.80
   1   5   0  118.69    6.50
  -2  -5   0  385.26   18.50
  -2  -5   0  419.26   18.80
  -2  -5   0  366.66   17.90
  -2  -5   0  402.16   18.60
   2  -5   0  405.66   19.40
  -2  -5   0  378.66   18.00
   2  -5   0  384.66   18.70
   2  -5   0  375.66   19.10
   2  -5   0  387.36   19.10
   2  -5   0  354.26   19.00
  -2  -5   0  383.96   18.60
   2  -5   0  357.06   18.60
  -2   5   0  389.96   18.80
   2   5   0  355.46   18.40
   2   5   0  364.16   18.60
  -2   5   0  355.66   19.00
  -2   5   0  354.76   19.10
   2   5   0  382.36   18.60
   2   5   0  379.26   18.30
  -2   5   0  376.36   18.80
  -2   5   0  402.66   19.20
   2   5   0  349.87   18.30
   2   5   0  374.96   18.30
  -2   5   0  426.36   19.50
  -3  -5   0    1.50    3.00
   3  -5   0    1.40    3.80
  -3  -5   0    0.50    3.00
  -3  -5   0    4.10    3.70
   3  -5   0   -0.10    3.10
   3  -5   0    3.70    3.70
  -3  -5   0    2.90    2.60
   3  -5   0    2.10    3.70
   3  -5   0    0.80    3.90
  -3  -5   0    8.20    2.50
   3  -5   0   -4.00    3.50
  -3  -5   0    0.10    3.20
   3   5   0   -0.30    3.30
  -3   5   0    4.00    3.80
  -3   5   0    0.10    3.80
   3   5   0    4.70    3.20
  -3   5   0    1.20    4.30
   3   5   0    6.30    3.10
  -3   5   0    2.60    4.30
   3   5   0   -0.30    2.90
   3   5   0    1.10    2.90
   3   5   0   -2.40    2.70
  -3   5   0    0.90    3.50
  -4  -5   0  565.14   27.50
   4  -5   0  544.15   30.10
  -4  -5   0  597.64   29.70
   4  -5   0  562.54   30.60
  -4  -5   0  567.44   29.40
   4  -5   0  570.84   29.40
  -4  -5   0  565.24   29.20
   4  -5   0  576.34   29.70
  -4  -5   0  541.05   27.50
   4  -5   0  553.44   30.20
   4  -5   0  584.14   30.60
   4   5   0  571.14   29.30
   4   5   0  571.34   28.90
  -4   5   0  549.65   30.90
   4   5   0  549.85   28.70
  -4   5   0  582.74   29.40
   4   5   0  556.14   29.50
  -4   5   0  563.34   29.70
  -4   5   0  565.54   30.30
  -4   5   0  594.44   29.70
  -4   5   0  532.25   30.30
   4   5   0  505.45   28.50
   0  -6   0 1952.20   87.29
   0  -6   0 1918.31   87.29
   0  -6   0 1940.71   87.29
   0  -6   0 1963.00   86.99
   0  -6   0 1926.51   87.29
   0  -6   0 1948.61   86.99
   0   6   0 1890.61   87.09
   0   6   0 1910.01   87.29
   0   6   0 1988.00   87.09
   0   6   0 1953.60   87.29
   0   6   0 1938.71   87.29
   0   6   0 1954.10   87.29
   1  -6   0  775.22   35.70
   1  -6   0  817.82   36.10
  -1  -6   0  803.82   35.20
   1  -6   0  760.42   36.10
  -1  -6   0  762.72   35.60
   1  -6   0  783.12   36.10
   1  -6   0  751.12   36.00
  -1  -6   0  779.62   35.60
   1  -6   0  774.62   35.60
  -1  -6   0  778.22   35.60
  -1  -6   0  806.12   35.20
  -1   6   0  776.82   35.80
   1   6   0  817.22   35.70
   1   6   0  774.42   35.40
   1   6   0  785.62   35.60
  -1   6   0  747.03   36.00
   1   6   0  785.12   35.60
  -1   6   0  754.82   35.90
   1   6   0  793.92   35.40
  -1   6   0  774.52   35.80
   1   6   0  739.73   35.50
  -1   6   0  757.32   36.10
  -1   6   0  745.73   36.00
  -2  -6   0  488.35   22.50
  -2  -6   0  449.95   22.70
  -2  -6   0  481.65   22.60
   2  -6   0  495.25   23.30
   2  -6   0  458.45   22.60
  -2  -6   0  483.25   21.90
  -2  -6   0  487.55   22.50
  -2  -6   0  451.05   21.80
   2  -6   0  459.75   22.70
   2  -6   0  450.65   23.00
   2  -6   0  456.65   23.10
   2  -6   0  456.45   23.20
   2   6   0  478.55   22.30
  -2   6   0  476.55   22.80
   2   6   0  463.75   22.50
  -2   6   0  409.16   23.00
  -2   6   0  478.25   23.40
   2   6   0  463.55   22.30
   2   6   0  495.75   22.70
  -2   6   0  448.26   22.90
  -2   6   0  468.55   22.80
   2   6   0  486.05   22.50
  -2   6   0  440.06   23.00
   2   6   0  481.15   22.40
   3  -6   0    3.40    4.50
   3  -6   0   10.40    4.80
   3  -6   0    7.40    3.60
   3  -6   0   15.90    4.60
  -3  -6   0    9.90    3.70
  -3  -6   0    9.80    2.60
  -3  -6   0   10.00    3.80
  -3  -6   0    7.90    2.90
   3  -6   0    9.50    4.70
  -3  -6   0    6.40    3.70
   3  -6   0    3.80    4.10
  -3   6   0    7.00    4.80
  -3   6   0    5.60    4.80
  -3   6   0   14.50    4.80
   3   6   0    5.60    3.10
   3   6   0    7.70    3.80
   3   6   0    8.40    3.50
   3   6   0    8.50    3.40
   3   6   0    8.10    3.70
  -3   6   0    9.20    3.70
  -3   6   0    9.60    5.10
   3   6   0    7.80    3.30
   4  -6   0   26.60    7.80
  -4  -6   0   33.90    5.00
   4  -6   0   26.90    7.70
   4  -6   0   30.00    8.30
  -4  -6   0   31.90    6.70
  -4  -6   0   34.80    7.00
  -4  -6   0   21.10    4.50
   4  -6   0   37.00    6.60
  -4  -6   0   39.10    7.70
   4  -6   0   32.40    8.70
   4  -6   0   34.00    7.60
   4   6   0   41.80    7.30
  -4   6   0   28.40    8.40
  -4   6   0   33.30    8.80
   4   6   0   32.50    6.20
  -4   6   0   36.80    7.90
   4   6   0   31.00    5.90
  -4   6   0   29.70    7.90
  -4   6   0   32.30    8.20
   4   6   0   35.80    7.00
   4   6   0   42.20    7.00
   4   6   0   39.60    6.80
  -4   6   0   38.90    7.20
   0  -7   0    0.80    1.50
   0  -7   0    1.30    1.10
   0  -7   0    1.00    1.40
   0  -7   0    1.40    1.30
   0  -7   0    1.90    1.60
   0  -7   0    3.10    1.20
   0   7   0    5.50    1.40
   0   7   0    1.00    1.50
   0   7   0    1.00    1.30
   0   7   0    0.10    1.40
   0   7   0    0.80    1.40
   0   7   0    2.30    1.30
   1  -7   0  248.58   13.10
  -1  -7   0  263.27   12.90
  -1  -7   0  255.67   12.90
   1  -7   0  256.77   13.30
   1  -7   0  246.08   13.30
  -1  -7   0  271.77   12.30
   1  -7   0  248.18   12.80
   1  -7   0  254.37   13.30
   1  -7   0  256.57   12.90
  -1  -7   0  255.17   12.90
  -1  -7   0  259.77   12.30
   1   7   0  257.07   12.80
  -1   7   0  252.37   13.30
  -1   7   0  256.27   13.40
  -1   7   0  287.07   13.50
   1   7   0  253.77   12.70
   1   7   0  263.27   12.70
   1   7   0  255.77   12.60
   1   7   0  255.87   12.90
  -1   7   0  253.07   13.00
  -1   7   0  258.87   13.20
  -1   7   0  268.47   13.10
   2  -7   0  158.68    9.40
  -2  -7   0  161.18    8.90
   2  -7   0  154.78    9.70
  -2  -7   0  146.59    7.90
  -2  -7   0  155.38    7.90
  -2  -7   0  150.08    8.70
   2  -7   0  128.29    9.50
   2  -7   0  143.19    9.40
   2  -7   0  149.39    9.10
  -2  -7   0  148.99    8.60
   2  -7   0  155.48    9.10
  -2   7   0  149.59    9.20
   2   7   0  129.79    8.50
   2   7   0  142.89    8.50
  -2   7   0  139.39    9.80
   2   7   0  157.58    8.60
   2   7   0  154.48    8.90
   2   7   0  159.08    8.60
   2   7   0  147.39    8.80
  -2   7   0  154.28    9.60
  -2   7   0  160.98    9.90
  -2   7   0  149.29    9.30
  -2   7   0  161.38    9.80
  -3  -7   0   11.30    3.90
   3  -7   0    7.40    4.00
   3  -7   0    7.20    4.70
  -3  -7   0    8.10    2.60
   3  -7   0   13.60    4.80
  -3  -7   0   14.20    3.90
  -3  -7   0   16.30    4.30
  -3  -7   0   11.70    2.80
   3  -7   0   20.40    5.70
   3  -7   0   10.90    5.00
   3  -7   0    7.30    3.80
   3   7   0   16.20    4.00
   3   7   0   13.00    3.50
  -3   7   0   16.20    5.30
   3   7   0   17.90    4.20
   3   7   0   16.60    4.40
  -3   7   0   11.30    5.40
  -3   7   0   12.30    4.90
   3   7   0    9.40    3.20
  -3   7   0   19.70    4.70
  -3   7   0   12.10    5.10
   3   7   0   15.50    3.80
  -4  -7   0   -6.60    5.60
   4  -7   0   -3.00    8.40
   4  -7   0    5.00    5.80
   4  -7   0    3.80    7.70
   4  -7   0  -14.40    6.10
  -4  -7   0    0.00    3.50
  -4  -7   0   -7.50    5.90
  -4  -7   0    7.30    6.80
  -4  -7   0   -5.70    3.80
   4  -7   0   -5.60    7.20
  -4  -7   0    4.90    5.90
   4  -7   0    2.00    6.70
   4   7   0   -2.50    4.90
   4   7   0    2.80    5.50
   4   7   0   -0.40    6.20
  -4   7   0   -8.60    5.60
  -4   7   0    6.20    8.20
  -4   7   0    9.00    8.10
  -4   7   0   -0.30    6.80
   4   7   0    6.10    5.50
   4   7   0   -4.40    5.60
  -4   7   0   12.70    7.40
   4   7   0    1.20    5.90
  -4   7   0   -1.40    7.10
   0  -8   0   70.89    4.90
   0  -8   0   69.19    4.40
   0  -8   0   67.19    4.80
   0  -8   0   77.59    5.10
   0  -8   0   67.19    4.40
   0   8   0   67.59    4.80
   0   8   0   73.59    4.80
   0   8   0   70.99    4.90
   0   8   0   67.49    5.00
   0   8   0   65.39    4.60
   0   8   0   67.59    4.90
   1  -8   0  365.56   17.40
   1  -8   0  339.37   16.80
   1  -8   0  351.76   17.40
   1  -8   0  352.06   17.40
  -1  -8   0  329.57   16.80
  -1  -8   0  350.86   17.00
   1  -8   0  350.76   17.50
  -1  -8   0  347.47   16.20
   1  -8   0  336.37   16.90
  -1  -8   0  335.67   16.20
  -1  -8   0  329.77   16.90
   1   8   0  359.86   16.90
  -1   8   0  351.26   17.30
   1   8   0  347.37   16.90
   1   8   0  330.57   16.90
  -1   8   0  364.76   17.50
  -1   8   0  341.77   17.40
  -1   8   0  349.47   17.10
   1   8   0  357.66   16.90
  -1   8   0  353.36   17.50
   1   8   0  348.47   16.70
  -1   8   0  346.27   17.10
   1   8   0  334.37   16.60
   2  -8   0  675.73   29.10
  -2  -8   0  597.54   27.00
   2  -8   0  559.24   28.80
  -2  -8   0  580.24   27.80
  -2  -8   0  586.74   27.90
   2  -8   0  602.34   28.00
   2  -8   0  520.05   28.40
  -2  -8   0  614.34   26.90
   2  -8   0  605.64   28.20
  -2  -8   0  592.34   27.80
   2  -8   0  576.74   28.50
  -2   8   0  505.35   28.00
  -2   8   0  529.35   28.10
  -2   8   0  641.34   29.00
  -2   8   0  623.44   28.90
   2   8   0  537.85   27.60
  -2   8   0  627.14   29.10
   2   8   0  558.54   27.70
   2   8   0  568.34   27.90
   2   8   0  596.74   27.60
  -2   8   0  540.25   28.40
   2   8   0  578.94   27.90
   2   8   0  610.44   27.80
  -3  -8   0   46.20    5.90
   3  -8   0   36.70    6.00
   3  -8   0   37.10    6.40
  -3  -8   0   40.00    4.50
   3  -8   0   45.90    7.20
  -3  -8   0   37.70    4.20
   3  -8   0   50.39    6.10
  -3  -8   0   36.70    5.40
   3  -8   0   42.00    6.90
  -3   8   0   41.20    7.20
  -3   8   0   46.30    6.00
   3   8   0   31.40    4.80
  -3   8   0   25.10    6.10
   3   8   0   30.30    5.00
   3   8   0   30.60    4.60
   3   8   0   37.30    5.10
  -3   8   0   50.89    7.40
  -3   8   0   42.70    6.50
   3   8   0   35.70    4.90
   4  -8   0    9.70    7.20
   4  -8   0   12.00    8.20
  -4  -8   0    5.10    3.50
  -4  -8   0    1.80    6.10
  -4  -8   0   31.00    7.40
  -4  -8   0    9.60    6.30
   4  -8   0   25.30    8.90
  -4  -8   0    5.10    4.20
  -4  -8   0    0.10    5.90
   4  -8   0   15.70    7.30
   4  -8   0    3.50    5.90
   4  -8   0    8.90    7.80
   4   8   0   11.00    6.20
  -4   8   0    6.50    7.70
  -4   8   0   16.00    9.30
   4   8   0   27.50    6.90
  -4   8   0    5.40    6.40
   4   8   0   13.50    5.10
  -4   8   0    4.10    8.30
  -4   8   0   14.30    7.90
   4   8   0    2.50    6.30
  -4   8   0    7.00    6.70
   4   8   0    8.00    6.10
   4   8   0    3.20    5.80
   0  -9   0    2.20    1.40
   0  -9   0    1.80    1.80
   0  -9   0    0.60    1.80
   0  -9   0    2.80    2.00
   0  -9   0    0.90    1.30
   0   9   0    1.10    1.50
   0   9   0    1.70    1.70
   0   9   0    0.10    1.90
   0   9   0    1.00    1.80
   0   9   0    1.40    1.90
   0   9   0    1.30    1.80
   1  -9   0  484.75   23.70
  -1  -9   0  491.75   23.40
   1  -9   0  512.85   23.30
  -1  -9   0  497.35   22.50
  -1  -9   0  489.55   23.40
  -1  -9   0  498.15   22.60
   1  -9   0  486.25   23.30
   1  -9   0  454.25   23.80
   1  -9   0  487.65   23.80
  -1  -9   0  497.85   23.40
   1  -9   0  465.45   23.70
  -1   9   0  502.95   23.80
   1   9   0  489.35   23.10
  -1   9   0  484.55   24.00
   1   9   0  468.35   23.00
  -1   9   0  506.45   23.60
  -1   9   0  485.55   23.90
  -1   9   0  484.45   23.50
   1   9   0  498.45   23.40
   1   9   0  475.95   23.20
   1   9   0  501.65   23.40
   1   9   0  491.55   23.30
  -1   9   0  460.55   23.80
   2  -9   0 1435.96   71.09
   2  -9   0 1595.24   71.29
  -2  -9   0 1565.74   70.39
  -2  -9   0 1533.25   69.29
  -2  -9   0 1495.75   70.29
  -2  -9   0 1520.85   70.39
   2  -9   0 1635.74   71.49
   2  -9   0 1544.35   70.39
   2  -9   0 1520.25   71.09
  -2  -9   0 1549.74   69.29
  -2   9   0 1557.34   70.79
  -2   9   0 1378.26   71.09
  -2   9   0 1550.44   71.19
   2   9   0 1550.14   70.49
   2   9   0 1545.75   70.19
  -2   9   0 1590.04   71.29
  -2   9   0 1581.84   70.89
   2   9   0 1506.95   70.29
   2   9   0 1521.05   70.19
   2   9   0 1587.94   70.39
  -2   9   0 1517.15   70.99
   2   9   0 1572.04   70.19
   3  -9   0  526.95   28.70
   3  -9   0  567.94   28.80
  -3  -9   0  580.44   27.70
   3  -9   0  557.54   27.80
   3  -9   0  582.14   29.30
  -3  -9   0  551.54   25.80
   3  -9   0  527.65   29.00
  -3   9   0  520.35   28.00
   3   9   0  538.25   27.50
  -3   9   0  573.04   28.80
   3   9   0  535.15   27.70
   3   9   0  566.44   27.50
   3   9   0  539.65   27.10
   3   9   0  562.94   27.30
  -3   9   0  543.05   29.20
  -3   9   0  565.44   29.20
   3   9   0  530.75   27.30
  -3   9   0  550.64   28.90
   0 -10   0  362.46   17.20
   0 -10   0  358.86   17.90
   0 -10   0  339.57   17.10
   0 -10   0  373.16   18.00
   0 -10   0  354.76   17.90
   0  10   0  365.66   17.60
   0  10   0  351.86   18.00
   0  10   0  361.26   18.00
   0  10   0  345.17   17.80
   0  10   0  368.06   17.90
   0  10   0  362.16   17.70
   1 -10   0  967.10   43.00
  -1 -10   0  969.40   43.20
  -1 -10   0  871.21   43.00
   1 -10   0  842.22   43.50
   1 -10   0  925.01   43.60
  -1 -10   0  977.70   42.20
   1 -10   0  882.51   43.70
  -1 -10   0  964.80   42.20
   1 -10   0  944.71   43.60
   1 -10   0  951.50   43.10
  -1  10   0  931.41   43.70
  -1  10   0  944.51   43.30
  -1  10   0  942.41   43.70
   1  10   0  831.72   43.00
  -1  10   0  956.00   43.60
   1  10   0  951.90   43.20
   1  10   0  945.31   43.00
   1  10   0  890.61   43.00
  -1  10   0  963.60   43.40
   1  10   0  942.41   42.90
  -1  10   0  926.11   43.80
   1  10   0  936.81   43.10
   2 -10   0  473.75   24.70
   2 -10   0  503.35   24.90
  -2 -10   0  523.05   24.00
   2 -10   0  482.35   24.00
   2 -10   0  491.15   24.20
  -2 -10   0  473.75   22.50
  -2 -10   0  486.25   22.40
  -2 -10   0  476.35   23.80
  -2 -10   0  412.76   23.60
   2 -10   0  469.55   25.00
   2  10   0  486.65   23.70
   2  10   0  487.55   23.60
   2  10   0  493.55   24.00
  -2  10   0  516.75   25.30
  -2  10   0  476.85   25.00
   2  10   0  478.05   23.70
  -2  10   0  491.35   24.70
  -2  10   0  469.25   24.30
   2  10   0  503.85   23.90
  -2  10   0  521.45   25.10
  -2  10   0  483.35   24.50
   3 -10   0   26.60    6.70
   3 -10   0   15.20    5.60
  -3 -10   0   26.60    3.70
   3 -10   0   22.60    6.90
  -3 -10   0   22.90    5.30
  -3 -10   0   28.60    5.50
   3 -10   0   18.50    5.90
   3 -10   0   23.50    5.50
   3 -10   0   29.30    7.40
   3  10   0   24.10    4.80
  -3  10   0   30.80    7.50
   3  10   0   28.40    5.10
   3  10   0   20.60    4.70
  -3  10   0   22.60    5.90
   3  10   0   17.90    5.00
   3  10   0   25.70    4.80
   3  10   0   20.50    5.30
  -3  10   0   21.80    6.60
  -3  10   0   28.30    6.80
  -3  10   0   28.50    6.50
  -3  10   0   18.10    6.10
   0 -11   0    2.40    2.70
   0 -11   0    2.00    2.50
   0 -11   0   -0.50    1.70
   0 -11   0    3.00    2.40
   0 -11   0    0.10    1.90
   0  11   0   -0.40    2.20
   0  11   0    0.30    2.30
   0  11   0   -0.80    2.50
   0  11   0   -0.70    2.60
   0  11   0    1.20    2.40
   0  11   0    0.00    2.60
  -1 -11   0   24.30    3.50
   1 -11   0   26.30    3.70
   1 -11   0   18.50    3.60
  -1 -11   0   23.20    2.90
  -1 -11   0   22.60    2.70
   1 -11   0   23.80    4.10
   1 -11   0   18.50    3.70
  -1 -11   0   22.90    3.70
  -1 -11   0   20.80    3.50
   1 -11   0   30.20    3.90
   1 -11   0   19.80    4.00
  -1  11   0   23.00    4.20
   1  11   0   21.60    3.50
   1  11   0   16.40    3.30
   1  11   0   24.30    3.70
   1  11   0   20.50    3.20
   1  11   0   22.10    3.60
  -1  11   0   25.10    4.00
  -1  11   0   24.40    3.80
  -1  11   0   26.00    3.90
  -1  11   0   29.60    4.30
  -1  11   0   22.30    4.30
   1  11   0   30.40    3.70
   2 -11   0    9.10    4.30
  -2 -11   0   17.00    2.00
  -2 -11   0   15.50    1.90
   2 -11   0   14.00    4.00
   2 -11   0   13.20    4.60
   2 -11   0   12.70    4.90
   2 -11   0   11.40    3.70
  -2 -11   0   17.70    3.80
  -2 -11   0   11.90    3.20
  -2 -11   0   14.40    3.70
   2  11   0   12.60    3.60
  -2  11   0   13.00    5.00
   2  11   0   12.80    3.50
   2  11   0   15.10    3.50
  -2  11   0    7.30    3.70
  -2  11   0   13.70    5.00
  -2  11   0   12.80    4.50
  -2  11   0    7.00    5.00
  -2  11   0    6.80    4.00
   2  11   0    9.90    3.30
   2  11   0   13.00    3.70
  -3 -11   0   74.79    8.70
  -3 -11   0   51.39    6.70
   3 -11   0   76.89   10.70
  -3 -11   0   81.89    9.10
   3 -11   0   72.19    9.70
   3 -11   0   59.49    8.90
   3 -11   0   75.99    8.50
   3 -11   0   59.39    8.10
   3 -11   0   74.59    9.10
   3  11   0   52.79    6.70
  -3  11   0   52.99    8.00
  -3  11   0   54.89    8.60
  -3  11   0   88.69   12.20
   3  11   0   58.99    6.90
   3  11   0   61.59    8.20
   3  11   0   63.09    8.40
   3  11   0   60.09    8.30
  -3  11   0   42.50    7.10
  -3  11   0   51.69    8.20
   3  11   0   54.79    7.10
  -3  11   0   53.99    8.40
   0 -12   0    3.50    3.00
   0 -12   0    3.70    2.10
   0 -12   0    3.20    2.10
   0 -12   0    3.30    2.80
   0 -12   0    3.90    3.00
   0  12   0    1.20    3.10
   0  12   0    5.50    2.80
   0  12   0    1.70    2.70
   0  12   0    2.70    2.80
   0  12   0    3.10    3.10
   0  12   0    2.70    2.80
   1 -12   0  205.78   12.20
   1 -12   0  214.18   12.50
   1 -12   0  205.28   12.30
  -1 -12   0  186.48   11.50
   1 -12   0  203.98   11.40
  -1 -12   0  208.48   11.80
   1 -12   0  198.98   12.60
  -1 -12   0  195.98   10.00
  -1 -12   0  193.38   10.00
   1 -12   0  206.88   11.40
  -1  12   0  201.78   12.10
   1  12   0  206.48   11.70
  -1  12   0  204.68   12.50
  -1  12   0  209.38   12.10
   1  12   0  199.98   11.50
   1  12   0  207.98   11.60
  -1  12   0  206.88   12.60
  -1  12   0  211.78   12.00
   1  12   0  205.68   11.50
   1  12   0  197.58   11.60
   1  12   0  200.48   11.40
  -1  12   0  202.78   12.40
   2 -12   0  102.29    9.60
   2 -12   0   87.89    8.90
   2 -12   0  102.29    8.60
   2 -12   0  111.19   10.30
   2 -12   0   99.19    8.60
  -2 -12   0  109.69    8.30
   2  12   0  103.09    8.00
  -2  12   0   81.69    8.80
  -2  12   0  100.19   10.10
  -2  12   0   98.69    8.70
   2  12   0   95.69    7.90
  -2  12   0  104.09   10.20
  -2  12   0   74.39   10.10
   2  12   0  106.09    8.30
   2  12   0  103.89    8.10
  -2  12   0   92.39    9.50
   2  12   0   95.39    7.80
   2  12   0   90.69    7.70
   3 -12   0    1.70    5.40
  -3 -12   0   -0.40    5.40
  -3 -12   0    1.90    5.60
  -3 -12   0   -1.20    4.60
   3 -12   0   10.80    7.00
   3 -12   0  -11.70    6.40
   3 -12   0   11.20    7.50
   3 -12   0    6.80    7.00
   3 -12   0   -6.60    5.80
  -3 -12   0    0.70    4.40
   3  12   0    2.00    5.10
   3  12   0    4.00    5.30
   3  12   0    2.00    5.00
  -3  12   0   -3.30    6.40
   3  12   0    7.50    5.00
  -3  12   0   -3.50    6.60
  -3  12   0    6.20    8.30
  -3  12   0   -6.90    7.20
   3  12   0   -1.10    5.40
  -3  12   0   10.30    7.00
  -3  12   0   -0.80    6.30
   0 -13   0   -2.10    2.00
   0 -13   0    2.90    2.30
   0 -13   0    4.80    3.60
   0 -13   0   -1.70    3.20
   0 -13   0    0.90    3.30
   0  13   0   -1.20    2.90
   0  13   0   -0.60    3.20
   0  13   0    2.30    3.00
   0  13   0   -0.70    3.60
   0  13   0   -0.40    3.40
   0  13   0   -2.00    3.00
   1 -13   0   28.50    4.00
  -1 -13   0   30.40    4.70
  -1 -13   0   24.10    3.00
   1 -13   0   37.90    6.10
   1 -13   0   27.40    5.10
   1 -13   0   24.00    4.40
  -1 -13   0   24.70    4.30
  -1 -13   0   26.50    3.10
   1 -13   0   34.90    4.30
  -1  13   0   24.80    4.90
   1  13   0   24.00    4.10
   1  13   0   28.90    4.30
  -1  13   0   25.50    4.90
  -1  13   0   26.20    4.40
   1  13   0   27.90    4.20
  -1  13   0   22.20    5.40
  -1  13   0   31.10    5.30
  -1  13   0   29.80    5.00
   1  13   0   27.10    4.30
   1  13   0   27.20    4.50
   1  13   0   26.50    4.40
  -2 -13   0   -2.00    3.20
  -2 -13   0    1.50    3.80
   2 -13   0   -7.20    3.80
   2 -13   0    2.60    4.50
   2 -13   0   10.50    5.30
   2 -13   0    6.50    6.90
   2 -13   0    2.40    5.00
  -2 -13   0    4.80    4.80
  -2 -13   0   -2.20    4.20
   2 -13   0    8.50    4.30
   2  13   0    7.00    3.90
  -2  13   0   -5.90    5.00
   2  13   0    1.60    3.80
  -2  13   0    4.30    4.90
   2  13   0   -6.50    3.80
  -2  13   0   -0.80    5.90
   2  13   0   -1.60    3.70
   2  13   0    0.80    3.90
  -2  13   0   -0.50    5.40
  -2  13   0   -2.70    5.00
   2  13   0    5.80    3.90
  -2  13   0   -3.70    5.90
   3 -13   0   -0.30    6.00
   3 -13   0   12.10    7.90
   3 -13   0   -0.30    6.70
  -3 -13   0    6.80    7.30
   3 -13   0    5.00    8.10
   3 -13   0   14.70    8.00
  -3 -13   0   -6.60    5.90
  -3  13   0    2.30    8.00
  -3  13   0   37.20    9.40
  -3  13   0   10.10    9.40
   3  13   0   16.20    6.30
   3  13   0    9.80    5.90
   3  13   0   -1.70    5.60
   0 -14   0   63.79    7.20
   0 -14   0   71.09    5.60
   0 -14   0   70.19    5.30
   0 -14   0   63.59    7.60
   0  14   0   74.89    7.30
   0  14   0   68.79    7.40
   0  14   0   63.99    7.20
   0  14   0   64.09    7.90
   0  14   0   62.69    6.90
   0  14   0   76.99    8.00
   1 -14   0   76.89    8.90
   1 -14   0   61.29    8.20
   1 -14   0   55.59    8.40
   1 -14   0   66.49    6.40
  -1 -14   0   55.89    4.00
   1 -14   0   73.49    6.50
   1 -14   0   58.09    7.70
  -1 -14   0   54.99    7.00
   1  14   0   67.29    7.00
   1  14   0   72.59    7.00
  -1  14   0   79.79    8.60
  -1  14   0   59.79    7.50
   1  14   0   62.79    7.10
  -1  14   0   53.49    7.50
  -1  14   0   62.59    8.50
   1  14   0   52.89    7.10
  -1  14   0   44.20    6.00
  -1  14   0   55.39    8.30
   1  14   0   74.69    7.30
   1  14   0   49.30    7.10
  -2 -14   0  382.16   20.10
  -2 -14   0  344.57   19.50
   2 -14   0  353.26   21.70
   2 -14   0  381.46   21.00
  -2 -14   0  351.16   19.50
   2 -14   0  371.46   21.00
   2 -14   0  370.86   21.80
   2 -14   0  364.56   19.50
   2  14   0  355.76   19.60
  -2  14   0  335.67   21.40
  -2  14   0  358.06   21.90
   2  14   0  360.56   19.20
  -2  14   0  355.56   21.00
   2  14   0  371.36   19.50
   2  14   0  377.36   19.40
  -2  14   0  367.66   20.70
   2  14   0  333.47   19.40
  -2  14   0  356.36   20.40
   2  14   0  329.67   18.90
  -2  14   0  342.77   21.10
   0 -15   0    0.50    2.60
   0 -15   0    7.60    4.40
   0 -15   0   -1.60    2.60
   0 -15   0   -2.20    4.30
   0 -15   0   -8.20    4.60
   0 -15   0    0.80    4.10
   0  15   0    5.40    4.40
   0  15   0   -1.60    4.20
   0  15   0   -6.50    3.90
   0  15   0    4.40    4.70
   0  15   0    5.30    5.20
   0  15   0    4.80    4.40
  -1 -15   0   53.49    8.10
   1 -15   0   60.79    8.20
  -1 -15   0   61.09    7.80
   1 -15   0   60.49    7.00
   1 -15   0   61.99    7.00
   1 -15   0   65.59    8.30
   1 -15   0   62.09    9.10
  -1 -15   0   62.29    8.30
   1  15   0   56.79    8.00
  -1  15   0   69.89    9.40
   1  15   0   53.09    6.60
   1  15   0   61.39    7.70
  -1  15   0   69.39    9.50
   1  15   0   67.69    8.00
   1  15   0   57.39    8.00
  -1  15   0   66.99    7.40
  -1  15   0   62.29    8.60
  -1  15   0   56.19    8.00
   1  15   0   64.39    7.70
  -1  15   0   66.89    9.20
   2 -15   0  213.28   16.70
   2 -15   0  243.58   14.70
  -2 -15   0  223.38   15.80
   2 -15   0  216.38   17.10
  -2 -15   0  232.48   14.80
   2 -15   0  233.88   16.90
   2  15   0  218.98   14.00
  -2  15   0  236.48   16.60
   2  15   0  232.28   14.80
   2  15   0  199.98   14.70
  -2  15   0  179.38   16.90
  -2  15   0  197.08   17.10
   2  15   0  222.58   14.30
  -2  15   0  238.48   17.70
   2  15   0  225.08   15.30
  -2  15   0  210.48   15.30
   2  15   0  242.98   14.60
  -2  15   0  239.48   16.90
   0 -16   0  484.55   25.30
   0 -16   0  453.95   25.30
   0 -16   0  457.55   24.80
   0  16   0  489.65   25.00
   0  16   0  482.75   24.90
   0  16   0  446.16   24.70
   0  16   0  483.25   24.70
   0  16   0  478.55   25.20
   0  16   0  467.55   25.00
  -1 -16   0   94.99   10.10
   1 -16   0   71.09    9.20
   1 -16   0   80.69    7.90
  -1 -16   0   80.09    8.60
  -1 -16   0   73.39    9.80
   1 -16   0   84.39   10.80
  -1  16   0   73.89   10.60
  -1  16   0   60.69    8.10
   1  16   0   82.69    9.10
   1  16   0   62.49    9.20
   1  16   0   76.89    9.40
   1  16   0   86.79    9.80
  -1  16   0   86.79   10.10
   1  16   0   68.59    9.10
  -1  16   0   78.89   10.90
  -1  16   0   72.19    8.70
   1  16   0   76.49    8.90
  -1  16   0   83.89    9.90
  -4   0   1   -2.30    4.90
  -4   0   1   -0.50    4.30
  -4   0   1   -3.40    5.10
   4   0  -1    1.40    5.40
  -4   0   1   -1.20    5.20
   4   0  -1    3.00    5.40
   4   0  -1    4.60    5.50
   4   0  -1    0.10    4.70
   4   0  -1    8.50    4.80
  -4   0   1   -0.90    4.10
   4   0  -1    4.80    5.30
  -3   0   1   -0.10    3.00
  -3   0   1   -1.10    3.20
   3   0  -1   -1.40    2.90
   3   0  -1    4.50    3.40
  -3   0   1    1.30    3.20
  -3   0   1    1.90    3.20
   3   0  -1    0.90    3.30
  -3   0   1    0.10    2.60
  -3   0   1   -0.70    2.60
   3   0  -1    0.60    3.40
   3   0  -1   -1.50    3.00
  -2   0   1   -2.00    1.80
   2   0  -1    1.00    1.70
   2   0  -1    1.50    2.00
  -2   0   1   -1.20    1.50
   2   0  -1   -2.00    1.60
   2   0  -1   -1.00    1.90
  -2   0   1   -2.20    1.50
  -2   0   1    1.10    1.90
   2   0  -1   -3.00    1.40
  -2   0   1    1.10    2.00
  -2   0   1   -0.80    1.70
   2   0  -1   -0.80    1.70
   1   0  -1   -2.40    1.10
   1   0  -1   -2.10    1.10
  -1   0   1   -2.30    1.10
   1   0  -1   -2.50    1.00
  -1   0   1   -2.80    0.90
   1   0  -1   -2.40    0.90
  -1   0   1   -2.40    1.00
  -1   0   1   -3.30    1.00
  -1   0   1   -2.00    0.90
   1   0  -1   -2.70    1.10
   1   0  -1   -2.50    0.80
  -1   0   1   -2.30    1.10
   1   0   1   -2.70    1.30
  -1   0  -1   -1.30    1.20
   1   0   1   -2.20    1.10
   1   0   1   -0.50    1.40
  -1   0  -1   -2.00    1.20
  -1   0  -1   -1.00    1.40
  -1   0  -1   -2.20    0.90
   1   0   1   -2.60    1.20
  -1   0  -1   -3.30    1.10
   1   0   1   -1.20    1.00
   1   0   1   -1.80    1.00
  -1   0  -1   -3.90    1.10
  -2   0  -1    0.40    1.70
  -2   0  -1   -0.40    2.10
  -2   0  -1    0.00    1.90
   2   0   1   -0.70    1.90
   2   0   1    0.60    1.70
  -2   0  -1   -2.40    1.60
  -2   0  -1   -3.00    1.90
   2   0   1   -1.90    1.80
   2   0   1    0.50    2.00
  -2   0  -1   -2.00    2.10
   2   0   1   -1.20    1.80
   2   0   1    0.60    2.00
   3   0   1    1.50    3.50
   3   0   1    0.40    3.30
  -3   0  -1   -1.10    3.30
  -3   0  -1    1.00    2.90
   3   0   1    0.00    2.90
   3   0   1    0.80    3.00
   3   0   1    1.00    3.40
   3   0   1   -0.40    3.20
  -3   0  -1    4.30    3.80
  -3   0  -1    4.40    3.20
  -3   0  -1   -2.30    3.10
  -3   0  -1   -3.00    3.40
  -4   0  -1    5.80    5.70
   4   0   1    1.70    4.60
  -4   0  -1    6.90    4.60
   4   0   1   -6.40    5.10
   4   0   1    0.50    5.20
   4   0   1    2.00    5.80
  -4   0  -1   -1.20    5.30
   4   0   1    1.50    5.60
  -4   0  -1    2.50    6.00
  -4   0  -1   -4.80    5.40
   4   0   1    3.60    6.00
   4  -1  -1  127.09   11.70
  -4  -1   1  132.89   10.70
   4  -1  -1  150.28   12.10
   4  -1  -1  137.29   11.40
  -4  -1   1  118.09   12.00
  -4  -1   1  152.48   12.20
   4  -1  -1  140.49   12.40
  -4  -1   1  160.48   10.80
   4  -1  -1  131.09   12.10
  -4  -1   1  127.79   11.90
   4  -1  -1  157.28   12.90
   4   1  -1  153.28   11.70
   4   1  -1  148.09   11.40
   4   1  -1  153.48   12.50
   4   1  -1  147.59   11.80
  -4   1   1  158.58   11.10
   4   1  -1  154.58   12.00
   4   1  -1  133.79   11.90
  -4   1   1  160.08   12.60
  -4   1   1  145.49   12.50
  -4   1   1  133.09   12.30
  -3  -1   1   -0.90    2.90
   3  -1  -1    0.60    3.30
   3  -1  -1   -0.10    2.50
   3  -1  -1    2.40    2.70
  -3  -1   1    4.10    3.20
  -3  -1   1   -1.30    2.40
  -3  -1   1   -2.30    2.40
   3  -1  -1    3.90    3.10
  -3  -1   1   -1.10    2.90
   3  -1  -1    0.70    3.10
   3  -1  -1    4.00    3.50
  -3  -1   1    1.60    2.80
  -3   1   1    1.20    2.70
  -3   1   1    1.50    3.60
  -3   1   1   -1.30    3.40
   3   1  -1    4.20    3.30
   3   1  -1    8.00    3.50
  -3   1   1    0.70    2.80
   3   1  -1    4.80    3.10
   3   1  -1    6.70    3.30
   3   1  -1   -1.40    2.80
   3   1  -1    2.80    2.70
  -3   1   1    0.30    3.00
  -3   1   1   -1.10    3.30
  -2  -1   1 1797.92   80.89
  -2  -1   1 1833.22   80.89
   2  -1  -1 1744.53   80.69
   2  -1  -1 1583.54   80.89
  -2  -1   1 1844.02   80.89
  -2  -1   1 1763.82   80.49
  -2  -1   1 1779.32   80.49
  -2  -1   1 1525.85   80.69
   2  -1  -1 1995.30   81.19
   2  -1  -1 1815.52   80.99
   2  -1  -1 1617.64   80.59
   2  -1  -1 1716.23   80.89
   2   1  -1 1958.60   80.99
   2   1  -1 1744.43   80.79
   2   1  -1 1810.92   80.69
  -2   1   1 1740.93   80.59
   2   1  -1 1792.62   80.89
  -2   1   1 1822.52   81.09
   2   1  -1 1853.61   80.99
  -2   1   1 1682.43   80.89
  -2   1   1 1810.72   81.09
  -2   1   1 2062.09   81.29
  -2   1   1 1778.12   80.69
   1  -1  -1   -6.20    0.90
  -1  -1   1   -4.30    1.10
   1  -1  -1   -4.50    1.30
   1  -1  -1   -5.30    1.20
   1  -1  -1   -5.90    1.20
  -1  -1   1   -5.80    1.00
   1  -1  -1   -6.50    1.20
  -1  -1   1   -6.00    0.90
  -1  -1   1   -5.20    0.80
  -1  -1   1   -4.50    1.10
   1  -1  -1   -5.70    1.00
   1   1  -1   -5.90    0.80
  -1   1   1   -5.60    1.00
  -1   1   1   -5.30    1.00
   1   1  -1   -5.10    0.90
  -1   1   1   -6.40    1.20
  -1   1   1   -5.20    1.20
  -1   1   1   -4.80    1.20
   1   1  -1   -5.40    1.10
   1   1  -1   -4.30    1.10
   1   1  -1   -5.40    1.00
   1   1  -1   -5.40    1.00
  -1   1   1   -4.00    1.30
  -1  -1  -1  205.78   10.10
  -1  -1  -1  203.78   10.10
   1  -1   1  171.08   10.10
   1  -1   1  214.58   10.20
  -1  -1  -1  215.28   10.00
  -1  -1  -1  206.78   10.00
   1  -1   1  211.88   10.00
  -1  -1  -1  221.58   10.20
   1  -1   1  216.48   10.20
   1  -1   1  208.98   10.30
   1  -1   1  202.98   10.00
   1   1   1  199.28   10.10
   1   1   1  195.58    9.90
  -1   1  -1  194.98   10.10
  -1   1  -1  224.48   10.30
   1   1   1  208.58   10.10
   1   1   1  207.88   10.10
  -1   1  -1  207.38   10.20
  -1   1  -1  199.08   10.00
  -1   1  -1  199.48   10.20
   1   1   1  199.98   10.20
   1   1   1  213.48   10.00
   2  -1   1    2.30    2.20
   2  -1   1   -1.20    2.10
  -2  -1  -1   -2.10    1.50
  -2  -1  -1   -2.30    2.00
  -2  -1  -1    0.20    1.90
  -2  -1  -1    1.10    2.10
   2  -1   1    1.80    2.20
  -2  -1  -1    0.40    1.80
   2  -1   1   -1.20    1.80
   2  -1   1   -0.30    1.60
   2  -1   1   -2.30    1.80
  -2  -1  -1    0.70    1.80
   2   1   1    0.20    2.10
  -2   1  -1   -1.10    1.80
   2   1   1    2.40    1.90
   2   1   1   -0.10    1.80
   2   1   1   -0.10    1.70
  -2   1  -1    1.70    2.20
  -2   1  -1    0.70    2.20
   2   1   1    0.20    1.80
  -2   1  -1    0.00    2.20
   2   1   1   -1.60    2.00
  -2   1  -1   -0.10    2.00
  -2   1  -1   -0.80    1.50
   3  -1   1 1333.97   63.29
   3  -1   1 1378.76   63.39
   3  -1   1 1311.07   63.59
   3  -1   1 1356.66   63.69
  -3  -1  -1 1370.36   63.69
  -3  -1  -1 1377.36   63.09
   3  -1   1 1447.76   63.99
  -3  -1  -1 1424.96   63.09
  -3  -1  -1 1334.77   63.79
  -3  -1  -1 1415.96   63.79
  -3  -1  -1 1306.57   63.49
   3  -1   1 1412.46   63.99
   3   1   1 1311.27   63.29
   3   1   1 1282.77   63.49
  -3   1  -1 1387.36   63.79
  -3   1  -1 1393.96   63.29
  -3   1  -1 1458.95   63.99
   3   1   1 1278.57   63.09
   3   1   1 1460.55   63.79
  -3   1  -1 1385.76   63.29
   3   1   1 1387.06   63.89
  -3   1  -1 1462.65   63.99
   3   1   1 1292.37   63.39
   4  -1   1   10.70    6.20
  -4  -1  -1    9.00    4.80
  -4  -1  -1   27.20    6.70
  -4  -1  -1   15.70    6.40
   4  -1   1    9.00    5.80
   4  -1   1   12.10    5.80
   4  -1   1    9.30    5.80
   4  -1   1   10.90    5.00
  -4  -1  -1    9.90    6.50
   4  -1   1   16.40    6.30
  -4   1  -1    1.50    5.50
   4   1   1    3.90    6.00
  -4   1  -1    9.90    6.30
   4   1   1   28.90    7.00
  -4   1  -1   10.80    6.50
   4   1   1   10.90    5.60
  -4   1  -1   12.20    5.80
  -4   1  -1   10.80    5.10
   4   1   1   12.60    5.20
   4   1   1    9.00    5.90
   4   1   1   14.60    5.40
   4  -2  -1   93.29   10.30
  -4  -2   1   95.69   10.50
   4  -2  -1  100.19   11.30
   4  -2  -1  113.49   11.30
   4  -2  -1  110.99   10.80
  -4  -2   1  107.89   11.10
  -4  -2   1  105.89    9.10
  -4  -2   1  103.69   10.60
  -4  -2   1  107.19   10.50
   4  -2  -1  118.99   11.20
   4  -2  -1   87.79   11.30
  -4  -2   1   96.49    8.70
   4   2  -1  109.89   10.10
   4   2  -1   95.59   10.10
  -4   2   1   98.89    9.70
  -4   2   1  106.29   10.60
  -4   2   1  103.29   12.00
  -4   2   1  112.49   11.50
   4   2  -1  114.39   10.40
   4   2  -1  109.79   10.20
   4   2  -1  109.39   10.90
   4   2  -1  103.09   10.50
  -4   2   1   84.29   10.80
   3  -2  -1  199.48   13.00
  -3  -2   1  227.18   11.90
   3  -2  -1  227.28   12.60
   3  -2  -1  235.08   13.20
   3  -2  -1  203.98   12.50
   3  -2  -1  243.18   13.40
  -3  -2   1  209.78   12.60
  -3  -2   1  197.58   12.70
   3  -2  -1  224.78   13.20
  -3  -2   1  224.78   12.70
  -3  -2   1  231.08   11.90
  -3  -2   1  226.18   12.50
   3   2  -1  221.38   12.90
  -3   2   1  227.28   13.30
  -3   2   1  226.98   12.50
  -3   2   1  229.58   13.30
   3   2  -1  209.48   12.30
   3   2  -1  201.38   12.50
   3   2  -1  218.48   12.40
  -3   2   1  217.08   12.50
  -3   2   1  229.98   13.30
  -3   2   1  221.08   13.20
   3   2  -1  220.68   12.70
   3   2  -1  232.68   12.70
  -2  -2   1   75.99    5.10
  -2  -2   1   68.09    5.10
  -2  -2   1   79.39    5.20
   2  -2  -1   68.69    5.10
   2  -2  -1   75.89    5.40
  -2  -2   1   81.99    4.80
   2  -2  -1   60.19    5.50
  -2  -2   1   74.39    5.30
  -2  -2   1   72.59    4.60
   2  -2  -1   73.69    5.20
   2  -2  -1   73.49    5.60
   2  -2  -1   72.19    5.50
   2   2  -1   69.89    4.80
   2   2  -1   71.79    5.30
  -2   2   1   65.39    5.50
  -2   2   1   73.89    5.70
   2   2  -1   69.89    4.80
  -2   2   1   69.89    5.70
  -2   2   1   61.29    5.50
   2   2  -1   73.89    5.10
  -2   2   1   75.39    5.10
   2   2  -1   74.09    5.10
   2   2  -1   67.49    5.00
   0  -2  -1  378.06   17.10
   0  -2   1  372.96   16.90
   0  -2  -1  396.36   17.10
   0  -2  -1  364.86   17.20
   0  -2  -1  352.86   17.00
   0  -2   1  339.47   17.10
   0  -2   1  376.46   16.70
   0  -2   1  376.06   16.70
   0  -2   1  357.56   16.90
   0  -2  -1  367.56   17.00
   0   2   1  401.36   17.10
   0   2  -1  372.46   16.80
   0   2  -1  343.87   16.80
   0   2   1  363.66   17.10
   0   2   1  350.06   17.00
   0   2  -1  386.66   16.90
   0   2  -1  379.16   16.80
   0   2  -1  377.36   16.80
   0   2  -1  373.36   16.80
   0   2   1  360.76   17.00
   1  -2   1   27.50    2.50
  -1  -2  -1   31.70    2.60
  -1  -2  -1   30.60    2.30
   1  -2   1   30.30    2.50
  -1  -2  -1   27.50    2.30
  -1  -2  -1   32.00    2.60
  -1  -2  -1   31.50    2.60
   1  -2   1   26.70    2.70
   1  -2   1   25.90    2.70
  -1  -2  -1   27.90    2.60
   1  -2   1   28.90    2.60
   1  -2   1   29.90    2.80
  -1   2  -1   25.90    2.70
  -1   2  -1   26.80    2.50
  -1   2  -1   27.20    2.60
  -1   2  -1   29.30    2.80
  -1   2  -1   31.60    2.80
   1   2   1   31.90    2.50
   1   2   1   27.10    2.60
  -1   2  -1   27.20    2.50
   1   2   1   30.80    2.60
   1   2   1   30.50    2.40
   1   2   1   29.60    2.50
   1   2   1   30.10    2.40
  -2  -2  -1 1661.83   72.49
   2  -2   1 1567.54   72.89
  -2  -2  -1 1613.04   72.39
   2  -2   1 1550.44   72.59
  -2  -2  -1 1519.45   72.79
   2  -2   1 1629.34   72.69
  -2  -2  -1 1707.03   72.99
   2  -2   1 1584.94   72.99
   2  -2   1 1599.74   73.09
  -2  -2  -1 1566.64   72.79
  -2  -2  -1 1481.15   72.69
   2  -2   1 1704.53   73.19
   2   2   1 1526.05   72.69
  -2   2  -1 1619.94   73.09
  -2   2  -1 1581.04   72.99
  -2   2  -1 1671.63   73.19
   2   2   1 1678.83   72.99
   2   2   1 1649.04   72.79
  -2   2  -1 1553.24   72.59
  -2   2  -1 1575.44   72.69
  -2   2  -1 1713.83   73.19
   2   2   1 1602.24   72.89
   2   2   1 1492.65   72.49
   2   2   1 1572.34   72.59
   3  -2   1  296.57   15.80
   3  -2   1  268.17   15.40
   3  -2   1  276.97   15.50
   3  -2   1  282.67   15.00
   3  -2   1  250.47   15.40
  -3  -2  -1  262.17   15.10
  -3  -2  -1  243.58   15.00
   3  -2   1  277.77   15.00
  -3  -2  -1  279.07   14.60
  -3  -2  -1  258.77   15.30
  -3  -2  -1  274.87   15.30
  -3  -2  -1  270.77   14.40
   3   2   1  268.17   15.40
   3   2   1  272.87   15.30
  -3   2  -1  288.87   15.80
   3   2   1  276.67   15.20
  -3   2  -1  289.87   15.70
  -3   2  -1  278.87   14.90
  -3   2  -1  283.27   15.60
   3   2   1  261.27   14.70
  -3   2  -1  294.67   15.70
   3   2   1  291.97   15.20
  -3   2  -1  239.48   14.70
  -4  -2  -1   68.99   10.20
  -4  -2  -1   82.59   10.30
   4  -2   1   73.09    9.70
   4  -2   1   76.89   10.40
   4  -2   1   66.79    8.70
  -4  -2  -1   67.29   10.10
  -4  -2  -1   81.49    8.80
   4  -2   1   79.69    9.80
   4  -2   1   86.59   10.80
   4  -2   1   82.99   10.90
   4   2   1   73.49    9.60
  -4   2  -1   64.19    9.20
  -4   2  -1   70.29    9.20
   4   2   1   82.09    9.90
   4   2   1   80.09   10.10
  -4   2  -1   71.29    9.10
   4   2   1   85.39   10.80
  -4   2  -1   75.09   10.90
   4   2   1   66.29    9.90
  -4   2  -1   60.29    7.70
  -4   2  -1   79.89   10.80
   4   2   1   79.49    9.40
  -4  -3   1    0.90    4.00
  -4  -3   1   -5.30    5.30
   4  -3  -1   -7.00    6.30
  -4  -3   1   -4.40    5.00
   4  -3  -1   -3.20    5.90
   4  -3  -1    5.50    5.90
   4  -3  -1    6.60    5.90
   4  -3  -1    4.40    5.30
  -4  -3   1    4.40    3.80
   4  -3  -1   10.70    5.60
  -4  -3   1   -0.90    4.70
  -4  -3   1   10.20    5.50
  -4   3   1   -8.80    4.80
   4   3  -1    4.60    4.70
  -4   3   1    2.10    6.40
   4   3  -1   -4.40    4.80
   4   3  -1   -2.60    4.70
   4   3  -1    1.10    4.90
   4   3  -1    6.20    5.10
  -4   3   1   -0.50    5.40
  -4   3   1   -3.40    6.30
   4   3  -1    9.10    5.40
  -4   3   1   -3.10    5.90
  -4   3   1   -7.60    5.90
   3  -3  -1    4.80    3.50
  -3  -3   1    3.60    2.40
  -3  -3   1    2.90    2.40
  -3  -3   1   -1.40    3.10
  -3  -3   1   -1.00    3.00
   3  -3  -1   -0.40    3.20
   3  -3  -1   -4.20    3.20
  -3  -3   1    2.40    2.80
   3  -3  -1   -2.20    3.10
   3  -3  -1   -0.20    2.60
   3  -3  -1   -2.90    3.50
  -3  -3   1    0.90    3.20
  -3   3   1   -1.30    3.00
  -3   3   1   -5.10    3.10
  -3   3   1   -3.60    3.20
   3   3  -1    0.70    3.00
   3   3  -1   -0.40    2.50
   3   3  -1   -1.10    3.00
  -3   3   1   -3.40    3.40
   3   3  -1   -3.30    2.30
  -3   3   1   -3.30    3.70
  -3   3   1    4.00    3.80
   3   3  -1    3.70    3.20
   2  -3  -1   43.00    4.60
  -2  -3   1   45.80    3.60
   2  -3  -1   40.30    4.50
   2  -3  -1   52.69    4.70
  -2  -3   1   38.90    4.10
   2  -3  -1   48.00    4.30
  -2  -3   1   44.00    4.10
  -2  -3   1   44.30    4.20
  -2  -3   1   45.30    4.10
   2  -3  -1   49.70    4.30
  -2  -3   1   42.50    3.40
   2  -3  -1   46.50    4.70
  -2   3   1   52.79    4.30
   2   3  -1   48.70    4.10
  -2   3   1   47.60    4.70
   2   3  -1   44.50    4.00
   2   3  -1   48.70    3.90
  -2   3   1   51.89    4.40
   2   3  -1   39.40    3.80
  -2   3   1   41.40    4.80
   2   3  -1   40.70    4.00
  -2   3   1   46.80    4.30
  -2   3   1   51.29    4.80
   2   3  -1   38.70    4.20
   1  -3  -1    1.80    1.10
  -1  -3   1   -0.70    0.90
  -1  -3   1   -0.90    0.90
   1  -3  -1    0.00    1.30
   1  -3  -1    0.40    1.20
  -1  -3   1   -1.20    0.60
   1  -3  -1   -0.70    1.20
  -1  -3   1   -1.60    1.00
   1  -3  -1    0.20    1.20
  -1  -3   1   -1.30    0.90
  -1  -3   1   -1.90    0.70
   1  -3  -1    1.80    1.00
  -1   3   1    2.00    1.00
  -1   3   1   -0.70    1.00
   1   3  -1   -1.10    1.00
   1   3  -1   -2.10    0.90
   1   3  -1   -1.10    0.90
   1   3  -1   -1.70    0.80
  -1   3   1    0.60    1.30
   1   3  -1   -1.10    0.80
  -1   3   1    1.90    1.30
  -1   3   1    1.60    1.40
  -1   3   1    0.10    1.20
   1   3  -1   -1.60    1.00
   0  -3   1  250.77   11.10
   0  -3   1  236.18   11.10
   0  -3  -1  223.88   11.20
   0  -3   1  234.38   11.10
   0  -3  -1  253.97   11.40
   0  -3  -1  231.88   11.40
   0  -3  -1  259.77   11.50
   0  -3   1  232.58   10.90
   0  -3   1  233.58   10.90
   0  -3  -1  221.68   11.20
   0   3  -1  229.68   11.10
   0   3  -1  225.68   11.00
   0   3   1  227.18   11.30
   0   3  -1  231.08   11.10
   0   3   1  226.08   11.40
   0   3  -1  228.08   11.00
   0   3   1  227.88   11.30
   0   3  -1  221.58   11.10
   0   3  -1  229.58   11.10
   0   3   1  225.58   11.30
   0   3   1  229.58   11.40
   1  -3   1  245.38   12.00
  -1  -3  -1  249.28   12.10
   1  -3   1  263.57   12.30
   1  -3   1  256.77   12.30
  -1  -3  -1  260.47   12.00
  -1  -3  -1  247.78   12.00
  -1  -3  -1  245.88   11.80
   1  -3   1  235.78   12.00
  -1  -3  -1  256.07   12.10
   1  -3   1  228.18   12.20
  -1  -3  -1  251.07   11.80
   1  -3   1  239.78   12.20
  -1   3  -1  241.98   12.00
  -1   3  -1  264.17   12.30
   1   3   1  236.38   12.00
   1   3   1  253.97   12.10
  -1   3  -1  277.47   12.40
   1   3   1  248.38   12.00
   1   3   1  248.78   11.90
  -1   3  -1  223.18   12.10
   1   3   1  252.67   11.90
  -1   3  -1  243.78   12.00
   1   3   1  250.37   12.00
  -1   3  -1  250.67   12.30
   2  -3   1  289.17   16.10
  -2  -3  -1  306.87   15.40
  -2  -3  -1  314.37   15.90
   2  -3   1  332.07   16.20
   2  -3   1  331.17   16.20
  -2  -3  -1  314.37   15.90
  -2  -3  -1  316.07   16.00
   2  -3   1  319.47   15.80
   2  -3   1  329.47   15.90
  -2  -3  -1  328.77   16.00
   2  -3   1  284.37   16.10
  -2  -3  -1  321.07   15.50
  -2   3  -1  327.47   16.30
   2   3   1  304.67   15.90
  -2   3  -1  307.77   16.10
   2   3   1  309.17   15.60
   2   3   1  306.37   15.70
   2   3   1  336.27   15.90
   2   3   1  331.07   15.70
  -2   3  -1  308.97   16.30
   2   3   1  310.57   16.00
  -2   3  -1  328.77   15.90
  -2   3  -1  329.37   16.20
  -3  -3  -1  246.98   13.30
   3  -3   1  218.68   13.70
   3  -3   1  245.78   13.70
   3  -3   1  228.28   13.30
  -3  -3  -1  229.48   12.90
  -3  -3  -1  223.68   12.20
  -3  -3  -1  226.48   12.50
  -3  -3  -1  206.28   12.70
   3  -3   1  243.88   13.00
   3  -3   1  219.68   12.90
  -3  -3  -1  224.68   13.10
   3  -3   1  213.18   13.60
  -3   3  -1  225.98   13.80
   3   3   1  213.08   13.10
   3   3   1  213.88   12.90
   3   3   1  241.88   12.90
  -3   3  -1  238.08   13.40
   3   3   1  201.28   12.50
  -3   3  -1  217.58   13.50
  -3   3  -1  208.38   13.40
   3   3   1  228.68   13.40
  -3   3  -1  211.48   12.90
   3   3   1  210.78   12.80
  -3   3  -1  223.18   12.90
  -4  -3  -1   53.99    6.70
   4  -3   1   79.49    9.40
  -4  -3  -1   56.69    7.70
  -4  -3  -1   66.39    8.10
   4  -3   1   76.29    9.90
   4  -3   1   74.59    9.60
   4  -3   1   51.79    7.20
   4  -3   1   66.79    8.90
  -4  -3  -1   57.99    8.00
  -4  -3  -1   59.89    9.00
  -4  -3  -1   63.09    9.60
   4  -3   1   74.39    8.30
  -4   3  -1   63.39    9.10
   4   3   1   57.19    7.30
   4   3   1   79.19    8.50
   4   3   1   66.49    9.30
   4   3   1   60.09    8.10
  -4   3  -1   64.29    8.60
   4   3   1   61.49    8.30
   4   3   1   76.99   10.40
  -4   3  -1   79.39    9.40
  -4   3  -1   80.19   11.10
  -4   3  -1   74.99    8.50
  -4   3  -1   63.19    7.70
   4  -4  -1  110.89   11.00
   4  -4  -1   93.49   10.70
   4  -4  -1   96.59   12.50
  -4  -4   1  104.39   11.00
  -4  -4   1   94.49   11.10
  -4  -4   1  117.29    8.90
   4  -4  -1  102.39   12.00
   4  -4  -1  131.49   12.60
  -4  -4   1  106.59    8.70
   4  -4  -1  119.69   11.60
  -4  -4   1  107.79   10.80
  -4   4   1  120.79   11.50
  -4   4   1  102.29   12.10
   4   4  -1   98.29   10.90
   4   4  -1  112.69   10.00
   4   4  -1  128.89   10.60
  -4   4   1  124.59   11.60
  -4   4   1  104.09   13.00
   4   4  -1  109.69   10.40
  -4   4   1  130.89   12.20
   4   4  -1  115.19   11.20
   4   4  -1  120.19   10.60
  -4   4   1  111.49   10.80
   3  -4  -1    5.30    3.70
   3  -4  -1    1.90    3.70
  -3  -4   1    2.80    3.50
   3  -4  -1   -3.40    3.60
   3  -4  -1    6.50    3.50
   3  -4  -1    0.70    3.70
   3  -4  -1    4.50    3.10
  -3  -4   1    4.40    3.10
  -3  -4   1    4.00    2.40
  -3  -4   1    2.10    2.90
  -3  -4   1    8.10    2.50
  -3  -4   1    1.50    3.10
   3   4  -1    1.30    3.20
   3   4  -1    6.10    2.90
   3   4  -1    2.30    2.70
  -3   4   1    8.00    3.90
   3   4  -1    3.20    3.20
  -3   4   1   -0.10    3.60
  -3   4   1    8.70    3.40
  -3   4   1    5.70    4.20
   3   4  -1    2.20    3.30
   3   4  -1    3.00    2.70
  -3   4   1    4.70    4.20
  -2  -4   1   73.69    4.40
   2  -4  -1   74.59    5.90
   2  -4  -1   75.89    5.40
  -2  -4   1   67.79    5.10
   2  -4  -1   78.29    5.90
  -2  -4   1   71.49    4.50
  -2  -4   1   71.29    5.20
   2  -4  -1   73.99    5.40
   2  -4  -1   78.39    5.90
  -2  -4   1   71.29    5.30
   2  -4  -1   74.09    5.60
   2   4  -1   74.99    5.10
   2   4  -1   66.59    4.90
  -2   4   1   68.99    6.00
  -2   4   1   68.79    5.60
   2   4  -1   74.49    5.20
   2   4  -1   72.19    4.90
  -2   4   1   74.19    5.60
  -2   4   1   78.19    5.50
  -2   4   1   76.69    5.90
  -2   4   1   74.59    5.40
   2   4  -1   75.69    5.20
   2   4  -1   70.49    4.90
  -1  -4   1 3375.16  147.49
   1  -4  -1 3226.58  148.39
   1  -4  -1 3164.18  148.29
  -1  -4   1 3205.68  147.79
  -1  -4   1 3305.77  147.79
  -1  -4   1 3235.48  147.49
   1  -4  -1 3232.88  148.09
   1  -4  -1 3423.66  148.19
  -1  -4   1 3218.58  147.79
  -1  -4   1 3251.67  147.79
   1  -4  -1 3180.28  148.29
   1  -4  -1 3194.58  148.29
   1   4  -1 3280.67  147.79
  -1   4   1 3297.07  148.09
  -1   4   1 3309.77  148.09
   1   4  -1 3413.76  147.89
   1   4  -1 3451.65  147.69
   1   4  -1 3461.75  147.69
   1   4  -1 3380.96  147.89
  -1   4   1 3427.36  148.39
  -1   4   1 3174.08  148.29
   1   4  -1 3406.06  147.79
  -1   4   1 3468.55  148.29
  -1   4   1 3347.87  148.39
   0  -4  -1   33.20    2.60
   0  -4  -1   30.00    2.30
   0  -4   1   32.20    2.20
   0  -4   1   34.20    2.00
   0  -4   1   31.90    2.20
   0  -4  -1   32.10    2.60
   0  -4   1   36.80    2.00
   0  -4  -1   30.50    2.40
   0  -4  -1   31.70    2.30
   0  -4   1   30.50    2.20
   0   4  -1   31.60    2.20
   0   4  -1   32.60    2.30
   0   4  -1   31.60    2.10
   0   4  -1   33.30    2.10
   0   4   1   28.80    2.50
   0   4  -1   29.90    2.20
   0   4   1   32.30    2.50
   0   4   1   33.60    2.50
   0   4   1   30.80    2.40
   0   4  -1   31.90    2.30
   0   4   1   34.00    2.60
   0   4   1   31.60    2.50
  -1  -4  -1  242.58   12.00
   1  -4   1  254.07   12.30
   1  -4   1  252.27   12.30
   1  -4   1  250.67   12.30
  -1  -4  -1  248.78   11.80
  -1  -4  -1  243.48   12.10
  -1  -4  -1  249.28   12.00
  -1  -4  -1  246.78   11.80
  -1  -4  -1  245.08   12.00
   1  -4   1  224.28   12.20
   1  -4   1  243.58   11.90
   1  -4   1  258.87   12.00
  -1   4  -1  232.48   12.00
  -1   4  -1  256.67   12.30
   1   4   1  253.47   12.00
   1   4   1  253.87   11.90
   1   4   1  247.78   12.00
   1   4   1  248.18   11.90
   1   4   1  242.58   12.00
  -1   4  -1  245.08   12.30
  -1   4  -1  236.68   12.20
   1   4   1  243.98   12.10
  -1   4  -1  243.98   12.10
  -1   4  -1  259.17   12.40
   2  -4   1  302.47   16.40
  -2  -4  -1  316.17   15.60
  -2  -4  -1  323.17   16.10
  -2  -4  -1  308.27   16.00
   2  -4   1  322.47   15.90
  -2  -4  -1  323.77   15.90
   2  -4   1  307.27   16.30
   2  -4   1  301.57   16.40
  -2  -4  -1  329.37   15.50
  -2  -4  -1  312.57   16.00
   2  -4   1  332.37   16.10
   2  -4   1  328.57   16.50
   2   4   1  326.17   15.90
  -2   4  -1  325.17   16.10
  -2   4  -1  355.36   16.70
  -2   4  -1  300.37   16.30
   2   4   1  323.67   15.70
   2   4   1  321.47   15.80
   2   4   1  323.87   16.00
   2   4   1  312.87   16.10
   2   4   1  311.57   15.80
  -2   4  -1  316.77   16.50
  -2   4  -1  301.97   16.20
  -2   4  -1  331.87   16.10
  -3  -4  -1   77.79    7.40
   3  -4   1   54.79    7.00
   3  -4   1   80.29    7.30
   3  -4   1   74.09    7.30
  -3  -4  -1   74.59    6.40
   3  -4   1   80.59    7.20
  -3  -4  -1   86.79    7.20
  -3  -4  -1   72.59    6.00
  -3  -4  -1   84.49    7.30
   3  -4   1   76.29    8.00
   3  -4   1   78.09    8.10
  -3  -4  -1   64.99    7.00
   3   4   1   72.89    7.10
   3   4   1   71.79    6.70
  -3   4  -1   71.59    8.20
   3   4   1   78.59    6.70
  -3   4  -1   64.99    7.20
  -3   4  -1   75.29    7.10
  -3   4  -1   65.09    7.90
   3   4   1   70.99    7.10
  -3   4  -1   67.19    7.90
  -3   4  -1   71.29    7.30
   3   4   1   76.69    7.50
   3   4   1   70.29    6.50
  -4  -4  -1    7.50    6.00
  -4  -4  -1    5.20    5.40
   4  -4   1    4.50    6.20
  -4  -4  -1   -0.80    6.30
  -4  -4  -1    1.60    4.40
  -4  -4  -1    1.50    5.70
   4  -4   1    7.70    5.90
  -4  -4  -1    7.50    4.80
   4  -4   1   13.30    6.20
   4  -4   1    9.60    6.80
   4  -4   1  -11.40    5.50
   4  -4   1   20.00    6.10
   4   4   1    1.00    4.80
  -4   4  -1    4.10    5.60
   4   4   1   17.80    6.50
  -4   4  -1   20.40    7.30
   4   4   1   17.40    6.00
   4   4   1    3.10    4.90
  -4   4  -1    6.30    7.40
  -4   4  -1    1.30    6.40
  -4   4  -1    8.70    7.10
  -4   4  -1    9.70    6.30
   4   4   1    5.90    5.60
   4  -5  -1   60.99    8.70
  -4  -5   1   50.89    6.70
   4  -5  -1   64.49    9.20
  -4  -5   1   41.40    7.40
   4  -5  -1   65.89    8.40
  -4  -5   1   50.09    6.40
  -4  -5   1   66.79    9.20
   4  -5  -1   48.90    8.50
  -4  -5   1   46.40    7.40
   4  -5  -1   45.40    8.70
   4  -5  -1   58.09    8.60
   4   5  -1   56.29    7.30
   4   5  -1   52.39    7.40
  -4   5   1   50.29    8.50
  -4   5   1   49.80    7.90
  -4   5   1   63.99    9.00
  -4   5   1   60.09    7.80
   4   5  -1   56.89    8.10
   4   5  -1   47.00    7.30
  -4   5   1   38.70    8.40
  -4   5   1   51.39    7.60
   4   5  -1   42.20    6.80
  -3  -5   1  519.45   24.40
  -3  -5   1  492.25   25.50
   3  -5  -1  511.95   26.30
   3  -5  -1  483.15   26.20
   3  -5  -1  526.65   26.60
   3  -5  -1  518.05   25.70
  -3  -5   1  524.95   25.60
   3  -5  -1  551.34   26.60
  -3  -5   1  544.55   24.50
  -3  -5   1  524.05   25.40
   3   5  -1  527.75   25.30
   3   5  -1  496.05   25.20
   3   5  -1  541.55   25.60
  -3   5   1  502.95   25.60
   3   5  -1  507.45   25.20
  -3   5   1  528.35   26.40
   3   5  -1  509.35   25.30
  -3   5   1  543.95   26.50
   3   5  -1  506.75   25.60
  -3   5   1  471.05   25.90
  -3   5   1  508.75   26.60
   2  -5  -1   33.30    4.50
   2  -5  -1   34.90    4.50
  -2  -5   1   23.80    3.40
   2  -5  -1   34.80    4.70
  -2  -5   1   27.90    2.60
   2  -5  -1   35.50    4.10
   2  -5  -1   27.50    3.90
  -2  -5   1   26.20    3.50
  -2  -5   1   29.90    2.80
   2  -5  -1   28.40    4.00
  -2  -5   1   26.50    3.50
  -2   5   1   33.80    4.00
   2   5  -1   30.10    3.40
   2   5  -1   28.00    3.30
  -2   5   1   32.70    4.60
   2   5  -1   31.20    3.60
  -2   5   1   24.80    3.90
  -2   5   1   27.00    4.00
  -2   5   1   29.30    4.00
   2   5  -1   25.40    3.20
  -2   5   1   29.80    4.40
   2   5  -1   29.90    3.80
   2   5  -1   30.90    3.30
  -1  -5   1   64.49    3.20
  -1  -5   1   63.99    3.80
   1  -5  -1   60.29    4.60
  -1  -5   1   70.79    3.90
   1  -5  -1   57.29    4.30
   1  -5  -1   53.39    4.20
  -1  -5   1   61.19    3.80
   1  -5  -1   61.09    4.20
   1  -5  -1   65.69    4.20
  -1  -5   1   63.79    3.80
  -1  -5   1   61.79    3.30
   1  -5  -1   60.19    4.60
  -1   5   1   63.59    4.30
  -1   5   1   64.49    4.60
  -1   5   1   57.69    4.20
   1   5  -1   62.19    3.80
  -1   5   1   66.59    4.50
   1   5  -1   58.49    3.70
  -1   5   1   56.19    4.50
   1   5  -1   65.19    3.90
   1   5  -1   60.09    3.60
   1   5  -1   58.19    3.60
  -1   5   1   63.29    4.70
   1   5  -1   65.79    3.80
   0  -5   1  500.25   24.00
   0  -5   1  498.35   23.90
   0  -5  -1  499.65   24.20
   0  -5   1  539.55   24.00
   0  -5  -1  519.95   24.20
   0  -5  -1  583.44   24.40
   0  -5  -1  514.35   24.00
   0  -5   1  531.45   23.70
   0  -5  -1  545.05   24.00
   0  -5   1  542.05   23.70
   0   5   1  523.55   24.00
   0   5  -1  526.65   24.00
   0   5  -1  495.55   23.80
   0   5   1  510.35   24.20
   0   5   1  519.95   24.20
   0   5   1  502.55   24.20
   0   5  -1  512.75   23.90
   0   5   1  511.25   24.20
   0   5   1  509.75   24.00
   0   5  -1  531.45   24.00
   0   5  -1  514.65   23.80
   0   5  -1  550.24   24.00
   1  -5   1    5.10    1.70
   1  -5   1    9.20    2.00
  -1  -5  -1    8.80    1.50
   1  -5   1   10.40    1.80
   1  -5   1   12.10    1.90
  -1  -5  -1   10.00    1.80
   1  -5   1   12.80    2.00
  -1  -5  -1    9.60    1.90
  -1  -5  -1   10.30    1.60
  -1  -5  -1   10.70    1.90
  -1  -5  -1   10.50    1.80
   1  -5   1   10.30    1.90
  -1   5  -1    5.70    1.50
   1   5   1   10.10    1.80
   1   5   1    9.50    1.70
   1   5   1   11.10    1.80
  -1   5  -1    9.60    1.70
   1   5   1   10.70    1.70
   1   5   1    7.70    1.70
  -1   5  -1    8.50    2.00
  -1   5  -1    7.70    1.80
  -1   5  -1    7.70    1.90
   1   5   1    9.50    1.50
  -1   5  -1    8.80    2.00
   2  -5   1   11.70    2.60
  -2  -5  -1   12.00    2.70
   2  -5   1    8.90    2.70
  -2  -5  -1    8.90    2.50
   2  -5   1    7.20    2.80
  -2  -5  -1    7.20    1.90
  -2  -5  -1    8.90    2.30
   2  -5   1    3.90    2.80
  -2  -5  -1    7.90    2.00
  -2  -5  -1   10.80    2.60
   2  -5   1    9.50    2.50
   2  -5   1    6.50    2.80
  -2   5  -1    6.00    3.00
   2   5   1    9.30    2.50
   2   5   1    7.30    2.20
   2   5   1    8.90    2.20
  -2   5  -1    9.70    3.20
  -2   5  -1    7.40    2.50
  -2   5  -1    9.00    2.60
  -2   5  -1    8.30    2.80
   2   5   1    8.80    2.40
   2   5   1    8.50    2.50
   2   5   1    9.70    2.30
  -2   5  -1   10.90    3.00
   3  -5   1  624.44   31.00
  -3  -5  -1  647.64   29.30
   3  -5   1  557.94   30.50
   3  -5   1  633.24   30.90
   3  -5   1  588.94   30.20
  -3  -5  -1  614.14   30.30
   3  -5   1  602.54   30.80
   3  -5   1  616.54   30.20
  -3  -5  -1  607.04   29.40
  -3  -5  -1  599.44   30.00
  -3  -5  -1  629.94   30.40
  -3  -5  -1  633.84   30.40
  -3   5  -1  626.54   31.10
  -3   5  -1  597.44   30.50
  -3   5  -1  641.74   31.00
   3   5   1  644.24   30.40
   3   5   1  623.34   30.40
   3   5   1  582.84   29.90
   3   5   1  622.84   29.80
   3   5   1  587.04   29.90
  -3   5  -1  642.74   30.90
  -3   5  -1  648.94   30.40
   3   5   1  620.94   30.00
  -4  -5  -1  290.87   16.50
   4  -5   1  308.37   18.30
   4  -5   1  312.17   19.70
   4  -5   1  265.37   18.40
   4  -5   1  344.47   20.20
  -4  -5  -1  303.77   18.60
  -4  -5  -1  283.57   18.20
  -4  -5  -1  317.17   18.80
  -4  -5  -1  260.97   18.20
  -4  -5  -1  290.77   16.80
   4  -5   1  290.57   18.80
   4  -5   1  284.87   18.60
  -4   5  -1  281.67   20.30
  -4   5  -1  302.57   19.90
   4   5   1  305.27   17.90
  -4   5  -1  302.47   18.50
  -4   5  -1  299.87   19.00
  -4   5  -1  310.37   19.80
  -4   5  -1  294.67   19.40
   4   5   1  300.77   17.80
   4   5   1  288.57   17.80
   4   5   1  294.47   18.70
   4   5   1  326.27   18.70
   4  -6  -1   89.39   12.80
  -4  -6   1   90.09   10.40
  -4  -6   1   91.79    7.50
   4  -6  -1   98.99   12.40
   4  -6  -1   72.79   10.10
  -4  -6   1   94.79   10.30
   4  -6  -1   78.29   10.60
  -4  -6   1   84.99   10.50
   4  -6  -1   73.39   10.80
   4  -6  -1   78.39    9.50
  -4   6   1   85.19   11.30
   4   6  -1   96.49    9.20
   4   6  -1   80.89    9.40
   4   6  -1   72.09    9.70
  -4   6   1   90.89   13.70
   4   6  -1  100.49   10.70
  -4   6   1   80.39   11.50
  -4   6   1   91.99   11.10
  -4   6   1   70.99    9.50
   4   6  -1   90.09   10.50
  -4   6   1   73.29    9.10
  -3  -6   1  126.09    8.70
   3  -6  -1   98.89    9.50
  -3  -6   1  103.79    6.50
   3  -6  -1   94.99    9.60
  -3  -6   1  106.09    8.40
  -3  -6   1  105.09    6.60
   3  -6  -1  108.09    9.40
   3  -6  -1  111.69    9.50
  -3  -6   1  129.59    8.20
   3  -6  -1  113.79    8.70
   3   6  -1  107.19    8.00
   3   6  -1  100.29    7.80
  -3   6   1  102.89    8.60
  -3   6   1  113.59    9.60
  -3   6   1  113.29    9.10
   3   6  -1   89.19    7.80
  -3   6   1   99.19    9.70
  -3   6   1   97.89    9.30
   3   6  -1  105.09    7.90
  -3   6   1  104.69    9.20
   3   6  -1  107.69    8.40
   3   6  -1  110.69    8.40
  -2  -6   1  294.67   14.80
  -2  -6   1  316.27   14.10
   2  -6  -1  274.17   15.50
   2  -6  -1  298.97   15.90
   2  -6  -1  301.27   15.40
  -2  -6   1  298.67   14.80
   2  -6  -1  302.47   15.70
   2  -6  -1  310.17   15.20
  -2  -6   1  303.47   14.10
  -2  -6   1  285.97   14.80
   2  -6  -1  309.27   15.90
  -2  -6   1  295.27   14.90
  -2   6   1  298.77   15.60
   2   6  -1  306.77   14.70
   2   6  -1  302.87   15.00
   2   6  -1  294.27   14.90
   2   6  -1  286.47   14.70
  -2   6   1  268.07   15.80
  -2   6   1  302.17   15.40
   2   6  -1  301.97   14.70
  -2   6   1  326.67   15.90
   2   6  -1  315.97   14.80
  -2   6   1  271.97   15.70
  -2   6   1  273.07   15.30
  -1  -6   1  211.88   10.60
   1  -6  -1  227.78   11.30
   1  -6  -1  214.98   11.10
   1  -6  -1  216.38   10.90
   1  -6  -1  220.88   11.00
   1  -6  -1  215.88   11.20
   1  -6  -1  218.68   11.30
  -1  -6   1  211.48   10.50
  -1  -6   1  203.48   10.50
  -1  -6   1  217.38   10.00
  -1  -6   1  221.88   10.60
  -1  -6   1  214.88    9.90
   1   6  -1  219.48   10.60
   1   6  -1  214.18   10.30
  -1   6   1  216.58   11.30
  -1   6   1  216.28   11.40
  -1   6   1  208.28   10.90
   1   6  -1  203.08   10.40
  -1   6   1  218.58   11.00
   1   6  -1  197.58   10.40
   1   6  -1  206.18   10.30
  -1   6   1  228.78   11.40
  -1   6   1  201.98   11.00
   0  -6  -1  850.41   39.40
   0  -6  -1  832.72   39.00
   0  -6   1  850.31   39.10
   0  -6  -1  810.22   39.30
   0  -6  -1  870.71   39.10
   0  -6   1  855.11   39.10
   0  -6   1  871.01   38.80
   0  -6  -1  897.31   39.40
   0  -6   1  848.42   39.10
   0  -6   1  854.11   38.70
   0   6  -1  852.81   38.90
   0   6   1  852.21   39.30
   0   6   1  843.62   39.30
   0   6  -1  866.41   39.10
   0   6   1  841.32   39.10
   0   6   1  866.51   39.20
   0   6  -1  908.01   39.00
   0   6  -1  827.82   39.00
   0   6  -1  804.32   39.10
   0   6   1  843.42   39.40
   0   6  -1  875.31   39.10
   0   6   1  924.41   39.50
   1  -6   1  657.83   31.00
  -1  -6  -1  657.53   30.80
   1  -6   1  669.03   30.70
  -1  -6  -1  646.94   30.80
   1  -6   1  658.13   30.90
   1  -6   1  631.64   30.50
   1  -6   1  624.14   30.90
  -1  -6  -1  661.23   30.80
   1  -6   1  622.24   31.00
  -1  -6  -1  669.23   30.80
  -1  -6  -1  696.83   30.40
  -1  -6  -1  677.13   30.40
  -1   6  -1  690.73   31.10
  -1   6  -1  680.63   30.80
   1   6   1  676.33   30.80
   1   6   1  645.34   30.50
   1   6   1  671.23   30.80
   1   6   1  677.93   30.80
  -1   6  -1  675.93   31.00
   1   6   1  648.34   30.60
  -1   6  -1  682.43   31.10
  -1   6  -1  677.53   31.10
   1   6   1  671.73   30.80
  -1   6  -1  659.23   30.70
  -2  -6  -1  420.16   20.00
  -2  -6  -1  405.86   20.00
  -2  -6  -1  410.16   20.10
  -2  -6  -1  400.66   19.30
   2  -6   1  396.26   20.40
  -2  -6  -1  404.36   19.40
  -2  -6  -1  409.66   20.10
   2  -6   1  409.46   20.70
   2  -6   1  409.06   20.00
   2  -6   1  404.66   20.10
   2  -6   1  432.26   20.70
   2  -6   1  431.06   20.70
  -2   6  -1  405.26   20.40
   2   6   1  395.76   20.00
   2   6   1  395.66   19.80
  -2   6  -1  385.56   20.00
   2   6   1  409.86   19.80
  -2   6  -1  413.46   20.80
  -2   6  -1  402.06   20.10
   2   6   1  400.26   20.00
  -2   6  -1  402.86   20.50
   2   6   1  392.76   19.60
   2   6   1  419.06   19.90
  -2   6  -1  398.76   20.40
   3  -6   1  151.18   10.90
   3  -6   1  112.69   10.50
   3  -6   1  129.49    9.90
  -3  -6  -1  137.29    8.20
   3  -6   1  125.49   10.40
  -3  -6  -1  131.89    9.70
   3  -6   1  129.09   10.40
   3  -6   1  130.79    9.50
  -3  -6  -1  134.39    8.50
  -3  -6  -1  136.09    9.40
  -3  -6  -1  131.49    9.50
  -3  -6  -1  134.79    9.70
   3   6   1  133.79    9.30
   3   6   1  130.39    9.10
  -3   6  -1  136.59   10.40
  -3   6  -1  139.19   10.70
   3   6   1  135.49    9.50
   3   6   1  129.29    9.00
  -3   6  -1  132.89   10.90
   3   6   1  126.19    9.60
   3   6   1  128.99    9.00
  -3   6  -1  122.79   10.00
  -3   6  -1  113.49    9.60
   4  -6   1  154.98   12.90
   4  -6   1  138.09   14.20
   4  -6   1  158.38   13.70
   4  -6   1  164.18   15.50
  -4  -6  -1  140.09   12.90
  -4  -6  -1  134.89   12.90
   4  -6   1  141.29   13.30
  -4  -6  -1  152.88   13.50
  -4  -6  -1  147.29   10.60
  -4  -6  -1  164.38   11.20
   4  -6   1  155.88   14.80
   4   6   1  168.38   12.70
   4   6   1  142.29   12.30
  -4   6  -1  169.68   13.50
  -4   6  -1  171.48   15.90
  -4   6  -1  144.29   14.00
  -4   6  -1  141.19   14.30
   4   6   1  160.08   12.60
  -4   6  -1  175.28   14.80
   4   6   1  138.29   13.20
   4   6   1  164.68   12.80
   4   6   1  149.99   12.40
  -4   6  -1  158.58   15.10
   4  -7  -1   16.10    7.50
   4  -7  -1   17.70    7.20
  -4  -7   1   18.40    7.00
   4  -7  -1   23.20    7.30
  -4  -7   1   20.50    6.10
  -4  -7   1   22.60    3.80
   4  -7  -1   30.90    7.80
   4  -7  -1   16.80    7.20
  -4  -7   1   27.50    6.60
   4  -7  -1    1.30    7.90
   4   7  -1   33.10    6.30
  -4   7   1   25.50    8.10
  -4   7   1   14.30    8.90
   4   7  -1   23.70    5.30
  -4   7   1    8.90    6.90
  -4   7   1   15.00    7.60
   4   7  -1   16.80    6.10
  -4   7   1   28.80    8.70
   4   7  -1   26.60    6.50
   4   7  -1   13.80    6.00
   4   7  -1   23.80    6.10
  -4   7   1   11.30    8.60
  -3  -7   1  575.94   27.50
  -3  -7   1  548.25   27.50
  -3  -7   1  552.74   26.00
   3  -7  -1  531.45   28.50
   3  -7  -1  598.34   28.40
   3  -7  -1  608.94   29.00
   3  -7  -1  570.34   27.80
   3  -7  -1  522.25   28.60
  -3  -7   1  553.04   26.00
   3   7  -1  572.74   27.30
  -3   7   1  568.94   28.60
  -3   7   1  512.05   28.10
  -3   7   1  558.34   28.80
   3   7  -1  581.04   27.30
   3   7  -1  574.74   27.40
   3   7  -1  536.15   27.30
  -3   7   1  550.74   28.80
   3   7  -1  540.05   27.50
   3   7  -1  572.44   27.20
  -3   7   1  540.55   27.80
   2  -7  -1  180.48   11.00
  -2  -7   1  179.58    9.70
   2  -7  -1  169.38   10.50
   2  -7  -1  176.38   10.10
  -2  -7   1  185.28    8.70
  -2  -7   1  183.48    8.70
  -2  -7   1  169.18    9.70
   2  -7  -1  181.78   10.40
  -2  -7   1  183.08    9.70
   2  -7  -1  170.28   10.60
  -2  -7   1  174.18    9.80
   2  -7  -1  188.18   10.90
  -2   7   1  163.88   10.40
   2   7  -1  177.48    9.60
   2   7  -1  173.48    9.80
  -2   7   1  178.58   10.90
  -2   7   1  173.38   11.10
   2   7  -1  170.48    9.50
  -2   7   1  173.38   10.70
  -2   7   1  186.48   10.40
  -2   7   1  186.48   10.50
   2   7  -1  173.38    9.50
   2   7  -1  178.68    9.50
   2   7  -1  181.68    9.80
  -1  -7   1  377.46   17.00
  -1  -7   1  383.76   17.00
  -1  -7   1  364.86   17.70
   1  -7  -1  381.66   18.10
  -1  -7   1  357.36   17.70
   1  -7  -1  410.76   18.60
  -1  -7   1  362.06   17.70
   1  -7  -1  374.06   18.40
   1  -7  -1  359.76   18.40
   1  -7  -1  372.76   18.00
  -1  -7   1  371.66   17.70
   1  -7  -1  342.77   18.20
  -1   7   1  369.96   18.30
  -1   7   1  377.86   18.10
   1   7  -1  380.26   17.80
   1   7  -1  367.06   17.50
   1   7  -1  379.46   17.70
  -1   7   1  361.96   18.10
  -1   7   1  388.66   18.50
   1   7  -1  377.56   17.60
   1   7  -1  373.66   17.70
  -1   7   1  384.66   18.50
  -1   7   1  365.16   18.50
   0  -7   1 1455.35   62.89
   0  -7   1 1353.96   62.89
   0  -7   1 1435.16   63.39
   0  -7  -1 1375.26   63.19
   0  -7  -1 1378.66   63.59
   0  -7  -1 1449.55   63.69
   0  -7  -1 1442.26   63.29
   0  -7  -1 1460.85   63.69
   0  -7   1 1373.46   63.29
   0  -7   1 1383.46   63.29
   0   7  -1 1363.06   63.29
   0   7   1 1472.75   63.69
   0   7  -1 1410.06   63.19
   0   7  -1 1373.26   63.09
   0   7   1 1414.26   63.59
   0   7   1 1412.66   63.59
   0   7  -1 1359.56   63.29
   0   7  -1 1367.86   63.29
   0   7  -1 1424.06   63.39
   0   7   1 1407.16   63.39
   0   7   1 1346.87   63.59
   0   7   1 1334.97   63.29
   1  -7   1  654.73   30.00
  -1  -7  -1  643.14   30.30
   1  -7   1  653.73   30.50
  -1  -7  -1  631.94   30.20
   1  -7   1  639.64   30.50
   1  -7   1  637.44   30.10
   1  -7   1  616.04   30.50
   1  -7   1  657.43   30.50
  -1  -7  -1  666.23   30.30
  -1  -7  -1  642.34   29.80
  -1  -7  -1  659.03   29.80
  -1  -7  -1  623.54   30.30
  -1   7  -1  647.04   30.20
  -1   7  -1  660.43   30.30
   1   7   1  660.63   30.10
  -1   7  -1  624.64   30.40
  -1   7  -1  678.13   30.70
  -1   7  -1  621.24   30.30
   1   7   1  659.13   30.20
   1   7   1  626.44   30.00
   1   7   1  674.93   30.40
  -1   7  -1  695.13   30.60
   1   7   1  641.54   30.20
   2  -7   1  574.54   29.80
   2  -7   1  611.04   30.10
  -2  -7  -1  602.44   28.80
  -2  -7  -1  596.54   29.30
  -2  -7  -1  597.34   29.40
  -2  -7  -1  623.24   28.70
  -2  -7  -1  631.24   29.50
  -2  -7  -1  611.14   29.30
   2  -7   1  621.34   29.50
   2  -7   1  631.94   29.40
   2  -7   1  615.64   30.00
   2  -7   1  644.54   30.10
   2   7   1  604.54   29.10
  -2   7  -1  615.04   29.60
   2   7   1  638.94   29.40
  -2   7  -1  610.24   29.80
  -2   7  -1  687.43   30.30
  -2   7  -1  571.14   29.80
   2   7   1  643.94   29.50
  -2   7  -1  626.94   29.60
   2   7   1  636.94   29.60
   2   7   1  638.94   29.20
   2   7   1  617.64   29.30
  -2   7  -1  568.44   30.00
   3  -7   1  244.08   15.50
   3  -7   1  245.98   15.60
  -3  -7  -1  257.77   14.80
  -3  -7  -1  250.47   14.70
   3  -7   1  223.08   14.80
  -3  -7  -1  216.28   14.20
  -3  -7  -1  262.87   13.30
   3  -7   1  276.47   15.90
  -3  -7  -1  253.97   13.50
   3  -7   1  260.97   14.80
   3  -7   1  274.57   16.00
   3   7   1  251.47   14.50
  -3   7  -1  247.88   14.90
  -3   7  -1  239.88   15.40
   3   7   1  254.37   14.30
  -3   7  -1  237.78   16.00
   3   7   1  257.37   15.00
  -3   7  -1  266.77   15.50
  -3   7  -1  267.87   15.90
   3   7   1  261.67   14.40
   3   7   1  260.17   14.20
   3   7   1  273.77   14.40
   4  -7   1    3.90    5.90
  -4  -7  -1  -10.30    5.90
  -4  -7  -1    0.80    4.10
  -4  -7  -1    2.60    6.10
  -4  -7  -1    3.60    6.10
   4  -7   1    7.10    8.10
   4  -7   1   -9.90    7.20
   4  -7   1    4.40    6.90
   4  -7   1   -6.50    7.00
  -4  -7  -1    3.40    4.40
  -4  -7  -1    3.80    6.20
   4  -7   1    8.00    7.30
   4   7   1   -1.20    6.10
  -4   7  -1   -2.90    7.10
   4   7   1    5.80    5.70
  -4   7  -1   -9.10    8.40
  -4   7  -1    5.90    7.00
   4   7   1   17.40    6.50
  -4   7  -1    2.60    6.60
   4   7   1    1.60    5.20
   4   7   1   -4.60    5.90
   4   7   1    1.50    5.60
  -4   7  -1    8.00    6.20
  -4   7  -1   -8.60    7.40
   4  -8  -1   14.40    9.00
   4  -8  -1    5.90    7.70
   4  -8  -1    9.90    6.50
   4  -8  -1    9.30    7.70
  -4  -8   1    5.20    6.40
  -4  -8   1   -0.10    2.80
   4  -8  -1    9.20    8.90
   4  -8  -1   -4.50    6.20
  -4  -8   1   14.80    6.10
  -4  -8   1   12.10    7.40
  -4  -8   1    2.70    2.70
  -4   8   1    8.20    7.30
   4   8  -1    0.10    5.70
   4   8  -1    6.90    5.90
   4   8  -1   24.10    6.40
   4   8  -1    9.70    5.60
  -4   8   1   22.90    9.00
  -4   8   1   -3.80    9.00
  -4   8   1   -4.20    7.80
  -4   8   1    5.90    9.00
   4   8  -1   13.70    6.10
   4   8  -1    2.00    5.90
   3  -8  -1  542.85   28.10
   3  -8  -1  499.95   28.10
  -3  -8   1  484.95   26.60
   3  -8  -1  614.64   28.70
   3  -8  -1  560.14   27.90
   3  -8  -1  579.84   27.40
  -3  -8   1  534.35   25.10
  -3  -8   1  521.35   25.10
  -3  -8   1  553.34   27.00
  -3   8   1  591.84   28.60
   3   8  -1  533.75   26.60
   3   8  -1  559.54   27.10
  -3   8   1  558.04   28.30
   3   8  -1  551.34   26.80
   3   8  -1  559.94   26.60
   3   8  -1  535.25   26.50
  -3   8   1  481.55   28.30
   3   8  -1  551.04   26.90
  -3   8   1  533.65   27.50
  -3   8   1  539.45   28.00
   2  -8  -1 1465.75   64.69
   2  -8  -1 1426.76   64.99
   2  -8  -1 1509.15   65.19
  -2  -8   1 1459.55   64.19
   2  -8  -1 1313.07   64.99
  -2  -8   1 1423.66   62.99
  -2  -8   1 1383.46   62.99
   2  -8  -1 1396.46   65.19
   2  -8  -1 1466.95   64.49
  -2  -8   1 1438.36   64.09
  -2  -8   1 1420.76   64.09
  -2  -8   1 1277.07   63.89
   2   8  -1 1219.48   63.89
  -2   8   1 1481.15   65.19
   2   8  -1 1504.55   64.19
   2   8  -1 1443.76   63.89
  -2   8   1 1387.76   64.59
  -2   8   1 1530.75   65.49
  -2   8   1 1385.46   64.99
   2   8  -1 1351.96   63.89
   2   8  -1 1435.36   63.99
  -2   8   1 1212.68   64.59
   2   8  -1 1434.06   63.99
  -2   8   1 1346.07   64.59
   1  -8  -1   22.10    3.30
  -1  -8   1   25.00    2.80
  -1  -8   1   22.70    3.10
  -1  -8   1   21.60    2.90
   1  -8  -1   22.70    3.30
   1  -8  -1   23.70    3.60
  -1  -8   1   24.30    3.10
  -1  -8   1   22.50    1.70
   1  -8  -1   18.00    3.30
  -1  -8   1   24.40    1.90
   1  -8  -1   22.60    2.90
   1  -8  -1   21.40    2.90
  -1   8   1   16.80    3.00
   1   8  -1   20.60    3.00
   1   8  -1   22.20    2.70
   1   8  -1   21.00    2.80
  -1   8   1   17.40    2.70
  -1   8   1   18.60    2.90
  -1   8   1   30.30    3.80
  -1   8   1   25.30    3.60
   1   8  -1   26.70    2.90
  -1   8   1   18.40    3.00
   1   8  -1   24.30    2.70
   1   8  -1   26.00    2.90
   0  -8   1 1550.44   68.89
   0  -8   1 1499.05   68.79
   0  -8   1 1546.35   68.89
   0  -8  -1 1546.35   68.69
   0  -8  -1 1524.25   69.09
   0  -8   1 1526.15   68.29
   0  -8  -1 1548.95   69.09
   0  -8  -1 1550.14   69.19
   0  -8   1 1551.44   68.29
   0  -8  -1 1512.25   68.69
   0   8   1 1553.54   69.09
   0   8  -1 1500.95   68.89
   0   8   1 1531.05   68.99
   0   8  -1 1500.25   68.59
   0   8   1 1508.35   68.89
   0   8   1 1533.45   69.19
   0   8   1 1560.84   68.89
   0   8  -1 1531.55   68.79
   0   8  -1 1349.07   68.79
   0   8   1 1457.65   69.09
   0   8  -1 1512.15   68.59
   0   8  -1 1539.75   68.79
   1  -8   1 1755.42   80.39
  -1  -8  -1 1783.42   80.09
  -1  -8  -1 1838.62   80.09
  -1  -8  -1 1768.22   80.59
   1  -8   1 1765.22   80.79
  -1  -8  -1 1740.53   80.69
   1  -8   1 1798.22   80.99
  -1  -8  -1 1757.22   80.69
  -1  -8  -1 1847.52   80.69
   1  -8   1 1736.73   80.69
   1  -8   1 1780.52   80.89
   1  -8   1 1798.92   80.29
   1   8   1 1768.32   80.59
  -1   8  -1 1773.82   80.69
   1   8   1 1651.53   80.49
   1   8   1 1776.92   80.39
  -1   8  -1 1752.42   80.49
  -1   8  -1 1812.22   80.89
  -1   8  -1 1736.83   80.89
   1   8   1 1753.82   80.69
  -1   8  -1 1897.71   80.99
  -1   8  -1 1829.92   80.59
   1   8   1 1790.52   80.39
  -2  -8  -1  157.88    8.50
   2  -8   1  163.48   10.40
  -2  -8  -1  164.38    9.60
   2  -8   1  142.79    9.80
   2  -8   1  152.48    9.30
  -2  -8  -1  156.38    8.40
  -2  -8  -1  151.38    9.50
   2  -8   1  149.88   10.00
  -2  -8  -1  148.19    9.20
   2  -8   1  166.28    9.60
  -2  -8  -1  159.48    9.30
   2  -8   1  150.98   10.10
  -2   8  -1  122.99    9.40
  -2   8  -1  148.89    9.70
   2   8   1  150.88    9.10
  -2   8  -1  157.88   10.10
   2   8   1  164.38    9.10
  -2   8  -1  145.69   10.30
   2   8   1  157.38    9.50
  -2   8  -1  177.48   10.70
  -2   8  -1  154.28   10.20
   2   8   1  162.68    9.20
   2   8   1  167.38    9.30
   2   8   1  159.78    9.70
   3  -8   1  167.88   12.70
   3  -8   1  169.48   12.60
   3  -8   1  167.28   11.10
  -3  -8  -1  163.68    9.30
  -3  -8  -1  151.18    9.50
   3  -8   1  153.38   12.10
  -3  -8  -1  170.88   11.30
  -3  -8  -1  151.58   11.10
   3  -8   1  177.98   12.30
  -3   8  -1  142.89   12.60
  -3   8  -1  160.38   11.50
   3   8   1  169.88   10.50
  -3   8  -1  157.38   12.90
   3   8   1  174.28   10.80
   3   8   1  161.08   10.70
  -3   8  -1  155.08   12.30
   3   8   1  138.39   10.70
   3   8   1  158.68   10.50
   3   8   1  165.48   11.40
  -3   8  -1  159.48   12.30
   4  -8   1   83.49   10.80
   4  -8   1  105.49   12.30
   4  -8   1   96.39   12.30
  -4  -8  -1   91.89   10.90
   4  -8   1   93.69   11.90
  -4  -8  -1   80.39   11.60
   4  -8   1   92.29   12.00
  -4  -8  -1  114.79   13.10
   4  -8   1   99.09   12.00
  -4  -8  -1   94.99    9.00
  -4   8  -1   90.19   12.60
  -4   8  -1  104.59   12.70
   4   8   1  113.79   11.90
   4   8   1   85.19   12.00
  -4   8  -1   63.29    9.00
  -4   8  -1  126.29   16.20
   4   8   1  102.29   11.10
  -4   8  -1  103.59   13.80
   4   8   1  124.29   11.90
   4   8   1  104.19   11.50
  -4   8  -1   73.69   10.70
   3  -9  -1   25.40    5.70
   3  -9  -1   26.90    6.70
   3  -9  -1   32.00    5.60
   3  -9  -1   34.00    7.60
   3  -9  -1   23.30    6.60
  -3  -9   1   24.50    2.80
   3  -9  -1   31.60    6.40
  -3  -9   1   26.40    5.00
  -3   9   1   13.20    5.10
   3   9  -1   20.70    4.10
   3   9  -1   33.10    4.90
   3   9  -1   23.90    4.20
  -3   9   1   30.20    6.50
   3   9  -1   26.00    4.50
   3   9  -1   27.00    4.50
  -3   9   1   28.40    5.90
   3   9  -1   19.80    4.50
  -3   9   1   26.10    6.50
  -3   9   1   28.20    6.80
  -2  -9   1   12.30    2.70
  -2  -9   1    9.70    2.80
   2  -9  -1    9.50    4.10
  -2  -9   1   11.70    3.10
   2  -9  -1   10.30    3.10
   2  -9  -1    7.70    3.20
   2  -9  -1   12.30    3.90
   2  -9  -1    5.90    3.70
   2  -9  -1   14.40    3.90
  -2  -9   1   15.40    3.00
   2   9  -1   12.70    2.80
  -2   9   1    6.80    4.00
  -2   9   1   12.20    3.60
   2   9  -1   10.20    2.50
  -2   9   1   12.00    3.90
   2   9  -1   12.90    2.80
  -2   9   1   13.90    4.00
  -2   9   1   11.30    4.20
   2   9  -1    9.80    2.90
   2   9  -1   11.10    2.90
   2   9  -1   13.40    2.80
  -2   9   1    9.10    3.70
  -1  -9   1   10.70    1.40
  -1  -9   1    9.10    2.10
   1  -9  -1   13.00    2.70
   1  -9  -1    9.40    3.10
  -1  -9   1    9.90    1.20
   1  -9  -1    5.80    2.80
  -1  -9   1    7.30    2.30
  -1  -9   1    9.60    2.10
   1  -9  -1   10.30    2.50
   1  -9  -1    9.80    2.80
  -1  -9   1    5.80    2.20
   1  -9  -1    7.90    2.90
   1   9  -1    4.30    2.00
  -1   9   1    9.10    2.50
   1   9  -1    9.20    2.10
   1   9  -1    9.00    2.10
  -1   9   1    6.70    2.50
  -1   9   1   10.20    3.10
  -1   9   1    7.70    3.10
  -1   9   1   10.10    3.00
   1   9  -1    9.70    2.00
  -1   9   1   11.20    2.90
   1   9  -1    7.40    1.90
   1   9  -1    5.60    1.70
   0  -9  -1  200.48   10.20
   0  -9  -1  205.68   10.90
   0  -9  -1  199.58   10.20
   0  -9   1  204.18   10.60
   0  -9  -1  193.68   10.80
   0  -9  -1  198.38   10.80
   0  -9   1  206.88    9.80
   0  -9   1  203.38    9.80
   0  -9   1  200.68   10.50
   0   9   1  190.58   10.70
   0   9  -1  196.48   10.30
   0   9  -1  166.68   10.50
   0   9  -1  200.98   10.50
   0   9   1  205.58   10.80
   0   9  -1  199.88   10.20
   0   9   1  191.58   10.50
   0   9  -1  200.28   10.50
   0   9   1  204.78   10.90
   0   9   1  199.98   10.70
   0   9   1  196.08   10.40
   0   9  -1  201.38   10.40
  -1  -9  -1   51.29    3.80
   1  -9   1   49.40    5.10
  -1  -9  -1   48.90    4.60
  -1  -9  -1   38.50    4.40
  -1  -9  -1   53.39    4.80
  -1  -9  -1   51.09    3.80
   1  -9   1   54.99    5.10
   1  -9   1   47.60    4.20
   1  -9   1   47.40    4.40
   1  -9   1   46.80    4.80
  -1  -9  -1   43.60    4.50
   1  -9   1   47.50    4.90
   1   9   1   48.60    4.50
   1   9   1   43.70    4.20
  -1   9  -1   46.50    5.00
  -1   9  -1   45.10    4.60
   1   9   1   50.59    4.50
  -1   9  -1   46.10    4.60
  -1   9  -1   53.39    4.90
   1   9   1   51.99    4.80
  -1   9  -1   47.10    5.10
  -1   9  -1   46.90    5.00
   1   9   1   48.30    4.50
   1   9   1   49.10    4.30
   2  -9   1   18.00    4.40
  -2  -9  -1    7.10    2.20
  -2  -9  -1    6.40    3.10
  -2  -9  -1    9.90    3.30
  -2  -9  -1    6.50    2.40
   2  -9   1    6.50    3.80
   2  -9   1    5.10    3.50
   2  -9   1   11.80    3.20
  -2  -9  -1    7.50    3.00
   2  -9   1   11.70    3.80
  -2  -9  -1   10.40    3.20
   2  -9   1    7.10    3.00
   2   9   1    7.70    3.10
   2   9   1    9.50    2.70
   2   9   1    7.10    2.80
  -2   9  -1    6.40    3.20
   2   9   1   13.00    3.10
  -2   9  -1    7.00    3.80
   2   9   1   13.40    3.20
   2   9   1    6.90    3.20
  -2   9  -1    6.00    3.40
  -2   9  -1   10.20    4.10
  -2   9  -1    5.90    3.20
  -2   9  -1    4.40    4.00
   3  -9   1    7.30    5.90
  -3  -9  -1    3.80    4.20
   3  -9   1    0.80    4.80
  -3  -9  -1    3.60    2.60
   3  -9   1    4.20    4.20
  -3  -9  -1    3.90    3.10
   3  -9   1    7.80    5.80
  -3  -9  -1    5.30    4.60
   3  -9   1   -5.90    4.80
  -3   9  -1    3.90    5.00
  -3   9  -1   16.00    5.20
   3   9   1    8.60    4.00
   3   9   1    2.40    3.70
   3   9   1    7.40    4.50
   3   9   1    3.90    4.20
  -3   9  -1   10.30    6.40
  -3   9  -1    7.70    5.40
  -3   9  -1    1.00    5.60
  -3   9  -1   -3.90    5.30
   3   9   1    1.60    3.80
   3   9   1    1.20    3.50
   3 -10  -1  343.17   21.50
   3 -10  -1  392.76   22.00
   3 -10  -1  369.36   20.60
  -3 -10   1  343.27   19.30
  -3 -10   1  365.86   19.50
   3 -10  -1  362.46   20.10
   3 -10  -1  381.86   20.80
   3 -10  -1  336.77   20.90
  -3  10   1  363.26   21.80
   3  10  -1  347.17   18.80
  -3  10   1  368.76   20.50
  -3  10   1  386.86   21.90
  -3  10   1  364.66   21.10
  -3  10   1  369.06   21.20
   3  10  -1  348.67   19.40
  -3  10   1  348.97   21.00
   3  10  -1  363.56   19.30
   3  10  -1  367.06   19.20
   3  10  -1  378.36   19.40
   3  10  -1  369.56   19.10
  -2 -10   1  159.08    9.90
   2 -10  -1  178.58   11.40
   2 -10  -1  173.48   10.50
   2 -10  -1  165.88   11.60
   2 -10  -1  158.98   11.40
  -2 -10   1  182.68   10.10
  -2 -10   1  151.48    9.90
   2 -10  -1  164.08   11.20
  -2 -10   1  168.68    9.90
   2 -10  -1  172.88   10.70
   2  10  -1  171.88   10.00
  -2  10   1  154.98   11.50
   2  10  -1  167.38    9.70
  -2  10   1  167.18   11.20
  -2  10   1  165.38   11.80
  -2  10   1  162.68   11.60
  -2  10   1  179.08   10.90
  -2  10   1  177.28   11.20
   2  10  -1  168.08    9.70
   2  10  -1  165.38    9.80
   1 -10  -1    2.30    2.20
  -1 -10   1    4.80    1.00
  -1 -10   1    2.60    2.10
  -1 -10   1    3.80    2.20
   1 -10  -1    6.10    2.80
  -1 -10   1    4.20    2.10
   1 -10  -1    2.40    2.40
   1 -10  -1    3.10    2.70
   1 -10  -1    2.60    2.80
  -1 -10   1    2.40    2.20
   1 -10  -1    3.50    3.00
  -1  10   1    0.50    2.30
   1  10  -1    4.00    2.20
  -1  10   1    5.20    3.00
   1  10  -1    4.30    2.10
   1  10  -1    4.60    2.20
   1  10  -1    1.10    1.80
  -1  10   1    4.10    2.90
  -1  10   1    2.80    3.20
  -1  10   1    3.70    2.40
  -1  10   1    0.00    2.40
   1  10  -1   -1.00    2.10
   1  10  -1    2.90    2.10
   0 -10  -1 1686.13   76.19
   0 -10   1 1602.34   75.09
   0 -10  -1 1688.93   75.59
   0 -10  -1 1695.43   75.59
   0 -10   1 1695.33   75.99
   0 -10   1 1660.63   75.99
   0 -10  -1 1676.33   76.19
   0 -10   1 1704.93   75.19
   0 -10  -1 1755.62   76.39
   0  10   1 1676.93   75.99
   0  10  -1 1509.15   75.89
   0  10   1 1700.53   76.19
   0  10  -1 1673.43   75.89
   0  10  -1 1626.34   75.69
   0  10  -1 1683.73   75.69
   0  10   1 1680.33   76.19
   0  10   1 1730.73   76.29
   0  10  -1 1666.03   75.99
   0  10   1 1684.73   76.29
   0  10  -1 1650.23   75.89
   0  10   1 1639.24   75.89
   1 -10   1 1892.21   81.09
  -1 -10  -1 1836.22   80.79
  -1 -10  -1 1704.43   80.69
   1 -10   1 1840.92   80.29
   1 -10   1 1757.02   81.09
   1 -10   1 1882.61   80.29
  -1 -10  -1 1777.62   79.89
  -1 -10  -1 1865.11   79.99
  -1 -10  -1 1598.14   80.59
  -1 -10  -1 1713.13   80.69
   1 -10   1 1787.42   80.89
   1 -10   1 1697.73   80.89
   1  10   1 1749.12   80.59
  -1  10  -1 1706.63   80.99
   1  10   1 1802.82   80.59
  -1  10  -1 1772.32   80.59
  -1  10  -1 1830.42   80.89
  -1  10  -1 1832.62   80.99
   1  10   1 1748.63   80.39
  -1  10  -1 1789.42   80.69
  -1  10  -1 1861.41   80.99
   1  10   1 1764.82   80.69
   1  10   1 1532.75   80.49
   1  10   1 1785.02   80.39
   2 -10   1   25.50    5.00
  -2 -10  -1   32.40    4.50
   2 -10   1   27.70    4.40
  -2 -10  -1   20.60    4.20
   2 -10   1   33.00    4.20
  -2 -10  -1   25.10    4.20
  -2 -10  -1   28.20    3.70
   2 -10   1   33.10    5.00
  -2 -10  -1   26.40    3.80
   2 -10   1   24.60    4.80
   2  10   1   27.60    4.30
   2  10   1   32.90    4.40
  -2  10  -1   27.30    4.60
  -2  10  -1   25.90    5.60
   2  10   1   29.50    4.30
  -2  10  -1   25.70    4.80
   2  10   1   30.30    4.20
  -2  10  -1   25.60    4.30
  -2  10  -1   25.30    5.20
  -2  10  -1   36.80    5.10
   2  10   1   21.90    3.80
  -3 -10  -1   64.89    8.20
   3 -10   1   71.59   10.70
   3 -10   1   76.69   10.00
   3 -10   1   62.49    9.00
  -3 -10  -1   55.49    8.00
   3 -10   1   75.49    9.00
  -3 -10  -1   63.09    6.00
   3 -10   1   76.59    9.60
   3 -10   1   74.89    8.80
  -3 -10  -1   76.59    9.10
   3  10   1   78.69    8.30
   3  10   1   78.79    8.70
   3  10   1   69.59    8.90
   3  10   1   84.99    8.40
  -3  10  -1   53.89    7.90
  -3  10  -1   77.09    9.40
  -3  10  -1   53.89    8.30
  -3  10  -1   71.99   10.10
   3  10   1   67.19    8.20
  -3  10  -1   66.49    9.80
   3  10   1   78.89    7.90
  -3  10  -1   53.99    8.90
  -3 -11   1  383.56   19.80
   3 -11  -1  365.66   20.80
   3 -11  -1  347.37   22.20
   3 -11  -1  346.97   22.10
   3 -11  -1  351.16   20.80
  -3 -11   1  361.06   19.40
   3 -11  -1  366.46   20.30
   3 -11  -1  344.87   21.40
  -3 -11   1  337.57   19.50
  -3  11   1  338.87   21.70
   3  11  -1  361.46   19.50
   3  11  -1  369.46   19.50
   3  11  -1  384.66   19.40
   3  11  -1  357.16   19.30
   3  11  -1  360.96   19.60
   3  11  -1  369.46   19.10
  -3  11   1  411.46   21.00
  -3  11   1  328.37   22.20
  -3  11   1  334.07   21.20
  -3  11   1  344.37   21.50
  -3  11   1  386.26   21.50
   2 -11  -1   56.99    8.00
   2 -11  -1   59.99    6.90
   2 -11  -1   61.89    7.90
   2 -11  -1   62.39    6.90
  -2 -11   1   54.69    6.10
   2 -11  -1   60.09    7.30
  -2 -11   1   63.59    5.80
  -2 -11   1   66.49    6.10
   2  11  -1   56.19    5.70
   2  11  -1   52.19    5.90
   2  11  -1   53.49    5.80
  -2  11   1   63.09    7.20
   2  11  -1   58.09    5.70
  -2  11   1   57.29    7.40
  -2  11   1   71.49    7.80
  -2  11   1   63.59    8.20
   2  11  -1   47.20    5.60
  -2  11   1   62.39    7.90
  -2  11   1   68.99    8.40
   2  11  -1   62.09    6.20
   1 -11  -1  396.96   19.80
   1 -11  -1  387.06   20.30
   1 -11  -1  404.56   20.50
  -1 -11   1  406.26   19.60
  -1 -11   1  376.86   19.50
   1 -11  -1  398.56   19.80
   1 -11  -1  395.56   20.60
  -1 -11   1  373.76   19.50
   1 -11  -1  427.66   20.70
  -1 -11   1  397.46   19.60
  -1  11   1  398.06   20.80
  -1  11   1  402.26   20.10
   1  11  -1  404.06   19.50
   1  11  -1  381.56   19.40
  -1  11   1  414.76   20.80
  -1  11   1  404.96   20.40
  -1  11   1  375.56   20.00
   1  11  -1  385.26   19.50
  -1  11   1  423.46   20.70
   1  11  -1  398.36   19.60
   1  11  -1  396.26   19.40
   1  11  -1  397.06   19.40
   0 -11   1  444.46   21.60
   0 -11  -1  443.46   21.10
   0 -11  -1  448.96   21.90
   0 -11   1  447.96   21.60
   0 -11   1  431.16   21.50
   0 -11   1  449.76   20.60
   0 -11   1  428.56   20.50
   0 -11  -1  436.86   21.80
   0 -11  -1  431.46   21.00
   0 -11  -1  450.15   21.90
   0  11   1  440.26   21.50
   0  11   1  409.76   21.70
   0  11  -1  438.76   21.50
   0  11   1  459.55   22.10
   0  11   1  435.46   21.60
   0  11  -1  428.96   21.30
   0  11  -1  455.05   21.30
   0  11   1  450.85   21.80
   0  11  -1  437.46   21.60
   0  11  -1  377.16   21.40
   0  11   1  445.46   21.90
   0  11  -1  460.25   21.70
   1 -11   1  179.68   11.20
  -1 -11  -1  184.48   10.70
  -1 -11  -1  177.28    9.60
   1 -11   1  192.68   11.00
   1 -11   1  175.68   11.10
  -1 -11  -1  173.58   10.60
  -1 -11  -1  174.48   10.80
  -1 -11  -1  181.38    9.60
  -1 -11  -1  177.48   10.70
   1 -11   1  181.28   11.00
   1 -11   1  181.78   10.10
   1 -11   1  185.68   10.20
  -1  11  -1  185.68   11.20
   1  11   1  187.48   10.70
  -1  11  -1  193.98   11.00
   1  11   1  181.88   10.50
   1  11   1  184.98   10.70
   1  11   1  184.48   10.50
  -1  11  -1  204.98   11.30
  -1  11  -1  172.78   11.20
  -1  11  -1  185.58   10.90
   1  11   1  184.38   10.90
  -1  11  -1  172.68   10.60
   1  11   1  191.38   10.70
  -2 -11  -1  183.28   11.10
  -2 -11  -1  179.68    9.40
   2 -11   1  187.48   10.90
  -2 -11  -1  197.48   14.70
  -2 -11  -1  177.58   11.20
   2 -11   1  168.18   11.70
  -2 -11  -1  176.58    9.30
   2 -11   1  185.78   11.50
   2 -11   1  173.18   11.00
   2 -11   1  182.38   12.20
   2  11   1  188.18   11.30
  -2  11  -1  181.58   11.80
   2  11   1  150.88   10.70
  -2  11  -1  157.18   12.00
  -2  11  -1  164.88   12.30
   2  11   1  160.38   10.70
  -2  11  -1  175.28   11.20
  -2  11  -1  153.58   11.30
  -2  11  -1  168.28   11.70
   2  11   1  178.88   10.80
   2  11   1  172.18   10.70
  -3 -11  -1  302.47   17.70
   3 -11   1  301.47   18.00
   3 -11   1  315.37   19.70
  -3 -11  -1  292.17   17.50
  -3 -11  -1  313.67   17.60
   3 -11   1  269.17   18.70
   3 -11   1  321.57   18.90
   3 -11   1  315.77   17.30
  -3 -11  -1  285.07   14.90
   3 -11   1  300.17   19.60
   3  11   1  279.17   17.50
   3  11   1  288.27   16.80
  -3  11  -1  316.47   20.00
   3  11   1  294.27   17.70
   3  11   1  305.97   17.20
  -3  11  -1  270.77   18.40
   3  11   1  313.97   17.40
  -3  11  -1  292.17   18.10
  -3  11  -1  259.77   18.70
  -3  11  -1  291.77   19.00
  -3  11  -1  285.97   19.10
   3  11   1  327.47   17.70
   3 -12  -1   38.10    9.30
  -3 -12   1   62.39    9.00
   3 -12  -1   47.70    7.90
   3 -12  -1   53.49    7.20
   3 -12  -1   32.20    6.80
  -3 -12   1   44.40    6.40
   3 -12  -1   56.79    9.80
   3 -12  -1   56.49    8.60
  -3  12   1   29.70    8.80
   3  12  -1   37.90    6.10
   3  12  -1   49.90    6.70
   3  12  -1   42.00    6.50
  -3  12   1   78.89   10.60
   3  12  -1   46.20    6.40
  -3  12   1   33.70    8.90
  -3  12   1   35.30    8.30
  -3  12   1   41.50    8.20
  -3  12   1   42.60    8.40
   2 -12  -1   48.70    7.00
   2 -12  -1   56.79    8.50
   2 -12  -1   43.40    6.70
  -2 -12   1   51.89    6.10
  -2 -12   1   52.99    6.20
  -2 -12   1   54.49    7.00
   2 -12  -1   54.99    7.20
   2 -12  -1   65.79    7.40
   2  12  -1   49.50    6.10
  -2  12   1   44.10    6.80
   2  12  -1   68.09    6.50
   2  12  -1   53.39    6.00
  -2  12   1   48.80    7.40
  -2  12   1   69.69    9.10
  -2  12   1   50.09    6.50
   2  12  -1   54.39    6.00
   2  12  -1   54.39    6.50
  -2  12   1   54.19    7.60
   2  12  -1   61.99    5.90
  -2  12   1   61.99    9.00
   1 -12  -1  138.49    8.90
   1 -12  -1  138.59    8.80
   1 -12  -1  123.29    9.60
  -1 -12   1  132.59    8.50
   1 -12  -1  148.69   10.00
  -1 -12   1  123.69    8.50
  -1 -12   1  138.79    8.70
   1 -12  -1  136.69    9.60
  -1 -12   1  136.49    8.60
   1  12  -1  134.99    8.40
  -1  12   1  132.29    9.10
   1  12  -1  139.99    8.50
  -1  12   1  115.09   10.00
  -1  12   1  135.59    9.90
  -1  12   1  125.69    9.90
   1  12  -1  137.19    8.50
  -1  12   1  132.69    9.40
  -1  12   1  137.09    9.60
   1  12  -1  143.19    8.70
   1  12  -1  138.59    8.40
   1  12  -1  132.09    8.60
   0 -12  -1   -0.10    3.00
   0 -12  -1    1.00    2.20
   0 -12  -1    2.10    2.20
   0 -12   1    1.90    1.60
   0 -12  -1    2.70    2.80
   0 -12   1    0.90    2.80
   0 -12  -1   -2.90    2.90
   0 -12   1    0.40    2.80
   0 -12   1    1.30    1.70
   0 -12  -1    4.00    3.20
   0  12   1    2.80    3.20
   0  12  -1    6.30    2.50
   0  12  -1    2.10    2.70
   0  12   1    3.30    3.00
   0  12   1    4.10    2.90
   0  12  -1    0.60    2.90
   0  12   1    7.70    3.10
   0  12  -1   -0.20    2.60
   0  12   1    1.20    2.90
   0  12  -1    1.90    3.00
   0  12  -1    3.90    2.90
   0  12   1   -2.10    2.70
  -1 -12  -1   49.80    6.00
   1 -12   1   48.80    5.00
  -1 -12  -1   43.20    4.20
   1 -12   1   46.70    6.60
  -1 -12  -1   39.90    4.10
   1 -12   1   45.10    6.40
   1 -12   1   49.90    6.00
   1 -12   1   43.30    5.40
  -1 -12  -1   47.60    5.80
  -1 -12  -1   38.30    5.60
   1 -12   1   51.09    5.10
  -1  12  -1   43.20    6.40
   1  12   1   56.49    5.70
   1  12   1   42.20    5.50
  -1  12  -1   51.69    6.30
  -1  12  -1   43.40    6.40
   1  12   1   41.00    5.70
  -1  12  -1   44.50    5.80
  -1  12  -1   46.90    6.20
   1  12   1   55.19    5.70
   1  12   1   50.59    5.80
   1  12   1   50.09    6.00
  -1  12  -1   49.99    5.90
   2 -12   1   26.40    5.80
  -2 -12  -1   29.70    5.20
   2 -12   1   39.90    6.10
   2 -12   1   40.60    6.70
  -2 -12  -1   30.80    3.80
   2 -12   1   25.20    4.70
   2 -12   1   24.80    4.70
  -2 -12  -1   19.50    2.90
  -2  12  -1   33.10    6.50
  -2  12  -1   30.70    6.00
  -2  12  -1   32.90    5.40
   2  12   1   28.90    4.60
   2  12   1   27.60    4.80
  -2  12  -1   21.10    4.80
  -2  12  -1   29.30    6.20
   2  12   1   34.80    5.30
   2  12   1   21.20    4.70
   2  12   1   38.40    5.20
   2  12   1   30.40    4.70
  -2  12  -1   26.70    5.30
   3 -12   1   35.80    7.60
  -3 -12  -1   26.60    6.90
   3 -12   1   36.60    7.40
  -3 -12  -1   30.70    6.00
   3 -12   1   27.40    8.70
  -3 -12  -1   26.00    6.50
   3 -12   1   10.90    7.10
   3 -12   1   26.60    6.30
   3 -12   1   43.30    8.50
  -3  12  -1   31.40    7.80
   3  12   1   35.10    6.60
  -3  12  -1   43.20    7.70
   3  12   1   34.10    6.60
  -3  12  -1   36.40    9.40
  -3  12  -1   40.30    8.20
   3  12   1   19.90    6.20
   3  12   1   24.80    6.20
   3  12   1   50.49    7.20
  -3  12  -1   35.40    8.70
  -3  12  -1   23.90    7.90
   3 -13  -1  104.19   15.30
   3 -13  -1   77.19    9.90
   3 -13  -1  115.19   13.90
   3 -13  -1  116.29   12.80
  -3 -13   1   90.59   10.60
   3 -13  -1  114.89   11.80
  -3  13   1   89.69   12.10
  -3  13   1  116.09   16.00
  -3  13   1  111.89   14.90
   3  13  -1  104.09   11.00
   3  13  -1   94.09   10.70
   3  13  -1   97.89   10.40
  -2 -13   1   97.59    8.40
  -2 -13   1  106.19    8.50
   2 -13  -1   89.59   10.10
   2 -13  -1  113.69    9.40
   2 -13  -1  110.69   11.50
   2 -13  -1   92.19   11.00
   2 -13  -1  107.49   10.60
   2  13  -1   97.09    8.10
   2  13  -1  103.79    8.20
   2  13  -1  101.89    8.80
  -2  13   1  100.09    9.90
  -2  13   1  118.39   10.60
   2  13  -1  111.19    8.50
  -2  13   1   98.59   11.80
  -2  13   1  121.19   11.60
   2  13  -1  108.19    8.10
  -2  13   1  112.79   10.80
  -2  13   1  127.19   11.40
   2  13  -1  117.79    8.60
   1 -13  -1  144.09   10.80
  -1 -13   1  125.99    9.30
   1 -13  -1  142.59    9.50
   1 -13  -1  148.59   10.80
   1 -13  -1  145.59   10.40
  -1 -13   1  144.99    9.50
   1 -13  -1  152.68    9.60
  -1 -13   1  147.99    9.40
   1  13  -1  154.28    9.40
  -1  13   1  161.58   10.50
  -1  13   1  151.28   10.80
  -1  13   1  138.49   10.90
   1  13  -1  151.18    9.40
  -1  13   1  143.79   10.30
   1  13  -1  155.98    9.50
  -1  13   1  151.58   11.30
   1  13  -1  139.19    9.30
   1  13  -1  139.79    9.20
   1  13  -1  140.79    9.20
  -1  13   1  148.59   10.20
   0 -13  -1   -1.70    2.40
   0 -13   1    2.00    1.90
   0 -13  -1   -3.90    2.90
   0 -13   1   -1.20    3.20
   0 -13  -1   -0.20    3.50
   0 -13  -1    1.20    3.30
   0 -13  -1   -2.80    2.40
   0 -13   1    0.00    3.20
   0 -13  -1    1.80    3.40
   0 -13   1    0.40    1.70
   0  13   1    4.30    3.80
   0  13  -1   -1.50    3.00
   0  13   1   -2.70    3.10
   0  13   1   -5.90    3.10
   0  13   1   -1.60    3.10
   0  13  -1    2.90    3.20
   0  13  -1    1.30    2.90
   0  13  -1   -3.80    3.40
   0  13  -1    3.60    3.10
   0  13   1   -0.30    3.00
   0  13  -1    0.10    3.40
   0  13   1    3.20    3.60
   1 -13   1  392.56   20.70
   1 -13   1  403.06   20.80
   1 -13   1  398.46   19.70
   1 -13   1  423.46   21.40
  -1 -13  -1  381.76   20.50
  -1 -13  -1  382.96   20.60
  -1 -13  -1  392.96   19.10
  -1 -13  -1  413.36   19.10
   1 -13   1  413.26   19.60
   1  13   1  406.36   20.30
  -1  13  -1  383.56   20.90
   1  13   1  402.96   20.50
  -1  13  -1  382.86   21.10
  -1  13  -1  401.36   20.70
  -1  13  -1  383.76   21.00
   1  13   1  375.66   20.40
   1  13   1  390.46   20.60
   1  13   1  398.86   20.30
   1  13   1  391.56   20.30
  -1  13  -1  407.46   20.50
  -1  13  -1  413.56   20.80
   2 -13   1  156.38   11.30
  -2 -13  -1  159.08    8.60
   2 -13   1  173.58   11.90
  -2 -13  -1  166.98   11.60
  -2 -13  -1  173.28   12.00
   2 -13   1  142.89   10.70
  -2 -13  -1  164.88   11.40
   2 -13   1  170.98   13.30
   2 -13   1  170.58   12.80
   2 -13   1  154.48   11.90
   2  13   1  179.68   11.90
   2  13   1  169.38   11.10
  -2  13  -1  133.29   12.40
   2  13   1  155.68   11.00
  -2  13  -1  165.98   12.90
   2  13   1  155.48   11.00
   2  13   1  149.29   11.20
  -2  13  -1  155.48   11.80
  -2  13  -1  153.58   12.10
   2  13   1  147.59   11.00
  -2  13  -1  160.88   12.50
  -2  13  -1  154.68   13.10
  -3 -13  -1   38.90    7.40
   3 -13   1   45.10    9.70
  -3  13  -1   57.39   11.40
   3  13   1   43.90    7.50
  -3  13  -1   27.90    9.00
  -2 -14   1    7.00    4.60
  -2 -14   1   17.50    4.80
   2 -14  -1   13.90    6.30
   2 -14  -1   21.50    7.20
   2 -14  -1   23.10    6.70
   2 -14  -1   22.20    6.80
  -2 -14   1   16.00    4.50
   2 -14  -1   21.80    7.30
   2 -14  -1   13.30    5.20
   2  14  -1   23.90    4.70
  -2  14   1   13.90    6.40
  -2  14   1   24.70    6.70
   2  14  -1   17.20    4.90
   2  14  -1   18.00    4.70
  -2  14   1   21.20    6.10
  -2  14   1   14.50    7.00
   2  14  -1   19.30    4.60
   2  14  -1   11.80    4.50
  -2  14   1   19.50    7.90
  -2  14   1   15.80    7.30
   2  14  -1   20.70    4.90
   1 -14  -1  461.65   22.50
   1 -14  -1  414.06   23.30
  -1 -14   1  422.36   22.40
  -1 -14   1  424.46   22.40
   1 -14  -1  441.26   23.80
   1 -14  -1  457.05   23.70
   1 -14  -1  432.06   23.40
   1 -14  -1  450.55   22.20
   1  14  -1  434.66   22.40
   1  14  -1  434.46   22.30
  -1  14   1  439.76   23.90
   1  14  -1  458.95   22.30
  -1  14   1  418.16   23.10
  -1  14   1  450.15   23.10
  -1  14   1  483.55   24.00
   1  14  -1  426.16   22.30
  -1  14   1  445.16   23.30
   1  14  -1  447.36   22.30
   1  14  -1  445.46   22.30
  -1  14   1  466.85   23.90
   0 -14  -1   37.80    4.90
   0 -14   1   41.70    3.80
   0 -14   1   43.90    6.60
   0 -14  -1   55.39    6.90
   0 -14  -1   46.60    7.00
   0 -14  -1   43.00    5.20
   0 -14  -1   38.40    5.60
   0  14   1   38.60    5.10
   0  14  -1   43.00    5.30
   0  14   1   47.10    5.90
   0  14   1   40.10    5.60
   0  14  -1   41.80    5.20
   0  14   1   38.60    5.80
   0  14  -1   47.90    6.30
   0  14  -1   45.80    5.90
   0  14  -1   51.59    6.90
   0  14   1   33.00    5.30
   0  14   1   50.19    7.50
   0  14  -1   43.40    5.90
   1 -14   1    0.10    4.40
  -1 -14  -1    1.50    2.20
   1 -14   1    0.00    4.20
   1 -14   1   -1.30    4.70
  -1 -14  -1   -2.20    3.70
   1 -14   1    0.10    3.50
  -1 -14  -1    0.60    4.40
  -1 -14  -1   -0.60    2.30
  -1 -14  -1   -6.40    3.90
   1 -14   1   -1.60    2.90
   1 -14   1   -1.30    3.00
   1  14   1   -0.30    3.60
  -1  14  -1   -2.50    3.90
   1  14   1    3.70    4.00
   1  14   1    5.80    4.10
  -1  14  -1    2.40    4.20
  -1  14  -1    1.70    4.50
   1  14   1    2.40    4.00
   1  14   1   -6.30    3.80
  -1  14  -1   -4.00    3.90
  -1  14  -1    1.10    4.10
   1  14   1    0.60    3.70
  -1  14  -1   -5.60    4.70
  -2 -14  -1   57.79    8.40
   2 -14   1   60.19    8.80
   2 -14   1   48.50    6.30
   2 -14   1   48.90    7.50
   2 -14   1   64.89    9.00
  -2 -14  -1   60.29    8.40
  -2 -14  -1   54.49    7.50
   2 -14   1   53.89    7.80
  -2  14  -1   57.69    7.90
  -2  14  -1   40.40    7.90
   2  14   1   58.49    8.30
   2  14   1   63.69    8.40
   2  14   1   65.19    8.30
  -2  14  -1   51.09    8.00
   2  14   1   62.99    8.90
   2  14   1   50.49    6.70
  -2  14  -1   43.80    7.20
  -2  14  -1   65.19    9.00
  -2  14  -1   49.30    6.80
   2  14   1   55.69    6.90
  -2 -15   1    0.80    5.10
   2 -15  -1    4.40    5.70
   2 -15  -1   17.90    7.40
  -2 -15   1    5.10    4.50
   2 -15  -1   17.60    7.20
   2 -15  -1   11.30    5.50
   2 -15  -1   16.50    7.40
  -2 -15   1   10.20    5.60
  -2 -15   1   -3.70    5.30
   2  15  -1    6.70    4.50
   2  15  -1   17.50    5.50
  -2  15   1   -5.90    8.50
   2  15  -1    7.30    5.30
   2  15  -1    9.40    5.30
  -2  15   1   11.00    8.00
   2  15  -1    8.60    4.90
  -2  15   1   -1.10    5.20
  -2  15   1    9.70    6.80
  -2  15   1    2.60    9.00
  -2  15   1    2.30    7.10
   2  15  -1    3.50    4.70
   1 -15  -1   28.80    5.20
   1 -15  -1   36.10    7.30
   1 -15  -1   29.70    6.90
   1 -15  -1   32.80    5.10
  -1 -15   1   38.40    5.80
  -1 -15   1   41.40    6.00
   1 -15  -1   44.80    6.80
  -1 -15   1   30.80    5.30
   1  15  -1   40.60    5.30
  -1  15   1   33.20    6.40
  -1  15   1   50.39    7.70
  -1  15   1   35.90    6.00
  -1  15   1   35.90    6.40
   1  15  -1   36.30    5.50
   1  15  -1   37.20    5.40
   1  15  -1   49.40    7.00
   1  15  -1   39.90    5.50
  -1  15   1   28.10    6.30
   1  15  -1   40.20    5.60
  -1  15   1   39.90    6.80
   0 -15   1  161.68   11.30
   0 -15  -1  171.58   11.90
   0 -15  -1  168.98   11.90
   0 -15   1  132.99    8.20
   0 -15   1  157.28   11.60
   0 -15  -1  156.98   11.60
   0 -15  -1  151.28    9.50
   0 -15   1  149.09   11.30
   0  15  -1  180.88   11.40
   0  15  -1  158.48   11.10
   0  15  -1  161.58   11.10
   0  15   1  150.08   12.10
   0  15   1  167.88   11.70
   0  15  -1  172.48   11.80
   0  15   1  156.68   11.50
   0  15   1  159.98   12.00
   0  15  -1  170.48   11.60
   0  15   1  171.28   11.30
   0  15  -1  164.48   12.10
   0  15   1  154.88   11.70
  -1 -15  -1    2.20    4.80
   1 -15   1    2.70    3.50
   1 -15   1    1.80    5.00
  -1 -15  -1    0.50    2.50
   1 -15   1    1.60    3.40
   1 -15   1    5.00    5.10
   1 -15   1    0.60    5.70
   1 -15   1   -2.00    4.00
  -1 -15  -1    6.90    4.70
  -1 -15  -1    7.70    5.00
  -1 -15  -1    2.80    4.40
  -1 -15  -1    3.00    2.50
   1  15   1    2.50    4.40
  -1  15  -1    3.70    4.90
   1  15   1    2.60    4.70
  -1  15  -1   -2.00    4.60
   1  15   1   -2.80    4.40
  -1  15  -1   -1.60    4.50
   1  15   1   -1.60    5.00
   1  15   1   -5.00    4.10
  -1  15  -1   -3.50    4.60
   1  15   1    7.90    4.60
  -1  15  -1   -4.70    5.00
  -1  15  -1    6.00    6.00
   2 -15   1   -2.00    6.90
   2 -15   1   -6.00    5.50
   2 -15   1    7.00    9.60
   2 -15   1   10.90    5.10
   2 -15   1   -6.20    5.80
  -2 -15  -1   -2.40    6.40
  -2 -15  -1    3.50    5.80
  -2  15  -1    2.10    7.70
  -2  15  -1    5.20    6.00
   2  15   1   -0.60    5.30
  -2  15  -1    1.40    6.70
   2  15   1   -2.90    5.10
   2  15   1    5.90    5.30
  -2  15  -1    8.20    7.00
  -2  15  -1    4.60    7.30
  -2  15  -1    5.00    5.90
   2  15   1    4.60    5.30
  -1 -16   1  335.27   18.40
   1 -16  -1  312.87   19.50
   1 -16  -1  299.47   19.30
  -1 -16   1  303.27   17.70
   1 -16  -1  307.97   19.70
   1 -16  -1  339.97   17.40
  -1  16   1  312.07   18.80
  -1  16   1  311.67   19.60
   1  16  -1  311.87   17.90
  -1  16   1  292.37   19.40
  -1  16   1  327.97   18.90
   1  16  -1  305.67   17.90
   1  16  -1  312.77   18.10
  -1  16   1  295.97   19.40
  -1  16   1  295.57   20.20
   1  16  -1  323.87   17.80
   1  16  -1  320.97   17.70
   1  16  -1  338.27   17.70
   0 -16  -1    2.80    5.40
   0 -16  -1   -3.10    3.50
   0 -16  -1    2.30    3.30
   0 -16  -1    3.00    5.30
   0 -16   1    4.10    4.80
   0 -16   1    8.10    5.10
   0 -16  -1   -2.00    4.90
   0 -16   1    7.60    5.40
   0 -16  -1   -6.00    5.70
   0  16  -1    2.30    4.80
   0  16   1   13.30    5.30
   0  16  -1   -3.50    5.00
   0  16   1    3.60    5.40
   0  16  -1    5.00    5.40
   0  16  -1   -4.00    4.80
   0  16   1    1.10    5.60
   0  16   1    0.60    6.10
   0  16   1    0.70    5.10
   0  16   1    7.60    5.40
   0  16  -1   -1.60    4.60
   0  16  -1    2.20    5.80
  -1 -16  -1   37.10    7.20
  -1 -16  -1   37.50    7.00
   1 -16   1   41.10    4.90
   1 -16   1   27.00    7.50
  -1 -16  -1   36.20    6.20
   1 -16   1   39.70    6.90
  -1  16  -1   40.70    7.20
  -1  16  -1   35.80    6.80
  -1  16  -1   33.00    6.30
  -1  16  -1   25.30    6.40
  -1  16  -1   27.70    7.50
   1  16   1   37.20    6.40
   1  16   1   45.90    6.80
  -1  16  -1   31.20    6.70
   1  16   1   34.30    6.90
   1  16   1   23.30    6.20
   1  16   1   37.00    6.40
   1  16   1   25.80    6.10
  -4   0   2   74.19    8.10
   4   0  -2   88.09   10.10
  -4   0   2   83.19    8.40
   4   0  -2   80.19    9.50
  -4   0   2   88.59   10.00
   4   0  -2   74.99    9.60
   4   0  -2   77.39    9.30
   4   0  -2   88.79   10.00
   4   0  -2   95.19    9.90
  -4   0   2   67.09    9.70
  -4   0   2   65.89    9.80
   3   0  -2  223.68   12.40
  -3   0   2  218.88   12.30
   3   0  -2  225.38   12.40
  -3   0   2  232.98   11.80
  -3   0   2  206.08   12.30
   3   0  -2  206.68   12.00
   3   0  -2  212.28   12.00
  -3   0   2  214.68   12.50
  -3   0   2  220.38   11.70
   3   0  -2  208.28   12.30
  -3   0   2  175.88   12.30
   3   0  -2  188.48   12.30
  -2   0   2 1983.50   87.99
  -2   0   2 2108.99   88.09
  -2   0   2 1949.80   87.99
   2   0  -2 1861.51   87.89
   2   0  -2 1868.11   87.69
   2   0  -2 1848.81   87.79
  -2   0   2 1904.51   87.49
  -2   0   2 1928.21   87.89
   2   0  -2 2019.80   87.99
   2   0  -2 1897.41   87.89
  -2   0   2 1976.20   87.59
   2   0  -2 1984.30   87.79
  -1   0   2 1238.88   61.89
   1   0  -2 1266.57   61.69
  -1   0   2 1249.38   61.79
  -1   0   2 1459.45   61.89
   1   0  -2 1420.96   61.89
   1   0  -2 1408.96   61.79
  -1   0   2 1331.37   61.69
   1   0  -2 1435.06   61.89
   1   0  -2 1419.56   61.89
  -1   0   2 1532.15   61.99
  -1   0  -2 8519.35  365.46
   1   0   2 7887.81  365.56
  -2   0  -2 1372.76   62.39
   2   0   2 1506.35   62.59
   2   0   2 1311.37   62.39
   2   0   2 1322.87   62.09
  -2   0  -2 1360.06   62.09
   2   0   2 1316.17   62.39
  -2   0  -2 1335.67   62.09
  -2   0  -2 1233.38   62.29
   2   0   2 1309.67   62.29
  -2   0  -2 1370.36   62.39
  -2   0  -2 1556.74   62.69
  -3   0  -2  406.46   20.30
   3   0   2  396.66   20.70
  -3   0  -2  372.66   20.60
   3   0   2  436.16   20.40
  -3   0  -2  407.66   21.00
   3   0   2  409.56   20.40
   3   0   2  418.06   21.10
  -3   0  -2  401.76   20.80
   3   0   2  371.66   20.50
  -3   0  -2  342.27   19.90
   3   0   2  385.26   20.60
  -3   0  -2  412.36   20.90
   4   0   2  219.58   16.30
  -4   0  -2  221.58   15.90
  -4   0  -2  277.07   16.70
   4   0   2  237.78   16.10
   4   0   2  222.88   16.10
   4   0   2  222.28   15.20
  -4   0  -2  232.88   15.20
  -4   0  -2  236.68   16.40
   4   0   2  232.98   15.80
  -4   0  -2  229.88   15.60
  -4   0  -2  237.88   16.50
   4   0   2  234.78   15.50
   4  -1  -2   26.90    5.90
  -4  -1   2   45.00    6.80
   4  -1  -2   30.50    6.40
   4  -1  -2   32.40    6.70
  -4  -1   2   37.20    5.30
  -4  -1   2   41.60    7.40
  -4  -1   2   50.69    7.00
  -4  -1   2   46.60    7.20
   4  -1  -2   33.00    6.70
   4  -1  -2   53.09    7.50
  -4  -1   2   37.00    6.90
   4  -1  -2   35.40    6.80
   4   1  -2   34.90    6.00
  -4   1   2   36.30    5.60
   4   1  -2   23.30    5.70
  -4   1   2   30.30    6.60
   4   1  -2   40.60    6.90
  -4   1   2   36.80    7.40
   4   1  -2   36.00    6.40
  -4   1   2   32.20    6.30
   4   1  -2   47.00    7.40
  -4   1   2   33.80    5.70
   4   1  -2   35.90    6.70
   3  -1  -2  685.93   34.30
  -3  -1   2  751.92   34.30
   3  -1  -2  665.33   33.80
  -3  -1   2  709.93   34.10
  -3  -1   2  794.22   34.50
  -3  -1   2  697.73   33.40
   3  -1  -2  721.93   34.40
  -3  -1   2  732.83   33.40
   3  -1  -2  781.42   34.60
   3  -1  -2  769.92   34.50
  -3  -1   2  662.43   34.10
   3  -1  -2  721.73   34.00
  -3   1   2  687.03   34.30
  -3   1   2  711.13   34.40
  -3   1   2  739.53   34.40
   3   1  -2  665.93   34.10
  -3   1   2  667.13   34.30
   3   1  -2  672.43   33.70
   3   1  -2  708.53   34.10
   3   1  -2  726.53   34.10
   3   1  -2  738.73   33.90
  -3   1   2  744.23   33.80
   3   1  -2  645.54   33.90
  -3   1   2  684.23   33.60
  -2  -1   2    3.20    2.00
  -2  -1   2    3.00    2.00
   2  -1  -2    3.90    2.20
   2  -1  -2    5.60    2.20
  -2  -1   2    5.20    1.60
  -2  -1   2    6.00    2.10
   2  -1  -2    3.70    1.70
  -2  -1   2    6.20    1.60
   2  -1  -2    3.20    2.10
  -2  -1   2    6.90    2.10
   2  -1  -2    3.90    2.20
   2  -1  -2    4.80    1.90
   2   1  -2    4.10    1.80
   2   1  -2    3.60    1.70
   2   1  -2    2.40    1.60
   2   1  -2    5.10    1.90
   2   1  -2    2.30    1.80
  -2   1   2    3.80    2.30
  -2   1   2    5.40    1.80
  -2   1   2    3.30    1.80
   2   1  -2    2.30    1.80
  -2   1   2    6.50    2.20
  -2   1   2    6.40    2.20
  -2   1   2    3.00    2.20
  -1  -1   2 4230.98  176.68
   1  -1  -2 3986.20  176.88
   1  -1  -2 3899.11  176.88
   1  -1  -2 4063.09  176.78
  -1  -1   2 4005.50  176.68
   1  -1  -2 3959.90  176.88
   1  -1  -2 4084.29  176.88
  -1  -1   2 3910.61  176.68
   1  -1  -2 3954.60  176.78
  -1   1   2 4204.88  176.98
   1   1  -2 3708.63  176.68
   1   1  -2 3761.32  176.68
  -1   1   2 4007.70  176.98
  -1   1   2 3978.80  176.88
  -1   1   2 4036.50  176.68
   1   1  -2 3945.51  176.68
   1   1  -2 3700.03  176.48
   1   1  -2 4044.30  176.58
  -1   1   2 3985.80  176.78
   1   1  -2 3815.32  176.68
  -1   1   2 3914.01  176.88
   0  -1  -2 1865.51   90.99
   0  -1  -2 1960.90   90.69
   0  -1  -2 2331.67   90.79
   0  -1  -2 1989.30   90.69
   0  -1  -2 2227.08   91.09
   0   1   2 2222.08   90.79
   0   1   2 1877.31   90.99
   0   1  -2 1992.90   90.49
   0   1  -2 2182.68   90.49
   0   1   2 1892.41   90.89
   0   1  -2 1930.11   90.49
   0   1   2 1961.70   90.69
   0   1   2 2009.10   90.69
   0   1   2 1966.20   90.89
   1  -1   2  895.61   40.00
   1  -1   2  910.01   40.00
   1  -1   2  860.81   39.90
  -1  -1  -2  871.81   39.90
  -1  -1  -2  845.82   39.90
  -1  -1  -2  855.61   39.70
  -1  -1  -2  925.41   39.80
  -1  -1  -2  854.61   39.90
   1  -1   2  867.91   40.00
   1  -1   2  860.61   39.80
   1  -1   2  915.71   39.80
  -1  -1  -2  802.02   39.90
  -1   1  -2  882.91   40.00
  -1   1  -2  918.21   40.00
   1   1   2  881.51   40.00
   1   1   2  823.52   39.90
  -1   1  -2  855.71   39.80
   1   1   2  846.02   39.70
  -1   1  -2  902.71   39.90
   1   1   2  855.91   39.90
   1   1   2  871.81   39.70
  -1   1  -2  846.12   39.70
  -1   1  -2  883.91   39.90
  -2  -1  -2  430.76   21.30
  -2  -1  -2  438.96   21.30
   2  -1   2  440.26   21.10
   2  -1   2  424.46   21.40
  -2  -1  -2  440.66   20.90
   2  -1   2  431.66   21.00
   2  -1   2  432.36   21.50
   2  -1   2  413.36   21.30
  -2  -1  -2  448.56   21.30
  -2  -1  -2  440.56   21.00
   2  -1   2  439.96   21.40
  -2  -1  -2  473.45   21.50
  -2   1  -2  460.35   21.10
  -2   1  -2  417.66   21.30
  -2   1  -2  428.16   21.50
  -2   1  -2  427.06   21.30
   2   1   2  441.66   21.40
   2   1   2  454.65   21.10
   2   1   2  423.16   20.90
  -2   1  -2  439.36   21.30
  -2   1  -2  435.16   21.00
   2   1   2  404.86   21.10
   2   1   2  454.75   21.40
   2   1   2  447.56   21.30
   3  -1   2  177.48   11.50
   3  -1   2  186.28   12.00
   3  -1   2  197.38   12.20
   3  -1   2  180.08   11.50
   3  -1   2  192.68   12.30
  -3  -1  -2  198.38   12.20
  -3  -1  -2  191.98   11.60
  -3  -1  -2  188.68   11.20
  -3  -1  -2  191.58   12.20
  -3  -1  -2  194.88   11.50
  -3  -1  -2  196.48   12.00
   3  -1   2  204.38   11.60
   3   1   2  198.68   12.10
  -3   1  -2  207.28   12.30
   3   1   2  181.28   11.70
  -3   1  -2  206.38   12.40
   3   1   2  178.18   11.40
  -3   1  -2  200.38   11.80
   3   1   2  183.58   11.30
  -3   1  -2  188.98   12.00
   3   1   2  191.68   12.10
   3   1   2  193.88   11.50
  -3   1  -2  172.78   11.30
  -3   1  -2  198.68   11.50
  -4  -1  -2   34.90    6.40
   4  -1   2   33.90    6.30
   4  -1   2   37.10    7.50
  -4  -1  -2   30.60    6.70
  -4  -1  -2   44.40    7.70
   4  -1   2   50.59    7.80
   4  -1   2   44.60    6.30
   4  -1   2   35.90    7.60
  -4  -1  -2   42.60    6.90
   4  -1   2   37.80    7.30
  -4  -1  -2   20.20    6.50
   4   1   2   41.90    7.40
   4   1   2   41.00    7.60
   4   1   2   31.60    6.70
   4   1   2   36.30    6.90
  -4   1  -2   44.40    6.90
   4   1   2   34.60    6.40
  -4   1  -2   47.30    7.90
  -4   1  -2   45.20    8.00
  -4   1  -2   35.70    7.00
  -4   1  -2   38.00    7.40
  -4   1  -2   47.70    7.00
   4   1   2   41.90    7.70
  -4  -2   2    1.00    3.60
   4  -2  -2   -1.90    5.90
  -4  -2   2    3.80    3.80
   4  -2  -2    1.80    5.10
  -4  -2   2    5.70    5.10
  -4  -2   2    1.70    5.50
   4  -2  -2   -3.10    4.90
   4  -2  -2    0.30    5.60
  -4  -2   2    3.80    5.50
  -4  -2   2    6.50    5.40
   4  -2  -2    1.80    5.80
   4  -2  -2    1.70    5.30
  -4   2   2    2.90    6.00
  -4   2   2   -2.60    4.30
  -4   2   2    2.60    5.60
  -4   2   2   12.50    6.10
   4   2  -2    1.90    4.70
   4   2  -2    0.70    4.90
   4   2  -2    5.40    5.10
   4   2  -2    3.50    5.00
   4   2  -2    6.80    5.00
   4   2  -2    7.10    4.60
  -3  -2   2   27.60    4.50
  -3  -2   2   33.40    4.30
   3  -2  -2   21.50    3.70
   3  -2  -2   26.80    4.10
  -3  -2   2   23.60    4.10
   3  -2  -2   32.30    5.10
  -3  -2   2   26.40    4.00
   3  -2  -2   26.90    4.60
   3  -2  -2   24.10    4.40
   3  -2  -2   31.00    5.00
  -3  -2   2   25.10    4.10
  -3  -2   2   30.40    3.50
   3   2  -2   20.70    4.00
   3   2  -2   25.70    4.10
   3   2  -2   32.80    4.30
  -3   2   2   28.30    4.10
  -3   2   2   37.50    4.40
   3   2  -2   27.80    3.80
  -3   2   2   35.90    5.00
  -3   2   2   30.30    5.10
  -3   2   2   39.80    5.30
   3   2  -2   29.60    4.10
   3   2  -2   26.40    4.10
  -3   2   2   26.80    4.50
   2  -2  -2 4204.28  195.38
  -2  -2   2 4367.46  194.78
  -2  -2   2 4304.47  194.78
   2  -2  -2 4307.87  195.38
   2  -2  -2 4172.98  195.58
  -2  -2   2 4073.09  195.18
   2  -2  -2 4299.77  195.58
   2  -2  -2 4552.34  195.78
  -2  -2   2 4655.53  195.48
  -2  -2   2 4400.16  195.28
  -2  -2   2 4199.08  195.28
   2  -2  -2 4418.46  195.68
  -2   2   2 4486.55  195.78
  -2   2   2 4383.36  195.58
   2   2  -2 4585.04  195.38
   2   2  -2 4189.58  195.28
   2   2  -2 4311.57  195.08
  -2   2   2 4193.78  195.58
   2   2  -2 4422.36  195.18
  -2   2   2 4455.55  195.68
  -2   2   2 4444.36  195.28
   2   2  -2 4736.23  195.38
  -2   2   2 4271.47  195.28
   2   2  -2 4286.27  195.18
   1  -2  -2 9999.00  445.66
   0  -2   2  676.73   30.30
   0  -2   2  677.63   30.30
   0  -2  -2  658.23   30.60
   0  -2   2  674.73   30.30
   0  -2  -2  671.33   30.70
   0  -2  -2  655.03   30.50
   0  -2  -2  646.34   30.60
   0  -2  -2  620.14   30.50
   0  -2  -2  700.33   30.70
   0   2   2  666.53   30.50
   0   2  -2  717.13   30.30
   0   2  -2  688.73   30.30
   0   2  -2  667.23   30.10
   0   2   2  732.73   30.70
   0   2   2  699.23   30.70
   0   2  -2  573.94   30.20
   0   2   2  664.43   30.60
   0   2   2  679.93   30.70
   0   2  -2  672.93   30.10
   0   2   2  706.23   30.70
   0   2  -2  701.53   30.30
   1  -2   2 2695.13  127.49
  -1  -2  -2 2954.20  127.49
  -1  -2  -2 2816.72  127.29
   1  -2   2 2814.72  127.29
   1  -2   2 2870.11  127.49
   1  -2   2 2893.31  127.59
  -1  -2  -2 2857.31  127.29
  -1  -2  -2 2735.13  127.49
  -1  -2  -2 2699.53  127.49
  -1  -2  -2 2919.01  127.49
   1  -2   2 3031.80  127.69
   1  -2   2 2799.62  127.29
  -1   2  -2 2735.23  127.49
  -1   2  -2 2899.91  127.39
  -1   2  -2 2846.82  127.49
   1   2   2 2918.31  127.49
   1   2   2 2780.72  127.29
   1   2   2 2780.42  127.49
   1   2   2 2918.11  127.49
   1   2   2 2716.83  127.49
   1   2   2 2923.21  127.29
  -1   2  -2 2806.92  127.29
  -1   2  -2 3142.19  127.69
  -1   2  -2 2744.03  127.49
   2  -2   2  374.56   18.50
  -2  -2  -2  407.36   18.70
   2  -2   2  386.46   18.60
  -2  -2  -2  357.36   18.00
   2  -2   2  354.46   18.20
  -2  -2  -2  357.66   18.10
  -2  -2  -2  372.46   18.40
   2  -2   2  362.16   18.20
   2  -2   2  420.76   18.90
  -2  -2  -2  367.26   18.40
  -2  -2  -2  377.76   18.50
   2  -2   2  390.46   18.70
   2   2   2  369.26   18.20
   2   2   2  364.96   18.30
   2   2   2  371.36   18.20
  -2   2  -2  373.16   18.30
   2   2   2  358.86   18.50
  -2   2  -2  366.46   18.50
  -2   2  -2  356.66   18.70
  -2   2  -2  378.56   18.70
   2   2   2  358.86   18.50
  -2   2  -2  368.56   18.50
   2   2   2  370.66   18.40
   3  -2   2   34.30    5.30
   3  -2   2   36.80    4.90
   3  -2   2   19.80    4.70
  -3  -2  -2   20.90    4.00
  -3  -2  -2   23.20    4.70
   3  -2   2   26.70    5.10
   3  -2   2   26.00    4.50
  -3  -2  -2   20.10    4.20
   3  -2   2   23.10    4.40
  -3  -2  -2   27.60    4.10
  -3  -2  -2   18.00    4.30
  -3  -2  -2   19.60    4.40
  -3   2  -2   27.60    4.50
   3   2   2   21.20    4.40
   3   2   2   17.60    4.50
  -3   2  -2   16.60    3.90
   3   2   2   22.30    4.10
  -3   2  -2   24.00    4.60
  -3   2  -2   25.70    4.80
   3   2   2   18.10    4.40
  -3   2  -2   28.60    4.80
   3   2   2   15.90    4.10
  -3   2  -2   23.00    4.60
  -4  -2  -2   54.99    8.20
  -4  -2  -2   53.79    8.10
   4  -2   2   66.29    9.40
   4  -2   2   78.19   10.60
   4  -2   2   50.69    8.10
  -4  -2  -2   65.69    8.90
   4  -2   2   55.79    7.40
   4  -2   2   74.99    9.80
  -4  -2  -2   57.89    8.40
  -4  -2  -2   54.59    8.20
   4  -2   2   63.29    8.50
   4   2   2   54.79    7.30
  -4   2  -2   64.69    7.90
  -4   2  -2   45.00    8.00
   4   2   2   74.79   10.00
   4   2   2   64.89    8.70
   4   2   2   57.19    7.90
  -4   2  -2   59.39    8.20
  -4   2  -2   56.19    8.50
   4   2   2   61.49    8.60
  -4   2  -2   65.29    9.00
   4   2   2   46.80    7.10
  -4   2  -2   53.79    7.20
   4  -3  -2  157.48   12.00
  -4  -3   2  136.99   11.60
  -4  -3   2  161.78    9.80
  -4  -3   2  152.18   11.90
  -4  -3   2  134.59   12.00
   4  -3  -2  157.78   13.20
  -4  -3   2  119.99    9.40
   4  -3  -2  138.49   12.50
   4  -3  -2  116.49   12.80
  -4  -3   2  115.99   11.40
   4  -3  -2  167.28   12.40
   4  -3  -2  155.18   12.60
  -4   3   2  138.89   12.50
   4   3  -2  144.19   11.30
   4   3  -2  142.39   11.70
   4   3  -2  142.99   12.00
   4   3  -2  157.18   11.40
  -4   3   2  154.68   11.40
  -4   3   2  154.68   12.90
  -4   3   2  161.88   12.90
  -4   3   2  140.69   13.50
   4   3  -2  148.89   11.30
   4   3  -2  130.39   11.20
  -3  -3   2  198.38   11.70
   3  -3  -2  209.78   12.10
   3  -3  -2  179.68   12.20
  -3  -3   2  212.08   11.70
   3  -3  -2  211.88   12.60
  -3  -3   2  206.98   10.60
  -3  -3   2  200.58   11.70
  -3  -3   2  196.98   10.60
  -3  -3   2  208.88   11.80
   3  -3  -2  203.38   12.30
   3  -3  -2  205.68   11.90
   3  -3  -2  206.88   11.90
   3   3  -2  198.78   11.40
  -3   3   2  193.98   12.50
  -3   3   2  195.18   12.40
   3   3  -2  202.78   11.80
   3   3  -2  187.98   11.70
  -3   3   2  205.68   11.60
  -3   3   2  167.08   11.50
  -3   3   2  206.18   12.40
   3   3  -2  191.78   11.40
  -3   3   2  208.18   12.40
   3   3  -2  188.08   11.50
  -2  -3   2   37.20    3.80
   2  -3  -2   42.70    4.50
   2  -3  -2   45.60    4.30
  -2  -3   2   41.30    3.10
  -2  -3   2   38.70    3.80
  -2  -3   2   36.70    3.80
  -2  -3   2   42.70    3.00
   2  -3  -2   38.50    4.00
   2  -3  -2   41.40    4.10
   2  -3  -2   33.50    4.40
   2  -3  -2   38.70    4.40
  -2   3   2   40.70    4.60
   2   3  -2   41.50    3.60
  -2   3   2   32.70    4.50
   2   3  -2   37.60    3.60
   2   3  -2   40.60    3.80
   2   3  -2   43.20    4.00
   2   3  -2   38.00    3.60
  -2   3   2   38.60    4.10
   2   3  -2   40.60    3.70
  -2   3   2   35.60    3.90
  -2   3   2   37.40    4.40
  -2   3   2   42.20    4.10
  -1  -3   2   44.70    2.90
  -1  -3   2   41.90    2.90
   1  -3  -2   49.70    3.40
   1  -3  -2   47.20    3.60
  -1  -3   2   49.60    2.90
   1  -3  -2   50.69    3.70
   1  -3  -2   49.60    3.60
  -1  -3   2   47.00    2.90
   1  -3  -2   49.50    3.50
   1  -3  -2   51.59    3.40
  -1   3   2   45.80    3.70
   1   3  -2   44.10    2.90
   1   3  -2   45.70    2.70
  -1   3   2   49.20    3.60
  -1   3   2   50.99    3.40
   1   3  -2   56.79    2.90
   1   3  -2   47.70    2.90
  -1   3   2   49.40    3.40
  -1   3   2   45.70    3.60
  -1   3   2   51.79    3.70
   1   3  -2   46.60    2.70
   1   3  -2   46.80    3.00
   0  -3   2  810.02   35.50
   0  -3  -2  782.32   35.80
   0  -3  -2  839.02   36.00
   0  -3  -2  801.02   35.90
   0  -3   2  795.42   35.50
   0  -3  -2  772.12   35.80
   0  -3   2  798.72   35.50
   0  -3  -2  761.82   35.90
   0   3   2  727.23   35.90
   0   3  -2  779.72   35.40
   0   3  -2  783.12   35.30
   0   3  -2  810.32   35.50
   0   3   2  792.02   35.90
   0   3   2  802.92   36.00
   0   3  -2  869.81   35.50
   0   3   2  716.43   35.80
   0   3   2  796.22   35.80
   0   3  -2  798.72   35.40
   0   3   2  759.22   35.80
   0   3  -2  808.22   35.50
  -1  -3  -2 1570.34   71.49
  -1  -3  -2 1570.84   71.69
  -1  -3  -2 1684.03   71.79
   1  -3   2 1530.95   71.69
  -1  -3  -2 1662.53   71.79
   1  -3   2 1551.54   71.49
   1  -3   2 1621.14   71.89
   1  -3   2 1593.54   71.79
   1  -3   2 1669.23   71.89
   1  -3   2 1560.04   71.49
  -1  -3  -2 1562.44   71.49
  -1  -3  -2 1637.44   71.79
  -1   3  -2 1535.35   71.79
   1   3   2 1574.34   71.69
   1   3   2 1593.14   71.69
  -1   3  -2 1542.45   71.79
  -1   3  -2 1598.14   71.79
   1   3   2 1592.84   71.59
   1   3   2 1592.94   71.49
  -1   3  -2 1528.45   71.69
   1   3   2 1592.94   71.69
   1   3   2 1632.04   71.79
  -1   3  -2 1560.64   71.59
  -1   3  -2 1595.94   71.59
   2  -3   2 2833.32  123.99
  -2  -3  -2 2730.03  123.79
  -2  -3  -2 2750.82  123.69
  -2  -3  -2 2619.74  123.29
  -2  -3  -2 2612.44  123.49
   2  -3   2 2795.42  123.49
  -2  -3  -2 2644.74  123.59
   2  -3   2 2744.53  123.89
   2  -3   2 2763.92  123.99
   2  -3   2 2767.72  123.89
   2  -3   2 2796.52  123.49
  -2  -3  -2 2682.83  123.19
  -2   3  -2 2605.34  123.49
   2   3   2 2845.62  123.69
  -2   3  -2 2785.22  123.89
   2   3   2 2724.53  123.59
   2   3   2 2769.62  123.79
  -2   3  -2 2636.44  123.89
   2   3   2 2720.03  123.29
  -2   3  -2 2852.41  123.89
   2   3   2 2692.13  123.69
   2   3   2 2759.12  123.49
  -2   3  -2 2944.21  124.09
   3  -3   2   14.60    4.60
  -3  -3  -2    8.10    3.50
  -3  -3  -2   13.10    3.30
  -3  -3  -2   11.30    3.80
   3  -3   2    8.10    3.90
  -3  -3  -2   13.10    3.30
   3  -3   2   11.20    4.20
   3  -3   2    7.40    3.20
   3  -3   2   16.00    4.10
  -3  -3  -2   13.70    4.20
   3  -3   2    8.00    3.80
  -3  -3  -2    6.00    3.60
   3   3   2    9.90    3.50
  -3   3  -2   10.70    4.20
   3   3   2    9.40    3.20
  -3   3  -2    9.40    3.70
  -3   3  -2   10.00    4.10
  -3   3  -2   10.70    4.10
  -3   3  -2   18.30    4.60
   3   3   2   15.10    3.50
   3   3   2   10.10    4.30
   3   3   2    9.90    3.60
   3   3   2    7.80    3.60
  -3   3  -2   10.40    3.70
  -4  -3  -2   -9.50    4.80
   4  -3   2    2.10    5.90
   4  -3   2    2.40    5.40
   4  -3   2   -5.50    6.30
  -4  -3  -2   -5.50    6.00
   4  -3   2    0.80    6.20
   4  -3   2   11.60    5.90
  -4  -3  -2   -3.70    5.20
   4  -3   2   -4.30    5.10
  -4  -3  -2   -3.40    5.80
  -4  -3  -2    5.60    6.60
  -4   3  -2   -6.60    6.10
  -4   3  -2   -1.50    5.40
   4   3   2   -1.30    6.00
  -4   3  -2    2.30    5.90
   4   3   2   -8.20    5.10
  -4   3  -2   -2.50    6.60
   4   3   2   -2.60    6.00
   4   3   2    7.00    5.50
   4   3   2   -0.40    5.90
  -4   3  -2   -1.40    6.60
   4   3   2    6.60    5.70
  -4   3  -2    3.70    6.20
   4  -4  -2  385.06   21.20
  -4  -4   2  385.26   19.00
   4  -4  -2  391.56   22.40
   4  -4  -2  389.26   22.30
   4  -4  -2  363.46   22.10
   4  -4  -2  388.66   21.70
  -4  -4   2  372.56   20.80
  -4  -4   2  368.66   18.90
  -4  -4   2  358.66   21.10
   4  -4  -2  379.96   21.30
  -4  -4   2  357.46   20.90
  -4   4   2  378.86   22.00
  -4   4   2  361.66   22.20
   4   4  -2  371.26   20.70
  -4   4   2  360.76   21.70
  -4   4   2  376.26   22.60
   4   4  -2  370.76   21.10
  -4   4   2  369.26   20.80
  -4   4   2  387.46   21.30
   4   4  -2  350.26   20.60
   4   4  -2  368.26   20.90
   4   4  -2  394.46   20.50
   4   4  -2  374.16   20.80
   3  -4  -2  450.85   24.60
  -3  -4   2  497.15   22.80
   3  -4  -2  479.95   24.10
  -3  -4   2  478.35   24.00
   3  -4  -2  521.25   24.90
   3  -4  -2  531.05   24.70
  -3  -4   2  464.05   23.80
  -3  -4   2  439.06   23.90
  -3  -4   2  491.85   23.90
   3  -4  -2  460.75   24.10
   3  -4  -2  484.95   24.80
  -3  -4   2  461.25   22.80
   3   4  -2  486.75   23.80
  -3   4   2  494.25   25.00
  -3   4   2  441.36   24.50
  -3   4   2  508.45   24.10
   3   4  -2  484.25   23.70
   3   4  -2  489.55   23.70
  -3   4   2  498.85   24.80
   3   4  -2  506.95   24.10
   3   4  -2  465.45   23.90
  -3   4   2  465.75   24.40
   3   4  -2  502.95   23.80
  -2  -4   2  307.07   14.70
   2  -4  -2  322.57   16.20
  -2  -4   2  320.07   15.40
   2  -4  -2  285.07   16.00
   2  -4  -2  316.67   15.80
  -2  -4   2  318.97   14.70
   2  -4  -2  311.07   16.10
  -2  -4   2  310.47   15.30
   2  -4  -2  333.27   16.20
  -2  -4   2  319.47   15.50
  -2  -4   2  321.87   15.40
   2  -4  -2  310.17   15.70
  -2   4   2  283.57   16.00
   2   4  -2  331.87   15.50
   2   4  -2  298.87   15.30
  -2   4   2  318.77   15.80
   2   4  -2  310.17   15.20
   2   4  -2  306.87   15.40
   2   4  -2  311.67   15.20
   2   4  -2  322.17   15.30
  -2   4   2  310.07   16.30
  -2   4   2  336.57   16.20
  -2   4   2  330.07   15.80
  -2   4   2  295.17   16.10
  -1  -4   2  150.58    7.10
   1  -4  -2  143.39    7.90
   1  -4  -2  144.79    7.90
   1  -4  -2  146.79    8.00
  -1  -4   2  153.28    7.20
   1  -4  -2  154.48    7.90
   1  -4  -2  141.69    7.60
   1  -4  -2  144.39    7.70
  -1  -4   2  141.09    7.20
  -1  -4   2  146.19    7.10
  -1   4   2  141.99    7.90
  -1   4   2  135.29    7.70
   1   4  -2  145.29    7.10
   1   4  -2  147.99    7.20
  -1   4   2  147.09    8.00
   1   4  -2  149.09    7.20
   1   4  -2  147.49    7.00
  -1   4   2  149.79    8.00
  -1   4   2  146.39    7.90
   1   4  -2  149.88    7.10
   1   4  -2  146.39    7.00
   0  -4   2 2292.37  102.69
   0  -4   2 2403.46  102.79
   0  -4   2 2283.07  102.69
   0  -4  -2 2304.17  103.19
   0  -4   2 2287.37  102.69
   0  -4  -2 2362.86  103.19
   0  -4  -2 2098.49  103.09
   0  -4  -2 2323.67  102.99
   0  -4  -2 2261.37  102.99
   0   4   2 2359.66  102.99
   0   4   2 2267.17  103.09
   0   4  -2 2279.17  102.59
   0   4  -2 2315.47  102.69
   0   4   2 2345.37  103.19
   0   4   2 2340.77  102.99
   0   4  -2 2388.66  102.69
   0   4  -2 2309.17  102.59
   0   4  -2 2299.77  102.69
   0   4   2 2308.47  103.19
   0   4   2 2296.27  103.19
   0   4  -2 2161.38  102.59
  -1  -4  -2  167.48    8.30
   1  -4   2  160.28    8.50
   1  -4   2  161.88    8.20
  -1  -4  -2  156.58    8.40
  -1  -4  -2  171.38    8.60
   1  -4   2  180.78    8.80
  -1  -4  -2  164.98    8.30
  -1  -4  -2  161.48    8.50
   1  -4   2  165.08    8.60
   1  -4   2  162.78    8.30
  -1  -4  -2  166.98    8.60
   1  -4   2  158.78    8.70
   1   4   2  160.58    8.40
   1   4   2  175.28    8.60
  -1   4  -2  162.48    8.40
  -1   4  -2  156.98    8.50
   1   4   2  159.78    8.40
  -1   4  -2  170.68    8.40
  -1   4  -2  149.29    8.60
  -1   4  -2  170.48    8.70
   1   4   2  154.08    8.20
   1   4   2  167.08    8.40
  -1   4  -2  148.19    8.50
   1   4   2  161.78    8.60
  -2  -4  -2  246.98   12.80
   2  -4   2  208.18   12.80
  -2  -4  -2  239.88   12.20
  -2  -4  -2  245.18   12.30
   2  -4   2  241.98   12.50
   2  -4   2  254.57   13.20
   2  -4   2  235.18   13.00
  -2  -4  -2  244.88   12.70
  -2  -4  -2  222.98   12.70
  -2  -4  -2  244.08   12.80
   2  -4   2  240.28   12.90
   2  -4   2  252.07   12.60
   2   4   2  230.78   12.60
   2   4   2  241.58   12.40
  -2   4  -2  244.38   12.70
   2   4   2  225.68   12.70
  -2   4  -2  249.97   13.10
  -2   4  -2  252.67   12.70
   2   4   2  247.78   12.60
   2   4   2  235.38   12.80
  -2   4  -2  234.68   12.80
  -2   4  -2  251.17   13.20
   2   4   2  236.58   12.40
  -2   4  -2  238.58   13.10
  -3  -4  -2  880.81   42.60
   3  -4   2  867.81   42.70
   3  -4   2  921.61   43.10
   3  -4   2  855.21   42.20
  -3  -4  -2  917.51   41.90
  -3  -4  -2  903.21   41.70
   3  -4   2  932.81   42.40
   3  -4   2  890.11   42.80
   3  -4   2  894.91   43.10
  -3  -4  -2  896.01   42.60
  -3  -4  -2  798.12   42.40
  -3  -4  -2  937.41   42.80
   3   4   2  885.41   42.50
   3   4   2  905.91   42.80
  -3   4  -2  915.51   42.90
  -3   4  -2  888.01   43.00
  -3   4  -2  914.01   42.50
   3   4   2  894.01   42.00
  -3   4  -2  896.11   43.10
   3   4   2  871.71   42.30
   3   4   2  909.71   42.20
  -3   4  -2  896.21   42.50
  -3   4  -2  886.31   42.80
   3   4   2  877.01   42.40
  -4  -4  -2  141.29   12.70
   4  -4   2  154.58   13.30
   4  -4   2  155.68   14.20
  -4  -4  -2  143.59   13.40
   4  -4   2  175.58   14.50
  -4  -4  -2  133.29   13.20
   4  -4   2  165.58   13.20
   4  -4   2  170.08   14.10
  -4  -4  -2  154.08   13.50
   4  -4   2  138.29   13.80
  -4  -4  -2  162.28   11.90
  -4   4  -2  179.38   14.50
  -4   4  -2  158.88   12.80
   4   4   2  174.68   13.10
  -4   4  -2  125.19   13.80
   4   4   2  155.48   12.70
  -4   4  -2  160.48   13.50
   4   4   2  149.19   12.40
   4   4   2  167.48   13.80
  -4   4  -2  142.39   13.20
  -4   4  -2  169.38   14.60
   4   4   2  165.78   12.80
  -4  -5   2   10.90    5.40
  -4  -5   2   11.30    5.90
   4  -5  -2   12.50    7.00
  -4  -5   2   -3.20    5.50
   4  -5  -2   19.20    7.10
   4  -5  -2    7.10    6.80
   4  -5  -2   -2.00    5.20
   4  -5  -2   13.40    7.20
  -4  -5   2    4.60    4.90
  -4  -5   2   11.10    3.40
   4  -5  -2    2.70    5.80
   4   5  -2   19.80    5.80
   4   5  -2   16.50    5.10
   4   5  -2   18.40    5.70
   4   5  -2   17.30    5.70
  -4   5   2   -1.90    5.70
   4   5  -2   10.80    5.50
  -4   5   2   18.60    7.70
  -4   5   2    9.20    6.30
  -4   5   2   22.50    7.10
   4   5  -2   15.40    4.60
  -4   5   2    9.80    6.50
  -4   5   2   15.00    7.90
  -3  -5   2  307.97   16.20
   3  -5  -2  313.57   17.20
  -3  -5   2  310.37   14.80
  -3  -5   2  288.57   16.10
   3  -5  -2  328.07   17.50
  -3  -5   2  294.07   14.80
   3  -5  -2  312.47   16.50
   3  -5  -2  316.47   17.20
   3  -5  -2  316.57   17.10
   3   5  -2  302.47   15.90
  -3   5   2  305.17   17.10
   3   5  -2  314.47   15.90
  -3   5   2  294.57   16.50
   3   5  -2  309.87   16.40
  -3   5   2  283.57   17.00
  -3   5   2  305.97   16.50
   3   5  -2  312.27   16.10
   3   5  -2  293.97   15.80
  -3   5   2  304.27   17.30
   3   5  -2  299.37   16.10
  -3   5   2  261.27   16.80
   2  -5  -2    9.90    3.10
  -2  -5   2    4.60    2.20
   2  -5  -2    8.40    2.50
  -2  -5   2    4.90    2.10
  -2  -5   2    6.30    1.20
  -2  -5   2    5.60    2.00
   2  -5  -2   11.60    2.50
   2  -5  -2    4.50    2.50
   2  -5  -2    9.40    2.40
  -2  -5   2    7.00    1.30
   2  -5  -2    9.10    3.00
  -2  -5   2    4.70    1.90
   2   5  -2    2.60    2.00
   2   5  -2    4.80    1.80
  -2   5   2    8.80    2.80
   2   5  -2    5.10    2.20
  -2   5   2    7.60    2.70
  -2   5   2    7.10    2.70
   2   5  -2    3.20    1.80
  -2   5   2    9.50    3.00
  -2   5   2    5.70    2.60
   2   5  -2    4.90    1.70
  -2   5   2   10.80    2.60
   2   5  -2    5.00    1.90
  -1  -5   2  529.95   24.50
  -1  -5   2  529.55   24.40
   1  -5  -2  526.15   25.20
   1  -5  -2  531.75   25.00
  -1  -5   2  552.64   24.50
   1  -5  -2  595.74   25.50
   1  -5  -2  539.15   25.20
   1  -5  -2  556.44   25.30
  -1  -5   2  541.15   24.40
   1  -5  -2  534.15   24.90
  -1   5   2  532.85   25.00
  -1   5   2  493.65   25.20
  -1   5   2  516.35   25.30
   1   5  -2  543.35   24.40
  -1   5   2  543.75   25.20
   1   5  -2  530.95   24.40
   1   5  -2  528.45   24.30
   1   5  -2  524.05   24.40
   1   5  -2  517.35   24.40
  -1   5   2  544.95   25.30
   1   5  -2  526.75   24.30
   0  -5  -2    9.60    1.60
   0  -5   2   11.70    1.00
   0  -5   2    9.20    1.40
   0  -5   2   11.60    1.00
   0  -5  -2    9.50    1.70
   0  -5   2   12.00    1.60
   0  -5  -2   12.90    1.80
   0  -5   2   10.40    1.50
   0  -5  -2   11.70    1.90
   0  -5  -2   13.30    2.00
   0  -5   2   10.60    1.60
   0   5   2    9.90    1.70
   0   5  -2   10.80    1.40
   0   5  -2   10.70    1.40
   0   5  -2   10.40    1.40
   0   5   2   12.40    2.00
   0   5  -2   10.80    1.40
   0   5  -2   11.10    1.50
   0   5   2    9.80    1.70
   0   5   2   12.60    1.80
   0   5   2   11.90    1.90
   0   5   2   13.10    1.80
   0   5  -2    9.70    1.40
   1  -5   2  139.89    7.50
   1  -5   2  141.89    7.40
  -1  -5  -2  144.59    7.50
  -1  -5  -2  140.19    7.70
  -1  -5  -2  139.89    7.80
   1  -5   2  140.19    7.90
  -1  -5  -2  155.08    7.50
  -1  -5  -2  141.19    7.70
   1  -5   2  147.59    8.00
  -1  -5  -2  148.29    7.90
   1  -5   2  141.79    7.90
   1  -5   2  152.98    8.00
   1   5   2  147.09    7.80
  -1   5  -2  135.29    7.80
   1   5   2  143.09    7.80
   1   5   2  144.89    7.70
  -1   5  -2  147.99    7.80
   1   5   2  138.29    7.50
  -1   5  -2  134.99    7.80
  -1   5  -2  141.99    7.60
   1   5   2  137.69    7.60
   1   5   2  152.78    7.90
  -1   5  -2  131.59    7.90
  -1   5  -2  141.49    7.60
  -2  -5  -2  871.41   39.90
  -2  -5  -2  891.81   40.40
  -2  -5  -2  860.91   40.00
   2  -5   2  861.91   40.70
   2  -5   2  863.81   40.70
   2  -5   2  893.51   40.30
   2  -5   2  916.01   40.90
   2  -5   2  895.91   40.40
  -2  -5  -2  815.22   40.40
   2  -5   2  776.92   40.70
  -2  -5  -2  813.32   40.30
  -2  -5  -2  909.61   40.60
   2   5   2  865.71   40.60
  -2   5  -2  853.71   40.40
  -2   5  -2  909.01   40.50
  -2   5  -2  855.21   40.80
   2   5   2  849.81   40.50
   2   5   2  868.51   40.10
  -2   5  -2  854.01   40.70
   2   5   2  870.41   40.20
  -2   5  -2  980.10   41.10
   2   5   2  849.91   40.30
  -2   5  -2  839.22   40.80
   2   5   2  849.91   40.30
   3  -5   2   20.60    4.90
  -3  -5  -2   20.60    3.80
  -3  -5  -2   15.00    4.10
   3  -5   2   22.60    4.50
   3  -5   2   12.70    4.20
   3  -5   2   21.40    4.80
   3  -5   2   17.00    5.20
  -3  -5  -2   18.10    5.00
  -3  -5  -2   16.40    3.40
   3  -5   2   15.60    5.00
  -3  -5  -2   15.90    3.90
  -3  -5  -2   15.30    6.40
   3   5   2   18.00    4.50
  -3   5  -2   16.10    5.10
  -3   5  -2   11.60    5.10
   3   5   2   17.90    3.70
   3   5   2   15.60    4.00
  -3   5  -2   15.60    4.80
  -3   5  -2   17.50    4.00
   3   5   2   16.60    3.70
   3   5   2    9.00    4.40
   3   5   2   19.50    4.30
  -3   5  -2   12.30    4.40
   4  -5   2   11.60    6.90
   4  -5   2   10.70    7.00
   4  -5   2   15.30    7.30
  -4  -5  -2    5.10    5.10
  -4  -5  -2   10.00    4.80
  -4  -5  -2    9.30    6.10
  -4  -5  -2   12.30    6.60
   4  -5   2    9.90    7.50
   4  -5   2   11.00    5.90
   4  -5   2    9.20    6.60
  -4  -5  -2   11.50    6.10
  -4  -5  -2    2.80    6.80
   4   5   2    8.90    6.60
   4   5   2   24.60    6.50
  -4   5  -2    4.10    6.90
  -4   5  -2   18.80    7.90
  -4   5  -2   14.00    7.40
   4   5   2    9.90    5.80
   4   5   2    7.30    5.30
  -4   5  -2    8.60    7.70
  -4   5  -2   19.40    7.20
  -4   5  -2   17.90    6.70
   4   5   2    9.30    5.60
   4  -6  -2  192.18   15.90
   4  -6  -2  194.48   14.10
  -4  -6   2  186.78   10.50
   4  -6  -2  200.68   14.40
  -4  -6   2  198.08   14.10
   4  -6  -2  171.98   14.80
  -4  -6   2  195.58   13.80
  -4  -6   2  191.28   13.40
   4  -6  -2  185.88   15.00
   4  -6  -2  209.08   15.70
   4   6  -2  197.18   13.10
  -4   6   2  188.88   14.70
  -4   6   2  188.28   14.60
   4   6  -2  192.78   13.50
  -4   6   2  159.38   16.00
   4   6  -2  197.38   13.50
   4   6  -2  203.48   13.80
   4   6  -2  160.88   13.10
  -4   6   2  187.58   15.70
  -4   6   2  168.68   16.30
  -4   6   2  170.78   14.80
   3  -6  -2  173.58   12.30
   3  -6  -2  173.58   11.60
   3  -6  -2  185.78   12.40
  -3  -6   2  178.18   11.10
  -3  -6   2  173.98    9.30
   3  -6  -2  191.78   12.70
  -3  -6   2  182.78   11.00
   3  -6  -2  193.88   12.20
  -3  -6   2  184.58    9.30
  -3   6   2  155.78   12.50
   3   6  -2  195.48   10.90
   3   6  -2  183.08   10.80
  -3   6   2  177.08   12.10
  -3   6   2  183.88   11.80
  -3   6   2  182.68   12.10
   3   6  -2  180.08   10.80
   3   6  -2  183.98   11.00
  -3   6   2  184.28   12.40
   3   6  -2  179.88   10.60
  -3   6   2  198.28   12.60
   3   6  -2  191.58   11.20
   2  -6  -2  144.69    8.20
  -2  -6   2  135.39    7.50
  -2  -6   2  134.19    7.50
   2  -6  -2  147.99    8.60
  -2  -6   2  124.89    7.40
   2  -6  -2  131.09    8.50
   2  -6  -2  130.99    8.70
  -2  -6   2  128.29    6.20
   2  -6  -2  123.49    8.10
   2  -6  -2  130.19    8.70
  -2  -6   2  125.79    7.50
   2   6  -2  129.29    7.30
   2   6  -2  130.19    7.20
   2   6  -2  128.29    7.30
  -2   6   2  128.99    8.70
  -2   6   2  133.39    8.80
  -2   6   2  117.19    8.10
  -2   6   2  133.69    8.90
  -2   6   2  133.19    8.20
   2   6  -2  130.69    7.50
  -2   6   2  124.89    8.30
   2   6  -2  136.79    7.70
   2   6  -2  125.09    7.30
   1  -6  -2  473.15   24.50
   1  -6  -2  538.75   24.60
  -1  -6   2  501.25   23.70
   1  -6  -2  518.45   24.30
   1  -6  -2  524.35   24.20
  -1  -6   2  515.85   23.70
  -1  -6   2  532.95   23.70
  -1  -6   2  480.85   23.70
   1  -6  -2  546.95   24.70
   1  -6  -2  525.65   24.60
   1   6  -2  543.15   23.70
  -1   6   2  523.05   24.30
  -1   6   2  563.94   24.70
   1   6  -2  516.25   23.70
  -1   6   2  491.05   24.40
   1   6  -2  483.65   23.50
  -1   6   2  477.35   24.50
   1   6  -2  492.65   23.70
   1   6  -2  507.85   23.50
  -1   6   2  514.05   24.30
  -1   6   2  545.95   24.80
   0  -6  -2 5021.40  235.68
   0  -6  -2 5248.27  235.48
   0  -6  -2 5348.06  235.78
   0  -6   2 5189.48  235.28
   0  -6   2 5206.98  235.28
   0  -6   2 5340.37  235.28
   0  -6  -2 5339.57  235.78
   0  -6  -2 5256.57  235.48
   0  -6   2 5198.18  235.28
   0   6  -2 5334.07  235.08
   0   6   2 5219.98  235.68
   0   6   2 5347.17  235.78
   0   6   2 5286.77  235.48
   0   6  -2 5345.56  235.28
   0   6   2 5325.57  235.78
   0   6  -2 5240.68  235.08
   0   6   2 5264.97  235.78
   0   6  -2 5273.47  235.28
   0   6  -2 5425.66  235.28
   0   6  -2 5269.07  235.28
   0   6   2 5282.87  235.58
   1  -6   2    0.40    1.50
  -1  -6  -2   -0.20    1.60
  -1  -6  -2   -1.50    1.40
   1  -6   2    0.90    1.30
  -1  -6  -2   -1.30    1.20
   1  -6   2    0.80    1.30
   1  -6   2   -1.40    1.70
  -1  -6  -2    0.90    1.30
   1  -6   2    5.00    2.00
  -1  -6  -2    0.50    1.50
   1  -6   2   -1.40    1.70
  -1  -6  -2   -0.40    1.50
   1   6   2    3.70    1.40
  -1   6  -2    2.00    1.50
   1   6   2   -0.50    1.20
  -1   6  -2   -0.10    1.40
  -1   6  -2    0.10    1.50
  -1   6  -2    2.10    1.70
  -1   6  -2   -0.70    1.60
   1   6   2   -1.10    1.50
   1   6   2   -0.50    1.40
   1   6   2    0.00    1.60
  -1   6  -2   -0.40    1.80
   1   6   2    1.20    1.60
   2  -6   2  178.08    9.60
   2  -6   2  154.48   10.10
  -2  -6  -2  166.88    9.20
  -2  -6  -2  175.28    9.80
   2  -6   2  155.68   10.20
  -2  -6  -2  184.98   10.00
   2  -6   2  166.58   10.00
   2  -6   2  177.08    9.70
  -2  -6  -2  160.68    9.00
  -2  -6  -2  167.08    9.70
  -2  -6  -2  171.98    9.70
   2  -6   2  162.08   10.00
   2   6   2  172.88    9.80
  -2   6  -2  139.89   10.20
  -2   6  -2  159.28   10.30
  -2   6  -2  171.38   10.20
   2   6   2  174.18    9.40
   2   6   2  164.08    9.90
   2   6   2  162.08    9.40
   2   6   2  167.78    9.50
  -2   6  -2  165.68    9.90
  -2   6  -2  154.18    9.60
  -2   6  -2  164.28    9.80
   2   6   2  171.08    9.60
  -3  -6  -2   10.20    3.40
   3  -6   2   10.00    4.60
   3  -6   2    8.00    4.50
  -3  -6  -2   12.50    4.00
  -3  -6  -2    7.00    4.30
   3  -6   2   16.30    4.20
  -3  -6  -2   10.90    3.10
   3  -6   2    8.60    4.00
  -3  -6  -2   11.20    4.10
   3  -6   2   14.10    4.60
  -3  -6  -2   11.30    4.60
   3  -6   2    7.90    4.40
  -3   6  -2    9.50    4.60
  -3   6  -2   19.50    5.60
   3   6   2    7.90    3.50
   3   6   2    9.80    3.40
   3   6   2    9.80    4.00
   3   6   2   11.30    3.40
  -3   6  -2   20.20    4.20
  -3   6  -2   14.00    4.90
   3   6   2    7.20    4.20
   3   6   2    7.10    3.60
  -3   6  -2   12.40    4.50
   4  -6   2  119.79   14.00
  -4  -6  -2  103.09   10.00
  -4  -6  -2  152.58   13.10
   4  -6   2  158.88   14.10
  -4  -6  -2  119.89   10.90
   4  -6   2  122.99   13.10
   4  -6   2  123.89   14.20
   4  -6   2  125.39   14.20
  -4  -6  -2  125.19   12.90
  -4  -6  -2  132.69   12.80
   4  -6   2  120.59   12.30
  -4   6  -2  122.29   13.40
  -4   6  -2  144.89   14.00
   4   6   2  109.29   11.90
   4   6   2  145.99   13.00
  -4   6  -2  157.18   14.40
  -4   6  -2  136.59   15.50
   4   6   2  129.69   11.70
   4   6   2  144.59   12.20
   4   6   2  137.09   12.60
  -4   6  -2  137.69   12.80
  -4   6  -2  106.19   14.20
   4   6   2  119.59   12.20
   4  -7  -2  391.26   22.90
   4  -7  -2  402.76   23.70
   4  -7  -2  361.36   22.60
  -4  -7   2  392.26   21.80
  -4  -7   2  378.86   21.40
   4  -7  -2  353.96   21.80
   4  -7  -2  360.46   23.40
   4  -7  -2  425.56   23.20
  -4  -7   2  385.86   21.20
  -4   7   2  373.26   22.50
   4   7  -2  379.76   20.90
   4   7  -2  372.76   20.80
   4   7  -2  401.56   21.40
  -4   7   2  383.56   22.30
  -4   7   2  360.66   22.30
   4   7  -2  388.16   21.20
  -4   7   2  375.56   23.30
  -4   7   2  377.96   24.10
   4   7  -2  399.06   21.40
  -4   7   2  359.26   23.70
   4   7  -2  367.16   21.30
   3  -7  -2   10.00    5.10
  -3  -7   2    6.70    1.60
  -3  -7   2    5.60    3.50
  -3  -7   2    6.10    3.60
   3  -7  -2    6.80    5.00
  -3  -7   2    4.80    3.20
   3  -7  -2    8.60    4.00
   3  -7  -2   11.80    5.30
  -3  -7   2    5.90    1.60
   3  -7  -2    6.80    4.40
   3   7  -2    6.00    3.40
   3   7  -2    7.40    3.60
  -3   7   2   14.90    5.20
  -3   7   2    7.60    4.60
  -3   7   2   12.50    5.20
  -3   7   2   13.20    4.20
   3   7  -2    6.60    3.30
   3   7  -2    6.70    3.30
  -3   7   2    4.30    4.40
   3   7  -2    4.00    3.10
   3   7  -2    6.50    3.00
  -2  -7   2    5.00    1.80
  -2  -7   2    8.30    2.20
  -2  -7   2    1.90    2.00
   2  -7  -2    6.40    3.30
   2  -7  -2    2.50    3.00
  -2  -7   2    3.60    2.20
   2  -7  -2    1.90    2.40
   2  -7  -2    4.30    2.90
   2  -7  -2    4.20    2.60
   2  -7  -2    6.30    3.20
   2   7  -2    6.00    1.80
  -2   7   2    3.00    3.10
  -2   7   2    6.20    2.60
   2   7  -2    4.40    2.10
   2   7  -2    4.20    2.20
  -2   7   2   -2.90    3.30
   2   7  -2    5.80    1.80
   2   7  -2    4.70    1.80
  -2   7   2    7.10    2.70
   2   7  -2    6.20    1.90
  -2   7   2    8.50    3.20
  -2   7   2    4.30    3.10
   1  -7  -2   35.90    3.80
   1  -7  -2   41.10    4.00
   1  -7  -2   34.10    4.10
   1  -7  -2   41.90    4.30
  -1  -7   2   36.10    2.80
   1  -7  -2   35.90    4.10
  -1  -7   2   35.70    3.00
  -1  -7   2   39.40    3.10
   1  -7  -2   38.10    3.80
  -1  -7   2   33.20    2.90
   1   7  -2   33.60    2.80
   1   7  -2   35.40    2.80
  -1   7   2   28.50    3.90
  -1   7   2   35.00    4.10
  -1   7   2   37.30    4.00
   1   7  -2   35.00    2.80
   1   7  -2   34.30    2.90
  -1   7   2   36.40    3.80
   1   7  -2   38.90    2.80
   1   7  -2   37.20    3.00
  -1   7   2   38.90    3.80
  -1   7   2   35.90    4.10
   0  -7  -2   10.50    2.30
   0  -7  -2    9.70    2.30
   0  -7  -2    8.00    1.80
   0  -7  -2    7.70    2.00
   0  -7   2   11.80    1.40
   0  -7   2   11.20    1.80
   0  -7  -2   10.30    1.80
   0  -7   2   12.50    1.40
   0  -7   2   11.30    1.80
   0  -7   2    9.90    1.70
   0  -7   2   12.10    1.70
   0   7  -2   12.50    1.90
   0   7   2   11.30    2.20
   0   7   2   11.20    2.20
   0   7  -2   10.30    1.60
   0   7   2    9.40    2.20
   0   7  -2   10.40    1.70
   0   7   2    8.40    2.20
   0   7   2   11.20    2.30
   0   7  -2   12.10    1.70
   0   7   2   12.40    2.10
   0   7  -2   15.10    2.00
   0   7  -2    9.70    1.70
  -1  -7  -2  311.57   14.40
  -1  -7  -2  299.67   14.90
   1  -7   2  296.17   14.40
  -1  -7  -2  287.07   14.40
   1  -7   2  294.47   15.00
   1  -7   2  293.57   14.90
  -1  -7  -2  293.97   14.80
  -1  -7  -2  302.37   14.90
   1  -7   2  296.07   14.90
   1  -7   2  289.67   14.30
  -1  -7  -2  282.87   14.90
   1  -7   2  302.27   15.00
  -1   7  -2  283.87   14.60
   1   7   2  305.47   14.60
  -1   7  -2  306.87   15.00
   1   7   2  303.57   14.90
  -1   7  -2  288.97   14.60
   1   7   2  317.57   15.00
  -1   7  -2  275.57   14.90
  -1   7  -2  299.37   14.80
   1   7   2  322.37   14.90
  -1   7  -2  274.47   14.80
   1   7   2  296.77   14.90
   1   7   2  290.87   14.60
  -2  -7  -2   48.00    5.00
   2  -7   2   49.30    5.90
   2  -7   2   43.80    5.70
   2  -7   2   49.20    5.90
   2  -7   2   43.90    5.10
  -2  -7  -2   52.59    4.50
  -2  -7  -2   49.30    5.20
  -2  -7  -2   51.69    5.40
  -2  -7  -2   54.19    5.30
  -2  -7  -2   54.59    4.40
   2  -7   2   51.39    6.00
   2  -7   2   50.89    5.00
   2   7   2   49.80    4.90
   2   7   2   50.49    4.80
  -2   7  -2   54.29    5.60
  -2   7  -2   53.19    6.00
  -2   7  -2   54.39    5.40
   2   7   2   53.79    5.10
   2   7   2   48.70    4.80
  -2   7  -2   55.29    6.20
  -2   7  -2   64.29    6.40
   2   7   2   47.40    5.40
   2   7   2   50.29    5.30
  -2   7  -2   58.29    5.50
   3  -7   2  270.67   15.70
  -3  -7  -2  278.77   15.80
   3  -7   2  249.78   15.70
  -3  -7  -2  267.47   15.80
   3  -7   2  259.77   16.60
   3  -7   2  276.17   16.40
  -3  -7  -2  265.47   14.50
  -3  -7  -2  288.27   14.80
   3  -7   2  275.67   16.90
  -3  -7  -2  294.87   16.10
   3  -7   2  280.77   16.70
  -3   7  -2  300.67   16.90
  -3   7  -2  261.47   17.00
  -3   7  -2  272.17   16.10
   3   7   2  296.77   15.60
  -3   7  -2  287.17   16.10
   3   7   2  293.17   16.30
  -3   7  -2  234.88   16.50
   3   7   2  274.67   15.50
   3   7   2  278.77   15.80
   3   7   2  287.87   15.50
   3   7   2  286.97   15.50
   4  -7   2   82.59   11.50
   4  -7   2   65.99    8.70
   4  -7   2   72.49   11.30
   4  -7   2  108.39   13.40
  -4  -7  -2   62.59    8.70
   4  -7   2   83.39   11.30
   4  -7   2   87.69   12.80
  -4  -7  -2   81.29   11.40
  -4  -7  -2   78.49   11.80
  -4  -7  -2   91.79    9.60
  -4  -7  -2   85.79   11.80
  -4   7  -2   82.89   11.50
   4   7   2  101.19   11.40
   4   7   2   93.69   11.20
   4   7   2   69.69    8.60
   4   7   2   79.19   11.80
  -4   7  -2   66.99   10.10
   4   7   2   80.09   10.70
  -4   7  -2   68.39    9.90
  -4   7  -2  100.49   12.40
  -4   7  -2   91.49   12.10
   4   7   2   81.99   11.20
  -4   7  -2   79.09    9.60
   4  -8  -2   11.30    8.30
  -4  -8   2    5.00    6.00
  -4  -8   2    3.30    6.60
   4  -8  -2    4.70    5.80
   4  -8  -2    7.60    8.50
  -4  -8   2    7.90    5.60
   4  -8  -2    9.80    6.90
   4  -8  -2    8.40    7.90
  -4  -8   2   -1.90    6.10
   4  -8  -2    1.00    6.60
  -4   8   2   13.90    8.50
  -4   8   2   14.00    8.10
   4   8  -2    4.00    5.70
   4   8  -2    6.30    5.80
   4   8  -2    1.80    5.80
  -4   8   2    2.60    8.00
  -4   8   2   -6.10    7.70
  -4   8   2    6.40    6.40
   4   8  -2    7.90    4.90
   4   8  -2    1.40    5.70
   4   8  -2   10.80    5.50
   3  -8  -2  157.58   11.00
  -3  -8   2  163.78   10.30
   3  -8  -2  164.58   11.50
   3  -8  -2  154.78   11.70
  -3  -8   2  146.39    9.90
   3  -8  -2  141.29   11.90
   3  -8  -2  138.39   12.00
  -3  -8   2  155.88    9.90
  -3   8   2  148.19   12.10
  -3   8   2  143.19   12.30
   3   8  -2  163.18    9.60
   3   8  -2  160.38   10.00
  -3   8   2  150.38   11.40
  -3   8   2  152.28   11.90
   3   8  -2  160.18    9.60
   3   8  -2  164.98   10.30
   3   8  -2  153.98   10.00
  -3   8   2  148.79   11.80
   3   8  -2  150.18   10.20
   2  -8  -2  223.18   12.20
  -2  -8   2  181.28   11.20
   2  -8  -2  236.08   13.00
   2  -8  -2  205.88   12.90
   2  -8  -2  227.78   12.80
  -2  -8   2  225.68   11.40
   2  -8  -2  196.58   12.20
  -2  -8   2  220.48   11.60
   2  -8  -2  218.68   12.90
  -2  -8   2  233.38   11.50
   2   8  -2  205.68   11.50
   2   8  -2  221.38   11.40
   2   8  -2  229.08   11.50
   2   8  -2  222.58   11.30
   2   8  -2  218.68   11.30
  -2   8   2  217.98   13.00
  -2   8   2  220.88   13.30
  -2   8   2  245.88   12.60
  -2   8   2  208.38   12.70
   2   8  -2  230.08   11.30
  -2   8   2  220.38   12.40
  -2   8   2  203.88   12.70
   1  -8  -2  240.48   13.20
  -1  -8   2  249.88   12.30
   1  -8  -2  242.68   13.20
   1  -8  -2  247.98   13.30
  -1  -8   2  255.77   12.30
   1  -8  -2  272.07   13.60
   1  -8  -2  252.77   12.90
  -1  -8   2  245.78   12.30
   1  -8  -2  242.88   12.80
  -1  -8   2  260.67   12.30
  -1   8   2  238.38   13.20
  -1   8   2  250.77   13.00
   1   8  -2  245.78   12.20
   1   8  -2  234.18   12.10
  -1   8   2  246.48   13.40
   1   8  -2  273.47   12.20
  -1   8   2  242.78   12.90
   1   8  -2  253.37   12.10
   1   8  -2  257.77   12.30
  -1   8   2  257.17   13.40
   1   8  -2  243.38   12.20
  -1   8   2  239.28   13.20
   0  -8  -2    1.60    1.70
   0  -8   2    0.80    1.60
   0  -8   2    2.90    1.30
   0  -8   2    0.50    0.90
   0  -8  -2    1.50    1.50
   0  -8  -2    0.50    1.80
   0  -8  -2    1.30    1.50
   0  -8  -2    1.30    1.70
   0  -8   2    2.20    1.50
   0  -8   2    0.90    1.50
   0  -8   2    0.80    0.90
   0   8  -2    1.90    1.40
   0   8   2    0.90    1.70
   0   8  -2    0.60    1.40
   0   8   2    1.40    1.90
   0   8  -2    0.00    1.30
   0   8  -2    1.30    1.40
   0   8   2    0.60    1.90
   0   8  -2    0.10    1.30
   0   8   2    0.60    1.80
   0   8  -2    1.60    1.50
   0   8   2    0.50    1.70
   0   8   2   -0.50    1.80
   1  -8   2  106.89    6.80
   1  -8   2  100.89    6.90
  -1  -8  -2  106.99    6.80
  -1  -8  -2  101.89    6.80
  -1  -8  -2  112.49    6.90
  -1  -8  -2  103.99    6.70
   1  -8   2  104.59    6.20
   1  -8   2   93.89    6.80
  -1  -8  -2  104.99    6.20
   1  -8   2   97.39    6.80
   1  -8   2  106.69    6.20
  -1  -8  -2  102.09    6.10
   1   8   2  102.59    6.40
  -1   8  -2   99.19    6.50
  -1   8  -2  108.89    6.90
  -1   8  -2   96.89    6.80
   1   8   2  100.29    6.40
   1   8   2  104.39    6.70
   1   8   2  107.69    6.70
  -1   8  -2  108.99    7.00
   1   8   2  104.99    6.90
  -1   8  -2  103.59    6.50
  -1   8  -2  104.39    6.60
   1   8   2  105.89    6.70
  -2  -8  -2   52.59    5.30
   2  -8   2   46.10    6.20
  -2  -8  -2   41.00    4.40
  -2  -8  -2   45.40    5.30
  -2  -8  -2   40.70    4.90
  -2  -8  -2   41.10    4.10
   2  -8   2   46.10    5.00
   2  -8   2   48.60    6.00
   2  -8   2   36.60    5.20
   2  -8   2   47.50    5.60
  -2  -8  -2   37.30    5.20
   2  -8   2   49.10    5.90
   2   8   2   48.90    5.00
  -2   8  -2   40.00    5.50
  -2   8  -2   42.60    5.50
   2   8   2   37.20    4.80
   2   8   2   43.90    4.90
  -2   8  -2   33.20    4.90
   2   8   2   40.60    5.10
  -2   8  -2   41.50    5.40
  -2   8  -2   45.20    6.10
   2   8   2   50.19    5.10
   2   8   2   41.30    5.50
  -2   8  -2   40.40    5.80
  -3  -8  -2   45.90    5.90
  -3  -8  -2   38.30    5.70
   3  -8   2   53.49    7.40
   3  -8   2   51.59    7.10
  -3  -8  -2   44.30    6.30
  -3  -8  -2   43.60    5.50
   3  -8   2   48.80    7.30
  -3  -8  -2   56.89    7.60
   3  -8   2   47.70    6.90
   3  -8   2   39.30    6.40
   3   8   2   53.89    8.00
   3   8   2   54.19    6.70
  -3   8  -2   53.69    7.60
  -3   8  -2   58.29    7.20
  -3   8  -2   38.10    5.90
   3   8   2   52.19    6.90
   3   8   2   50.19    6.90
  -3   8  -2   56.09    7.50
   3   8   2   52.79    6.50
  -3   8  -2   55.89    7.90
   3   8   2   49.40    7.10
  -3   8  -2   40.10    6.70
  -4  -8  -2    8.90    7.50
   4  -8   2   -0.90    8.40
   4  -8   2   -2.50    6.50
   4  -8   2   -5.30    8.40
  -4  -8  -2    5.00    6.90
   4  -8   2    1.10    6.50
  -4  -8  -2    9.10    8.00
  -4  -8  -2    0.30    5.30
   4  -8   2   16.70    8.40
   4  -8   2   -3.50    7.50
  -4  -8  -2   -2.40    9.20
   4   8   2   -4.10    6.90
  -4   8  -2    0.90    9.30
   4   8   2  -10.50    6.40
  -4   8  -2  -11.20    7.80
  -4   8  -2    5.30    7.50
  -4   8  -2    3.40    9.00
   4   8   2  -12.20    6.50
   4   8   2   -5.50    6.00
   4   8   2    4.10    6.60
   3  -9  -2   35.60    6.30
   3  -9  -2   37.40    5.80
  -3  -9   2   33.50    5.00
   3  -9  -2   26.10    6.10
   3  -9  -2   45.80    7.20
   3  -9  -2   38.40    6.40
   3  -9  -2   27.80    6.40
  -3  -9   2   29.70    5.10
  -3   9   2   39.30    6.80
   3   9  -2   30.80    4.30
  -3   9   2   32.00    6.40
   3   9  -2   30.10    4.40
   3   9  -2   29.50    4.80
  -3   9   2   39.50    5.80
  -3   9   2   37.20    7.70
  -3   9   2   40.70    7.00
   3   9  -2   34.10    5.00
   3   9  -2   33.30    4.60
   3   9  -2   31.70    5.00
   2  -9  -2  858.91   41.90
   2  -9  -2  880.01   41.40
  -2  -9   2  863.21   40.50
   2  -9  -2  862.91   42.00
   2  -9  -2  920.01   41.90
  -2  -9   2  873.51   40.60
   2  -9  -2  868.31   41.80
  -2  -9   2  875.71   40.50
  -2  -9   2  850.71   40.50
   2  -9  -2  895.11   41.20
  -2   9   2  844.42   41.50
  -2   9   2  926.71   42.10
   2   9  -2  896.21   40.40
   2   9  -2  882.81   40.60
  -2   9   2  810.92   41.90
  -2   9   2  946.91   42.20
   2   9  -2  816.12   40.20
   2   9  -2  862.11   40.40
  -2   9   2  909.61   41.50
  -2   9   2  880.21   41.50
   2   9  -2  851.91   40.40
  -1  -9   2  866.31   37.60
   1  -9  -2  783.52   38.50
  -1  -9   2  835.22   37.60
   1  -9  -2  787.72   38.50
   1  -9  -2  839.92   38.70
   1  -9  -2  807.32   38.10
   1  -9  -2  848.32   38.60
  -1  -9   2  821.62   37.60
  -1  -9   2  821.92   37.60
   1  -9  -2  797.52   38.00
   1   9  -2  810.02   37.50
   1   9  -2  798.32   37.40
   1   9  -2  822.12   37.40
  -1   9   2  804.52   38.60
   1   9  -2  814.32   37.50
  -1   9   2  830.92   38.20
  -1   9   2  780.92   38.50
  -1   9   2  795.22   38.10
   1   9  -2  829.12   37.40
  -1   9   2  799.82   38.40
  -1   9   2  849.22   38.80
   1   9  -2  813.52   37.40
   0  -9   2  161.08    8.80
   0  -9  -2  164.18    9.00
   0  -9   2  164.68    9.00
   0  -9  -2  167.38    9.40
   0  -9  -2  165.08    9.60
   0  -9  -2  161.68    9.00
   0  -9   2  169.28    8.10
   0  -9   2  161.98    8.00
   0  -9   2  173.38    9.00
   0  -9  -2  166.88    9.60
   0  -9   2  163.48    9.00
   0   9  -2  162.58    8.70
   0   9   2  163.28    9.70
   0   9   2  165.48    9.50
   0   9  -2  167.38    9.00
   0   9   2  167.58    9.30
   0   9  -2  157.78    8.90
   0   9   2  176.68    9.30
   0   9  -2  164.08    8.70
   0   9   2  169.58    9.60
   0   9  -2  166.68    9.10
   0   9  -2  169.28    8.90
   0   9   2  167.88    9.60
  -1  -9  -2   15.40    3.10
  -1  -9  -2   17.20    3.00
  -1  -9  -2   19.40    2.60
   1  -9   2   18.90    2.60
  -1  -9  -2   16.30    2.50
   1  -9   2   16.00    3.10
   1  -9   2   24.10    2.90
  -1  -9  -2   13.90    2.90
  -1  -9  -2   15.70    3.00
   1  -9   2   16.40    3.30
   1  -9   2   15.80    3.00
   1  -9   2   12.70    3.10
   1   9   2   16.00    2.90
   1   9   2   14.20    2.70
  -1   9  -2   21.60    3.20
  -1   9  -2   15.90    2.80
   1   9   2   18.00    2.90
  -1   9  -2   18.30    3.20
  -1   9  -2   15.80    3.30
   1   9   2   18.30    3.20
   1   9   2   13.10    2.60
   1   9   2   11.60    2.90
  -1   9  -2   14.00    3.00
  -1   9  -2   10.70    2.60
  -2  -9  -2  681.93   33.30
   2  -9   2  685.93   32.90
  -2  -9  -2  674.53   33.40
   2  -9   2  656.23   33.90
   2  -9   2  774.02   34.30
  -2  -9  -2  725.03   33.50
  -2  -9  -2  707.63   33.40
  -2  -9  -2  702.13   32.50
  -2  -9  -2  685.83   32.50
   2  -9   2  675.43   33.80
   2  -9   2  681.23   33.70
   2  -9   2  714.63   33.20
   2   9   2  656.93   33.10
   2   9   2  675.73   33.20
  -2   9  -2  698.93   33.70
  -2   9  -2  718.23   33.90
  -2   9  -2  681.63   33.50
  -2   9  -2  713.73   33.50
   2   9   2  730.63   33.60
   2   9   2  675.53   33.00
  -2   9  -2  699.63   34.10
   2   9   2  707.43   33.20
  -2   9  -2  707.03   34.00
   2   9   2  675.83   33.30
  -3  -9  -2  205.58   11.60
   3  -9   2  205.18   13.50
  -3  -9  -2  204.58   13.30
  -3  -9  -2  186.88   13.30
   3  -9   2  186.18   12.80
   3  -9   2  212.48   14.80
  -3  -9  -2  186.18   13.10
  -3  -9  -2  201.78   11.30
   3  -9   2  189.78   14.40
  -3  -9  -2  196.78   13.20
   3  -9   2  211.28   14.20
  -3   9  -2  217.58   15.10
  -3   9  -2  200.38   14.10
   3   9   2  190.68   12.40
   3   9   2  201.18   12.60
  -3   9  -2  207.08   14.60
  -3   9  -2  190.88   13.40
  -3   9  -2  202.48   14.00
  -3   9  -2  209.88   14.00
   3   9   2  216.98   12.80
   3   9   2  193.48   12.90
   3   9   2  197.38   13.50
   3   9   2  202.58   12.90
   3 -10  -2   72.49    9.40
   3 -10  -2   47.00    7.60
  -3 -10   2   50.69    7.40
  -3 -10   2   53.99    7.20
   3 -10  -2   57.09    8.10
   3 -10  -2   58.69    8.80
   3 -10  -2   49.20    7.00
   3 -10  -2   59.89    7.30
  -3  10   2   47.50    6.70
  -3  10   2   52.49    8.30
  -3  10   2   67.99   11.70
  -3  10   2   62.69    8.50
   3  10  -2   49.60    7.00
  -3  10   2   60.09    9.20
   3  10  -2   52.19    7.20
   3  10  -2   63.69    6.60
   3  10  -2   59.39    6.90
   3  10  -2   53.79    7.40
   3  10  -2   55.39    6.40
  -3  10   2   65.19    8.70
   2 -10  -2   31.30    5.60
   2 -10  -2   32.70    5.30
   2 -10  -2   30.10    5.00
  -2 -10   2   34.70    4.40
   2 -10  -2   37.60    5.10
  -2 -10   2   31.70    4.60
  -2 -10   2   33.90    4.80
   2 -10  -2   40.50    5.10
  -2 -10   2   35.20    4.60
   2 -10  -2   35.40    5.80
   2  10  -2   37.10    4.50
   2  10  -2   35.40    4.30
  -2  10   2   28.80    4.90
  -2  10   2   44.20    6.10
  -2  10   2   47.40    6.40
   2  10  -2   33.50    4.00
  -2  10   2   32.40    5.70
  -2  10   2   44.00    6.20
   2  10  -2   31.30    4.60
   2  10  -2   31.90    4.30
  -2  10   2   30.00    4.90
  -1 -10   2  169.78    9.30
   1 -10  -2  152.58   10.40
   1 -10  -2  162.78   10.30
  -1 -10   2  173.78    9.20
   1 -10  -2  166.58    9.80
   1 -10  -2  162.28   10.40
  -1 -10   2  162.18    9.10
  -1 -10   2  168.28    9.30
   1 -10  -2  171.68    9.90
   1 -10  -2  173.28   10.30
  -1  10   2  179.28   10.10
  -1  10   2  173.68   10.10
   1  10  -2  183.68    9.30
  -1  10   2  166.38   10.30
  -1  10   2  173.18   10.60
   1  10  -2  177.28    9.10
  -1  10   2  161.18   10.50
   1  10  -2  169.08    9.00
  -1  10   2  173.28   10.60
   1  10  -2  178.88    9.30
   1  10  -2  161.48    9.00
   1  10  -2  160.98    9.00
   0 -10  -2  163.18    9.50
   0 -10  -2  169.88    9.50
   0 -10  -2  163.28   10.10
   0 -10   2  171.78    9.60
   0 -10  -2  171.68   10.30
   0 -10   2  183.18    9.70
   0 -10  -2  170.38   10.20
   0 -10  -2  171.18   10.20
   0 -10   2  173.48    8.50
   0 -10   2  173.98    8.50
   0 -10   2  183.58    9.60
   0  10   2  174.48   10.30
   0  10  -2  178.08    9.70
   0  10  -2  171.58    9.40
   0  10   2  175.48    9.90
   0  10   2  176.08   10.00
   0  10  -2  183.08    9.70
   0  10  -2  166.38    9.40
   0  10   2  190.38   10.30
   0  10   2  168.68   10.10
   0  10  -2  169.08    9.50
   0  10  -2  179.88    9.60
   0  10   2  187.28   10.50
   1 -10   2   45.20    5.30
   1 -10   2   44.60    5.10
  -1 -10  -2   45.90    4.20
   1 -10   2   42.00    4.30
  -1 -10  -2   52.49    5.30
  -1 -10  -2   45.10    5.10
  -1 -10  -2   45.50    4.20
   1 -10   2   44.20    4.30
  -1 -10  -2   42.70    5.00
   1 -10   2   53.39    5.20
  -1 -10  -2   45.50    5.20
   1 -10   2   34.20    4.60
   1  10   2   46.90    5.30
   1  10   2   48.10    4.90
   1  10   2   47.40    5.10
   1  10   2   44.40    5.00
  -1  10  -2   40.30    4.90
   1  10   2   55.59    5.20
  -1  10  -2   43.50    5.40
  -1  10  -2   48.20    4.90
  -1  10  -2   48.70    5.50
   1  10   2   48.60    4.90
  -1  10  -2   40.90    5.00
  -1  10  -2   35.80    5.30
  -2 -10  -2  134.99    9.40
   2 -10   2  115.39    8.70
  -2 -10  -2  140.69    9.30
   2 -10   2  147.49    8.90
  -2 -10  -2  131.89    7.90
   2 -10   2  123.19    9.70
   2 -10   2  132.29    9.80
  -2 -10  -2  132.79    8.00
   2 -10   2  124.69   10.20
  -2 -10  -2  129.39    9.20
   2  10   2  126.59    8.70
  -2  10  -2  134.19    9.60
  -2  10  -2  139.29   10.10
   2  10   2  135.79    9.20
   2  10   2  129.89    8.90
  -2  10  -2  134.99    9.30
   2  10   2  123.39    9.00
  -2  10  -2  127.59    9.60
  -2  10  -2  140.19   10.20
  -2  10  -2  133.39   10.50
   2  10   2  141.89    9.70
   2  10   2  131.19    9.20
   3 -10   2   18.60    6.00
  -3 -10  -2   12.00    3.80
   3 -10   2    7.50    6.10
  -3 -10  -2    8.70    3.30
   3 -10   2   11.50    6.50
  -3 -10  -2   10.60    5.00
  -3 -10  -2   11.30    5.30
   3 -10   2   -0.60    5.50
   3 -10   2   13.10    4.80
   3 -10   2    9.60    5.00
  -3 -10  -2    9.40    4.70
  -3 -10  -2   -0.10    5.30
   3  10   2   13.70    4.90
   3  10   2   15.10    5.00
   3  10   2    6.80    4.70
   3  10   2    4.70    4.90
  -3  10  -2    3.10    5.80
  -3  10  -2   13.30    6.10
  -3  10  -2    3.80    6.10
   3  10   2   12.70    4.60
   3  10   2    1.60    4.80
  -3  10  -2    5.30    5.10
  -3  10  -2    6.10    6.60
  -3  10  -2   10.30    6.30
  -3 -11   2   -6.20    4.30
   3 -11  -2   -3.70    5.70
   3 -11  -2   -1.50    5.40
   3 -11  -2   -1.20    6.20
  -3 -11   2    2.30    4.00
  -3 -11   2    2.60    3.80
   3 -11  -2    8.30    7.10
   3 -11  -2    2.00    6.90
   3 -11  -2    0.20    5.90
  -3 -11   2    2.60    4.40
  -3  11   2    0.30    5.90
   3  11  -2   -5.30    3.60
  -3  11   2   -0.40    7.00
   3  11  -2    0.50    4.20
  -3  11   2   -2.00    4.90
  -3  11   2  -10.60    7.20
   3  11  -2    2.60    4.20
  -3  11   2   -5.70    6.20
  -3  11   2   -5.70    6.90
   3  11  -2    3.70    4.10
   3  11  -2    4.70    4.00
   2 -11  -2   25.10    5.10
   2 -11  -2   48.20    6.80
  -2 -11   2   34.40    4.80
   2 -11  -2   32.00    5.60
   2 -11  -2   36.20    5.10
   2 -11  -2   36.50    6.00
  -2 -11   2   37.20    4.40
  -2 -11   2   33.10    4.40
   2 -11  -2   47.70    6.60
   2  11  -2   41.80    4.70
   2  11  -2   33.90    4.90
  -2  11   2   45.10    6.40
  -2  11   2   43.10    6.50
  -2  11   2   30.40    4.70
   2  11  -2   35.60    4.20
  -2  11   2   49.20    6.90
   2  11  -2   36.30    4.30
  -2  11   2   34.40    5.50
   2  11  -2   39.60    4.50
  -2  11   2   36.80    5.80
   2  11  -2   37.40    4.30
   1 -11  -2  264.37   13.80
   1 -11  -2  275.97   14.70
   1 -11  -2  258.77   13.70
   1 -11  -2  258.67   14.40
   1 -11  -2  238.58   14.20
  -1 -11   2  260.67   13.10
   1 -11  -2  239.88   14.20
  -1 -11   2  233.88   13.00
  -1 -11   2  246.58   13.00
  -1 -11   2  233.78   13.00
   1  11  -2  267.87   13.00
  -1  11   2  252.37   14.50
  -1  11   2  254.17   14.60
   1  11  -2  247.38   13.00
  -1  11   2  254.97   14.50
  -1  11   2  239.08   13.90
   1  11  -2  249.68   12.90
  -1  11   2  262.57   14.40
   1  11  -2  252.97   12.90
   1  11  -2  248.68   13.10
  -1  11   2  263.47   14.00
   1  11  -2  266.87   13.10
   0 -11   2  409.16   20.30
   0 -11  -2  397.26   20.70
   0 -11   2  415.86   20.20
   0 -11   2  415.36   19.00
   0 -11  -2  443.46   21.00
   0 -11  -2  408.26   20.10
   0 -11   2  407.06   19.00
   0 -11  -2  412.76   20.90
   0 -11  -2  410.46   20.10
   0 -11   2  413.66   20.40
   0 -11  -2  433.96   21.10
   0  11   2  417.86   20.90
   0  11   2  410.16   21.00
   0  11  -2  417.26   20.20
   0  11   2  432.46   20.90
   0  11   2  412.86   20.80
   0  11  -2  397.36   20.20
   0  11  -2  396.06   20.10
   0  11  -2  393.86   19.90
   0  11  -2  407.86   20.40
   0  11  -2  398.96   20.00
   0  11   2  405.86   20.50
   0  11   2  428.26   20.60
   1 -11   2  750.22   33.30
   1 -11   2  723.93   33.20
   1 -11   2  665.53   33.90
  -1 -11  -2  681.03   34.10
   1 -11   2  725.33   34.20
  -1 -11  -2  709.53   33.20
   1 -11   2  694.63   34.20
   1 -11   2  715.43   34.10
  -1 -11  -2  732.73   34.20
  -1 -11  -2  706.43   33.20
  -1 -11  -2  734.43   34.10
  -1 -11  -2  679.93   34.10
   1  11   2  744.83   34.10
  -1  11  -2  732.13   34.10
  -1  11  -2  765.42   33.90
   1  11   2  702.93   34.00
   1  11   2  697.73   34.10
  -1  11  -2  719.63   34.20
   1  11   2  724.03   33.80
   1  11   2  699.63   33.80
   1  11   2  722.93   34.10
  -1  11  -2  707.43   33.80
  -1  11  -2  644.74   34.00
  -1  11  -2  711.73   33.90
  -2 -11  -2    3.30    2.50
   2 -11   2    5.20    4.30
   2 -11   2    4.30    3.60
   2 -11   2    5.20    3.30
  -2 -11  -2    0.90    2.60
  -2 -11  -2    1.10    3.40
  -2 -11  -2    2.60    3.80
  -2 -11  -2    3.50    5.70
   2 -11   2    1.00    3.30
   2 -11   2    2.80    4.60
  -2  11  -2    6.40    4.10
   2  11   2    3.30    3.30
  -2  11  -2   -0.40    3.50
  -2  11  -2    2.80    4.60
   2  11   2    0.20    3.70
  -2  11  -2    1.40    3.80
   2  11   2   -1.10    3.50
   2  11   2   -2.80    3.30
  -2  11  -2    7.20    4.70
   2  11   2    0.50    3.50
  -2  11  -2    3.80    4.40
  -3 -11  -2   40.20    6.60
   3 -11   2   45.00    7.50
  -3 -11  -2   43.50    7.20
   3 -11   2   62.19    8.90
   3 -11   2   44.30    6.70
  -3 -11  -2   53.39    6.40
  -3 -11  -2   51.89    7.40
   3 -11   2   49.10    6.70
   3 -11   2   55.69    8.80
   3 -11   2   54.69    8.20
  -3  11  -2   57.19    8.80
  -3  11  -2   43.80    7.50
   3  11   2   45.80    6.30
   3  11   2   54.19    6.90
  -3  11  -2   41.40    8.90
  -3  11  -2   44.90    7.40
   3  11   2   52.39    6.80
   3  11   2   46.10    7.20
   3  11   2   55.19    7.50
   3  11   2   69.39    8.70
  -3  11  -2   36.50    7.40
  -3  11  -2   71.09    9.90
  -3 -12   2  149.19   11.20
   3 -12  -2  131.59   13.50
   3 -12  -2  170.48   14.70
   3 -12  -2  153.48   13.00
  -3 -12   2  161.08   11.90
   3 -12  -2  157.38   14.20
   3 -12  -2  173.48   14.70
   3 -12  -2  164.48   15.30
   3  12  -2  151.08   11.50
   3  12  -2  156.68   11.50
   3  12  -2  150.18   11.20
  -3  12   2  140.09   13.30
  -3  12   2  140.59   15.60
  -3  12   2  140.69   14.00
  -3  12   2  137.79   14.80
   3  12  -2  178.78   11.30
  -3  12   2  171.18   16.40
  -3  12   2  174.38   14.50
   3  12  -2  157.88   10.60
   2 -12  -2  116.39   10.60
   2 -12  -2  109.09    9.70
  -2 -12   2  105.19    9.40
   2 -12  -2  100.29   10.00
   2 -12  -2  117.39    9.40
   2 -12  -2   95.39   10.70
  -2 -12   2  111.09    8.00
  -2 -12   2  108.59    8.10
   2  12  -2  103.39    7.90
  -2  12   2  107.19   10.20
  -2  12   2  108.99   10.60
   2  12  -2  102.99    7.70
   2  12  -2  117.79    7.40
  -2  12   2  106.09    9.90
  -2  12   2  100.19    9.20
  -2  12   2  102.99   10.80
   2  12  -2  100.79    7.80
   2  12  -2  112.59    7.80
  -2  12   2   97.39   11.00
   2  12  -2  103.79    7.50
   1 -12  -2   76.79    7.70
   1 -12  -2   79.39    6.80
  -1 -12   2   80.39    5.90
  -1 -12   2   69.79    5.90
   1 -12  -2   70.59    6.70
  -1 -12   2   73.09    6.00
  -1 -12   2   69.09    6.00
   1 -12  -2   63.99    7.10
   1 -12  -2   71.99    7.90
   1  12  -2   81.49    5.90
   1  12  -2   77.29    5.90
  -1  12   2   67.19    7.00
   1  12  -2   69.69    5.90
  -1  12   2   76.69    7.80
  -1  12   2   65.89    7.90
   1  12  -2   71.69    5.90
   1  12  -2   61.59    5.60
  -1  12   2   80.29    7.40
  -1  12   2   75.79    7.40
   1  12  -2   73.39    5.60
  -1  12   2   74.09    8.00
   0 -12  -2 1312.77   58.79
   0 -12   2 1309.47   59.09
   0 -12  -2 1288.07   58.69
   0 -12  -2 1292.37   59.59
   0 -12  -2 1248.78   59.59
   0 -12  -2 1294.37   59.69
   0 -12   2 1215.18   58.89
   0 -12   2 1293.17   57.59
   0 -12  -2 1280.47   59.49
   0 -12   2 1207.68   57.49
   0  12  -2 1290.27   58.99
   0  12  -2 1248.58   58.69
   0  12   2 1295.67   59.19
   0  12   2 1276.87   59.69
   0  12  -2 1326.07   59.19
   0  12   2 1319.87   59.29
   0  12  -2 1336.17   58.99
   0  12   2 1283.67   59.59
   0  12  -2 1269.87   58.79
   0  12   2 1291.57   59.49
   0  12   2 1263.07   59.49
   0  12  -2 1260.17   58.99
  -1 -12  -2    5.30    3.10
   1 -12   2    4.00    3.20
  -1 -12  -2    9.70    2.70
   1 -12   2    5.10    2.60
   1 -12   2    6.70    3.00
   1 -12   2    9.70    4.00
   1 -12   2    4.70    2.50
  -1 -12  -2    7.40    2.50
  -1 -12  -2    0.90    3.80
  -1 -12  -2    1.50    3.50
  -1 -12  -2    8.30    3.70
   1 -12   2    5.30    3.30
  -1  12  -2    6.30    3.10
  -1  12  -2    5.70    3.70
   1  12   2   11.30    3.30
  -1  12  -2   13.60    3.60
   1  12   2    9.90    3.40
   1  12   2    3.50    3.10
  -1  12  -2    8.40    3.40
   1  12   2    2.30    3.40
  -1  12  -2    9.80    3.90
   1  12   2    5.30    3.30
  -1  12  -2    5.10    2.90
   1  12   2    7.80    3.60
  -2 -12  -2  130.79   10.40
  -2 -12  -2  136.29    8.30
   2 -12   2  149.39    9.50
   2 -12   2  137.49    9.70
  -2 -12  -2  127.29   10.00
  -2 -12  -2  132.09    8.10
   2 -12   2  125.09   10.50
   2 -12   2  131.09   10.60
  -2 -12  -2  117.89   14.10
   2 -12   2  133.39   11.30
  -2  12  -2  124.59   11.20
  -2  12  -2  136.19   11.30
   2  12   2  132.59    9.80
   2  12   2  149.99   10.00
  -2  12  -2  133.89   10.30
   2  12   2  135.89   10.60
  -2  12  -2  137.39   10.30
   2  12   2  138.09   10.00
  -2  12  -2  120.89   10.60
   2  12   2  132.89    9.60
  -2  12  -2  127.89   11.60
  -3 -12  -2  223.68   12.40
  -3 -12  -2  195.78   15.10
  -3 -12  -2  206.08   14.50
   3 -12   2  241.18   15.50
   3 -12   2  230.28   15.00
  -3 -12  -2  203.18   15.00
   3 -12   2  212.78   17.30
   3 -12   2  221.98   17.10
   3 -12   2  235.68   17.00
   3 -12   2  226.48   16.60
   3  12   2  207.88   14.90
   3  12   2  214.98   15.20
   3  12   2  223.98   15.20
   3  12   2  216.18   14.80
  -3  12  -2  244.98   16.00
   3  12   2  232.98   15.20
  -3  12  -2  221.28   17.00
  -3  12  -2  236.68   18.30
  -3  12  -2  210.88   16.90
  -3  12  -2  195.18   16.30
  -3  12  -2  236.48   16.30
   3 -13  -2   22.20    8.40
   3 -13  -2   29.10    8.30
  -3 -13   2   20.60    6.00
   3 -13  -2   10.40    7.80
  -3  13   2   30.70   10.10
   3  13  -2   21.20    5.60
  -3  13   2   22.00    8.50
   3  13  -2   13.00    5.50
  -3  13   2    2.60    9.80
   3  13  -2   30.80    7.50
  -2 -13   2    2.20    3.30
   2 -13  -2    7.70    5.30
  -2 -13   2    1.20    3.20
   2 -13  -2    5.60    4.70
   2 -13  -2    4.20    5.70
   2 -13  -2   10.30    6.20
   2 -13  -2    7.60    4.40
  -2 -13   2    2.40    3.70
   2  13  -2    6.00    3.60
   2  13  -2    7.00    3.60
  -2  13   2   -2.80    6.00
   2  13  -2    0.50    3.20
  -2  13   2    0.00    4.90
   2  13  -2    4.60    3.70
  -2  13   2    2.00    6.10
  -2  13   2    1.70    5.80
  -2  13   2   11.10    5.20
   2  13  -2    8.10    3.40
  -2  13   2    8.40    5.80
   2  13  -2    2.10    3.10
   1 -13  -2   54.09    6.70
   1 -13  -2   47.40    6.40
   1 -13  -2   58.89    7.20
  -1 -13   2   49.70    5.90
   1 -13  -2   52.79    8.00
   1 -13  -2   55.69    7.70
  -1 -13   2   43.10    5.80
  -1 -13   2   50.19    5.60
   1  13  -2   55.99    5.50
  -1  13   2   59.29    7.20
   1  13  -2   48.60    5.80
   1  13  -2   56.59    5.70
   1  13  -2   55.99    5.70
  -1  13   2   62.19    8.50
  -1  13   2   56.99    8.00
   1  13  -2   54.49    5.80
   1  13  -2   53.79    5.40
  -1  13   2   49.40    7.00
  -1  13   2   56.99    7.40
  -1  13   2   54.79    8.20
   0 -13  -2   33.70    4.30
   0 -13   2   41.30    2.80
   0 -13  -2   30.80    4.90
   0 -13  -2   48.90    6.00
   0 -13   2   48.20    5.90
   0 -13   2   43.20    2.90
   0 -13   2   47.10    5.60
   0 -13  -2   46.10    5.90
   0 -13  -2   39.10    5.10
   0  13  -2   43.90    5.40
   0  13  -2   48.10    5.80
   0  13   2   48.00    5.90
   0  13   2   41.40    6.10
   0  13  -2   35.70    4.90
   0  13  -2   46.50    5.40
   0  13   2   49.99    6.90
   0  13  -2   42.40    6.00
   0  13   2   47.00    5.50
   0  13  -2   46.90    5.30
   0  13   2   46.10    5.80
  -1 -13  -2  281.97   14.50
   1 -13   2  283.47   15.90
   1 -13   2  276.37   14.40
   1 -13   2  277.77   15.90
  -1 -13  -2  288.97   16.10
   1 -13   2  288.27   14.60
  -1 -13  -2  296.17   14.60
  -1 -13  -2  287.77   16.00
  -1  13  -2  293.97   16.30
   1  13   2  287.77   15.70
  -1  13  -2  284.67   15.80
  -1  13  -2  275.87   15.70
  -1  13  -2  278.27   16.00
   1  13   2  291.57   16.00
   1  13   2  264.17   15.80
  -1  13  -2  317.97   16.40
   1  13   2  301.37   15.80
   1  13   2  278.37   15.80
  -1  13  -2  295.57   15.70
   1  13   2  265.97   16.00
   2 -13   2  263.87   17.30
   2 -13   2  297.87   17.40
   2 -13   2  289.97   18.00
   2 -13   2  276.07   16.10
  -2 -13  -2  284.47   17.10
   2 -13   2  295.57   18.20
  -2 -13  -2  275.47   16.70
  -2 -13  -2  276.77   14.80
  -2 -13  -2  295.97   17.10
   2 -13   2  302.27   16.00
  -2  13  -2  330.37   18.60
   2  13   2  296.97   17.00
  -2  13  -2  289.47   17.20
   2  13   2  290.97   16.40
   2  13   2  298.37   16.70
  -2  13  -2  291.97   17.30
  -2  13  -2  280.47   17.90
   2  13   2  309.97   17.50
   2  13   2  280.77   16.80
   2  13   2  301.47   16.70
  -2  13  -2  289.17   17.90
  -2  13  -2  301.67   17.50
   2 -14  -2    6.30    5.70
  -2 -14   2    6.10    4.30
   2 -14  -2    5.20    5.10
   2 -14  -2    3.40    6.20
   2 -14  -2    6.90    6.90
   2 -14  -2   -0.70    4.90
  -2 -14   2   -1.50    4.10
  -2 -14   2   -1.70    3.70
   2 -14  -2   -5.70    5.80
  -2 -14   2    2.00    3.80
   2  14  -2    6.20    4.00
   2  14  -2    3.10    3.90
  -2  14   2    0.10    7.20
  -2  14   2   -4.10    6.20
   2  14  -2   -2.10    3.90
   2  14  -2    9.30    4.00
   2  14  -2   -1.80    4.00
  -2  14   2   -0.20    6.70
   2  14  -2   10.20    3.50
  -2  14   2    2.80    5.80
  -2  14   2    0.00    5.00
  -2  14   2   -9.60    7.10
   1 -14  -2  373.26   21.40
   1 -14  -2  373.86   21.10
   1 -14  -2  399.06   19.90
   1 -14  -2  394.46   20.10
  -1 -14   2  393.46   19.70
  -1 -14   2  361.76   19.60
   1  14  -2  372.76   19.50
   1  14  -2  374.76   19.30
  -1  14   2  374.36   21.70
  -1  14   2  398.66   21.00
   1  14  -2  385.26   19.60
   1  14  -2  386.36   19.40
  -1  14   2  397.46   21.40
   1  14  -2  382.86   19.60
  -1  14   2  390.46   21.10
  -1  14   2  394.36   21.60
  -1  14   2  389.46   20.70
   1  14  -2  363.56   19.50
   0 -14  -2  205.48   13.10
   0 -14   2  207.88   12.30
   0 -14  -2  223.08   13.40
   0 -14  -2  207.68   13.20
   0 -14  -2  196.98   11.60
   0 -14  -2  201.08   11.60
   0 -14  -2  212.08   13.10
   0  14   2  230.78   13.20
   0  14  -2  202.48   12.40
   0  14  -2  193.88   12.30
   0  14  -2  206.38   12.50
   0  14   2  205.38   13.40
   0  14   2  188.18   13.00
   0  14   2  202.88   12.60
   0  14   2  202.38   12.90
   0  14  -2  205.78   12.10
   0  14  -2  205.88   12.00
   0  14   2  198.98   13.00
   0  14  -2  191.18   12.00
   1 -14   2    3.80    3.70
  -1 -14  -2    8.10    4.70
  -1 -14  -2   10.20    3.10
   1 -14   2    1.90    2.80
  -1 -14  -2    1.40    4.00
   1 -14   2   16.80    5.10
  -1 -14  -2    6.50    3.10
   1 -14   2    2.30    4.30
  -1 -14  -2    3.10    4.50
  -1 -14  -2   -1.80    3.80
   1 -14   2   10.60    3.10
   1 -14   2   18.30    4.90
   1  14   2    2.20    3.80
   1  14   2    5.00    4.20
   1  14   2    6.10    4.30
  -1  14  -2    5.40    4.60
  -1  14  -2    1.50    3.80
  -1  14  -2    7.10    4.10
   1  14   2    6.70    4.60
   1  14   2   12.90    4.60
  -1  14  -2    7.00    4.30
  -1  14  -2   11.40    4.40
   1  14   2    7.40    4.30
  -1  14  -2    7.80    5.30
  -2 -14  -2    1.40    5.00
   2 -14   2    3.70    5.30
   2 -14   2   18.30    5.10
   2 -14   2   20.10    4.80
   2 -14   2   19.90    6.30
  -2 -14  -2   24.50    6.60
  -2 -14  -2   15.60    5.20
  -2 -14  -2   15.60    3.40
   2 -14   2   16.50    6.40
  -2 -14  -2   19.30    6.10
   2 -14   2   17.50    6.90
   2  14   2   13.30    5.10
  -2  14  -2   11.70    7.40
   2  14   2   14.90    5.30
   2  14   2   20.80    5.90
  -2  14  -2   37.10    7.00
   2  14   2   30.90    5.90
   2  14   2   21.50    6.00
  -2  14  -2   25.00    5.80
  -2  14  -2   15.00    6.40
  -2  14  -2    8.00    6.00
   2  14   2   17.30    5.90
  -2  14  -2   38.70    8.20
   2 -15  -2   70.49    9.90
   2 -15  -2   80.69   10.40
   2 -15  -2   77.09   10.30
   2 -15  -2   78.29    8.80
   2 -15  -2   76.49   10.70
  -2 -15   2   66.99    7.80
  -2 -15   2   64.29    9.10
   2  15  -2   78.09    9.00
   2  15  -2   53.99    7.80
   2  15  -2   66.89    8.60
  -2  15   2   80.89   11.20
  -2  15   2   67.49   11.20
  -2  15   2   67.59    9.70
   2  15  -2   70.29    8.30
   2  15  -2   56.59    8.30
  -2  15   2   51.29    8.50
   1 -15  -2    7.80    6.00
   1 -15  -2    8.10    4.80
   1 -15  -2    7.10    5.40
  -1 -15   2    8.80    4.10
  -1 -15   2   -1.40    3.40
  -1 -15   2    1.50    4.00
   1 -15  -2   11.20    5.80
   1 -15  -2   10.30    4.40
  -1 -15   2   13.40    4.60
  -1  15   2   20.80    5.90
  -1  15   2   10.30    6.30
  -1  15   2    9.70    5.30
   1  15  -2   11.30    4.40
   1  15  -2   10.30    4.20
   1  15  -2    5.60    4.00
   1  15  -2    9.20    4.20
  -1  15   2    5.40    4.90
   1  15  -2   12.50    4.00
  -1  15   2   18.40    7.00
  -1  15   2   12.90    5.60
   1  15  -2   10.30    4.30
   0 -15  -2   93.59    7.90
   0 -15  -2   90.79    7.80
   0 -15   2  107.49    9.10
   0 -15  -2   96.69   10.00
   0 -15   2   98.59    9.10
   0 -15  -2  109.49   10.10
   0 -15  -2  100.19    9.90
   0 -15   2  107.49    8.90
   0  15   2  104.09    9.80
   0  15   2  101.89   10.40
   0  15   2  101.19    9.90
   0  15   2   96.39    9.20
   0  15  -2  106.99    9.10
   0  15  -2  103.89    8.80
   0  15  -2   97.09    8.90
   0  15   2   82.09    9.30
   0  15   2   74.79    9.50
   0  15  -2  104.29    9.00
   0  15  -2  107.49    8.60
   0  15  -2   88.69    9.00
  -1 -15  -2   13.60    4.80
  -1 -15  -2   -5.60    2.80
   1 -15   2   -1.20    2.80
  -1 -15  -2   -0.20    5.20
   1 -15   2   -3.00    4.10
   1 -15   2   -4.90    2.80
  -1 -15  -2   -7.30    4.20
  -1 -15  -2    0.90    5.20
  -1 -15  -2   -0.20    3.30
   1 -15   2    2.50    5.10
   1 -15   2   -6.70    5.30
   1 -15   2    1.00    5.00
  -1  15  -2    2.30    5.10
   1  15   2    0.20    5.20
  -1  15  -2   -3.60    4.40
  -1  15  -2    1.10    4.80
   1  15   2   10.00    4.90
  -1  15  -2    5.90    6.00
   1  15   2    4.70    4.50
   1  15   2   -2.20    4.70
  -1  15  -2    0.80    4.60
   1  15   2    3.70    5.00
  -1  15  -2    0.60    4.10
   2 -15   2  201.48   14.90
  -2 -15  -2  183.38   15.10
  -2 -15  -2  166.48   13.60
   2 -15   2  190.58   12.30
  -2  15  -2  177.38   15.90
  -2  15  -2  147.69   17.80
  -2  15  -2  183.48   15.30
   2  15   2  177.28   13.20
   2  15   2  169.68   13.50
   2  15   2  180.68   13.80
  -2  15  -2  181.08   14.00
   2  15   2  166.98   13.70
  -1 -16   2  115.79   10.10
   1 -16  -2  134.19   10.80
  -1 -16   2  126.09   10.80
   1 -16  -2  138.79   12.80
   1 -16  -2  142.29   13.20
   1 -16  -2  135.69   12.20
  -1  16   2  136.19   12.30
   1  16  -2  125.69   10.00
   1  16  -2  116.99   10.20
  -1  16   2  118.59   13.70
   1  16  -2  132.89    9.90
  -1  16   2  129.49   12.90
   1  16  -2  148.39   10.70
  -1  16   2  128.19   13.20
   1  16  -2  138.79   10.90
  -1  16   2  111.09   12.20
  -1  16   2  136.59   14.50
   1  16  -2  126.29   10.40
   0 -16  -2   30.50    4.90
   0 -16   2   16.20    5.70
   0 -16  -2   33.00    6.70
   0 -16   2   28.00    5.90
   0 -16  -2   30.20    7.30
   0 -16  -2   15.90    5.60
   0 -16   2   31.40    5.90
   0  16   2   31.80    7.40
   0  16  -2   24.50    5.60
   0  16   2   30.60    6.30
   0  16  -2   32.20    6.10
   0  16  -2   18.00    5.10
   0  16   2   19.40    6.20
   0  16  -2   25.90    5.50
   0  16   2   31.80    6.50
   0  16   2   21.90    5.80
   0  16   2   28.50    6.00
   0  16  -2   23.60    5.20
   0  16  -2   26.60    5.70
  -1 -16  -2   53.59    6.30
   1 -16   2   59.49    8.50
   1 -16   2   69.59    8.40
  -1 -16  -2   69.39   10.00
   1 -16   2   73.59   11.00
  -1 -16  -2   46.10    7.10
  -1 -16  -2   45.70    7.80
  -1  16  -2   64.79    8.80
   1  16   2   60.49    7.30
  -1  16  -2   35.30    6.90
   1  16   2   86.79    9.80
   1  16   2   54.49    7.90
  -1  16  -2   64.79    8.70
   1  16   2   66.89    8.00
  -1  16  -2   74.69    9.40
  -1  16  -2   52.89    7.00
   1  16   2   73.69    9.50
   1  16   2   51.69    7.90
  -1  16  -2   56.89    7.80
   4   0  -3   -8.20    4.60
  -4   0   3    6.60    5.00
  -4   0   3    6.40    5.70
  -4   0   3   -3.00    5.60
   4   0  -3    5.10    4.70
   4   0  -3    0.90    5.40
  -4   0   3   -0.20    4.00
   4   0  -3    0.20    4.90
   4   0  -3   -1.50    5.40
  -4   0   3    6.80    4.10
   4   0  -3    6.50    5.20
  -4   0   3    5.70    5.50
  -3   0   3   -0.60    3.20
   3   0  -3    1.20    2.50
  -3   0   3   -2.00    2.30
   3   0  -3    4.60    3.40
   3   0  -3   -0.30    3.10
   3   0  -3   -0.30    2.70
  -3   0   3   -0.80    2.90
  -3   0   3    0.90    3.20
   3   0  -3    4.90    3.20
  -3   0   3    4.60    3.40
   3   0  -3    3.80    3.10
  -3   0   3    0.70    2.50
   2   0  -3    0.40    1.70
   2   0  -3   -0.50    1.50
   2   0  -3   -0.10    1.70
   2   0  -3   -0.20    1.70
  -2   0   3    0.50    1.80
  -2   0   3   -0.30    1.70
   2   0  -3   -1.00    1.40
  -2   0   3    1.20    1.40
  -2   0   3    0.70    1.80
  -2   0   3   -1.10    1.70
  -2   0   3    0.60    1.50
   2   0  -3    1.60    1.50
   1   0  -3   -1.30    1.00
  -1   0   3   -1.00    1.00
   1   0  -3   -1.60    1.00
   1   0  -3   -1.90    0.90
   1   0  -3   -1.00    0.90
  -1   0   3   -1.60    0.90
  -1   0   3   -1.50    0.70
  -1   0   3   -0.20    1.00
   1   0  -3   -0.30    0.80
  -1   0   3   -0.70    0.80
   1   0  -3   -1.00    0.80
   0   0  -3    5.40    0.90
   0   0  -3    5.60    0.80
   0   0   3    8.60    1.00
   0   0  -3    8.10    1.10
   0   0   3    4.50    0.80
   0   0   3    4.60    0.80
   0   0   3    8.50    1.00
   0   0  -3    5.80    0.90
   0   0   3    5.40    0.80
   0   0  -3    4.60    0.80
   0   0  -3    5.20    0.80
   1   0   3    0.60    1.20
   1   0   3    0.30    1.00
  -1   0  -3    0.50    1.20
  -1   0  -3   -0.90    1.30
   1   0   3   -0.30    1.10
   1   0   3   -0.90    1.30
  -1   0  -3   -2.00    1.00
  -1   0  -3   -0.40    1.30
   1   0   3   -0.10    1.40
   1   0   3    0.10    1.10
  -1   0  -3   -1.50    1.10
  -1   0  -3    0.00    1.20
  -2   0  -3    0.60    2.10
  -2   0  -3   -1.20    2.40
  -2   0  -3   -3.20    2.10
   2   0   3   -2.50    2.00
  -2   0  -3   -2.00    2.00
  -2   0  -3   -1.60    1.70
   2   0   3    1.30    2.30
   2   0   3   -1.70    2.20
  -2   0  -3   -4.20    1.90
   2   0   3   -2.20    2.30
   2   0   3   -0.70    2.20
  -3   0  -3   -1.50    3.70
  -3   0  -3   -5.60    2.90
  -3   0  -3    1.50    3.30
   3   0   3   -0.70    3.30
   3   0   3   -0.50    3.40
  -3   0  -3   -2.10    2.80
   3   0   3   -0.30    3.70
   3   0   3   -1.10    2.70
  -3   0  -3    3.10    3.60
   3   0   3    3.50    3.60
   3   0   3    0.50    3.20
  -3   0  -3   -3.40    3.70
   4   0   3    3.40    5.20
   4   0   3   14.00    6.50
  -4   0  -3    9.40    6.60
   4   0   3    8.20    6.20
  -4   0  -3    0.30    6.10
   4   0   3    1.40    5.20
  -4   0  -3   -0.70    6.30
  -4   0  -3    4.60    6.40
  -4   0  -3    3.00    5.20
  -4   0  -3   -2.50    5.30
   4   0   3   -7.60    5.30
   4   0   3    8.90    6.30
   4  -1  -3  260.47   16.30
   4  -1  -3  261.17   15.90
  -4  -1   3  226.88   15.70
   4  -1  -3  222.98   15.10
   4  -1  -3  238.78   15.90
   4  -1  -3  255.27   16.00
  -4  -1   3  222.08   15.40
  -4  -1   3  249.38   15.70
  -4  -1   3  261.97   14.20
   4  -1  -3  248.18   16.30
  -4  -1   3  262.47   14.20
  -4  -1   3  254.27   16.00
  -4   1   3  258.17   16.10
   4   1  -3  253.17   15.80
  -4   1   3  240.68   16.70
   4   1  -3  259.67   15.50
   4   1  -3  244.28   15.40
  -4   1   3  230.58   14.70
   4   1  -3  257.47   15.60
   4   1  -3  236.48   15.60
   4   1  -3  242.08   15.20
  -4   1   3  248.18   14.70
  -4   1   3  244.58   15.90
  -3  -1   3   13.40    3.70
   3  -1  -3   19.00    3.90
  -3  -1   3   17.00    2.90
   3  -1  -3   13.00    3.60
   3  -1  -3   17.00    4.00
   3  -1  -3    7.90    3.40
   3  -1  -3   11.80    3.70
   3  -1  -3   11.80    3.90
  -3  -1   3    9.90    3.40
  -3  -1   3   16.10    2.90
  -3  -1   3   17.30    3.90
  -3  -1   3   14.30    3.80
   3   1  -3   15.00    3.20
  -3   1   3   10.70    3.90
   3   1  -3   18.10    3.50
  -3   1   3   20.00    4.10
   3   1  -3   10.10    3.40
   3   1  -3   15.90    3.90
  -3   1   3   17.00    3.30
   3   1  -3   16.10    3.90
  -3   1   3   15.30    4.00
  -3   1   3   13.30    3.20
  -3   1   3   16.20    3.80
   3   1  -3   16.30    3.30
  -2  -1   3  163.08    9.20
  -2  -1   3  169.38    9.30
  -2  -1   3  176.48    8.80
   2  -1  -3  164.58    9.40
  -2  -1   3  175.98    8.80
   2  -1  -3  165.58    9.20
   2  -1  -3  197.38    9.70
  -2  -1   3  165.68    9.30
   2  -1  -3  181.38    9.30
   2  -1  -3  179.98    9.50
   2  -1  -3  169.48    9.50
  -2  -1   3  178.08    9.40
   2   1  -3  181.58    9.40
   2   1  -3  160.08    9.10
  -2   1   3  186.48    9.60
  -2   1   3  176.78    9.50
  -2   1   3  172.18    9.10
   2   1  -3  170.58    9.10
   2   1  -3  177.88    9.30
   2   1  -3  173.88    9.30
  -2   1   3  174.18    9.70
  -2   1   3  162.78    9.40
   2   1  -3  165.88    9.00
  -1  -1   3 4327.57  181.08
   1  -1  -3 3953.20  181.38
  -1  -1   3 4403.46  181.18
   1  -1  -3 3990.00  181.18
  -1  -1   3 3997.30  181.08
   1  -1  -3 3986.40  181.38
   1  -1  -3 3696.13  181.28
   1  -1  -3 4060.19  181.18
  -1  -1   3 4155.28  181.08
   1  -1  -3 3876.31  181.38
  -1   1   3 3895.01  181.38
  -1   1   3 4070.69  181.18
  -1   1   3 4092.19  181.18
  -1   1   3 4197.88  181.38
  -1   1   3 3959.50  181.38
   1   1  -3 4236.98  181.08
   1   1  -3 4005.70  180.98
   1   1  -3 4108.39  181.08
   1   1  -3 4177.58  181.18
   1   1  -3 4110.49  181.08
   1   1  -3 4004.40  180.98
  -1   1   3 4026.50  181.38
   0  -1  -3   -1.00    0.80
   0  -1   3    0.10    0.60
   0  -1  -3    0.70    0.80
   0  -1  -3    0.90    0.80
   0  -1  -3   -0.70    0.80
   0  -1  -3    0.20    0.90
   0  -1   3   -0.20    0.40
   0  -1   3    0.00    0.60
   0  -1   3    0.60    0.40
   0  -1   3    0.40    0.60
   0  -1   3    0.90    0.70
   0  -1  -3    0.10    0.90
   0   1  -3    0.40    0.50
   0   1  -3   -0.70    0.60
   0   1   3   -0.20    0.90
   0   1   3    0.10    0.80
   0   1   3    0.50    0.70
   0   1  -3    0.30    0.60
   0   1   3   -0.80    0.80
   0   1  -3    1.00    0.50
   0   1   3    0.40    0.80
   0   1   3    0.70    0.80
   0   1  -3   -0.20    0.60
   0   1  -3    0.10    0.60
  -1  -1  -3 2957.20  133.49
   1  -1   3 3148.89  133.49
   1  -1   3 2965.40  133.19
  -1  -1  -3 3026.30  133.29
   1  -1   3 2987.80  133.19
  -1  -1  -3 3010.80  133.19
  -1  -1  -3 3011.30  133.49
  -1  -1  -3 2779.22  133.29
  -1  -1  -3 3060.39  133.39
   1  -1   3 3199.08  133.49
   1  -1   3 2877.21  133.39
   1  -1   3 3339.47  133.59
  -1   1  -3 2879.51  133.19
   1   1   3 2710.73  133.29
  -1   1  -3 2833.32  133.39
   1   1   3 2937.81  133.49
  -1   1  -3 2952.80  133.39
   1   1   3 3014.60  133.29
   1   1   3 2959.10  133.39
   1   1   3 2982.60  133.19
  -1   1  -3 2688.63  133.29
  -1   1  -3 3178.38  133.49
  -1   1  -3 3004.50  133.19
   1   1   3 2952.80  133.39
  -2  -1  -3   40.40    4.50
   2  -1   3   37.50    4.60
  -2  -1  -3   41.80    4.70
  -2  -1  -3   39.10    4.10
   2  -1   3   40.50    4.80
   2  -1   3   44.10    4.20
  -2  -1  -3   38.90    4.30
  -2  -1  -3   43.70    4.50
  -2  -1  -3   39.50    4.10
   2  -1   3   38.10    4.50
   2  -1   3   40.30    4.20
   2  -1   3   36.20    4.10
   2   1   3   37.90    4.30
   2   1   3   37.70    4.60
  -2   1  -3   46.10    4.30
   2   1   3   40.10    4.10
   2   1   3   45.10    4.20
  -2   1  -3   41.30    4.20
   2   1   3   41.90    4.40
  -2   1  -3   42.90    4.60
  -2   1  -3   38.40    4.30
  -2   1  -3   43.30    4.60
   2   1   3   39.20    4.30
  -2   1  -3   39.30    4.60
  -3  -1  -3   22.90    4.70
  -3  -1  -3   14.30    4.40
  -3  -1  -3   16.60    4.10
   3  -1   3   17.90    4.30
  -3  -1  -3   10.00    4.30
   3  -1   3   14.50    4.50
  -3  -1  -3   20.00    4.20
   3  -1   3   20.80    5.00
   3  -1   3   23.70    4.90
   3  -1   3   18.40    4.10
   3  -1   3   23.80    4.30
  -3  -1  -3   13.40    3.50
  -3   1  -3   10.50    3.70
  -3   1  -3   17.90    4.60
   3   1   3   22.40    5.10
   3   1   3   15.40    4.20
  -3   1  -3   19.60    4.30
   3   1   3    8.60    4.70
   3   1   3   19.80    4.60
  -3   1  -3   19.90    4.60
  -3   1  -3   24.50    4.70
   3   1   3   12.50    3.60
  -3   1  -3   23.60    4.90
   3   1   3   19.70    4.30
  -4  -1  -3  361.76   21.80
   4  -1   3  402.86   21.90
  -4  -1  -3  371.96   21.70
  -4  -1  -3  383.86   21.00
  -4  -1  -3  366.86   21.20
  -4  -1  -3  400.16   22.60
  -4  -1  -3  379.26   22.20
   4  -1   3  355.46   21.90
   4  -1   3  391.66   21.40
   4  -1   3  380.66   22.50
   4  -1   3  373.26   21.30
   4  -1   3  390.66   22.30
   4   1   3  378.36   22.20
  -4   1  -3  404.06   22.00
   4   1   3  396.86   21.70
   4   1   3  381.86   22.60
  -4   1  -3  351.06   22.10
   4   1   3  388.16   21.30
   4   1   3  361.66   21.90
  -4   1  -3  375.76   21.40
  -4   1  -3  374.56   22.40
  -4   1  -3  385.26   21.20
  -4   1  -3  349.87   22.20
   4   1   3  383.06   22.00
   4  -2  -3    2.90    5.60
  -4  -2   3    4.20    5.00
  -4  -2   3    2.40    3.60
   4  -2  -3    5.40    5.70
  -4  -2   3    1.80    5.50
   4  -2  -3   -2.20    5.00
   4  -2  -3   -3.30    5.40
   4  -2  -3    6.40    5.70
  -4  -2   3   -1.20    3.40
   4  -2  -3   -2.70    5.00
  -4  -2   3   -2.20    5.30
  -4  -2   3   -1.00    4.70
  -4   2   3    1.40    5.40
   4   2  -3   -0.50    4.50
   4   2  -3    6.50    5.20
   4   2  -3   -5.60    4.50
   4   2  -3   -5.70    4.80
  -4   2   3    3.60    5.10
   4   2  -3    0.50    4.40
  -4   2   3    2.50    5.70
  -4   2   3    0.70    4.50
  -4   2   3    0.80    4.90
   4   2  -3    7.00    5.20
  -3  -2   3  309.87   15.50
   3  -2  -3  287.27   16.80
   3  -2  -3  314.07   16.60
   3  -2  -3  290.57   16.90
  -3  -2   3  313.67   16.50
  -3  -2   3  325.07   15.50
   3  -2  -3  340.77   17.10
   3  -2  -3  303.47   17.00
   3  -2  -3  286.07   16.40
  -3  -2   3  311.67   16.60
  -3  -2   3  329.47   16.60
  -3  -2   3  332.57   16.60
  -3   2   3  311.97   16.90
  -3   2   3  293.67   17.10
   3   2  -3  322.37   16.50
   3   2  -3  310.17   16.30
  -3   2   3  306.27   17.10
   3   2  -3  302.47   16.30
  -3   2   3  308.07   16.20
   3   2  -3  312.77   16.60
  -3   2   3  338.97   17.10
   3   2  -3  326.77   16.30
   3   2  -3  324.47   16.30
  -3   2   3  316.07   16.30
  -2  -2   3   64.49    4.80
  -2  -2   3   66.89    4.90
   2  -2  -3   67.79    4.90
  -2  -2   3   74.49    4.10
   2  -2  -3   55.69    5.10
   2  -2  -3   65.39    5.00
  -2  -2   3   73.09    4.10
   2  -2  -3   67.79    5.30
   2  -2  -3   61.89    5.20
  -2  -2   3   72.79    5.00
   2  -2  -3   81.49    5.50
   2   2  -3   72.09    4.90
  -2   2   3   68.39    5.40
   2   2  -3   64.89    4.60
  -2   2   3   58.09    5.00
   2   2  -3   68.59    4.70
  -2   2   3   65.19    5.30
  -2   2   3   66.69    5.00
   2   2  -3   66.79    4.50
   2   2  -3   63.39    4.80
  -2   2   3   68.69    5.50
  -2   2   3   69.19    4.90
   1  -2  -3 3132.29  141.69
  -1  -2   3 3312.47  141.19
   1  -2  -3 3197.98  141.49
  -1  -2   3 3285.97  141.19
  -1  -2   3 3252.67  141.19
   1  -2  -3 3011.90  141.49
   1  -2  -3 3247.88  141.79
   1  -2  -3 3270.87  141.69
   1  -2  -3 2699.43  141.59
   1   2  -3 3189.48  141.19
  -1   2   3 3020.70  141.69
  -1   2   3 3208.98  141.79
   1   2  -3 3406.86  141.09
  -1   2   3 3114.49  141.49
  -1   2   3 3198.98  141.49
   1   2  -3 3113.69  141.19
   1   2  -3 3092.09  140.99
   1   2  -3 3006.00  141.09
   1   2  -3 3084.59  141.09
  -1   2   3 3284.57  141.69
  -1   2   3 3348.36  141.69
   0  -2  -3 3911.31  158.58
   0  -2  -3 3423.16  158.48
   0  -2  -3 3512.55  158.38
   0  -2  -3 3690.73  158.38
   0  -2  -3 3296.27  158.48
   0  -2  -3 3484.75  158.48
   0   2   3 3641.44  158.58
   0   2   3 3633.84  158.48
   0   2   3 3391.66  158.38
   0   2   3 3454.15  158.48
   0   2   3 3597.64  158.38
   1  -2   3    1.40    1.40
  -1  -2  -3    0.50    1.30
  -1  -2  -3    0.80    1.30
   1  -2   3   -0.30    1.40
  -1  -2  -3    1.50    1.10
  -1  -2  -3    1.10    1.40
  -1  -2  -3   -1.00    1.40
  -1  -2  -3    0.70    1.10
   1  -2   3   -1.00    1.30
   1  -2   3   -0.30    1.20
   1  -2   3    1.90    1.20
   1  -2   3    0.10    1.00
   1   2   3    0.00    1.20
   1   2   3    1.30    1.20
   1   2   3   -1.30    1.30
  -1   2  -3   -1.00    1.30
   1   2   3    0.70    1.40
   1   2   3    0.20    1.20
  -1   2  -3   -1.40    1.30
  -1   2  -3   -1.10    1.20
  -1   2  -3   -0.60    1.00
   1   2   3   -0.50    1.40
  -1   2  -3   -0.10    1.40
   2  -2   3    1.10    1.90
  -2  -2  -3    2.00    2.20
   2  -2   3    0.10    2.30
   2  -2   3    3.50    1.90
  -2  -2  -3   -0.60    2.40
   2  -2   3    2.10    2.40
  -2  -2  -3    4.10    2.30
  -2  -2  -3    2.20    2.50
   2  -2   3    3.70    2.50
  -2  -2  -3    2.90    2.00
   2  -2   3    6.30    2.80
  -2  -2  -3    2.60    2.10
  -2   2  -3    1.60    1.90
   2   2   3    2.80    2.00
  -2   2  -3    2.30    2.50
  -2   2  -3    1.50    2.00
   2   2   3    0.30    2.10
  -2   2  -3    0.50    2.50
  -2   2  -3    3.10    2.20
  -2   2  -3    3.10    2.50
   2   2   3    2.00    2.10
   2   2   3    2.00    2.10
   2   2   3    1.30    2.10
   2   2   3    4.40    2.50
  -3  -2  -3  108.79    8.70
   3  -2   3  103.49    8.30
  -3  -2  -3  102.69    8.50
   3  -2   3  101.59    9.00
   3  -2   3  104.69    8.70
  -3  -2  -3  102.89    8.10
   3  -2   3  120.89    8.40
   3  -2   3  100.09    9.30
   3  -2   3  104.29    8.20
  -3  -2  -3  107.89    7.90
  -3  -2  -3  105.09    8.90
  -3  -2  -3   96.89    8.80
   3   2   3  109.69    8.40
   3   2   3  108.49    8.00
  -3   2  -3   84.69    8.30
  -3   2  -3  105.89    8.40
  -3   2  -3  109.69    8.50
   3   2   3  106.29    8.60
  -3   2  -3  108.19    9.20
   3   2   3  119.79    8.40
   3   2   3  110.49    8.50
  -3   2  -3  121.39    9.00
  -3   2  -3  109.49    8.60
   3   2   3  101.59    9.00
   4  -2   3  140.69   13.00
   4  -2   3  118.49   12.60
   4  -2   3  144.79   12.30
   4  -2   3  128.89   12.10
   4  -2   3  128.69   12.80
  -4  -2  -3  136.29   12.70
  -4  -2  -3  115.59   11.40
  -4  -2  -3  118.09   12.80
  -4  -2  -3  126.39   11.20
  -4  -2  -3  126.59   12.50
   4  -2   3  126.39   12.90
  -4  -2  -3  125.29   11.30
  -4   2  -3  120.29   12.00
  -4   2  -3  126.99   12.00
   4   2   3  140.49   13.30
   4   2   3  122.19   12.30
  -4   2  -3  127.29   13.00
  -4   2  -3  129.89   12.80
   4   2   3  144.09   12.20
   4   2   3  139.39   12.60
   4   2   3  132.79   11.50
   4   2   3  133.09   12.00
  -4   2  -3  127.09   12.10
  -4   2  -3  128.89   12.90
  -4  -3   3   97.49    7.70
  -4  -3   3  105.59   10.50
  -4  -3   3   89.69    7.80
   4  -3  -3   98.89   11.60
   4  -3  -3   86.39   10.40
  -4  -3   3   93.79   10.10
  -4  -3   3   89.29   10.60
   4  -3  -3  105.89   11.00
   4  -3  -3  102.59    9.90
   4  -3  -3  114.59   10.30
   4  -3  -3  108.29   11.90
  -4   3   3  111.49    9.90
   4   3  -3   97.29    9.90
  -4   3   3  110.99   11.30
   4   3  -3   92.29    9.60
  -4   3   3   91.89   11.40
  -4   3   3   92.39   10.90
   4   3  -3   99.39    9.50
   4   3  -3  106.19   10.10
   4   3  -3  107.39   10.60
   4   3  -3  103.59   10.20
  -4   3   3   88.19   12.20
  -3  -3   3  223.88   11.10
   3  -3  -3  198.88   12.90
   3  -3  -3  205.68   12.40
   3  -3  -3  202.98   12.60
  -3  -3   3  224.58   12.30
  -3  -3   3  214.68   12.30
  -3  -3   3  224.58   11.00
   3  -3  -3  217.58   12.40
   3  -3  -3  204.48   13.00
  -3  -3   3  217.18   12.30
   3  -3  -3  212.58   12.80
  -3  -3   3  213.98   12.20
  -3   3   3  195.78   12.40
  -3   3   3  202.68   13.10
  -3   3   3  228.18   13.30
  -3   3   3  230.28   12.30
   3   3  -3  210.88   12.10
  -3   3   3  218.88   13.00
   3   3  -3  214.28   12.00
   3   3  -3  216.08   12.00
   3   3  -3  226.08   12.40
   3   3  -3  207.18   12.10
   3   3  -3  214.58   12.10
  -3   3   3  218.38   12.30
   2  -3  -3  371.76   17.90
   2  -3  -3  356.86   18.00
  -2  -3   3  355.46   17.40
   2  -3  -3  361.56   17.70
  -2  -3   3  357.66   17.40
   2  -3  -3  360.86   18.10
  -2  -3   3  375.96   16.70
   2  -3  -3  333.27   18.00
  -2  -3   3  371.46   16.70
  -2  -3   3  371.66   17.50
  -2  -3   3  371.86   17.50
   2  -3  -3  336.57   17.90
   2   3  -3  360.16   17.20
  -2   3   3  385.56   17.70
  -2   3   3  333.57   17.90
   2   3  -3  385.86   17.50
  -2   3   3  389.06   18.20
   2   3  -3  376.56   17.30
  -2   3   3  332.37   18.10
  -2   3   3  318.37   17.90
   2   3  -3  364.06   17.40
   2   3  -3  351.26   17.20
  -2   3   3  367.16   17.70
   2   3  -3  376.06   17.50
  -1  -3   3  954.30   43.20
   1  -3  -3 1101.59   44.10
  -1  -3   3  950.70   43.20
   1  -3  -3 1012.50   44.00
   1  -3  -3  964.00   43.70
   1  -3  -3  852.61   43.80
  -1  -3   3 1023.60   43.20
   1  -3  -3 1029.40   43.80
   1  -3  -3 1002.00   43.90
   1   3  -3  943.31   43.10
  -1   3   3  985.70   43.70
  -1   3   3  925.91   43.90
  -1   3   3  929.91   43.90
  -1   3   3  954.40   43.70
  -1   3   3  926.91   43.90
   1   3  -3  968.70   43.20
   1   3  -3  950.20   43.10
   1   3  -3  905.21   43.00
  -1   3   3  936.61   43.80
   1   3  -3  937.91   43.10
   1   3  -3  949.40   43.00
   0  -3   3  176.28    8.30
   0  -3  -3  181.08    8.90
   0  -3   3  174.18    8.30
   0  -3  -3  167.28    8.80
   0  -3  -3  169.28    8.70
   0  -3  -3  171.88    8.70
   0  -3   3  185.38    8.30
   0  -3  -3  167.18    8.90
   0  -3  -3  171.38    9.00
   0   3   3  166.48    8.70
   0   3   3  179.28    9.00
   0   3  -3  178.38    8.30
   0   3  -3  173.68    8.10
   0   3   3  183.58    9.00
   0   3  -3  180.68    8.30
   0   3   3  176.88    8.80
   0   3   3  191.28    9.10
   0   3  -3  191.98    8.10
   0   3  -3  161.68    8.20
   0   3  -3  175.58    8.20
  -1  -3  -3   34.50    3.20
   1  -3   3   41.50    3.00
  -1  -3  -3   38.50    3.00
  -1  -3  -3   34.90    3.40
   1  -3   3   39.00    2.90
   1  -3   3   39.10    3.40
  -1  -3  -3   32.40    3.00
  -1  -3  -3   39.40    3.30
   1  -3   3   34.30    3.20
  -1  -3  -3   32.70    3.20
   1  -3   3   34.90    3.30
   1  -3   3   42.00    3.30
   1   3   3   33.30    3.30
   1   3   3   31.80    3.00
  -1   3  -3   32.90    3.00
   1   3   3   33.60    3.20
   1   3   3   35.00    2.90
  -1   3  -3   35.60    3.00
  -1   3  -3   32.40    3.00
   1   3   3   35.40    3.40
  -1   3  -3   35.50    2.90
  -1   3  -3   36.90    3.30
   1   3   3   37.30    3.10
  -1   3  -3   36.70    3.30
  -2  -3  -3  131.69    8.20
   2  -3   3  133.99    8.40
  -2  -3  -3  134.79    8.00
   2  -3   3  127.49    8.40
   2  -3   3  128.59    7.80
   2  -3   3  130.59    8.30
   2  -3   3  135.29    8.40
  -2  -3  -3  131.99    8.10
  -2  -3  -3  132.99    7.60
   2  -3   3  115.29    7.70
  -2  -3  -3  131.79    7.70
  -2  -3  -3  133.69    8.20
   2   3   3  129.49    7.80
   2   3   3  133.09    7.70
  -2   3  -3  131.49    8.40
   2   3   3  121.59    7.90
   2   3   3  135.29    8.30
  -2   3  -3  122.19    7.90
   2   3   3  128.29    8.00
   2   3   3  127.59    8.10
  -2   3  -3  136.09    8.50
  -2   3  -3  118.09    8.20
  -2   3  -3  127.39    8.30
  -2   3  -3  127.59    7.80
  -3  -3  -3  106.89    8.00
   3  -3   3  108.39    8.50
   3  -3   3   98.69    8.20
  -3  -3  -3   92.69    8.60
  -3  -3  -3  104.09    7.60
  -3  -3  -3  108.39    8.30
   3  -3   3   96.39    9.00
  -3  -3  -3   84.69    8.50
   3  -3   3  109.49    8.40
  -3  -3  -3  107.39    8.50
   3  -3   3   83.49    8.60
   3  -3   3  103.79    9.10
   3   3   3  112.29    8.90
  -3   3  -3   96.69    8.40
  -3   3  -3   96.99    9.00
  -3   3  -3   95.69    8.30
   3   3   3   99.79    8.00
  -3   3  -3  101.69    9.00
   3   3   3  108.29    8.40
  -3   3  -3   89.99    8.20
  -3   3  -3   97.99    9.00
   3   3   3  105.99    8.20
   3   3   3  103.89    8.10
   3   3   3   94.09    7.80
   4  -3   3   89.99   12.00
   4  -3   3  105.79   11.40
  -4  -3  -3   98.69   12.10
  -4  -3  -3   97.29   11.80
   4  -3   3  111.89   12.40
  -4  -3  -3  101.29   11.80
  -4  -3  -3  123.89   10.50
  -4  -3  -3  108.29   11.40
   4  -3   3   99.69   12.40
   4  -3   3   98.89   12.40
   4  -3   3  126.19   11.50
  -4  -3  -3  111.39   11.70
   4   3   3  110.39   10.60
  -4   3  -3  102.99   11.50
  -4   3  -3  103.29   12.30
  -4   3  -3   92.19   12.30
   4   3   3   93.59   12.30
   4   3   3  100.29   11.40
  -4   3  -3   81.99   11.20
   4   3   3   86.49   11.00
  -4   3  -3   83.69   11.00
   4   3   3  106.79   10.90
  -4   3  -3   85.29   12.40
   4   3   3   85.09   10.30
  -4  -4   3    8.20    5.10
   4  -4  -3    2.90    6.60
  -4  -4   3   -1.80    4.90
   4  -4  -3    4.60    6.70
  -4  -4   3    7.90    5.20
  -4  -4   3    1.90    5.30
  -4  -4   3   -3.20    2.90
   4  -4  -3    7.20    5.90
   4  -4  -3   -2.20    5.00
   4  -4  -3   -4.60    5.50
  -4  -4   3    2.00    2.90
   4  -4  -3    0.90    6.00
   4   4  -3    0.30    4.10
   4   4  -3    9.60    5.30
   4   4  -3   11.90    5.30
   4   4  -3    1.60    4.80
  -4   4   3   -0.10    6.30
   4   4  -3   -5.80    4.90
  -4   4   3    5.70    5.50
  -4   4   3   -3.20    5.90
  -4   4   3    2.40    5.30
   4   4  -3    2.40    5.20
  -4   4   3   -4.80    5.70
  -4   4   3   -4.20    6.70
  -3  -4   3  964.20   42.60
   3  -4  -3  937.31   44.50
   3  -4  -3  977.50   44.80
   3  -4  -3  806.82   44.30
   3  -4  -3  909.31   44.10
  -3  -4   3 1040.70   44.00
   3  -4  -3  959.10   44.10
  -3  -4   3  929.31   42.60
   3  -4  -3  942.61   44.60
  -3  -4   3  859.91   43.70
  -3  -4   3  927.01   43.70
   3   4  -3  927.71   43.50
  -3   4   3 1032.00   44.80
   3   4  -3 1010.40   43.70
   3   4  -3  938.11   43.80
  -3   4   3  821.02   43.70
   3   4  -3  984.80   43.80
  -3   4   3  869.21   44.40
  -3   4   3  853.81   44.50
  -3   4   3  952.80   44.60
   3   4  -3  981.60   43.80
  -2  -4   3 1736.43   78.09
  -2  -4   3 1600.34   77.99
   2  -4  -3 1755.82   78.89
   2  -4  -3 1724.63   78.59
   2  -4  -3 1755.22   78.99
   2  -4  -3 1736.93   78.49
   2  -4  -3 1849.52   78.89
  -2  -4   3 1758.12   77.19
  -2  -4   3 1737.73   78.09
   2  -4  -3 1617.84   78.79
  -2  -4   3 1812.72   77.19
  -2  -4   3 1731.93   78.09
  -2   4   3 1796.42   79.09
  -2   4   3 1828.82   78.89
   2   4  -3 1704.83   77.99
  -2   4   3 1745.03   78.49
   2   4  -3 1716.03   78.09
   2   4  -3 1691.83   77.99
   2   4  -3 1643.54   77.89
   2   4  -3 1711.23   78.09
  -2   4   3 1756.92   78.49
  -2   4   3 1718.33   78.89
  -2   4   3 1637.54   78.79
   2   4  -3 1746.03   77.99
  -1  -4   3  157.58    7.20
   1  -4  -3  163.18    8.30
   1  -4  -3  151.48    8.10
   1  -4  -3  154.88    8.20
   1  -4  -3  135.39    8.10
   1  -4  -3  143.79    7.90
  -1  -4   3  145.39    7.20
  -1  -4   3  151.88    7.10
   1  -4  -3  144.39    7.90
   1   4  -3  158.68    7.20
  -1   4   3  146.79    8.10
   1   4  -3  152.38    7.10
  -1   4   3  148.69    7.90
   1   4  -3  153.58    7.00
  -1   4   3  159.18    8.20
   1   4  -3  137.99    7.10
   1   4  -3  159.18    7.10
   1   4  -3  143.19    7.00
  -1   4   3  145.09    8.20
  -1   4   3  152.68    8.20
  -1   4   3  152.18    7.90
   0  -4  -3 4481.05  193.68
   0  -4  -3 4399.76  193.48
   0  -4  -3 4294.57  193.58
   0  -4  -3 4398.46  193.68
   0  -4  -3 4294.47  193.68
   0  -4  -3 4370.36  193.48
   0   4   3 4232.68  193.38
   0   4   3 4261.37  193.48
   0   4   3 4683.73  193.68
   0   4   3 4079.69  193.58
   0   4   3 4308.97  193.68
   0   4   3 4181.58  193.58
   1  -4   3 1233.78   54.79
   1  -4   3 1201.58   54.39
  -1  -4  -3 1151.28   54.69
  -1  -4  -3 1197.18   54.49
   1  -4   3 1166.78   54.69
  -1  -4  -3 1193.88   54.49
  -1  -4  -3 1234.18   54.79
  -1  -4  -3 1323.07   54.99
   1  -4   3 1143.69   54.39
   1  -4   3 1256.37   54.79
  -1  -4  -3 1183.98   54.79
   1  -4   3 1240.08   54.79
  -1   4  -3 1174.88   54.49
  -1   4  -3 1143.09   54.49
   1   4   3 1212.08   54.79
   1   4   3 1156.28   54.79
   1   4   3 1243.18   54.89
   1   4   3 1216.88   54.59
  -1   4  -3 1138.39   54.69
  -1   4  -3 1235.18   54.69
   1   4   3 1192.88   54.59
   1   4   3 1175.58   54.69
  -1   4  -3 1159.68   54.69
  -1   4  -3 1270.97   54.89
  -2  -4  -3  201.18   11.90
   2  -4   3  209.98   11.60
  -2  -4  -3  216.98   11.80
   2  -4   3  212.08   12.00
   2  -4   3  219.68   12.30
  -2  -4  -3  236.28   12.10
  -2  -4  -3  228.58   11.60
   2  -4   3  232.18   11.70
   2  -4   3  227.78   12.30
  -2  -4  -3  219.48   11.40
  -2  -4  -3  218.08   11.80
   2  -4   3  221.68   12.20
  -2   4  -3  224.38   12.20
   2   4   3  224.38   12.10
   2   4   3  228.78   11.60
  -2   4  -3  213.28   11.70
  -2   4  -3  214.18   12.30
   2   4   3  207.28   11.60
  -2   4  -3  209.98   12.10
  -2   4  -3  202.08   11.90
   2   4   3  222.08   12.10
   2   4   3  226.08   11.90
   2   4   3  210.58   11.60
   3  -4   3  241.28   14.20
  -3  -4  -3  258.97   13.90
   3  -4   3  229.28   14.50
  -3  -4  -3  246.18   13.60
   3  -4   3  252.67   15.10
  -3  -4  -3  251.97   14.60
   3  -4   3  232.38   14.90
  -3  -4  -3  263.07   14.80
   3  -4   3  254.77   15.00
   3  -4   3  249.38   14.30
  -3  -4  -3  246.48   14.60
   3   4   3  228.68   14.20
   3   4   3  245.48   14.70
  -3   4  -3  239.08   15.30
  -3   4  -3  260.57   14.80
  -3   4  -3  242.68   14.30
   3   4   3  238.78   13.90
   3   4   3  250.17   14.30
  -3   4  -3  249.28   15.10
  -3   4  -3  252.07   15.00
   3   4   3  267.37   14.20
   3   4   3  243.78   14.00
  -4  -4  -3   27.30    6.80
  -4  -4  -3   14.80    6.40
  -4  -4  -3   38.20    6.30
   4  -4   3   21.40    7.70
   4  -4   3   31.60    7.40
   4  -4   3   21.20    7.70
   4  -4   3   32.40    6.70
  -4  -4  -3   14.60    6.60
   4  -4   3   20.10    7.70
  -4  -4  -3   22.10    6.50
   4  -4   3   30.30    7.40
   4   4   3   27.60    7.40
  -4   4  -3   35.50    7.30
   4   4   3   27.20    6.60
  -4   4  -3   39.60    7.60
  -4   4  -3   34.20    8.20
  -4   4  -3   27.50    7.10
   4   4   3   26.40    6.30
  -4   4  -3   39.80    8.00
   4   4   3   26.30    7.20
   4   4   3   37.20    7.00
  -4   4  -3   28.10    8.10
  -4  -5   3  -10.20    5.20
  -4  -5   3   -5.30    5.20
   4  -5  -3    9.60    6.70
  -4  -5   3   -4.80    6.10
   4  -5  -3    1.90    6.30
   4  -5  -3    6.30    6.20
  -4  -5   3    7.00    5.20
   4  -5  -3   10.80    6.80
   4  -5  -3    0.90    5.80
   4  -5  -3    1.50    5.20
  -4  -5   3   -1.00    2.60
  -4  -5   3    5.50    2.80
  -4   5   3    2.40    5.80
  -4   5   3   -2.50    7.00
   4   5  -3    1.40    4.90
   4   5  -3    5.90    5.10
   4   5  -3   -9.20    4.70
  -4   5   3   -1.40    6.30
   4   5  -3   -0.80    5.10
   4   5  -3    8.70    5.20
  -4   5   3    3.90    6.40
  -4   5   3   -0.50    5.40
  -4   5   3   -2.90    6.40
   4   5  -3    9.30    5.20
   3  -5  -3    1.50    4.20
   3  -5  -3    0.60    3.00
  -3  -5   3    0.60    1.60
  -3  -5   3   -1.80    3.00
   3  -5  -3    1.60    3.50
  -3  -5   3    0.00    2.90
   3  -5  -3    3.10    3.90
  -3  -5   3   -2.10    3.20
   3  -5  -3    1.70    3.40
  -3  -5   3   -3.80    3.00
  -3  -5   3   -0.80    1.50
   3  -5  -3   -0.10    3.80
  -3   5   3   -3.40    4.20
   3   5  -3   -1.20    2.80
   3   5  -3   -3.60    2.60
   3   5  -3   -1.30    2.70
  -3   5   3    6.50    4.20
  -3   5   3   -3.00    3.50
   3   5  -3    2.80    2.70
  -3   5   3    5.20    3.40
  -3   5   3    3.00    3.90
  -3   5   3    6.30    4.30
   3   5  -3   -4.40    2.90
   3   5  -3   -4.90    2.80
   2  -5  -3  434.16   21.70
   2  -5  -3  448.56   21.40
   2  -5  -3  443.66   21.30
   2  -5  -3  441.26   21.70
   2  -5  -3  442.06   21.60
  -2  -5   3  438.36   20.70
   2  -5  -3  452.85   21.90
  -2  -5   3  438.66   20.70
  -2  -5   3  449.86   20.80
  -2  -5   3  440.06   20.70
  -2   5   3  415.56   21.50
   2   5  -3  450.65   20.50
   2   5  -3  407.66   20.50
   2   5  -3  426.66   20.60
  -2   5   3  474.35   22.10
  -2   5   3  444.06   21.30
   2   5  -3  441.26   20.80
   2   5  -3  436.06   20.70
  -2   5   3  394.56   21.50
  -2   5   3  453.45   21.40
  -2   5   3  406.16   21.60
   2   5  -3  423.56   20.50
   1  -5  -3   26.90    3.40
  -1  -5   3   26.00    1.90
   1  -5  -3   22.60    2.90
   1  -5  -3   28.00    3.30
  -1  -5   3   27.00    2.00
   1  -5  -3   27.20    3.30
   1  -5  -3   25.20    3.10
   1  -5  -3   25.60    3.00
  -1  -5   3   26.80    2.00
   1   5  -3   26.10    1.80
  -1   5   3   23.20    3.20
   1   5  -3   24.90    1.80
  -1   5   3   28.90    3.10
   1   5  -3   27.00    1.90
   1   5  -3   24.70    1.90
  -1   5   3   22.70    3.40
  -1   5   3   23.40    3.00
  -1   5   3   24.60    3.00
  -1   5   3   23.00    3.30
   0  -5   3  732.93   30.90
   0  -5  -3  698.93   31.30
   0  -5  -3  675.63   31.50
   0  -5   3  690.63   30.90
   0  -5  -3  647.54   31.60
   0  -5  -3  639.84   31.50
   0  -5  -3  677.43   31.30
   0  -5   3  693.03   30.90
   0  -5  -3  702.13   31.60
   0  -5   3  700.73   30.90
   0   5   3  668.33   31.30
   0   5  -3  695.53   30.90
   0   5  -3  670.83   30.70
   0   5  -3  694.83   30.90
   0   5  -3  609.34   30.80
   0   5   3  695.83   31.60
   0   5   3  659.23   31.60
   0   5  -3  691.83   30.80
   0   5  -3  699.93   30.90
   0   5   3  697.53   31.60
   0   5   3  684.13   31.30
   0   5   3  643.44   31.50
   1  -5   3   73.69    5.00
  -1  -5  -3   73.59    4.70
   1  -5   3   73.89    5.10
  -1  -5  -3   81.79    5.20
   1  -5   3   70.99    4.50
  -1  -5  -3   73.49    4.70
   1  -5   3   74.99    4.50
   1  -5   3   74.09    5.00
  -1  -5  -3   68.69    5.00
  -1  -5  -3   75.99    5.00
   1  -5   3   70.89    5.00
  -1  -5  -3   74.89    5.20
   1   5   3   75.29    4.90
  -1   5  -3   76.19    5.00
  -1   5  -3   72.29    5.00
   1   5   3   74.69    5.20
  -1   5  -3   75.59    4.90
  -1   5  -3   71.49    5.00
   1   5   3   71.49    4.90
  -1   5  -3   69.69    4.70
   1   5   3   70.69    4.70
  -1   5  -3   67.89    4.70
   1   5   3   76.29    5.10
   1   5   3   76.19    5.10
   2  -5   3  196.88   10.30
  -2  -5  -3  169.28   10.10
   2  -5   3  176.78   10.50
   2  -5   3  190.98   10.80
  -2  -5  -3  168.88   10.50
  -2  -5  -3  182.48   10.50
   2  -5   3  164.58   10.60
  -2  -5  -3  184.38   10.40
   2  -5   3  176.78   10.00
  -2  -5  -3  182.88    9.80
  -2  -5  -3  186.38   10.00
   2  -5   3  176.38   10.70
  -2   5  -3  176.78   10.80
  -2   5  -3  185.78   10.90
  -2   5  -3  187.78   10.90
   2   5   3  192.68   10.40
  -2   5  -3  182.68   10.40
  -2   5  -3  169.08   10.40
  -2   5  -3  183.28   10.30
   2   5   3  183.18   10.10
   2   5   3  187.48   10.60
   2   5   3  171.98   10.20
   2   5   3  190.18   10.10
   2   5   3  191.68   10.40
  -3  -5  -3  139.99    9.50
   3  -5   3  160.88   11.50
  -3  -5  -3  139.39    9.80
   3  -5   3  151.98   10.40
   3  -5   3  149.59   11.20
  -3  -5  -3  146.69   10.60
  -3  -5  -3  141.49   10.70
  -3  -5  -3  152.98   10.80
   3  -5   3  145.49   10.30
   3  -5   3  163.68   11.50
   3  -5   3  167.48   11.40
   3   5   3  158.98   10.40
  -3   5  -3  142.19   10.60
  -3   5  -3  144.29   11.30
  -3   5  -3  159.98   11.40
   3   5   3  152.58   11.00
  -3   5  -3  160.08   11.40
   3   5   3  146.19   10.00
   3   5   3  141.99   10.20
   3   5   3  170.68   10.90
  -3   5  -3  167.18   11.60
   3   5   3  148.89   10.30
   4  -5   3   79.79   10.20
  -4  -5  -3   76.29   10.70
   4  -5   3   83.79   11.40
  -4  -5  -3   76.19   11.20
   4  -5   3   67.79    9.50
   4  -5   3   44.00    8.70
   4  -5   3   75.29    9.00
  -4  -5  -3   71.09    9.20
  -4  -5  -3   49.30    8.10
   4  -5   3   67.69    9.90
  -4  -5  -3   61.49    7.40
   4   5   3   65.09    8.00
  -4   5  -3   65.79    9.60
  -4   5  -3   77.29   10.00
   4   5   3   84.49   10.90
  -4   5  -3   72.79   10.40
   4   5   3   78.09    9.20
  -4   5  -3   78.69   10.80
   4   5   3   84.49    9.00
   4   5   3   61.99    8.90
  -4   5  -3   76.29   10.30
   4   5   3   64.59    8.70
  -4   5  -3   61.69    9.00
   4  -6  -3  407.86   23.70
  -4  -6   3  373.56   21.90
  -4  -6   3  411.66   22.00
   4  -6  -3  402.06   22.60
   4  -6  -3  461.35   24.30
   4  -6  -3  407.26   22.60
   4  -6  -3  397.76   23.20
   4  -6  -3  372.86   23.60
  -4  -6   3  405.26   22.10
  -4   6   3  404.06   23.40
  -4   6   3  376.56   22.30
  -4   6   3  390.06   23.30
  -4   6   3  409.06   24.10
   4   6  -3  391.36   21.10
   4   6  -3  388.76   21.60
   4   6  -3  368.46   21.20
  -4   6   3  369.06   22.70
   4   6  -3  391.86   21.60
  -4   6   3  404.56   24.30
   4   6  -3  396.46   21.60
   3  -6  -3  382.86   20.40
  -3  -6   3  394.76   19.70
  -3  -6   3  401.96   19.90
   3  -6  -3  407.46   21.10
   3  -6  -3  424.76   21.70
  -3  -6   3  383.76   19.80
  -3  -6   3  372.76   19.70
   3  -6  -3  375.36   20.70
   3  -6  -3  390.16   21.20
  -3   6   3  374.96   21.00
  -3   6   3  362.26   21.20
  -3   6   3  405.26   20.90
   3   6  -3  401.96   19.70
   3   6  -3  378.46   19.30
   3   6  -3  394.86   19.50
   3   6  -3  390.16   19.70
   3   6  -3  405.56   19.90
   3   6  -3  386.56   19.60
  -3   6   3  380.56   20.40
  -3   6   3  386.16   20.60
  -3   6   3  417.86   21.40
   2  -6  -3   20.70    3.90
   2  -6  -3   21.40    3.70
   2  -6  -3   19.30    3.80
   2  -6  -3   23.60    3.60
   2  -6  -3   16.70    3.60
  -2  -6   3   17.90    2.50
  -2  -6   3   18.30    2.50
  -2  -6   3   19.70    2.70
  -2  -6   3   17.50    2.40
   2  -6  -3   22.00    3.50
   2   6  -3   17.60    2.40
  -2   6   3   14.90    3.30
   2   6  -3   15.90    2.50
   2   6  -3   14.90    2.20
   2   6  -3   17.30    2.60
  -2   6   3   17.90    3.70
   2   6  -3   18.30    2.40
  -2   6   3   18.10    3.30
  -2   6   3   15.40    3.80
   2   6  -3   16.70    2.20
  -2   6   3   18.10    3.20
  -2   6   3   12.10    3.20
   1  -6  -3 2029.00   85.49
  -1  -6   3 1817.92   84.19
   1  -6  -3 1906.31   85.29
  -1  -6   3 1679.73   84.19
  -1  -6   3 1845.92   84.19
   1  -6  -3 1786.52   84.99
   1  -6  -3 1767.62   85.19
   1  -6  -3 1921.31   85.39
   1  -6  -3 1906.61   84.99
  -1   6   3 1894.51   85.49
   1   6  -3 1890.81   84.09
   1   6  -3 2110.29   84.19
   1   6  -3 1890.31   84.19
   1   6  -3 1810.82   84.19
   1   6  -3 1834.22   84.09
  -1   6   3 1900.11   85.09
  -1   6   3 1841.42   85.29
  -1   6   3 2008.80   85.39
  -1   6   3 1936.41   85.39
   1   6  -3 1862.91   84.19
   0  -6   3  211.18   10.40
   0  -6  -3  217.58   11.20
   0  -6   3  211.28   10.40
   0  -6  -3  213.98   11.00
   0  -6  -3  211.98   10.80
   0  -6  -3  218.98   10.80
   0  -6  -3  212.98   11.20
   0  -6   3  217.18   10.40
   0  -6  -3  224.18   11.20
   0  -6   3  216.28   10.40
   0   6  -3  215.28   10.20
   0   6  -3  214.58   10.40
   0   6   3  210.38   11.10
   0   6   3  218.88   11.00
   0   6  -3  220.88   10.20
   0   6   3  206.78   11.20
   0   6   3  204.98   10.80
   0   6  -3  221.08   10.30
   0   6  -3  216.88   10.40
   0   6  -3  215.28   10.40
   0   6   3  201.28   11.00
   0   6   3  217.48   11.20
  -1  -6  -3   46.10    4.30
  -1  -6  -3   47.90    4.30
  -1  -6  -3   48.70    3.90
  -1  -6  -3   50.89    4.30
   1  -6   3   55.19    4.30
  -1  -6  -3   49.50    3.90
   1  -6   3   49.99    3.60
   1  -6   3   48.40    4.30
   1  -6   3   46.00    4.10
  -1  -6  -3   45.40    4.20
   1  -6   3   51.09    4.20
   1  -6   3   44.60    3.50
  -1   6  -3   42.90    4.00
  -1   6  -3   51.19    3.90
  -1   6  -3   48.10    4.00
  -1   6  -3   48.10    3.90
   1   6   3   50.89    4.00
  -1   6  -3   47.00    4.20
   1   6   3   51.39    4.30
   1   6   3   52.19    4.30
   1   6   3   52.59    4.30
   1   6   3   50.79    3.90
  -1   6  -3   58.69    4.50
   1   6   3   52.79    4.50
   2  -6   3  184.58   10.80
  -2  -6  -3  199.98   11.20
  -2  -6  -3  199.18   10.80
  -2  -6  -3  181.28   11.20
   2  -6   3  207.68   11.60
  -2  -6  -3  193.08   11.30
   2  -6   3  199.68   10.80
  -2  -6  -3  201.78   11.30
  -2  -6  -3  198.68   10.60
   2  -6   3  192.58   11.40
   2  -6   3  209.98   11.70
  -2   6  -3  187.68   11.40
  -2   6  -3  205.78   11.70
   2   6   3  209.48   10.90
   2   6   3  204.28   11.20
   2   6   3  192.78   11.10
   2   6   3  188.28   11.10
  -2   6  -3  198.08   11.20
   2   6   3  199.68   11.00
  -2   6  -3  203.28   11.80
   2   6   3  203.78   11.50
  -2   6  -3  199.88   11.50
  -2   6  -3  200.78   11.30
  -3  -6  -3  431.76   23.20
   3  -6   3  418.16   23.60
  -3  -6  -3  439.96   23.30
   3  -6   3  461.85   23.10
  -3  -6  -3  449.06   22.40
   3  -6   3  474.35   24.00
   3  -6   3  450.25   23.80
   3  -6   3  450.15   23.60
  -3  -6  -3  458.75   23.30
   3  -6   3  456.25   22.90
  -3  -6  -3  464.15   22.20
  -3   6  -3  404.06   23.70
  -3   6  -3  468.85   23.30
   3   6   3  447.86   23.60
   3   6   3  457.75   22.90
   3   6   3  435.26   22.90
   3   6   3  447.06   22.70
  -3   6  -3  451.65   23.70
   3   6   3  443.66   23.00
  -3   6  -3  395.46   23.50
  -3   6  -3  496.65   24.40
   3   6   3  414.26   22.80
   4  -6   3  138.99   14.60
   4  -6   3  161.68   15.30
  -4  -6  -3  163.88   14.20
  -4  -6  -3  150.28   14.20
  -4  -6  -3  141.99   13.30
  -4  -6  -3  150.78   13.70
   4  -6   3  143.19   13.80
   4  -6   3  153.88   13.40
   4  -6   3  147.09   15.20
   4  -6   3  130.49   14.60
  -4  -6  -3  133.99   12.00
  -4   6  -3  156.98   13.60
   4   6   3  148.49   13.00
   4   6   3  159.58   13.30
  -4   6  -3  135.39   14.10
   4   6   3  148.09   13.00
   4   6   3  147.79   13.10
  -4   6  -3  123.69   15.40
   4   6   3  176.48   13.20
   4   6   3  144.59   14.10
  -4   6  -3  171.78   14.50
  -4   6  -3  142.79   14.60
  -4   6  -3  136.69   15.30
  -4  -7   3   80.09   10.60
   4  -7  -3   81.69   12.20
  -4  -7   3   79.29   10.30
   4  -7  -3   94.99   13.60
   4  -7  -3  109.79   11.10
   4  -7  -3   97.29   12.90
   4  -7  -3   85.09   11.90
  -4  -7   3   86.69   10.20
   4  -7  -3   94.09   12.20
  -4   7   3  118.29   13.60
   4   7  -3   76.19    9.10
   4   7  -3   74.69    9.60
  -4   7   3   77.19   10.70
  -4   7   3   69.59    8.60
  -4   7   3   88.89   13.00
   4   7  -3   83.99   10.40
   4   7  -3   79.89   10.20
  -4   7   3   80.69   10.90
   4   7  -3   84.59    9.40
  -3  -7   3  170.78   10.00
  -3  -7   3  161.38   10.00
   3  -7  -3  162.28   11.00
   3  -7  -3  165.58   11.90
   3  -7  -3  149.19   11.90
   3  -7  -3  150.68   11.40
   3  -7  -3  167.88   11.80
  -3  -7   3  149.49   10.00
  -3   7   3  177.18   12.70
   3   7  -3  159.68   10.10
  -3   7   3  178.98   12.20
   3   7  -3  164.28   10.00
   3   7  -3  154.88    9.80
  -3   7   3  173.68   12.30
   3   7  -3  153.78    9.60
   3   7  -3  158.18    9.60
  -3   7   3  173.08   11.40
  -3   7   3  149.29   10.90
   3   7  -3  145.49    9.80
   2  -7  -3  501.95   23.80
  -2  -7   3  493.05   23.00
   2  -7  -3  423.76   24.20
   2  -7  -3  480.35   23.90
   2  -7  -3  508.65   24.30
  -2  -7   3  512.45   23.00
  -2  -7   3  506.85   23.10
   2  -7  -3  469.25   24.30
  -2  -7   3  483.55   23.00
   2  -7  -3  486.15   24.30
  -2   7   3  499.65   23.90
   2   7  -3  481.95   23.00
   2   7  -3  465.15   22.80
   2   7  -3  473.65   22.80
  -2   7   3  482.85   24.60
   2   7  -3  526.15   22.80
  -2   7   3  493.85   24.30
  -2   7   3  528.05   24.60
   2   7  -3  486.65   22.90
  -2   7   3  464.75   23.90
  -2   7   3  483.35   24.50
   2   7  -3  474.85   22.90
   1  -7  -3  441.86   22.20
   1  -7  -3  454.65   21.90
   1  -7  -3  455.35   22.30
  -1  -7   3  463.75   21.10
  -1  -7   3  409.26   21.00
   1  -7  -3  476.55   22.30
   1  -7  -3  457.05   22.00
  -1  -7   3  454.55   21.10
   1  -7  -3  453.45   22.30
  -1   7   3  457.15   22.00
   1   7  -3  463.15   21.10
   1   7  -3  462.25   20.90
  -1   7   3  445.46   22.30
   1   7  -3  486.75   21.00
  -1   7   3  470.75   22.30
   1   7  -3  455.15   21.00
  -1   7   3  469.05   22.50
   1   7  -3  462.65   21.00
  -1   7   3  436.36   22.20
   1   7  -3  459.45   21.00
   0  -7   3  174.58    8.80
   0  -7  -3  160.08    9.60
   0  -7  -3  177.88    9.30
   0  -7  -3  182.28    9.70
   0  -7  -3  174.28    9.60
   0  -7  -3  166.68    9.60
   0  -7   3  185.28    8.90
   0  -7   3  178.08    8.90
   0  -7  -3  176.98    9.30
   0  -7   3  185.18    8.90
   0   7  -3  173.98    8.80
   0   7   3  179.18    9.40
   0   7  -3  170.68    8.70
   0   7  -3  176.08    8.90
   0   7   3  167.88    9.60
   0   7   3  167.18    9.40
   0   7  -3  177.28    8.80
   0   7  -3  178.78    9.00
   0   7   3  188.98    9.80
   0   7   3  180.68    9.70
   0   7  -3  178.68    8.70
   0   7   3  178.18    9.80
   1  -7   3 2956.10  130.29
  -1  -7  -3 2879.41  130.99
   1  -7   3 2949.90  130.89
  -1  -7  -3 2825.12  131.09
   1  -7   3 2890.81  130.39
   1  -7   3 2988.20  131.09
   1  -7   3 2928.21  130.99
   1  -7   3 2934.81  130.99
  -1  -7  -3 2916.61  130.59
  -1  -7  -3 2911.81  130.59
  -1  -7  -3 2930.01  131.09
  -1  -7  -3 2930.81  131.09
   1   7   3 2900.21  131.09
  -1   7  -3 2941.41  130.79
  -1   7  -3 2860.51  130.59
   1   7   3 2869.11  130.99
   1   7   3 2867.51  130.79
   1   7   3 3004.20  131.09
  -1   7  -3 2603.04  130.79
  -1   7  -3 2848.42  130.89
  -1   7  -3 3235.38  131.19
  -1   7  -3 2853.11  130.69
   1   7   3 2824.02  130.79
   1   7   3 2976.10  131.09
   2  -7   3    3.20    2.90
  -2  -7  -3    3.20    2.40
   2  -7   3    1.90    2.30
   2  -7   3    0.60    2.10
   2  -7   3    0.30    3.00
   2  -7   3   -1.70    2.80
  -2  -7  -3    0.40    2.70
   2  -7   3    0.70    2.60
  -2  -7  -3    1.60    2.60
  -2  -7  -3    0.30    2.70
  -2  -7  -3    0.70    2.70
  -2  -7  -3   -0.30    2.10
   2   7   3    2.20    2.90
   2   7   3    0.30    2.20
  -2   7  -3    0.70    2.70
  -2   7  -3   -3.00    2.70
  -2   7  -3   -1.50    2.60
   2   7   3    5.10    2.60
  -2   7  -3   -0.70    2.80
   2   7   3    3.00    2.40
  -2   7  -3    1.00    3.30
   2   7   3    1.20    2.60
   2   7   3   -2.50    2.70
  -2   7  -3   -2.20    3.20
   3  -7   3  710.93   38.40
  -3  -7  -3  782.02   38.10
   3  -7   3  720.13   38.30
  -3  -7  -3  761.22   37.90
  -3  -7  -3  787.02   36.90
  -3  -7  -3  767.52   38.00
  -3  -7  -3  787.72   37.10
   3  -7   3  769.82   38.30
   3  -7   3  796.42   38.50
   3  -7   3  788.72   37.50
  -3   7  -3  845.02   38.80
   3   7   3  789.92   38.30
   3   7   3  751.62   37.90
  -3   7  -3  787.62   38.30
   3   7   3  792.52   37.70
   3   7   3  792.62   37.80
  -3   7  -3  810.82   37.90
   3   7   3  770.12   37.70
  -3   7  -3  747.93   38.60
   3   7   3  793.72   37.50
  -3   7  -3  825.12   38.70
  -4  -7  -3   12.90    6.70
  -4  -7  -3    0.70    5.80
   4  -7   3   -6.10    7.80
   4  -7   3   -3.60    6.50
  -4  -7  -3    1.00    6.40
  -4  -7  -3    3.80    7.90
   4  -7   3    8.50    6.30
   4  -7   3   -7.70    7.50
   4  -7   3   -4.80    7.40
  -4  -7  -3   -2.40    5.50
   4  -7   3   -5.80    7.60
  -4   7  -3    6.70    6.90
  -4   7  -3   -3.10    8.40
   4   7   3    5.10    6.60
  -4   7  -3    6.40    7.10
   4   7   3   -3.50    5.80
   4   7   3   -5.90    6.60
   4   7   3    6.00    6.40
  -4   7  -3   -6.60    6.80
   4   7   3    6.30    7.20
  -4   7  -3   13.80    7.90
  -4   7  -3   -1.50    8.50
   4   7   3    5.60    6.40
  -4  -8   3    6.30    5.20
  -4  -8   3   -1.80    6.00
   4  -8  -3    1.20    9.20
   4  -8  -3   -7.90    7.00
   4  -8  -3   -2.60    7.80
   4  -8  -3    3.30    7.80
   4  -8  -3    8.10    8.20
  -4  -8   3   -1.30    5.90
   4  -8  -3  -13.40    6.80
   4   8  -3   10.50    5.20
   4   8  -3    1.20    5.90
  -4   8   3    4.20    7.20
  -4   8   3    3.70    8.70
   4   8  -3   -2.20    5.90
  -4   8   3    0.70    9.00
  -4   8   3   12.70    8.80
   4   8  -3   -0.50    5.00
   4   8  -3    5.40    4.90
  -4   8   3   -0.10    6.80
   4   8  -3   -2.00    5.50
   3  -8  -3   66.19    8.30
   3  -8  -3   70.09    8.80
  -3  -8   3   65.29    6.40
   3  -8  -3   69.69    9.40
   3  -8  -3   68.59    7.90
   3  -8  -3   82.19    9.00
  -3  -8   3   70.79    6.60
   3   8  -3   62.49    6.60
   3   8  -3   61.79    6.50
   3   8  -3   56.79    5.80
  -3   8   3   59.49    8.90
   3   8  -3   58.99    5.90
   3   8  -3   60.19    6.70
  -3   8   3   78.19    9.60
  -3   8   3   66.69    8.20
   3   8  -3   66.49    6.40
  -3   8   3   55.99    7.50
  -3   8   3   77.39    8.80
   2  -8  -3  345.87   17.20
   2  -8  -3  350.96   17.00
  -2  -8   3  298.27   15.60
   2  -8  -3  297.97   17.30
   2  -8  -3  293.47   17.00
  -2  -8   3  328.67   15.70
   2  -8  -3  324.17   17.40
   2  -8  -3  298.87   16.50
  -2  -8   3  329.67   15.70
  -2  -8   3  328.27   15.80
  -2   8   3  351.56   17.70
  -2   8   3  318.67   17.60
   2   8  -3  315.27   15.60
   2   8  -3  331.37   15.80
   2   8  -3  324.97   15.70
  -2   8   3  331.97   16.90
  -2   8   3  330.27   17.50
  -2   8   3  318.27   16.80
   2   8  -3  309.27   15.60
   2   8  -3  308.77   15.40
  -2   8   3  293.37   17.00
   2   8  -3  325.07   15.60
   1  -8  -3 3120.99  145.29
  -1  -8   3 3180.28  144.19
   1  -8  -3 3331.47  145.39
   1  -8  -3 3029.10  145.19
  -1  -8   3 3299.37  144.19
   1  -8  -3 3418.96  145.49
  -1  -8   3 3130.49  144.09
   1  -8  -3 3319.07  144.99
  -1  -8   3 2874.21  144.19
   1  -8  -3 3314.77  144.89
   1   8  -3 3369.66  144.09
  -1   8   3 3373.06  145.49
  -1   8   3 3127.09  145.19
   1   8  -3 3135.29  143.99
  -1   8   3 3385.26  145.49
   1   8  -3 3205.18  143.99
   1   8  -3 3101.99  144.09
   1   8  -3 3303.07  144.09
  -1   8   3 3260.37  144.99
  -1   8   3 3430.26  145.59
   1   8  -3 2890.01  143.89
  -1   8   3 3328.67  144.99
   0  -8   3   51.79    3.50
   0  -8  -3   51.09    4.20
   0  -8  -3   51.59    4.60
   0  -8   3   49.90    3.70
   0  -8   3   45.30    3.70
   0  -8  -3   50.99    4.20
   0  -8  -3   44.70    4.30
   0  -8   3   53.89    3.80
   0  -8  -3   42.30    4.50
   0  -8  -3   48.00    4.70
   0   8  -3   49.10    3.70
   0   8  -3   45.80    3.40
   0   8   3   55.29    4.60
   0   8   3   45.50    4.10
   0   8   3   39.80    4.20
   0   8  -3   50.99    3.70
   0   8  -3   46.70    3.70
   0   8  -3   46.40    3.40
   0   8   3   51.09    4.60
   0   8   3   46.80    4.80
   0   8  -3   45.70    3.50
   0   8   3   47.50    4.60
   1  -8   3 1508.65   72.59
  -1  -8  -3 1598.04   72.89
   1  -8   3 1585.64   72.09
  -1  -8  -3 1642.64   72.39
  -1  -8  -3 1518.55   72.79
  -1  -8  -3 1554.34   72.89
   1  -8   3 1627.34   71.99
  -1  -8  -3 1586.34   72.29
  -1  -8  -3 1547.95   72.79
   1  -8   3 1614.34   72.59
   1  -8   3 1683.83   72.79
   1  -8   3 1736.63   72.99
   1   8   3 1641.64   72.89
  -1   8  -3 1702.33   72.79
  -1   8  -3 1509.35   72.59
  -1   8  -3 1549.84   72.69
   1   8   3 1561.64   72.59
  -1   8  -3 1568.34   72.39
   1   8   3 1529.65   72.49
   1   8   3 1613.34   72.89
  -1   8  -3 1609.14   72.39
  -1   8  -3 1609.34   72.59
   1   8   3 1612.64   72.79
  -2  -8  -3  209.38   12.10
   2  -8   3  205.88   11.40
  -2  -8  -3  206.28   11.90
   2  -8   3  193.18   12.20
   2  -8   3  211.28   12.30
   2  -8   3  214.18   11.50
  -2  -8  -3  210.58   11.90
   2  -8   3  190.48   12.30
  -2  -8  -3  216.08   11.10
  -2  -8  -3  214.38   11.30
   2  -8   3  178.78   12.20
  -2  -8  -3  197.38   12.00
  -2   8  -3  215.78   12.60
  -2   8  -3  201.48   11.80
   2   8   3  208.78   12.00
  -2   8  -3  179.58   11.70
   2   8   3  197.48   11.70
  -2   8  -3  201.98   12.50
   2   8   3  219.28   11.60
  -2   8  -3  207.28   12.20
   2   8   3  201.78   11.70
   2   8   3  215.38   12.20
  -2   8  -3  207.78   12.40
   2   8   3  208.78   11.60
  -3  -8  -3    1.80    3.10
  -3  -8  -3   13.80    4.80
   3  -8   3   -3.70    4.60
  -3  -8  -3   11.40    3.90
   3  -8   3   10.90    5.00
  -3  -8  -3   12.20    5.70
   3  -8   3    9.60    4.20
   3  -8   3    7.70    4.80
   3  -8   3    9.40    5.70
  -3  -8  -3    6.30    4.30
  -3  -8  -3    5.70    4.60
   3   8   3    5.00    4.20
   3   8   3   12.70    4.30
  -3   8  -3    8.70    5.30
   3   8   3    1.20    4.00
  -3   8  -3    7.50    5.20
   3   8   3    5.10    4.50
   3   8   3    6.90    4.50
  -3   8  -3    4.60    5.30
  -3   8  -3   -3.80    4.40
  -3   8  -3    3.00    4.60
   3   8   3    2.90    4.60
  -3   8  -3    5.10    5.60
   4  -8   3    4.00    7.20
   4  -8   3   -3.30    8.30
  -4  -8  -3    8.50    6.00
   4  -8   3   -2.40    6.50
  -4  -8  -3   15.40    8.50
   4  -8   3   12.70    9.40
   4  -8   3    7.70    9.30
   4  -8   3   15.10    8.60
   4   8   3   10.40    7.50
  -4   8  -3   -6.10    9.50
   4   8   3   11.20    6.20
  -4   8  -3   20.90    9.90
   4   8   3    0.80    6.20
  -4   8  -3    5.70    8.70
  -3  -9   3   10.40    3.70
   3  -9  -3   11.70    5.10
   3  -9  -3   12.40    5.30
   3  -9  -3   18.40    6.70
   3  -9  -3    6.70    5.70
   3  -9  -3   11.70    4.80
  -3  -9   3   -0.30    3.10
  -3  -9   3   13.00    4.10
  -3  -9   3   10.50    3.70
   3  -9  -3   11.50    5.80
  -3   9   3    2.10    6.40
  -3   9   3   11.00    5.40
   3   9  -3   14.70    3.90
   3   9  -3    8.10    3.70
  -3   9   3    6.60    5.60
   3   9  -3    8.80    3.10
   3   9  -3    7.60    3.10
  -3   9   3   16.90    6.30
   3   9  -3    8.80    3.50
   3   9  -3   13.10    3.70
  -3   9   3    2.60    4.60
  -2  -9   3   12.80    2.50
   2  -9  -3    7.70    3.80
   2  -9  -3   17.30    4.30
  -2  -9   3   14.90    2.60
   2  -9  -3   18.30    4.50
  -2  -9   3   11.10    2.60
   2  -9  -3   13.30    3.70
   2  -9  -3   11.00    3.60
  -2  -9   3   13.40    2.70
   2  -9  -3   12.30    4.50
   2   9  -3   13.90    2.60
  -2   9   3   12.50    3.50
   2   9  -3   13.70    2.60
  -2   9   3   11.50    4.40
  -2   9   3   14.70    4.70
   2   9  -3   13.70    2.50
  -2   9   3   14.00    4.60
  -2   9   3   11.80    3.80
   2   9  -3   14.40    2.50
  -2   9   3   15.40    3.60
  -1  -9   3   -0.60    1.40
   1  -9  -3   -1.70    2.50
  -1  -9   3   -0.40    1.50
   1  -9  -3    0.70    2.30
   1  -9  -3   -1.60    2.10
  -1  -9   3    0.50    1.60
  -1  -9   3    0.70    1.40
   1  -9  -3    0.80    2.40
   1  -9  -3   -2.30    2.10
   1  -9  -3    5.40    2.80
  -1   9   3   -3.60    2.50
   1   9  -3    0.30    1.40
  -1   9   3    0.30    2.50
   1   9  -3    0.90    1.40
   1   9  -3   -1.30    1.40
  -1   9   3   -2.40    2.50
   1   9  -3    2.20    1.40
  -1   9   3    0.00    2.00
  -1   9   3    2.70    2.20
   1   9  -3    0.80    1.40
  -1   9   3   -2.10    2.30
   1   9  -3   -0.60    1.40
   0  -9   3  130.59    7.50
   0  -9  -3  141.39    7.90
   0  -9  -3  141.69    8.50
   0  -9  -3  136.59    8.50
   0  -9   3  151.48    7.60
   0  -9   3  128.59    7.30
   0  -9  -3  129.49    8.10
   0  -9  -3  112.69    8.10
   0  -9  -3  144.29    8.00
   0  -9   3  135.69    7.50
   0   9   3  122.39    8.40
   0   9  -3  136.49    7.30
   0   9   3  136.29    8.00
   0   9   3  133.49    8.30
   0   9  -3  136.59    7.60
   0   9   3  132.49    8.10
   0   9  -3  126.09    7.30
   0   9  -3  133.59    7.50
   0   9   3  136.59    8.20
   0   9  -3  127.99    7.20
   0   9  -3  131.69    7.50
   0   9   3  132.39    8.40
  -1  -9  -3   27.00    3.80
   1  -9   3   24.40    3.30
  -1  -9  -3   27.90    4.20
  -1  -9  -3   34.30    4.40
  -1  -9  -3   28.60    3.70
  -1  -9  -3   26.60    3.80
   1  -9   3   27.40    2.90
   1  -9   3   24.60    3.50
   1  -9   3   25.80    3.60
  -1  -9  -3   25.80    3.80
   1  -9   3   30.00    3.90
   1  -9   3   27.90    4.20
  -1   9  -3   29.80    3.80
  -1   9  -3   26.80    3.80
   1   9   3   31.60    4.60
   1   9   3   28.20    3.60
   1   9   3   33.90    4.20
  -1   9  -3   26.50    3.60
   1   9   3   22.50    3.40
   1   9   3   33.80    4.40
  -1   9  -3   26.20    3.30
  -1   9  -3   24.50    3.70
  -1   9  -3   28.70    3.60
   2  -9   3    4.90    3.60
  -2  -9  -3    7.50    3.40
  -2  -9  -3    3.70    2.70
  -2  -9  -3    1.40    3.10
   2  -9   3    4.60    3.70
  -2  -9  -3    7.70    3.50
   2  -9   3    8.30    3.60
  -2  -9  -3    0.50    2.30
   2  -9   3    0.30    2.60
   2  -9   3    5.50    2.90
  -2  -9  -3    5.20    3.40
  -2   9  -3    1.90    3.10
  -2   9  -3    6.70    4.00
  -2   9  -3    5.30    3.20
   2   9   3    5.70    3.10
  -2   9  -3   -6.60    4.00
  -2   9  -3    5.60    3.70
   2   9   3    4.70    3.20
   2   9   3    4.30    3.00
  -2   9  -3    3.60    3.70
   2   9   3    2.80    3.20
   2   9   3    4.80    3.40
   2   9   3    2.00    3.10
   3  -9   3    3.80    5.50
  -3  -9  -3    1.60    4.60
  -3  -9  -3    2.20    3.20
   3  -9   3   -3.10    5.00
  -3  -9  -3    0.60    3.60
   3  -9   3   -0.60    5.10
   3  -9   3    0.00    4.00
  -3  -9  -3   -1.80    4.50
  -3  -9  -3   -3.80    4.60
   3  -9   3   -2.80    5.50
  -3  -9  -3   -9.00    4.60
   3   9   3    9.50    5.00
   3   9   3   -0.10    4.40
   3   9   3    1.20    4.20
  -3   9  -3    2.00    5.50
   3   9   3    0.90    4.60
  -3   9  -3    0.20    4.80
  -3   9  -3    0.20    6.10
   3   9   3    1.30    4.30
  -3   9  -3   -3.80    5.20
  -3   9  -3   -0.90    6.00
  -3   9  -3   -1.50    5.80
   3   9   3    3.00    4.90
   3 -10  -3    8.50    6.60
   3 -10  -3   10.90    6.60
   3 -10  -3    0.80    4.50
  -3 -10   3    7.90    3.70
   3 -10  -3   12.00    5.10
   3 -10  -3   15.00    6.20
  -3 -10   3    2.00    3.40
  -3 -10   3    5.00    3.90
   3 -10  -3    3.60    5.30
  -3  10   3    9.60    5.90
   3  10  -3   10.80    3.40
  -3  10   3    2.10    5.60
  -3  10   3    7.30    6.00
  -3  10   3   -1.10    5.00
   3  10  -3    9.30    3.20
   3  10  -3    8.50    4.00
   3  10  -3    8.40    3.70
  -3  10   3    1.10    5.50
  -3  10   3   12.90    7.10
   3  10  -3   10.70    3.90
   3  10  -3   14.90    4.00
   2 -10  -3  217.68   12.10
  -2 -10   3  192.28   10.60
  -2 -10   3  187.68   10.60
   2 -10  -3  215.78   12.90
   2 -10  -3  201.78   12.30
   2 -10  -3  200.48   12.80
   2 -10  -3  175.28   12.40
  -2 -10   3  206.58   10.90
  -2 -10   3  192.58   10.70
   2 -10  -3  207.08   12.80
   2  10  -3  191.38   10.60
   2  10  -3  201.68   10.60
  -2  10   3  206.18   13.10
   2  10  -3  200.18   10.60
   2  10  -3  199.08   10.40
   2  10  -3  181.58   10.30
  -2  10   3  183.18   13.00
  -2  10   3  217.58   13.50
   2  10  -3  198.48   10.70
  -2  10   3  191.08   12.20
  -1 -10   3  442.06   21.10
   1 -10  -3  425.26   22.50
   1 -10  -3  484.45   22.80
   1 -10  -3  433.56   22.40
   1 -10  -3  464.35   22.70
  -1 -10   3  467.75   21.20
   1 -10  -3  428.16   22.00
  -1 -10   3  478.85   21.20
   1 -10  -3  462.65   22.10
  -1 -10   3  462.85   21.20
  -1  10   3  430.86   22.10
   1  10  -3  473.45   21.00
  -1  10   3  397.06   22.00
   1  10  -3  439.66   21.00
  -1  10   3  443.86   22.70
   1  10  -3  422.36   21.00
   1  10  -3  452.85   21.10
   1  10  -3  418.86   21.00
  -1  10   3  406.76   22.50
  -1  10   3  442.86   22.60
   1  10  -3  455.35   21.00
  -1  10   3  469.05   22.60
   0 -10  -3    1.40    2.60
   0 -10  -3   -0.30    2.10
   0 -10  -3   -0.10    2.40
   0 -10   3    0.40    1.60
   0 -10  -3    3.20    2.10
   0 -10   3    4.10    2.10
   0 -10  -3    1.40    2.70
   0 -10  -3    0.60    2.60
   0 -10   3   -0.30    1.80
   0 -10   3    3.10    2.00
   0  10  -3    0.40    1.70
   0  10  -3   -0.60    1.90
   0  10  -3    1.10    1.80
   0  10  -3    0.00    1.90
   0  10   3    1.40    2.50
   0  10   3   -1.10    2.30
   0  10   3    0.90    2.80
   0  10   3   -2.40    2.10
   0  10   3    2.90    2.90
   0  10  -3   -2.50    1.80
   0  10  -3    0.60    1.80
   0  10   3    6.60    2.60
   1 -10   3  555.24   27.50
   1 -10   3  574.04   27.40
  -1 -10  -3  573.04   27.80
  -1 -10  -3  570.04   27.00
   1 -10   3  574.24   26.70
   1 -10   3  542.05   27.60
  -1 -10  -3  558.74   27.70
   1 -10   3  478.35   27.30
  -1 -10  -3  558.94   27.00
  -1 -10  -3  555.84   27.70
  -1 -10  -3  600.74   27.90
   1 -10   3  572.24   26.60
   1  10   3  571.84   27.50
   1  10   3  567.54   27.70
  -1  10  -3  565.14   27.30
   1  10   3  577.74   27.50
   1  10   3  577.34   27.70
   1  10   3  610.14   27.80
  -1  10  -3  576.04   27.30
  -1  10  -3  611.34   27.70
  -1  10  -3  585.94   27.70
   1  10   3  566.64   27.80
  -1  10  -3  586.64   27.40
  -1  10  -3  578.34   27.60
   2 -10   3  766.62   38.50
   2 -10   3  832.92   38.60
  -2 -10  -3  760.72   38.20
  -2 -10  -3  796.32   38.40
  -2 -10  -3  775.52   37.20
   2 -10   3  890.21   39.20
  -2 -10  -3  814.82   38.50
  -2 -10  -3  801.22   37.40
   2 -10   3  781.62   37.50
   2 -10   3  794.92   37.60
  -2 -10  -3  778.92   38.20
   2  10   3  841.42   38.70
  -2  10  -3  797.42   38.60
  -2  10  -3  823.52   38.90
   2  10   3  806.32   38.00
   2  10   3  791.72   37.90
  -2  10  -3  776.82   38.60
  -2  10  -3  794.32   38.30
   2  10   3  786.72   38.20
  -2  10  -3  774.52   38.20
  -2  10  -3  767.42   38.10
   2  10   3  807.02   38.30
   2  10   3  800.12   38.20
   3 -10   3   17.90    6.60
   3 -10   3   22.10    6.70
   3 -10   3    9.30    5.50
   3 -10   3   13.60    4.70
  -3 -10  -3   10.90    4.20
  -3 -10  -3   18.80    4.00
   3 -10   3   -0.80    6.30
  -3 -10  -3    8.90    5.80
  -3 -10  -3   10.30    6.00
  -3 -10  -3   10.80    5.20
   3 -10   3   14.50    6.00
   3  10   3   14.40    5.40
   3  10   3   22.40    5.60
  -3  10  -3   18.10    6.50
  -3  10  -3   19.10    7.50
   3  10   3   18.30    5.10
  -3  10  -3   16.50    6.50
  -3  10  -3   19.00    7.20
  -3  10  -3   11.60    6.50
   3  10   3   26.10    5.60
   3  10   3    6.10    5.50
   3  10   3    8.00    4.90
  -3  10  -3   12.50    5.70
   3 -11  -3    9.80    6.90
  -3 -11   3   13.60    4.30
   3 -11  -3   23.70    6.90
   3 -11  -3   17.90    6.40
   3 -11  -3   19.60    6.00
   3 -11  -3   11.20    7.10
   3 -11  -3   18.60    5.80
   3  11  -3   23.10    4.60
  -3  11   3   21.20    6.90
   3  11  -3   17.00    4.50
   3  11  -3   27.00    4.60
  -3  11   3   22.10    7.30
  -3  11   3   11.20    6.30
  -3  11   3   19.70    8.00
   3  11  -3   24.60    4.70
  -3  11   3   24.50    6.60
  -3  11   3   24.20    8.10
  -2 -11   3  130.39    8.50
   2 -11  -3  143.29   10.80
   2 -11  -3  141.79   11.10
   2 -11  -3  128.29    9.80
   2 -11  -3  116.09    9.80
   2 -11  -3  146.29   10.70
   2 -11  -3  130.39   10.40
  -2 -11   3  136.09    8.20
  -2 -11   3  136.09    8.30
  -2  11   3  126.89   11.20
   2  11  -3  132.59    8.20
  -2  11   3  123.99   10.00
   2  11  -3  128.59    7.90
  -2  11   3  138.39   10.80
   2  11  -3  130.99    7.90
  -2  11   3  144.99   11.20
  -2  11   3  127.29   11.20
   2  11  -3  139.09    8.20
   2  11  -3  138.59    8.20
   2  11  -3  131.29    8.00
   1 -11  -3  209.78   12.20
  -1 -11   3  181.88   10.20
   1 -11  -3  202.68   12.20
   1 -11  -3  175.38   11.10
  -1 -11   3  196.68   10.30
  -1 -11   3  170.78   10.30
   1 -11  -3  205.68   11.90
   1 -11  -3  196.68   11.40
   1 -11  -3  191.18   12.00
  -1 -11   3  193.18   10.30
   1  11  -3  202.88   10.20
   1  11  -3  193.38   10.30
  -1  11   3  206.58   11.80
   1  11  -3  198.18   10.30
   1  11  -3  198.28   10.10
  -1  11   3  190.08   11.60
  -1  11   3  175.98   12.00
  -1  11   3  192.68   11.90
  -1  11   3  195.98   11.50
  -1  11   3  185.28   12.00
   1  11  -3  194.48   10.30
   1  11  -3  197.38   10.10
   0 -11   3   47.00    4.40
   0 -11   3   40.70    4.70
   0 -11  -3   48.40    5.00
   0 -11  -3   39.50    4.80
   0 -11  -3   45.90    5.80
   0 -11  -3   56.19    6.00
   0 -11   3   45.30    4.80
   0 -11  -3   51.69    5.80
   0 -11  -3   45.80    5.70
   0  11  -3   43.30    4.70
   0  11   3   52.79    6.00
   0  11  -3   44.70    4.50
   0  11  -3   46.80    4.60
   0  11   3   42.30    5.50
   0  11   3   53.79    6.00
   0  11   3   48.50    5.30
   0  11  -3   38.80    4.40
   0  11   3   53.09    5.90
   0  11   3   57.69    6.40
   0  11  -3   39.80    4.30
   0  11  -3   52.39    4.80
   1 -11   3  395.06   18.20
  -1 -11  -3  353.36   17.40
   1 -11   3  297.27   17.90
  -1 -11  -3  347.37   17.40
   1 -11   3  356.16   16.90
  -1 -11  -3  363.76   18.50
  -1 -11  -3  333.97   18.20
  -1 -11  -3  345.57   18.40
   1 -11   3  362.16   18.10
   1 -11   3  360.96   17.00
   1 -11   3  361.36   18.20
  -1 -11  -3  342.57   18.30
  -1  11  -3  337.27   18.00
  -1  11  -3  352.06   17.80
   1  11   3  349.27   18.20
  -1  11  -3  353.16   18.20
  -1  11  -3  351.66   17.90
   1  11   3  355.56   18.00
  -1  11  -3  352.86   17.80
  -1  11  -3  335.47   18.10
   1  11   3  303.57   17.80
   1  11   3  356.96   18.30
   1  11   3  352.16   18.20
   1  11   3  355.76   18.50
   2 -11   3   60.69    6.20
   2 -11   3   51.99    7.40
  -2 -11  -3   59.29    7.50
  -2 -11  -3   52.09    7.10
  -2 -11  -3   62.69    6.00
   2 -11   3   59.89    7.60
  -2 -11  -3   58.29    5.60
   2 -11   3   51.69    6.10
   2 -11   3   55.29    8.20
  -2 -11  -3   63.99    7.40
   2  11   3   53.29    6.80
  -2  11  -3   60.99    8.10
  -2  11  -3   63.49    7.70
   2  11   3   52.09    7.40
   2  11   3   55.39    7.20
  -2  11  -3   63.29    7.10
  -2  11  -3   56.99    8.30
   2  11   3   53.49    7.00
  -2  11  -3   58.29    7.80
   2  11   3   57.69    6.80
  -2  11  -3   58.59    7.30
  -3 -11  -3  348.47   18.50
   3 -11   3  348.67   19.40
   3 -11   3  360.26   19.80
   3 -11   3  323.37   21.60
   3 -11   3  348.77   21.00
  -3 -11  -3  338.27   20.40
  -3 -11  -3  338.07   20.40
   3 -11   3  356.66   21.30
   3 -11   3  341.47   21.60
  -3 -11  -3  350.06   20.70
  -3  11  -3  351.76   21.30
   3  11   3  362.36   20.20
   3  11   3  360.46   20.50
   3  11   3  347.87   19.80
  -3  11  -3  333.77   20.70
   3  11   3  364.56   20.70
   3  11   3  341.77   19.80
  -3  11  -3  384.16   21.90
   3  11   3  343.17   19.80
  -3  11  -3  350.96   20.30
  -3  11  -3  321.37   21.50
  -3  11  -3  373.56   22.20
  -3 -12   3   45.70    6.00
   3 -12  -3   54.99    7.80
   3 -12  -3   50.59    7.80
   3 -12  -3   54.49    8.60
   3 -12  -3   65.89    9.80
   3 -12  -3   52.19    8.80
  -3 -12   3   57.69    8.00
   3 -12  -3   39.10    9.70
   3  12  -3   55.49    7.60
  -3  12   3   87.49   12.70
   3  12  -3   46.90    6.50
  -3  12   3   77.09   10.40
  -3  12   3   60.99    9.30
  -3  12   3   38.70    9.50
   3  12  -3   63.79    6.80
  -3  12   3   69.69    8.70
   3  12  -3   54.39    6.30
  -3  12   3   37.60    9.70
   3  12  -3   53.79    6.60
   3  12  -3   52.79    6.10
   2 -12  -3  529.05   27.20
   2 -12  -3  572.44   28.00
   2 -12  -3  507.25   27.30
   2 -12  -3  523.25   27.50
  -2 -12   3  525.95   25.30
   2 -12  -3  553.34   26.70
  -2 -12   3  531.85   25.40
   2  12  -3  496.65   25.20
  -2  12   3  475.05   27.70
  -2  12   3  531.25   27.20
   2  12  -3  535.65   25.20
   2  12  -3  473.05   24.80
   2  12  -3  527.55   25.30
   2  12  -3  518.95   25.00
  -2  12   3  544.35   27.80
  -2  12   3  527.95   27.40
  -2  12   3  539.45   28.00
   2  12  -3  527.05   25.00
   1 -12  -3  530.05   26.60
   1 -12  -3  523.85   26.60
   1 -12  -3  538.05   25.90
  -1 -12   3  514.25   25.00
  -1 -12   3  518.75   25.00
   1 -12  -3  535.65   25.80
  -1 -12   3  508.25   25.00
   1 -12  -3  515.65   26.80
  -1 -12   3  527.75   25.00
   1  12  -3  531.25   25.00
   1  12  -3  556.14   24.80
  -1  12   3  518.35   26.70
  -1  12   3  514.55   26.10
   1  12  -3  520.15   24.90
  -1  12   3  501.45   26.60
  -1  12   3  534.45   26.50
  -1  12   3  517.65   26.80
   1  12  -3  522.45   24.70
  -1  12   3  518.45   26.20
   1  12  -3  514.95   24.90
   1  12  -3  526.95   25.00
   0 -12  -3  487.05   24.20
   0 -12  -3  484.55   23.50
   0 -12   3  469.75   23.50
   0 -12  -3  479.65   24.40
   0 -12  -3  483.35   24.40
   0 -12   3  494.45   23.50
   0 -12  -3  483.55   23.40
   0  12   3  497.75   24.30
   0  12  -3  468.25   23.30
   0  12   3  509.45   24.60
   0  12   3  461.25   24.20
   0  12  -3  468.35   23.10
   0  12   3  442.56   24.20
   0  12  -3  477.05   23.30
   0  12   3  495.45   24.10
   0  12  -3  489.45   23.20
   0  12   3  465.35   23.80
   0  12  -3  452.75   23.20
   0  12  -3  511.45   23.50
  -1 -12  -3   15.70    4.00
  -1 -12  -3   17.90    3.30
   1 -12   3   20.90    3.90
  -1 -12  -3   25.70    4.70
   1 -12   3   21.30    2.90
   1 -12   3   22.50    4.10
  -1 -12  -3   18.20    4.50
  -1 -12  -3   17.30    4.00
   1 -12   3   24.30    3.00
  -1 -12  -3   16.90    3.40
   1 -12   3   16.50    4.20
  -1  12  -3   18.60    4.40
   1  12   3   26.90    4.20
   1  12   3   20.50    4.50
   1  12   3   17.40    4.60
   1  12   3   20.60    4.40
  -1  12  -3   23.20    4.10
   1  12   3   21.60    4.50
  -1  12  -3   19.70    4.10
  -1  12  -3   24.10    3.90
  -1  12  -3   18.50    4.00
  -1  12  -3   17.50    3.70
   1  12   3   19.90    3.90
  -2 -12  -3  264.77   16.40
   2 -12   3  280.07   17.30
   2 -12   3  294.07   16.70
  -2 -12  -3  265.17   16.40
   2 -12   3  289.27   15.40
  -2 -12  -3  273.87   16.50
  -2 -12  -3  278.67   14.90
   2 -12   3  278.97   15.40
   2 -12   3  290.37   17.30
   2 -12   3  291.77   16.70
  -2 -12  -3  282.67   15.00
  -2 -12  -3  282.07   16.80
   2  12   3  269.07   16.00
   2  12   3  281.37   16.00
  -2  12  -3  299.77   17.20
  -2  12  -3  285.57   16.40
   2  12   3  286.27   16.40
  -2  12  -3  266.37   16.20
  -2  12  -3  314.07   17.60
   2  12   3  288.97   16.20
  -2  12  -3  294.77   17.10
   2  12   3  298.27   17.10
  -2  12  -3  284.87   16.70
  -3 -12  -3   38.50    6.90
  -3 -12  -3   37.50    5.40
  -3 -12  -3   20.10    6.80
   3 -12   3   43.80    9.40
   3 -12   3   31.30    7.90
   3 -12   3   26.90    8.20
   3 -12   3   37.00    7.10
   3 -12   3   33.80    6.10
   3 -12   3   32.00    8.00
  -3 -12  -3   31.70    7.70
  -3  12  -3   22.70    9.00
   3  12   3   17.30    6.20
   3  12   3   40.80    7.40
   3  12   3   27.50    7.20
  -3  12  -3   29.70    7.40
  -3  12  -3   24.40    7.60
  -3  12  -3   36.70    8.00
   3  12   3   29.10    5.90
   3  12   3   26.90    7.00
   3  12   3   29.50    6.90
  -3  12  -3   29.50    8.90
  -3  12  -3   21.00    7.00
   2 -13  -3  309.87   20.30
   2 -13  -3  352.76   20.00
  -2 -13   3  297.17   17.40
   2 -13  -3  327.17   19.30
   2 -13  -3  359.56   20.30
   2 -13  -3  337.47   20.70
  -2 -13   3  342.87   17.50
   2 -13  -3  343.57   19.00
  -2  13   3  346.17   20.50
   2  13  -3  344.07   17.20
   2  13  -3  337.37   17.50
   2  13  -3  356.46   17.80
   2  13  -3  339.47   17.10
   2  13  -3  342.97   17.40
  -2  13   3  370.96   20.40
  -2  13   3  344.97   21.00
  -2  13   3  337.97   19.60
   2  13  -3  337.97   17.20
  -2  13   3  347.17   20.30
  -2  13   3  353.16   21.10
   1 -13  -3   37.60    6.60
  -1 -13   3   43.40    5.50
   1 -13  -3   52.89    6.80
  -1 -13   3   52.59    5.60
   1 -13  -3   49.80    6.70
   1 -13  -3   54.19    7.50
   1  13  -3   50.39    5.20
  -1  13   3   45.80    6.70
   1  13  -3   53.19    5.10
  -1  13   3   53.39    7.20
  -1  13   3   54.49    7.30
  -1  13   3   37.20    5.70
  -1  13   3   60.09    8.40
   1  13  -3   43.40    5.30
  -1  13   3   54.89    8.20
   1  13  -3   47.70    5.30
   1  13  -3   51.19    5.50
   1  13  -3   46.40    5.30
   0 -13  -3  130.49    9.70
   0 -13  -3  124.39    8.40
   0 -13  -3  113.39    8.30
   0 -13   3  124.29    8.60
   0 -13   3  122.39    8.40
   0 -13  -3  113.59    9.50
   0 -13  -3  128.69    9.60
   0  13   3  105.39    9.30
   0  13   3  130.09    9.40
   0  13  -3  130.19    8.40
   0  13   3  125.19    9.20
   0  13  -3  119.39    8.10
   0  13  -3  122.59    8.20
   0  13  -3  126.89    8.40
   0  13   3  132.39    9.80
   0  13  -3  115.39    7.90
   0  13  -3  113.99    8.40
   0  13   3  118.19    9.50
   0  13   3  128.19   10.10
  -1 -13  -3  185.38   12.80
  -1 -13  -3  208.58   13.00
  -1 -13  -3  213.58   11.60
   1 -13   3  213.48   12.50
  -1 -13  -3  196.88   11.60
   1 -13   3  206.58   10.90
   1 -13   3  208.68   12.50
   1 -13   3  212.48   10.80
  -1 -13  -3  211.78   12.90
  -1  13  -3  209.58   12.70
   1  13   3  191.58   12.70
  -1  13  -3  208.08   12.70
  -1  13  -3  206.28   12.50
   1  13   3  222.68   12.70
  -1  13  -3  202.28   13.00
   1  13   3  219.38   12.70
  -1  13  -3  209.98   12.20
   1  13   3  208.98   13.10
  -1  13  -3  199.78   12.20
   1  13   3  218.08   12.80
   1  13   3  187.38   12.60
   2 -13   3   94.69   10.00
   2 -13   3   90.39    9.60
  -2 -13  -3   91.69    7.70
   2 -13   3   93.29   10.80
  -2 -13  -3   85.29    9.70
   2 -13   3   97.79    8.10
   2 -13   3   94.59   11.00
  -2 -13  -3   91.69   10.50
  -2 -13  -3   77.89    9.50
   2 -13   3  101.49    8.40
  -2  13  -3   94.39   10.00
   2  13   3   82.89   10.40
   2  13   3  104.09    9.80
   2  13   3   90.69    9.40
  -2  13  -3  117.39   11.50
   2  13   3   92.49    9.40
  -2  13  -3  100.49   11.10
  -2  13  -3  105.49   10.70
   2  13   3   95.39    9.50
  -2  13  -3   99.29    9.60
   2  13   3  113.69    9.20
  -2  13  -3   90.49    9.80
   2 -14  -3    6.50    5.50
   2 -14  -3   18.00    6.40
   2 -14  -3   14.20    7.30
   2 -14  -3   17.20    6.80
   2 -14  -3   10.40    5.90
  -2 -14   3   12.00    4.00
   2 -14  -3    9.20    7.00
  -2  14   3   14.30    7.50
   2  14  -3   19.20    4.10
   2  14  -3   12.50    4.00
   2  14  -3   14.70    3.90
  -2  14   3   20.40    7.80
   2  14  -3    7.80    3.90
  -2  14   3   13.60    7.20
   2  14  -3   16.00    4.30
  -2  14   3   15.60    7.30
  -2  14   3    9.40    6.80
   2  14  -3   25.60    4.60
  -2  14   3   17.10    5.80
  -1 -14   3  259.27   14.30
  -1 -14   3  257.47   14.30
   1 -14  -3  277.47   15.40
   1 -14  -3  261.77   16.60
   1 -14  -3  281.97   15.00
   1 -14  -3  265.37   16.10
   1  14  -3  255.67   14.10
   1  14  -3  253.87   13.80
  -1  14   3  265.07   16.30
  -1  14   3  282.97   15.90
   1  14  -3  269.47   14.30
  -1  14   3  265.57   16.80
  -1  14   3  250.97   16.10
   1  14  -3  258.27   14.30
  -1  14   3  238.78   15.80
   1  14  -3  260.17   13.90
  -1  14   3  278.97   16.80
   1  14  -3  266.37   14.20
   0 -14  -3  105.59    9.70
   0 -14  -3   91.29    7.80
   0 -14   3  106.09    8.00
   0 -14  -3   91.99    7.70
   0 -14  -3  110.49    9.40
   0 -14  -3  113.99    9.60
   0 -14   3  105.39    8.30
   0 -14  -3   87.89    9.10
   0  14  -3   98.09    8.00
   0  14  -3   95.49    8.00
   0  14   3   95.59    8.90
   0  14   3   86.29    8.70
   0  14  -3   87.89    7.70
   0  14  -3   87.89    8.00
   0  14  -3  107.79    7.80
   0  14   3   86.09    9.30
   0  14   3  100.39    9.40
   0  14   3   99.09    9.80
   0  14  -3   89.39    7.50
   0  14   3   98.09    9.20
  -1 -14  -3   -3.20    4.50
   1 -14   3   -1.40    2.30
   1 -14   3    0.80    4.60
  -1 -14  -3   -3.10    4.10
   1 -14   3   -2.00    4.10
   1 -14   3    1.50    3.60
  -1 -14  -3   -1.00    4.70
  -1 -14  -3   -0.80    3.10
  -1 -14  -3    4.80    4.50
   1 -14   3    1.50    2.30
  -1 -14  -3    1.90    3.20
   1 -14   3    3.40    5.30
   1  14   3   -5.30    3.60
  -1  14  -3   -3.70    4.10
  -1  14  -3    4.60    5.00
  -1  14  -3    0.40    4.00
  -1  14  -3    2.00    4.10
   1  14   3   -2.80    4.10
  -1  14  -3    7.30    4.10
  -1  14  -3   -8.20    4.10
   1  14   3   -1.60    4.60
   1  14   3   -5.00    4.30
   1  14   3   -1.80    4.40
   1  14   3   -5.10    4.30
   2 -14   3    3.60    4.10
   2 -14   3    0.00    5.90
  -2 -14  -3   10.60    6.40
  -2 -14  -3    2.80    3.90
  -2 -14  -3    9.60    5.40
   2 -14   3   -2.70    5.10
   2 -14   3   -0.80    7.00
  -2 -14  -3    2.00    5.30
   2 -14   3    9.00    6.60
  -2 -14  -3    5.10    3.40
   2 -14   3   11.20    4.30
  -2 -14  -3   -5.60    5.60
  -2  14  -3    3.30    5.50
  -2  14  -3   14.40    6.30
  -2  14  -3   13.50    7.00
   2  14   3    3.60    4.60
   2  14   3    7.40    5.60
  -2  14  -3   16.90    7.10
   2  14   3   -2.50    5.90
  -2  14  -3    0.80    5.70
   2  14   3    4.00    5.60
   2  14   3    2.00    5.00
  -2  14  -3    8.90    5.60
   2  14   3    1.30    5.60
   2 -15  -3   31.40    6.90
   2 -15  -3   26.00    8.30
   2 -15  -3   37.70    7.80
   2 -15  -3   51.89    9.20
   2 -15  -3   34.80    8.80
  -2 -15   3   31.80    5.50
  -2 -15   3   29.50    4.70
   2  15  -3   33.10    5.50
  -2  15   3   21.40    8.50
   2  15  -3   34.80    4.80
   2  15  -3   38.30    5.20
   2  15  -3   26.40    4.90
  -2  15   3   27.00    8.10
   2  15  -3   31.80    5.70
  -2  15   3   23.70    9.00
  -2  15   3   27.50    9.80
   1 -15  -3  122.29   12.50
  -1 -15   3  128.29    9.60
   1 -15  -3  140.39   10.50
   1 -15  -3  122.49   12.10
   1 -15  -3  127.89   12.60
   1  15  -3  119.39    9.30
   1  15  -3  136.09    9.10
   1  15  -3  135.19    9.60
  -1  15   3  141.29   13.30
  -1  15   3  129.89   12.50
  -1  15   3  143.49   11.50
  -1  15   3  136.89   11.80
   1  15  -3  125.49    9.40
   1  15  -3  127.69    8.90
  -1  15   3  127.19   13.10
   1  15  -3  125.89    9.40
  -1  15   3  137.99   11.90
   0 -15   3    9.40    4.40
   0 -15  -3    5.20    3.90
   0 -15  -3   11.30    5.50
   0 -15  -3   11.20    4.10
   0 -15  -3   13.50    5.40
   0 -15  -3   17.00    5.70
   0 -15   3    7.90    4.40
   0 -15  -3   18.60    5.30
   0 -15   3    6.20    4.30
   0  15   3    7.60    5.90
   0  15  -3    7.70    4.10
   0  15  -3   20.70    4.50
   0  15   3    9.90    5.20
   0  15  -3   11.10    3.90
   0  15   3    1.40    4.90
   0  15   3    4.20    5.40
   0  15   3    9.70    5.40
   0  15   3   10.20    5.50
   0  15  -3    7.20    4.60
   0  15  -3   12.90    4.40
   0  15  -3   10.90    4.80
  -1 -15  -3   29.90    6.60
  -1 -15  -3   25.50    5.90
   1 -15   3   32.40    6.30
   1 -15   3   34.20    6.80
  -1 -15  -3   31.70    6.60
  -1 -15  -3   32.40    4.70
   1 -15   3   33.10    6.10
   1 -15   3   19.50    3.00
   1  15   3   36.80    6.60
   1  15   3   34.70    6.50
   1  15   3   33.60    6.30
  -1  15  -3   21.00    5.90
  -1  15  -3   23.60    5.10
  -1  15  -3   36.60    5.70
   1  15   3   32.10    5.70
   1  15   3   30.70    6.20
   1  15   3   28.10    5.70
  -1  15  -3   21.90    6.10
  -1  15  -3   14.90    6.10
  -1  15  -3   30.40    5.70
  -2 -15  -3    1.10    7.40
  -2 -15  -3   12.40    4.40
   2 -15   3   13.70    6.90
  -2 -15  -3    5.90    7.20
   2 -15   3    3.90    4.50
  -2  15  -3   -7.80    7.70
   2  15   3   -6.90    6.20
  -2  15  -3    4.70    8.30
   2  15   3   13.10    6.60
   1 -16  -3   28.00    7.20
   1 -16  -3   35.40    8.10
  -1 -16   3   33.40    5.40
  -1 -16   3   30.40    6.00
   1 -16  -3   32.50    6.30
   1 -16  -3   39.60    8.10
   1 -16  -3   20.10   11.00
  -1  16   3   40.20    9.00
  -1  16   3   26.30    6.70
   1  16  -3   33.20    5.50
   1  16  -3   36.90    5.70
  -1  16   3   24.00    7.10
   1  16  -3   38.60    5.50
   1  16  -3   35.50    6.10
   1  16  -3   37.20    5.20
  -1  16   3   28.00    7.00
   1  16  -3   36.10    7.90
  -1  16   3   13.80    7.00
  -1  16   3   25.40    7.80
   0 -16   3  117.49   10.80
   0 -16  -3   97.29    9.60
   0 -16   3  108.99   10.40
   0 -16  -3  135.09    9.80
   0 -16  -3  128.79   12.50
   0 -16  -3  130.69   11.90
   0 -16  -3  134.59   12.30
   0  16  -3  112.99   10.70
   0  16  -3  122.09   10.20
   0  16  -3  131.09   10.50
   0  16   3  121.29   12.10
   0  16  -3  112.19   10.20
   0  16  -3  114.79   10.40
   0  16   3  123.89   11.90
   0  16   3  136.79   11.50
   0  16   3  134.49   11.50
   0  16   3  150.48   12.20
   0  16  -3  128.89   10.20
   0  16   3   97.19   11.90
   1 -16   3    5.00    3.60
  -1 -16  -3   17.80    4.50
  -1 -16  -3   10.60    6.20
  -1 -16  -3   11.10    6.70
   1 -16   3   11.30    6.50
   1 -16   3    4.90    6.30
  -1 -16  -3   -6.90    3.70
   1  16   3    5.40    6.80
  -1  16  -3    4.30    5.90
   1  16   3   16.10    6.40
  -1  16  -3   -1.30    6.50
   1  16   3    3.10    5.30
   1  16   3   16.30    6.20
  -1  16  -3   16.00    5.80
  -1  16  -3   16.70    5.60
   1  16   3    0.80    6.30
  -4   0   4  233.18   13.80
   4   0  -4  234.28   15.30
   4   0  -4  257.97   15.70
   4   0  -4  241.48   14.90
   4   0  -4  228.78   15.10
  -4   0   4  247.28   15.30
  -4   0   4  227.78   13.60
   4   0  -4  222.18   15.10
  -4   0   4  232.28   15.70
  -4   0   4  246.58   15.40
   4   0  -4  254.67   15.50
  -4   0   4  230.98   16.10
   3   0  -4  393.96   19.60
  -3   0   4  389.86   19.10
  -3   0   4  369.06   19.90
   3   0  -4  413.76   20.10
  -3   0   4  348.27   19.70
   3   0  -4  416.06   20.10
  -3   0   4  394.26   20.00
  -3   0   4  427.86   20.00
   3   0  -4  361.46   19.50
   3   0  -4  385.36   19.80
  -3   0   4  366.96   18.90
   3   0  -4  390.26   19.90
   2   0  -4    1.90    1.60
  -2   0   4    1.50    1.80
   2   0  -4    2.70    1.70
  -2   0   4    1.80    1.90
   2   0  -4    5.60    2.00
   2   0  -4    2.40    1.70
   2   0  -4    4.70    1.90
  -2   0   4    3.20    1.60
   2   0  -4    2.60    1.90
  -2   0   4    2.20    1.40
  -2   0   4    4.60    2.10
  -1   0   4 3647.24  166.08
  -1   0   4 3920.11  166.08
  -1   0   4 3678.43  165.78
   1   0  -4 3301.67  165.98
  -1   0   4 3918.81  166.08
  -1   0   4 3770.32  165.78
   1   0  -4 3687.73  165.88
   1   0  -4 3979.80  166.08
   1   0  -4 3586.54  165.98
   1   0  -4 3724.93  165.88
   1   0  -4 3688.53  165.98
   0   0  -4 2550.94  104.99
   0   0   4 2272.67  104.69
   0   0  -4 2364.56  104.79
   0   0   4 2197.48  104.89
   0   0   4 2150.48  104.89
   0   0  -4 2248.77  104.79
   0   0   4 2450.25  104.79
   0   0  -4 2372.26  104.89
   0   0  -4 2485.05  104.89
   0   0   4 2390.76  104.89
   0   0  -4 2327.27  104.89
   1   0   4   64.59    4.20
   1   0   4   64.19    4.20
   1   0   4   61.79    3.90
  -1   0  -4   60.69    4.10
   1   0   4   54.59    4.30
   1   0   4   65.19    4.50
  -1   0  -4   64.49    4.10
   1   0   4   68.49    4.30
  -1   0  -4   59.09    4.20
  -1   0  -4   58.09    4.30
  -1   0  -4   70.89    4.50
  -1   0  -4   54.29    4.20
   2   0   4  221.48   11.70
   2   0   4  235.78   12.20
  -2   0  -4  209.08   12.20
   2   0   4  222.18   12.20
   2   0   4  217.78   12.30
   2   0   4  228.78   12.20
  -2   0  -4  241.18   11.90
  -2   0  -4  223.08   12.20
  -2   0  -4  205.18   12.00
  -2   0  -4  215.78   12.10
  -2   0  -4  224.48   11.80
  -3   0  -4  433.26   24.70
  -3   0  -4  494.95   24.40
  -3   0  -4  459.35   25.00
   3   0   4  504.45   24.60
  -3   0  -4  525.25   25.40
   3   0   4  482.55   25.00
   3   0   4  464.35   24.20
  -3   0  -4  514.85   24.50
   3   0   4  503.85   25.20
   3   0   4  462.35   24.60
   3   0   4  505.15   25.40
  -3   0  -4  503.85   25.20
   4   0   4  346.77   20.30
  -4   0  -4  317.97   19.10
   4   0   4  292.57   19.40
   4   0   4  317.97   20.00
  -4   0  -4  333.77   20.80
  -4   0  -4  331.77   20.20
   4   0   4  309.57   20.50
   4   0   4  333.47   19.20
   4   0   4  315.07   19.50
  -4   0  -4  321.17   19.50
  -4   0  -4  321.07   19.60
  -4   0  -4  348.17   19.60
   4  -1  -4   64.69    9.10
  -4  -1   4   62.29    7.10
  -4  -1   4   65.79    9.90
   4  -1  -4   74.19    9.60
  -4  -1   4   71.49    9.00
  -4  -1   4   84.59    9.60
   4  -1  -4   67.99    8.30
  -4  -1   4   68.39    8.00
   4  -1  -4   57.19    7.20
   4  -1  -4   73.19    9.60
  -4  -1   4   62.39    6.90
   4  -1  -4   77.99   10.10
  -4   1   4   70.49    8.10
  -4   1   4   67.79    9.80
   4   1  -4   73.09    8.70
  -4   1   4   52.09    7.30
  -4   1   4   66.29    8.50
   4   1  -4   64.59    9.20
   4   1  -4   57.59    7.30
  -4   1   4   74.09    7.70
  -4   1   4   58.69    7.70
   4   1  -4   70.49    9.30
   4   1  -4   60.29    7.00
   4   1  -4   78.79    9.60
  -3  -1   4  127.19    7.60
   3  -1  -4  118.19    8.80
   3  -1  -4  123.89    8.80
  -3  -1   4  126.19    8.90
  -3  -1   4  126.69    8.70
   3  -1  -4  108.49    8.40
  -3  -1   4  136.39    8.70
   3  -1  -4  129.69    8.60
   3  -1  -4  132.59    9.10
  -3  -1   4  133.29    8.70
  -3  -1   4  122.39    7.50
   3  -1  -4  144.09    8.90
  -3   1   4  118.69    9.10
   3   1  -4  129.39    8.80
  -3   1   4  115.29    8.60
   3   1  -4  139.39    8.60
  -3   1   4  126.09    8.20
   3   1  -4  128.09    8.50
   3   1  -4  126.89    8.50
  -3   1   4  117.29    8.80
  -3   1   4  123.89    8.00
   3   1  -4  126.79    8.50
   3   1  -4  134.09    8.30
  -3   1   4  132.79    8.90
  -2  -1   4   -0.30    1.20
   2  -1  -4    1.20    1.60
  -2  -1   4   -1.30    1.70
  -2  -1   4    2.30    1.80
  -2  -1   4   -0.90    1.60
   2  -1  -4   -0.10    1.60
   2  -1  -4    0.40    1.80
   2  -1  -4   -1.30    1.60
  -2  -1   4    0.50    1.20
   2  -1  -4   -1.50    1.80
   2  -1  -4    1.20    1.60
   2   1  -4   -0.20    1.40
  -2   1   4    1.90    1.60
   2   1  -4    1.80    1.80
   2   1  -4    0.40    1.60
   2   1  -4    0.10    1.60
  -2   1   4   -0.50    1.90
   2   1  -4    3.30    1.60
  -2   1   4    2.60    2.00
  -2   1   4   -1.20    1.70
  -2   1   4    2.00    1.90
   2   1  -4    1.50    1.70
  -1  -1   4   83.49    3.80
   1  -1  -4   70.49    4.60
  -1  -1   4   84.29    4.30
   1  -1  -4   74.39    4.60
   1  -1  -4   70.59    4.40
  -1  -1   4   75.59    4.30
  -1  -1   4   78.59    4.30
   1  -1  -4   78.89    4.50
  -1  -1   4   80.59    3.80
   1  -1  -4   71.39    4.60
   1  -1  -4   68.29    4.60
  -1  -1   4   78.49    4.30
   1   1  -4   80.99    4.20
  -1   1   4   76.29    4.40
   1   1  -4   77.99    4.30
   1   1  -4   80.69    4.20
  -1   1   4   79.99    4.70
  -1   1   4   76.89    4.60
  -1   1   4   77.79    4.70
   1   1  -4   86.29    4.30
   1   1  -4   80.39    4.30
   1   1  -4   84.59    4.30
  -1   1   4   75.99    4.70
  -1   1   4   76.79    4.40
   0  -1   4  141.69    6.50
   0  -1   4  159.78    6.80
   0  -1  -4  153.68    7.20
   0  -1  -4  149.09    6.90
   0  -1  -4  143.79    7.10
   0  -1   4  130.49    6.70
   0  -1  -4  134.89    7.00
   0  -1   4  139.19    6.90
   0  -1  -4  134.79    6.90
   0  -1   4  132.59    6.70
   0  -1  -4  130.29    6.90
   0   1  -4  154.18    6.70
   0   1   4  140.49    6.90
   0   1   4  115.69    7.00
   0   1   4  140.39    7.10
   0   1  -4  131.89    6.80
   0   1  -4  148.59    6.80
   0   1   4  136.49    6.90
   0   1  -4  134.09    6.60
   0   1  -4  134.89    6.70
   0   1   4  130.99    7.00
   0   1  -4  148.89    6.80
   1  -1   4   48.00    3.50
   1  -1   4   53.09    4.10
  -1  -1  -4   54.39    4.00
  -1  -1  -4   54.89    4.00
   1  -1   4   52.59    3.90
  -1  -1  -4   53.59    3.70
  -1  -1  -4   52.79    4.10
  -1  -1  -4   52.99    3.70
   1  -1   4   52.69    3.90
   1  -1   4   56.29    4.00
  -1  -1  -4   57.29    4.10
   1   1   4   52.99    3.80
  -1   1  -4   50.59    3.80
  -1   1  -4   54.19    4.00
   1   1   4   53.09    4.10
   1   1   4   54.99    3.70
   1   1   4   52.39    4.00
  -1   1  -4   52.69    3.90
  -1   1  -4   49.99    4.00
   1   1   4   54.99    4.00
  -1   1  -4   55.79    3.80
   1   1   4   51.09    4.10
  -1   1  -4   47.40    3.70
   2  -1   4  154.38    9.10
   2  -1   4  158.98    9.20
   2  -1   4  149.99    9.40
  -2  -1  -4  149.29    8.70
  -2  -1  -4  158.08    9.20
  -2  -1  -4  155.78    8.80
  -2  -1  -4  145.49    9.20
   2  -1   4  135.89    8.80
  -2  -1  -4  156.78    9.00
   2  -1   4  147.89    8.80
  -2  -1  -4  153.28    9.20
   2  -1   4  149.09    8.60
   2   1   4  140.59    9.00
  -2   1  -4  163.48    9.30
  -2   1  -4  149.59    8.80
   2   1   4  147.59    9.20
  -2   1  -4  149.88    9.00
  -2   1  -4  147.99    8.80
   2   1   4  156.88    9.10
   2   1   4  150.38    9.10
  -2   1  -4  153.48    9.30
  -2   1  -4  156.28    9.20
   2   1   4  159.88    8.70
   2   1   4  150.88    8.80
   3  -1   4  486.45   24.60
  -3  -1  -4  514.45   24.60
  -3  -1  -4  514.45   24.70
  -3  -1  -4  500.25   25.00
   3  -1   4  511.35   24.80
  -3  -1  -4  544.85   25.40
   3  -1   4  442.46   24.70
   3  -1   4  461.05   25.30
   3  -1   4  443.06   25.00
  -3  -1  -4  495.45   25.00
   3  -1   4  490.95   25.10
  -3  -1  -4  478.05   25.30
   3   1   4  452.95   25.00
   3   1   4  517.75   25.20
  -3   1  -4  486.05   25.20
   3   1   4  485.05   25.10
  -3   1  -4  521.75   24.80
   3   1   4  501.15   25.50
  -3   1  -4  488.25   25.40
  -3   1  -4  504.15   25.30
  -3   1  -4  476.25   24.90
   3   1   4  502.55   24.50
  -3   1  -4  491.65   24.60
  -4  -1  -4  195.68   15.00
  -4  -1  -4  219.68   14.50
  -4  -1  -4  214.98   14.90
   4  -1   4  226.38   14.80
   4  -1   4  222.18   15.00
  -4  -1  -4  197.78   16.10
   4  -1   4  196.78   16.10
   4  -1   4  200.38   14.90
  -4  -1  -4  191.28   15.60
  -4  -1  -4  237.68   15.10
   4  -1   4  178.98   15.20
   4  -1   4  228.08   16.20
  -4   1  -4  204.68   15.10
   4   1   4  203.68   14.90
  -4   1  -4  193.18   15.20
   4   1   4  227.78   15.70
   4   1   4  219.78   16.30
   4   1   4  218.78   15.80
   4   1   4  218.38   14.70
  -4   1  -4  191.58   14.80
  -4   1  -4  221.88   16.30
  -4   1  -4  209.48   14.80
  -4   1  -4  205.48   16.10
   4   1   4  221.98   15.70
  -4  -2   4  448.96   24.00
   4  -2  -4  486.05   24.60
   4  -2  -4  448.26   23.90
  -4  -2   4  420.66   23.90
   4  -2  -4  453.55   24.50
  -4  -2   4  457.35   22.20
   4  -2  -4  478.95   25.00
   4  -2  -4  460.45   24.90
  -4  -2   4  447.16   24.10
   4  -2  -4  443.36   24.20
  -4  -2   4  438.96   22.10
  -4   2   4  459.95   28.50
   4   2  -4  457.95   23.90
   4   2  -4  466.05   23.80
  -4   2   4  454.65   24.60
  -4   2   4  444.56   23.10
   4   2  -4  429.86   24.00
   4   2  -4  474.05   23.80
  -4   2   4  438.76   24.90
   4   2  -4  456.75   23.60
   4   2  -4  426.66   23.50
  -4   2   4  395.06   23.10
  -4   2   4  443.46   24.40
  -3  -2   4   22.20    4.10
   3  -2  -4   39.70    5.40
   3  -2  -4   23.80    4.50
  -3  -2   4   28.00    4.30
  -3  -2   4   29.60    3.60
  -3  -2   4   21.50    4.00
   3  -2  -4   23.10    4.40
   3  -2  -4   20.40    3.80
   3  -2  -4   30.70    4.70
  -3  -2   4   27.20    3.60
   3  -2  -4   27.30    4.40
  -3  -2   4   24.50    4.30
   3   2  -4   22.60    3.80
  -3   2   4   23.40    3.70
   3   2  -4   28.40    4.20
  -3   2   4   27.00    4.70
  -3   2   4   23.60    4.30
   3   2  -4   31.10    4.10
   3   2  -4   27.20    3.90
   3   2  -4   24.30    4.00
  -3   2   4   29.90    4.60
  -3   2   4   20.60    3.70
  -3   2   4   36.70    5.20
   3   2  -4   27.30    4.10
  -2  -2   4  104.19    6.30
   2  -2  -4  105.09    7.00
  -2  -2   4  105.19    5.60
   2  -2  -4  115.19    6.80
   2  -2  -4  106.39    6.60
  -2  -2   4  117.59    6.50
  -2  -2   4  114.69    5.60
   2  -2  -4  104.49    6.50
   2  -2  -4  105.09    6.90
   2  -2  -4  109.99    6.90
  -2  -2   4  108.89    6.40
  -2  -2   4  107.89    6.50
  -2   2   4   93.29    6.60
   2   2  -4  112.79    6.20
  -2   2   4  102.29    6.40
   2   2  -4  105.69    6.20
  -2   2   4  110.79    7.10
   2   2  -4  114.09    6.40
   2   2  -4   99.09    6.10
   2   2  -4  112.49    6.40
  -2   2   4  108.39    6.40
  -2   2   4  109.49    7.00
  -2   2   4  107.99    7.00
   2   2  -4  107.49    6.30
   1  -2  -4 1990.30   90.39
   1  -2  -4 1903.61   90.19
  -1  -2   4 2031.80   89.79
  -1  -2   4 2009.50   89.79
   1  -2  -4 1972.20   90.39
   1  -2  -4 1994.60   90.39
  -1  -2   4 2050.19   89.79
   1  -2  -4 2000.30   90.19
   1  -2  -4 1926.41   90.39
   1   2  -4 2084.39   89.79
  -1   2   4 1968.70   90.39
   1   2  -4 1954.80   89.69
   1   2  -4 2101.49   89.69
  -1   2   4 2109.59   90.39
  -1   2   4 2025.30   90.19
  -1   2   4 2009.50   90.49
   1   2  -4 1987.00   89.69
  -1   2   4 2114.09   90.19
   1   2  -4 1996.80   89.79
   1   2  -4 1914.21   89.79
  -1   2   4 2073.59   90.49
   0  -2  -4 1038.40   46.90
   0  -2  -4 1012.30   47.10
   0  -2   4 1042.30   46.60
   0  -2  -4 1061.69   47.00
   0  -2   4  934.31   46.60
   0  -2  -4 1159.28   47.20
   0  -2   4  893.81   46.60
   0  -2  -4 1041.20   47.10
   0  -2  -4 1088.89   47.20
   0   2  -4 1109.89   46.70
   0   2  -4  967.40   46.50
   0   2   4 1103.79   47.00
   0   2   4 1039.50   47.10
   0   2   4 1010.80   47.10
   0   2  -4 1059.49   46.60
   0   2  -4 1046.80   46.50
   0   2   4  989.30   46.90
   0   2   4 1024.60   47.10
   0   2  -4 1025.00   46.60
   0   2  -4 1111.69   46.60
  -1  -2  -4 2262.67  103.69
   1  -2   4 2329.17  103.79
  -1  -2  -4 2344.17  103.89
  -1  -2  -4 2319.87  103.69
   1  -2   4 2261.17  103.79
  -1  -2  -4 2202.98  103.89
   1  -2   4 2335.27  103.89
   1  -2   4 2438.76  103.49
  -1  -2  -4 2353.16  103.89
   1  -2   4 2201.18  103.79
  -1  -2  -4 2434.86  103.99
   1  -2   4 2223.38  103.49
   1   2   4 2201.28  103.79
   1   2   4 2133.29  103.79
  -1   2  -4 2284.57  103.89
  -1   2  -4 2360.06  103.59
   1   2   4 2217.78  103.89
   1   2   4 2373.86  103.69
  -1   2  -4 2119.29  103.69
  -1   2  -4 2369.26  103.79
   1   2   4 2308.77  103.69
  -1   2  -4 2664.23  103.99
  -1   2  -4 2235.78  103.59
   1   2   4 2446.96  103.99
   2  -2   4 3321.27  147.19
   2  -2   4 3213.58  147.19
  -2  -2  -4 3275.47  146.69
  -2  -2  -4 3170.18  146.59
  -2  -2  -4 3118.89  146.99
   2  -2   4 3266.37  146.99
   2  -2   4 3252.67  146.69
  -2  -2  -4 3378.26  147.19
   2  -2   4 3309.57  146.69
   2  -2   4 3319.97  147.19
  -2  -2  -4 3267.97  146.99
  -2  -2  -4 3119.79  146.99
   2   2   4 3158.58  146.59
   2   2   4 3182.68  146.99
  -2   2  -4 3459.25  147.19
  -2   2  -4 3490.95  147.39
  -2   2  -4 3274.27  146.79
   2   2   4 3040.30  146.99
  -2   2  -4 3222.38  147.09
   2   2   4 3203.58  146.99
   2   2   4 3240.88  146.79
   2   2   4 3422.96  147.09
  -2   2  -4 3309.67  147.09
  -2   2  -4 3303.17  146.79
  -3  -2  -4  333.37   18.10
   3  -2   4  300.97   17.90
   3  -2   4  305.47   18.00
   3  -2   4  317.37   17.30
  -3  -2  -4  309.87   17.70
   3  -2   4  345.17   18.00
  -3  -2  -4  335.37   17.10
   3  -2   4  338.17   17.40
  -3  -2  -4  312.77   17.20
  -3  -2  -4  339.07   18.10
  -3  -2  -4  332.17   17.90
   3  -2   4  341.27   18.40
  -3   2  -4  291.37   17.90
   3   2   4  342.77   18.10
  -3   2  -4  319.87   18.00
   3   2   4  305.17   18.00
   3   2   4  325.47   17.20
  -3   2  -4  305.87   17.30
   3   2   4  306.07   17.60
   3   2   4  308.57   17.30
  -3   2  -4  318.97   17.50
  -3   2  -4  324.37   18.00
  -3   2  -4  337.27   18.10
   3   2   4  350.16   17.80
   4  -2   4   27.00    7.40
  -4  -2  -4   53.19    8.20
  -4  -2  -4   41.40    7.10
   4  -2   4   18.90    6.20
  -4  -2  -4   38.70    8.40
  -4  -2  -4   38.00    6.60
   4  -2   4   29.10    6.50
  -4  -2  -4   36.50    7.60
  -4  -2  -4   31.60    7.30
   4  -2   4   46.20    8.40
   4  -2   4   25.80    7.10
   4  -2   4   35.00    8.20
  -4   2  -4   46.30    8.50
  -4   2  -4   34.40    8.10
   4   2   4   37.00    7.90
   4   2   4   40.70    7.60
   4   2   4   37.90    8.00
   4   2   4   49.50    8.00
   4   2   4   45.90    7.60
   4   2   4   33.30    6.60
  -4   2  -4   30.90    7.10
  -4   2  -4   39.90    8.00
  -4   2  -4   31.20    8.30
  -4   2  -4   39.50    7.40
   4  -3  -4   42.90    7.30
  -4  -3   4   41.70    4.60
   4  -3  -4   53.79    7.80
   4  -3  -4   54.99    8.00
  -4  -3   4   51.09    7.00
  -4  -3   4   38.60    6.50
  -4  -3   4   42.00    6.80
   4  -3  -4   46.90    7.10
   4  -3  -4   43.60    7.40
   4  -3  -4   35.80    7.10
  -4   3   4   46.30    8.00
   4   3  -4   37.40    6.30
  -4   3   4   35.30    7.20
  -4   3   4   34.90    6.70
   4   3  -4   49.99    6.20
  -4   3   4   52.29    6.50
   4   3  -4   57.39    8.50
  -4   3   4   39.50    7.50
   4   3  -4   55.69    6.90
   4   3  -4   46.90    6.60
   4   3  -4   40.70    6.50
   3  -3  -4    7.00    3.70
  -3  -3   4    6.30    1.80
  -3  -3   4    0.20    3.00
  -3  -3   4    3.40    3.00
  -3  -3   4    6.40    3.00
   3  -3  -4    7.60    3.90
  -3  -3   4    8.40    1.90
   3  -3  -4    8.70    3.90
   3  -3  -4    5.70    3.20
   3  -3  -4    4.70    3.20
   3  -3  -4    7.00    3.60
   3   3  -4    5.90    2.80
   3   3  -4    1.60    3.00
   3   3  -4    8.00    3.00
  -3   3   4    3.10    3.80
   3   3  -4    6.10    3.10
  -3   3   4    5.10    4.00
  -3   3   4    5.20    3.60
   3   3  -4    2.40    2.90
   3   3  -4    8.30    3.10
  -3   3   4    5.90    3.00
  -3   3   4   13.40    4.00
   2  -3  -4 3370.66  147.39
   2  -3  -4 3261.37  147.69
  -2  -3   4 3261.27  146.09
   2  -3  -4 3003.40  147.49
  -2  -3   4 3421.06  147.09
  -2  -3   4 3200.88  146.99
  -2  -3   4 3263.07  146.99
   2  -3  -4 3412.76  147.49
  -2  -3   4 3210.58  146.99
   2  -3  -4 3558.54  147.89
   2  -3  -4 3110.89  147.59
  -2  -3   4 3236.38  146.09
   2   3  -4 3205.98  146.89
  -2   3   4 3290.57  147.29
  -2   3   4 3279.57  147.29
   2   3  -4 3339.07  146.89
   2   3  -4 3295.47  146.89
  -2   3   4 3368.16  147.89
   2   3  -4 3408.56  146.99
  -2   3   4 3319.67  147.69
  -2   3   4 2946.71  147.49
   2   3  -4 3379.86  146.99
   2   3  -4 3343.17  146.99
  -2   3   4 3261.87  147.79
   1  -3  -4   26.50    2.70
   1  -3  -4   24.40    2.70
  -1  -3   4   24.20    1.70
   1  -3  -4   29.10    2.70
  -1  -3   4   25.50    1.70
   1  -3  -4   22.60    2.60
  -1  -3   4   28.70    1.80
   1  -3  -4   28.20    2.90
   1  -3  -4   23.90    2.80
  -1  -3   4   26.60    1.70
   1   3  -4   27.10    1.40
  -1   3   4   26.30    2.70
  -1   3   4   23.50    2.80
  -1   3   4   24.10    2.70
  -1   3   4   26.60    2.70
   1   3  -4   26.20    1.60
  -1   3   4   27.30    3.00
   1   3  -4   24.00    1.60
   1   3  -4   26.10    1.60
   1   3  -4   25.50    1.60
   1   3  -4   26.60    1.50
  -1   3   4   25.30    2.60
   0  -3  -4 2042.60   94.79
   0  -3  -4 2075.49   94.79
   0  -3   4 2033.00   94.19
   0  -3   4 2151.38   94.19
   0  -3  -4 2113.09   94.59
   0  -3  -4 2019.80   94.79
   0  -3  -4 2098.59   94.79
   0  -3   4 2178.18   94.19
   0  -3  -4 2074.89   94.59
   0   3   4 2113.69   94.79
   0   3  -4 1944.41   94.09
   0   3  -4 1966.70   94.09
   0   3   4 2184.08   94.69
   0   3   4 2236.08   94.69
   0   3  -4 2145.79   93.99
   0   3   4 2087.89   94.79
   0   3  -4 2168.58   94.09
   0   3  -4 2085.39   93.99
   0   3   4 2185.28   94.89
   0   3   4 2097.69   94.79
   0   3  -4 2192.58   94.19
   1  -3   4    0.80    1.20
  -1  -3  -4    0.50    1.60
  -1  -3  -4    1.70    1.60
   1  -3   4    0.10    1.50
  -1  -3  -4    0.50    1.30
  -1  -3  -4    0.90    1.30
   1  -3   4    0.20    1.20
  -1  -3  -4    1.30    1.60
  -1  -3  -4    0.90    1.70
   1  -3   4   -1.00    1.40
   1  -3   4    0.30    1.50
   1  -3   4    1.50    1.70
   1   3   4    0.90    1.30
  -1   3  -4   -0.10    1.60
  -1   3  -4    0.10    1.60
   1   3   4    0.50    1.40
  -1   3  -4    0.50    1.50
  -1   3  -4    1.90    1.50
  -1   3  -4    1.70    1.60
   1   3   4    0.80    1.20
   1   3   4    1.30    1.80
  -1   3  -4    2.70    1.40
   1   3   4    2.00    1.50
   1   3   4    1.30    1.70
   2  -3   4  631.04   29.10
  -2  -3  -4  601.64   28.40
  -2  -3  -4  551.44   28.80
  -2  -3  -4  587.44   28.70
  -2  -3  -4  627.04   29.00
   2  -3   4  604.04   28.90
  -2  -3  -4  617.84   28.90
   2  -3   4  624.94   29.10
   2  -3   4  624.24   29.00
  -2  -3  -4  610.54   28.50
   2  -3   4  600.34   28.40
   2  -3   4  595.04   28.50
  -2   3  -4  598.44   29.00
   2   3   4  583.74   28.80
   2   3   4  591.84   28.60
  -2   3  -4  615.84   28.90
  -2   3  -4  627.14   28.70
   2   3   4  607.94   29.00
   2   3   4  608.24   28.90
  -2   3  -4  598.54   28.90
  -2   3  -4  572.54   28.90
   2   3   4  609.44   28.70
  -2   3  -4  586.84   28.60
   2   3   4  548.35   28.30
   3  -3   4  608.94   32.70
  -3  -3  -4  652.53   32.60
  -3  -3  -4  659.63   32.80
  -3  -3  -4  673.53   32.00
   3  -3   4  691.53   32.50
  -3  -3  -4  628.74   32.80
   3  -3   4  689.13   32.90
   3  -3   4  679.73   32.30
   3  -3   4  633.54   32.90
  -3  -3  -4  648.54   32.70
  -3  -3  -4  680.43   32.30
   3  -3   4  634.54   33.00
  -3   3  -4  639.74   32.90
   3   3   4  693.53   32.30
   3   3   4  703.03   33.20
   3   3   4  689.53   32.70
  -3   3  -4  622.94   32.90
   3   3   4  663.13   32.60
  -3   3  -4  696.73   32.60
  -3   3  -4  680.43   32.90
   3   3   4  697.13   33.00
   3   3   4  660.83   32.30
  -3   3  -4  657.83   33.00
   4  -3   4   12.10    5.90
   4  -3   4   16.40    7.30
   4  -3   4   12.60    7.30
   4  -3   4    8.70    6.50
   4  -3   4   12.10    6.80
  -4  -3  -4   23.90    5.70
  -4  -3  -4   26.30    7.20
  -4  -3  -4   17.80    6.90
   4  -3   4   14.90    7.30
  -4  -3  -4   13.90    7.50
  -4  -3  -4   11.10    7.10
  -4  -3  -4   10.00    5.70
   4   3   4    6.90    6.30
  -4   3  -4   18.70    7.00
  -4   3  -4   20.00    7.00
   4   3   4   16.90    6.10
   4   3   4   18.90    6.40
  -4   3  -4   15.80    7.70
  -4   3  -4   13.80    7.10
  -4   3  -4    1.90    6.10
   4   3   4   28.20    7.80
  -4   3  -4   21.30    6.70
   4   3   4   21.90    7.20
   4   3   4    2.80    5.20
   4  -4  -4    8.40    5.90
  -4  -4   4    8.50    5.30
  -4  -4   4    3.20    2.70
   4  -4  -4   12.20    7.10
   4  -4  -4   19.50    7.30
  -4  -4   4    3.90    5.20
   4  -4  -4    0.40    6.80
   4  -4  -4    9.00    6.60
   4  -4  -4    6.20    5.30
  -4  -4   4   10.90    5.40
   4   4  -4    6.90    5.30
   4   4  -4   10.50    5.20
  -4   4   4    2.70    6.30
  -4   4   4   13.50    6.00
   4   4  -4    2.30    4.80
  -4   4   4   10.40    7.00
  -4   4   4    6.50    4.80
   4   4  -4   -4.30    4.80
  -4   4   4    7.20    6.80
  -4   4   4   15.80    7.20
   4   4  -4   22.40    5.10
   4   4  -4   -6.50    4.50
   3  -4  -4  600.74   30.00
  -3  -4   4  610.44   29.00
   3  -4  -4  625.24   29.40
  -3  -4   4  612.94   27.50
  -3  -4   4  598.74   28.80
   3  -4  -4  656.43   29.90
   3  -4  -4  605.04   29.90
  -3  -4   4  562.14   28.80
  -3  -4   4  587.84   27.40
   3  -4  -4  601.84   29.80
  -3  -4   4  622.54   29.00
   3  -4  -4  588.24   29.50
   3   4  -4  591.44   28.90
  -3   4   4  611.64   30.20
   3   4  -4  606.14   28.70
  -3   4   4  538.25   28.90
  -3   4   4  532.65   29.70
  -3   4   4  665.63   30.00
   3   4  -4  627.44   28.90
   3   4  -4  588.94   28.70
   3   4  -4  540.45   28.70
  -3   4   4  649.14   30.00
   2  -4  -4 4256.67  192.48
   2  -4  -4 4440.56  192.58
  -2  -4   4 4403.96  191.98
   2  -4  -4 4432.36  192.88
  -2  -4   4 4238.88  191.98
  -2  -4   4 4710.93  192.08
   2  -4  -4 4188.28  192.88
  -2  -4   4 4278.77  191.98
   2  -4  -4 4100.19  192.78
   2  -4  -4 4080.29  192.68
  -2   4   4 4345.06  192.38
  -2   4   4 4119.29  192.38
  -2   4   4 4520.75  193.08
   2   4  -4 4263.67  191.78
  -2   4   4 4117.89  192.78
   2   4  -4 4266.07  191.88
   2   4  -4 4303.27  191.88
   2   4  -4 4362.56  191.88
   2   4  -4 4264.87  191.88
   2   4  -4 4026.00  191.78
  -2   4   4 4279.37  192.88
  -2   4   4 4467.15  192.78
  -1  -4   4  872.61   38.30
   1  -4  -4  844.92   39.30
   1  -4  -4  870.01   39.50
   1  -4  -4  792.62   39.40
  -1  -4   4  853.01   38.30
  -1  -4   4  874.91   38.30
   1  -4  -4  859.91   39.50
   1  -4  -4  745.73   39.30
  -1  -4   4  867.31   38.30
   1  -4  -4  790.22   39.10
  -1   4   4  802.22   39.30
  -1   4   4  883.61   39.30
  -1   4   4  855.51   39.20
  -1   4   4  898.11   39.60
  -1   4   4  930.41   39.60
  -1   4   4  952.50   39.70
   0  -4  -4 1363.46   59.29
   0  -4  -4 1290.67   59.49
   0  -4   4 1323.07   58.69
   0  -4   4 1279.67   58.69
   0  -4  -4 1336.37   59.29
   0  -4  -4 1203.18   59.39
   0  -4  -4 1363.56   59.49
   0  -4   4 1320.57   58.79
   0  -4  -4 1225.48   59.49
   0   4   4 1289.47   59.49
   0   4   4 1357.96   59.29
   0   4  -4 1297.97   58.69
   0   4  -4 1341.77   58.69
   0   4  -4 1282.77   58.49
   0   4  -4 1250.37   58.59
   0   4   4 1348.17   59.49
   0   4  -4 1272.07   58.49
   0   4   4 1345.57   59.49
   0   4   4 1368.56   59.49
   0   4  -4 1329.77   58.69
   0   4   4 1325.47   59.29
  -1  -4  -4  519.05   24.70
  -1  -4  -4  502.95   24.70
  -1  -4  -4  516.15   24.80
   1  -4   4  501.65   24.10
   1  -4   4  543.15   24.60
   1  -4   4  551.24   24.70
   1  -4   4  510.15   24.20
  -1  -4  -4  524.45   24.50
  -1  -4  -4  527.85   24.50
   1  -4   4  538.45   24.70
   1  -4   4  541.75   24.60
  -1  -4  -4  521.75   24.70
  -1   4  -4  530.95   24.70
  -1   4  -4  499.55   24.30
   1   4   4  526.65   24.90
   1   4   4  522.85   24.70
   1   4   4  508.35   24.70
   1   4   4  511.15   24.50
  -1   4  -4  516.85   24.50
  -1   4  -4  522.35   24.40
  -1   4  -4  530.35   24.70
   1   4   4  523.95   24.80
  -1   4  -4  556.64   24.70
   1   4   4  508.25   24.50
   2  -4   4   70.49    5.70
   2  -4   4   71.39    5.90
   2  -4   4   62.49    5.30
   2  -4   4   62.99    6.10
  -2  -4  -4   66.59    5.40
   2  -4   4   63.79    5.30
  -2  -4  -4   74.39    6.00
   2  -4   4   62.29    6.00
  -2  -4  -4   70.39    5.40
  -2  -4  -4   71.49    6.00
  -2  -4  -4   69.19    5.90
  -2  -4  -4   64.89    5.20
  -2   4  -4   54.29    5.90
   2   4   4   63.29    5.30
   2   4   4   62.09    5.80
  -2   4  -4   60.29    6.00
  -2   4  -4   68.99    6.00
  -2   4  -4   62.89    5.50
   2   4   4   64.89    5.40
  -2   4  -4   64.79    5.60
   2   4   4   69.09    5.50
   2   4   4   63.69    5.60
  -2   4  -4   69.29    5.50
   2   4   4   61.09    5.90
  -3  -4  -4   -3.80    3.80
  -3  -4  -4   -1.90    3.80
   3  -4   4    1.70    3.30
  -3  -4  -4   -1.30    4.20
  -3  -4  -4    3.30    3.90
   3  -4   4    0.80    4.00
  -3  -4  -4    1.90    3.30
   3  -4   4    1.30    4.30
   3  -4   4    5.90    3.50
  -3  -4  -4   -0.40    3.20
   3  -4   4   -0.70    3.80
   3  -4   4   -3.80    3.70
   3   4   4    0.20    3.50
   3   4   4    4.40    3.40
  -3   4  -4    1.10    4.00
  -3   4  -4   -2.50    3.90
   3   4   4    2.50    3.20
  -3   4  -4    0.70    4.10
  -3   4  -4    0.20    4.40
   3   4   4    1.10    3.80
   3   4   4   -0.10    3.80
   3   4   4   -2.70    3.80
  -3   4  -4   -3.70    3.70
   4  -4   4  167.18   14.20
   4  -4   4  144.09   14.60
   4  -4   4  151.28   15.00
  -4  -4  -4  153.78   13.10
   4  -4   4  172.68   13.90
  -4  -4  -4  171.08   14.70
  -4  -4  -4  161.48   12.60
  -4  -4  -4  165.68   14.20
   4  -4   4  156.48   14.80
  -4  -4  -4  164.78   14.00
   4  -4   4  204.58   14.30
  -4  -4  -4  153.18   14.40
   4   4   4  149.39   13.80
  -4   4  -4  178.08   15.50
  -4   4  -4  147.99   14.80
  -4   4  -4  165.58   14.20
   4   4   4  174.28   13.70
  -4   4  -4  169.58   15.20
   4   4   4  184.68   15.30
  -4   4  -4  170.58   13.90
  -4   4  -4  185.98   14.40
   4   4   4  176.48   13.10
   4   4   4  140.39   14.10
   4  -5  -4   37.50    7.40
  -4  -5   4   26.30    6.50
   4  -5  -4   37.10    7.60
  -4  -5   4   41.30    6.90
   4  -5  -4   35.60    8.00
   4  -5  -4   48.10    7.40
   4  -5  -4   38.60    7.80
  -4  -5   4   46.20    6.90
   4  -5  -4   35.50    6.60
   4   5  -4   38.90    6.30
  -4   5   4   41.20    8.50
  -4   5   4   34.10    7.00
   4   5  -4   32.80    6.30
  -4   5   4   45.80    7.70
   4   5  -4   44.80    6.50
   4   5  -4   39.40    6.30
  -4   5   4   39.80    7.40
   4   5  -4   28.90    5.70
  -4   5   4   48.70    8.70
   4   5  -4   46.00    6.60
  -4   5   4   41.80    6.30
  -3  -5   4  152.58    9.30
   3  -5  -4  133.89   10.20
   3  -5  -4  139.49   10.60
   3  -5  -4  147.89   10.90
  -3  -5   4  141.89    8.90
   3  -5  -4  144.69   10.80
   3  -5  -4  149.49   10.00
  -3  -5   4  137.09    9.00
  -3  -5   4  140.49    9.20
   3  -5  -4  149.29   10.00
  -3   5   4  127.59   10.00
  -3   5   4  142.49   10.90
  -3   5   4  155.08    9.90
  -3   5   4  136.89   10.50
  -3   5   4  147.29   10.70
  -3   5   4  154.98   11.20
   3   5  -4  152.38    8.80
   3   5  -4  145.99    9.00
   3   5  -4  149.99    8.90
   3   5  -4  137.49    9.00
   3   5  -4  130.29    8.90
   3   5  -4  137.29    9.00
  -2  -5   4   27.90    3.30
  -2  -5   4   31.80    3.20
  -2  -5   4   26.10    3.40
   2  -5  -4   37.20    4.70
   2  -5  -4   36.30    4.40
   2  -5  -4   38.40    4.50
   2  -5  -4   37.30    5.00
   2  -5  -4   36.50    4.60
  -2  -5   4   27.00    3.50
   2  -5  -4   33.80    4.30
   2   5  -4   26.50    3.10
  -2   5   4   33.80    4.20
  -2   5   4   37.20    4.90
   2   5  -4   27.00    3.20
  -2   5   4   37.80    4.40
  -2   5   4   28.90    4.10
   2   5  -4   29.90    3.00
  -2   5   4   32.00    4.30
  -2   5   4   29.10    4.10
   2   5  -4   28.80    3.20
   2   5  -4   34.70    3.10
   2   5  -4   34.90    3.40
  -1  -5   4   61.29    3.00
  -1  -5   4   58.79    3.00
   1  -5  -4   64.39    4.60
  -1  -5   4   56.99    2.90
   1  -5  -4   51.09    4.30
   1  -5  -4   49.70    4.50
   1  -5  -4   52.89    4.50
   1  -5  -4   60.79    4.40
   1  -5  -4   52.99    4.30
  -1  -5   4   54.49    2.90
  -1   5   4   54.69    4.30
  -1   5   4   54.19    4.60
  -1   5   4   62.29    4.70
  -1   5   4   54.89    4.40
  -1   5   4   53.99    4.30
  -1   5   4   60.79    4.70
   0  -5  -4 1427.36   61.99
   0  -5  -4 1370.26   61.99
   0  -5   4 1364.86   61.09
   0  -5   4 1441.36   61.19
   0  -5  -4 1272.07   61.89
   0  -5  -4 1423.06   61.69
   0  -5  -4 1425.86   61.99
   0  -5   4 1411.66   61.09
   0  -5  -4 1331.37   61.69
   0   5   4 1383.96   61.69
   0   5  -4 1390.36   60.99
   0   5  -4 1265.97   60.99
   0   5   4 1221.68   61.79
   0   5   4 1416.56   62.09
   0   5   4 1345.77   61.89
   0   5  -4 1394.56   61.09
   0   5   4 1273.27   61.89
   0   5  -4 1292.87   60.89
   0   5  -4 1321.87   60.99
   0   5   4 1403.76   61.69
   0   5  -4 1401.76   61.09
  -1  -5  -4  313.97   15.50
  -1  -5  -4  296.17   15.10
  -1  -5  -4  313.17   15.40
  -1  -5  -4  317.57   15.10
   1  -5   4  292.27   14.60
  -1  -5  -4  301.17   15.30
  -1  -5  -4  298.47   15.40
   1  -5   4  301.67   15.20
   1  -5   4  320.97   15.30
   1  -5   4  332.97   15.40
   1  -5   4  295.07   15.20
   1  -5   4  323.77   14.80
   1   5   4  312.97   15.20
  -1   5  -4  306.37   15.30
  -1   5  -4  309.27   15.00
   1   5   4  285.77   15.30
   1   5   4  285.37   15.30
  -1   5  -4  313.57   15.20
  -1   5  -4  318.67   15.30
   1   5   4  314.97   15.40
  -1   5  -4  326.97   15.30
   1   5   4  312.87   15.60
   1   5   4  311.77   15.10
  -1   5  -4  309.37   15.00
  -2  -5  -4  117.39    7.90
   2  -5   4  111.59    7.90
   2  -5   4  129.79    8.20
   2  -5   4  107.19    7.90
  -2  -5  -4  113.49    7.20
  -2  -5  -4  115.49    7.30
   2  -5   4  107.59    7.30
  -2  -5  -4  119.89    7.90
   2  -5   4  114.49    8.00
   2  -5   4  109.59    7.10
  -2  -5  -4  123.39    7.70
  -2  -5  -4  109.09    7.70
  -2   5  -4  112.39    7.70
   2   5   4  109.59    7.10
  -2   5  -4  103.69    8.00
   2   5   4  109.69    7.40
  -2   5  -4  105.39    7.60
  -2   5  -4  106.59    7.90
   2   5   4  102.69    7.50
   2   5   4  107.79    7.50
   2   5   4  106.69    7.60
  -2   5  -4  115.69    7.60
   2   5   4  122.29    8.10
   3  -5   4   87.09    8.50
   3  -5   4   91.19    8.80
  -3  -5  -4   96.99    8.90
  -3  -5  -4   99.49    8.90
   3  -5   4   79.69    8.90
  -3  -5  -4   89.49    8.90
   3  -5   4  100.29    8.30
   3  -5   4  106.89    8.60
  -3  -5  -4   93.09    8.00
  -3  -5  -4   90.49    7.60
   3  -5   4   92.49    9.50
  -3   5  -4   79.09    9.00
   3   5   4   85.99    9.00
   3   5   4   90.89    7.90
  -3   5  -4   85.79    8.50
  -3   5  -4   91.09    9.70
   3   5   4   92.69    8.20
   3   5   4  102.39    8.70
   3   5   4   81.79    8.30
   3   5   4   97.79    8.70
  -3   5  -4   94.99    9.60
  -3   5  -4   87.29    8.50
   4  -5   4  110.69   12.10
   4  -5   4  103.69   11.50
  -4  -5  -4   93.99   10.80
  -4  -5  -4   96.19   11.30
  -4  -5  -4   95.19   12.50
  -4  -5  -4   97.69   10.50
   4  -5   4   88.69   13.60
   4  -5   4  124.69   13.80
   4  -5   4   90.49   12.10
  -4  -5  -4   91.79   11.20
   4  -5   4  110.39   13.70
  -4  -5  -4   93.99   11.80
  -4   5  -4  117.69   12.90
  -4   5  -4  102.39   12.60
  -4   5  -4  122.39   13.60
  -4   5  -4   92.29   13.70
   4   5   4   87.09   11.80
   4   5   4  106.39   11.50
   4   5   4  112.39   13.40
   4   5   4   94.59   12.00
  -4   5  -4   84.59   11.90
   4   5   4   91.89   11.10
   4   5   4  103.79   12.00
  -4   5  -4  114.69   13.60
  -4  -6   4  284.07   17.70
   4  -6  -4  317.87   20.00
   4  -6  -4  304.07   18.70
  -4  -6   4  284.57   17.90
   4  -6  -4  318.37   20.30
  -4  -6   4  287.97   18.00
   4  -6  -4  323.87   20.20
   4  -6  -4  313.47   19.80
   4  -6  -4  313.17   18.80
   4   6  -4  280.47   17.00
   4   6  -4  299.27   17.90
   4   6  -4  304.57   17.90
   4   6  -4  311.77   17.70
  -4   6   4  315.97   18.70
  -4   6   4  315.57   20.80
  -4   6   4  293.77   19.90
  -4   6   4  321.57   20.20
  -4   6   4  302.17   19.10
  -4   6   4  327.47   20.00
   4   6  -4  305.37   17.30
   4   6  -4  290.67   17.60
  -3  -6   4   10.90    3.60
   3  -6  -4   -3.30    4.70
  -3  -6   4    9.70    3.40
   3  -6  -4    9.50    3.80
  -3  -6   4    7.00    3.20
   3  -6  -4   11.60    4.60
  -3  -6   4   11.70    3.40
   3  -6  -4   11.80    4.50
   3  -6  -4   19.80    5.10
   3  -6  -4   10.90    4.60
  -3   6   4   14.70    5.00
   3   6  -4    8.00    3.10
   3   6  -4   10.00    3.00
  -3   6   4    3.50    3.90
  -3   6   4   15.10    4.20
   3   6  -4   11.00    3.10
  -3   6   4    7.50    4.20
   3   6  -4   13.60    3.40
  -3   6   4   14.40    5.00
   3   6  -4    2.60    3.30
  -3   6   4   19.40    5.30
   3   6  -4    9.80    3.30
  -2  -6   4  651.13   29.60
   2  -6  -4  658.73   30.70
  -2  -6   4  638.34   29.70
   2  -6  -4  624.64   31.00
  -2  -6   4  646.64   29.60
   2  -6  -4  670.33   31.20
   2  -6  -4  661.33   30.60
  -2  -6   4  650.73   29.70
   2  -6  -4  642.84   31.10
   2  -6  -4  640.84   30.90
   2   6  -4  673.43   29.60
   2   6  -4  616.64   29.50
  -2   6   4  615.94   30.80
   2   6  -4  624.84   29.60
  -2   6   4  738.43   31.40
  -2   6   4  626.14   31.10
  -2   6   4  589.64   30.90
  -2   6   4  639.04   30.60
   2   6  -4  623.04   29.40
   2   6  -4  631.44   29.50
   2   6  -4  633.64   29.60
  -2   6   4  633.24   30.50
  -1  -6   4  822.22   36.10
   1  -6  -4  785.62   37.50
   1  -6  -4  785.42   37.60
   1  -6  -4  793.12   37.30
   1  -6  -4  832.32   37.20
   1  -6  -4  788.32   37.50
  -1  -6   4  840.72   36.10
   1  -6  -4  756.32   37.40
  -1  -6   4  790.22   36.10
  -1  -6   4  836.32   36.20
  -1   6   4  813.52   37.70
   1   6  -4  835.32   36.00
   1   6  -4  802.82   36.00
  -1   6   4  866.81   37.70
   1   6  -4  803.42   36.00
  -1   6   4  761.32   37.40
  -1   6   4  816.12   37.30
   1   6  -4  800.52   36.00
  -1   6   4  803.72   37.20
  -1   6   4  731.33   37.40
   0  -6  -4   10.70    2.30
   0  -6   4   15.60    1.80
   0  -6  -4   10.10    2.20
   0  -6   4   16.70    2.00
   0  -6  -4   17.20    2.40
   0  -6   4   13.30    2.00
   0  -6  -4   15.90    2.40
   0  -6   4   13.90    2.00
   0  -6  -4   13.70    2.50
   0  -6  -4   12.50    2.60
   0   6  -4   14.10    1.80
   0   6   4   13.20    2.60
   0   6   4   14.30    2.70
   0   6  -4   13.60    1.80
   0   6   4   18.60    2.60
   0   6   4   13.50    2.60
   0   6   4   14.70    2.60
   0   6   4   14.70    2.30
   0   6  -4   12.60    1.60
   0   6  -4   14.20    2.10
   0   6  -4   12.50    1.70
   0   6  -4   16.00    2.10
  -1  -6  -4  492.35   24.80
  -1  -6  -4  508.35   24.80
   1  -6   4  515.25   24.60
  -1  -6  -4  530.85   25.00
  -1  -6  -4  497.25   24.40
   1  -6   4  502.55   24.00
  -1  -6  -4  506.15   24.40
   1  -6   4  533.25   24.60
  -1  -6  -4  485.75   24.70
   1  -6   4  556.34   24.10
   1  -6   4  488.95   24.60
   1  -6   4  522.55   24.70
  -1   6  -4  500.45   24.30
  -1   6  -4  519.55   24.60
  -1   6  -4  521.35   24.70
   1   6   4  513.85   24.80
   1   6   4  526.05   24.60
  -1   6  -4  515.25   24.40
   1   6   4  529.85   24.90
   1   6   4  546.15   24.60
   1   6   4  553.54   25.00
   1   6   4  525.65   25.00
  -1   6  -4  539.95   24.70
  -1   6  -4  519.95   24.50
   2  -6   4   -1.90    2.20
  -2  -6  -4    1.80    2.90
   2  -6   4   -3.80    2.60
   2  -6   4    3.70    3.10
  -2  -6  -4    2.30    2.20
  -2  -6  -4   -2.20    2.50
  -2  -6  -4   -0.40    2.30
   2  -6   4   -1.00    2.90
  -2  -6  -4    2.40    3.10
   2  -6   4   -0.60    2.30
   2  -6   4    0.80    2.70
  -2  -6  -4    2.80    2.70
   2   6   4    0.10    2.20
   2   6   4   -0.10    2.80
   2   6   4    1.80    2.80
  -2   6  -4    2.70    3.10
  -2   6  -4    5.70    2.70
  -2   6  -4    0.90    2.80
   2   6   4   -0.30    2.90
   2   6   4    0.10    2.40
  -2   6  -4    3.70    3.00
  -2   6  -4    1.80    2.80
   2   6   4    2.90    2.80
  -2   6  -4   -0.60    2.60
   3  -6   4   67.39    8.00
  -3  -6  -4   60.79    8.00
  -3  -6  -4   53.99    7.70
  -3  -6  -4   61.59    7.00
  -3  -6  -4   66.49    6.60
   3  -6   4   65.49    7.90
   3  -6   4   57.39    7.20
   3  -6   4   64.09    7.50
   3  -6   4   68.49    8.50
  -3  -6  -4   68.89    7.40
   3  -6   4   56.09    7.70
   3   6   4   62.99    7.30
   3   6   4   62.19    7.60
   3   6   4   50.39    7.10
   3   6   4   62.49    7.70
  -3   6  -4   70.99    9.30
  -3   6  -4   52.19    7.50
  -3   6  -4   42.80    6.80
   3   6   4   68.69    8.50
  -3   6  -4   56.09    6.80
   3   6   4   47.50    7.40
  -3   6  -4   53.09    7.10
  -3   6  -4   69.69    8.50
   4  -6   4  301.37   21.20
   4  -6   4  320.17   20.30
   4  -6   4  278.07   20.60
   4  -6   4  307.77   19.50
  -4  -6  -4  285.37   20.10
  -4  -6  -4  305.77   18.50
   4  -6   4  302.37   19.40
  -4  -6  -4  274.47   19.50
  -4  -6  -4  309.87   20.40
   4  -6   4  353.26   21.70
  -4  -6  -4  288.07   18.00
  -4  -6  -4  290.77   20.30
  -4   6  -4  295.07   19.40
   4   6   4  325.07   19.50
   4   6   4  309.97   20.60
   4   6   4  290.27   19.30
  -4   6  -4  335.07   20.10
  -4   6  -4  348.97   21.30
  -4   6  -4  324.37   21.50
   4   6   4  320.37   19.60
  -4   6  -4  351.56   20.70
   4   6   4  299.47   19.20
   4   6   4  303.77   19.70
  -4   6  -4  314.17   19.80
   4  -7  -4   58.69    8.70
  -4  -7   4   56.59    7.60
  -4  -7   4   56.09    7.40
   4  -7  -4   53.29    9.20
   4  -7  -4   64.79   10.20
   4  -7  -4   59.09    9.50
   4  -7  -4   62.89    8.70
   4  -7  -4   72.59   10.20
  -4   7   4   77.49   10.10
   4   7  -4   51.19    6.30
  -4   7   4   58.49   10.50
   4   7  -4   53.49    6.60
   4   7  -4   48.60    7.00
  -4   7   4   54.69    7.80
  -4   7   4   65.69   10.20
  -4   7   4   62.99    9.60
   4   7  -4   57.39    7.30
   4   7  -4   70.59    7.80
   3  -7  -4  528.45   26.30
  -3  -7   4  511.35   25.20
   3  -7  -4  522.05   26.70
   3  -7  -4  525.85   27.20
  -3  -7   4  488.25   25.20
  -3  -7   4  504.45   25.30
   3  -7  -4  516.35   26.90
   3  -7  -4  511.05   27.10
  -3   7   4  524.85   27.40
   3   7  -4  523.55   25.10
   3   7  -4  535.15   25.30
   3   7  -4  514.15   25.30
  -3   7   4  540.05   27.40
   3   7  -4  494.45   24.90
   3   7  -4  536.05   24.90
  -3   7   4  524.55   26.30
  -3   7   4  523.65   27.00
   3   7  -4  529.05   25.20
  -3   7   4  525.25   26.90
   2  -7  -4   20.60    4.00
   2  -7  -4   14.10    3.10
  -2  -7   4   20.30    2.50
   2  -7  -4   20.20    3.30
  -2  -7   4   14.70    3.00
  -2  -7   4   20.70    2.40
  -2  -7   4   19.10    2.50
   2  -7  -4   19.60    4.10
   2  -7  -4   27.20    4.40
   2  -7  -4   13.90    3.60
   2   7  -4   19.70    2.40
  -2   7   4   15.00    3.70
   2   7  -4   19.20    2.50
  -2   7   4   21.90    4.10
   2   7  -4   18.10    2.20
  -2   7   4   20.50    3.60
   2   7  -4   22.90    2.60
  -2   7   4   17.20    4.10
  -2   7   4   14.90    3.00
   2   7  -4   18.50    2.40
   2   7  -4   18.00    2.60
  -2   7   4   20.80    4.30
   1  -7  -4  104.19    7.30
   1  -7  -4  109.99    6.90
  -1  -7   4  105.39    5.50
   1  -7  -4  109.19    7.30
   1  -7  -4  104.69    7.30
  -1  -7   4  108.29    5.50
   1  -7  -4  111.99    7.20
  -1  -7   4  104.19    5.50
   1  -7  -4  109.89    6.90
  -1  -7   4  112.39    5.60
  -1   7   4  107.39    7.30
   1   7  -4  110.89    5.50
  -1   7   4  117.29    7.60
  -1   7   4  105.29    6.90
  -1   7   4  110.19    7.20
  -1   7   4  120.39    7.40
   1   7  -4  112.69    5.50
   1   7  -4  108.09    5.40
   1   7  -4  114.79    5.30
   1   7  -4  115.29    5.50
  -1   7   4  112.79    7.00
   1   7  -4  111.09    5.40
   0  -7   4   59.39    3.60
   0  -7   4   64.59    3.80
   0  -7   4   60.29    3.90
   0  -7  -4   57.29    4.50
   0  -7  -4   55.79    4.50
   0  -7  -4   62.59    5.10
   0  -7  -4   49.60    4.70
   0  -7  -4   55.09    4.80
   0  -7  -4   55.99    4.80
   0  -7   4   57.59    3.80
   0   7   4   54.49    4.90
   0   7   4   55.29    4.80
   0   7  -4   61.79    3.60
   0   7  -4   55.29    3.70
   0   7   4   58.59    4.50
   0   7  -4   63.09    3.60
   0   7   4   52.49    4.90
   0   7  -4   60.09    3.70
   0   7  -4   58.09    3.50
   0   7  -4   61.39    3.90
   0   7   4   60.19    5.10
   0   7   4   49.99    4.60
   1  -7   4    2.80    2.10
   1  -7   4    3.00    2.00
   1  -7   4    5.90    1.60
  -1  -7  -4   10.90    2.70
  -1  -7  -4    6.70    2.20
   1  -7   4    4.40    2.20
  -1  -7  -4    5.40    2.30
  -1  -7  -4    8.00    2.40
   1  -7   4    4.40    2.10
   1  -7   4    5.60    1.70
  -1  -7  -4    9.10    2.60
  -1  -7  -4    9.90    2.30
  -1   7  -4    4.80    2.20
  -1   7  -4    5.10    2.30
   1   7   4    6.90    2.20
  -1   7  -4    8.90    2.30
   1   7   4    8.70    2.50
   1   7   4    7.70    2.20
   1   7   4    5.90    2.50
   1   7   4    8.90    2.60
  -1   7  -4    6.90    2.40
  -1   7  -4    8.90    2.10
   1   7   4    8.60    2.60
  -1   7  -4    5.00    2.00
   2  -7   4  493.65   24.70
  -2  -7  -4  531.55   24.90
   2  -7   4  441.46   24.50
  -2  -7  -4  510.25   24.00
  -2  -7  -4  494.95   24.60
  -2  -7  -4  500.35   24.70
   2  -7   4  496.45   24.70
   2  -7   4  496.05   23.90
   2  -7   4  463.05   24.70
   2  -7   4  505.15   24.00
  -2  -7  -4  533.35   24.20
  -2  -7  -4  495.05   24.50
   2   7   4  492.75   24.50
  -2   7  -4  499.95   24.40
   2   7   4  520.25   24.30
  -2   7  -4  473.95   24.70
  -2   7  -4  488.15   24.30
   2   7   4  509.65   24.30
   2   7   4  496.75   24.60
   2   7   4  489.15   24.80
  -2   7  -4  483.35   24.80
  -2   7  -4  486.95   24.80
  -2   7  -4  494.85   24.50
   2   7   4  490.35   24.40
   3  -7   4    8.70    5.10
   3  -7   4    9.80    4.00
  -3  -7  -4    5.80    3.60
  -3  -7  -4    2.40    4.50
   3  -7   4    8.00    5.60
   3  -7   4    3.10    4.80
  -3  -7  -4    3.70    5.00
  -3  -7  -4    3.20    4.30
   3  -7   4    8.10    4.30
   3  -7   4    9.30    5.50
  -3  -7  -4    5.60    3.80
   3   7   4   -1.60    3.40
  -3   7  -4   -1.10    4.40
   3   7   4    9.50    4.60
   3   7   4    7.40    4.70
   3   7   4    4.80    4.30
  -3   7  -4    3.50    5.50
   3   7   4    4.20    4.60
  -3   7  -4    6.70    5.00
   3   7   4    7.00    4.20
  -3   7  -4    0.10    4.80
  -3   7  -4    6.20    5.10
   4  -7   4  225.58   18.00
   4  -7   4  235.78   18.20
  -4  -7  -4  234.28   16.80
  -4  -7  -4  222.28   16.70
  -4  -7  -4  212.08   14.80
   4  -7   4  217.38   16.40
   4  -7   4  249.28   16.70
   4  -7   4  241.28   18.60
  -4  -7  -4  242.18   15.50
   4  -7   4  204.48   18.40
   4   7   4  231.68   15.90
   4   7   4  224.88   16.40
   4   7   4  235.78   16.80
   4   7   4  201.28   16.00
  -4   7  -4  205.18   18.90
  -4   7  -4  226.78   19.00
  -4   7  -4  221.68   17.00
   4   7   4  212.78   17.10
  -4   7  -4  228.68   19.00
  -4  -8   4   -4.90    7.40
  -4  -8   4    5.10    5.90
   4  -8  -4   -2.20    7.50
   4  -8  -4   -4.70    9.00
   4  -8  -4    2.90    7.50
   4  -8  -4  -10.90    8.10
  -4  -8   4    1.60    5.70
   4   8  -4    0.00    4.90
   4   8  -4   -0.90    4.80
  -4   8   4   -8.80    8.20
  -4   8   4  -11.10    8.90
  -4   8   4   -9.20    8.80
  -4   8   4   11.70    7.30
  -4   8   4   -2.80    7.70
   4   8  -4    1.70    5.70
   4   8  -4    3.70    5.50
   3  -8  -4    1.90    5.40
   3  -8  -4   10.20    4.90
   3  -8  -4    5.50    4.60
   3  -8  -4   -3.80    4.10
   3  -8  -4    7.80    4.70
  -3  -8   4    2.40    3.30
  -3  -8   4    3.20    3.50
  -3  -8   4    6.10    3.00
  -3   8   4    5.80    4.60
   3   8  -4    5.30    3.20
  -3   8   4    1.70    5.40
  -3   8   4    7.10    5.80
  -3   8   4    6.90    5.90
   3   8  -4   -0.50    3.00
   3   8  -4    7.70    3.20
   3   8  -4    3.50    3.20
   3   8  -4    7.00    2.70
   3   8  -4    3.50    2.60
  -3   8   4   -0.90    5.10
  -2  -8   4   33.50    3.40
  -2  -8   4   29.20    3.20
   2  -8  -4   36.60    4.50
   2  -8  -4   36.50    5.10
  -2  -8   4   33.40    3.40
   2  -8  -4   24.90    4.60
   2  -8  -4   28.40    3.90
   2  -8  -4   37.70    5.30
   2  -8  -4   25.70    4.40
  -2   8   4   22.20    4.00
  -2   8   4   26.40    4.70
  -2   8   4   38.60    4.70
  -2   8   4   19.70    4.00
   2   8  -4   32.60    3.30
   2   8  -4   26.20    3.30
  -2   8   4   31.50    5.40
   2   8  -4   37.30    3.60
   2   8  -4   36.20    3.40
  -2   8   4   24.10    4.50
   1  -8  -4   23.10    3.50
   1  -8  -4   28.20    3.60
  -1  -8   4   24.20    2.20
   1  -8  -4   20.00    3.70
   1  -8  -4   25.00    3.50
   1  -8  -4   28.60    3.90
  -1  -8   4   23.70    2.30
  -1  -8   4   21.80    2.40
  -1  -8   4   20.60    2.20
   1  -8  -4   21.50    3.60
  -1   8   4   23.80    3.70
  -1   8   4   25.70    3.60
   1   8  -4   25.60    2.10
   1   8  -4   23.80    2.10
   1   8  -4   19.90    2.20
  -1   8   4   21.30    3.00
  -1   8   4   13.80    3.20
   1   8  -4   23.60    2.20
   1   8  -4   23.80    2.10
   1   8  -4   21.10    2.20
  -1   8   4   25.00    3.90
  -1   8   4   28.60    4.10
   0  -8  -4  153.88    8.60
   0  -8  -4  149.59    8.80
   0  -8  -4  147.89    9.00
   0  -8  -4  149.69    8.60
   0  -8   4  154.88    8.00
   0  -8   4  151.98    7.80
   0  -8  -4  154.18    9.20
   0  -8  -4  156.18    9.00
   0  -8   4  153.38    8.00
   0  -8   4  151.48    7.90
   0   8  -4  147.19    7.80
   0   8  -4  157.58    7.90
   0   8   4  156.68    9.00
   0   8   4  151.28    9.10
   0   8   4  146.69    8.60
   0   8   4  140.49    8.70
   0   8   4  148.09    8.60
   0   8  -4  154.08    7.80
   0   8  -4  146.59    7.70
   0   8  -4  143.79    7.90
   0   8   4  157.18    9.00
   0   8  -4  141.49    7.60
   1  -8   4  195.78    9.40
   1  -8   4  179.78   10.40
   1  -8   4  186.58   10.30
  -1  -8  -4  180.18   10.50
   1  -8   4  181.88   10.20
   1  -8   4  178.58    9.40
  -1  -8  -4  182.28   10.60
  -1  -8  -4  195.48   10.10
  -1  -8  -4  187.58   10.10
   1  -8   4  192.48   10.40
  -1  -8  -4  203.88   10.90
  -1  -8  -4  189.88   10.70
  -1   8  -4  180.08   10.00
   1   8   4  193.38   10.70
  -1   8  -4  185.98   10.00
  -1   8  -4  179.58   10.20
   1   8   4  178.58   10.70
  -1   8  -4  165.78   10.30
   1   8   4  184.78   10.30
  -1   8  -4  183.18   10.00
   1   8   4  181.88   10.20
  -1   8  -4  190.98   10.40
   1   8   4  184.98   10.60
  -2  -8  -4   67.29    6.90
  -2  -8  -4   74.49    6.00
   2  -8   4   64.39    6.10
  -2  -8  -4   77.09    7.00
   2  -8   4   74.49    7.00
   2  -8   4   76.99    7.10
   2  -8   4   63.29    7.10
  -2  -8  -4   85.19    7.30
  -2  -8  -4   81.49    6.90
   2  -8   4   71.79    7.00
  -2  -8  -4   74.99    6.30
   2  -8   4   77.39    6.10
   2   8   4   81.19    6.60
  -2   8  -4   76.59    7.50
  -2   8  -4   73.59    7.40
  -2   8  -4   75.69    6.90
   2   8   4   81.39    6.70
   2   8   4   80.89    6.90
  -2   8  -4   67.59    6.70
   2   8   4   81.39    7.50
  -2   8  -4   67.49    7.40
   2   8   4   75.19    6.80
  -2   8  -4   82.29    7.10
   2   8   4   73.99    6.80
  -3  -8  -4   49.60    6.70
  -3  -8  -4   56.39    7.20
  -3  -8  -4   64.99    7.70
   3  -8   4   56.69    7.60
   3  -8   4   48.20    6.00
  -3  -8  -4   59.79    8.80
   3  -8   4   52.19    7.90
  -3  -8  -4   56.49    7.20
   3  -8   4   52.79    7.70
   3  -8   4   50.29    7.30
   3   8   4   60.69    7.90
  -3   8  -4   57.09    7.00
  -3   8  -4   42.20    7.00
  -3   8  -4   63.89    8.70
   3   8   4   53.69    7.80
  -3   8  -4   57.39    7.60
  -3   8  -4   48.40    7.70
   3   8   4   43.10    6.20
   3   8   4   55.99    8.00
   3   8   4   57.79    7.70
   3   8   4   49.70    7.00
   3  -9  -4  149.29   11.00
   3  -9  -4  128.89   11.00
  -3  -9   4  127.19    9.10
  -3  -9   4  136.49    8.90
   3  -9  -4  127.59   11.80
  -3  -9   4  132.29    8.90
   3  -9  -4  118.29   12.20
   3  -9  -4  134.49   11.90
  -3   9   4  151.28   11.90
   3   9  -4  135.89    8.30
   3   9  -4  147.29    8.80
   3   9  -4  125.59    8.30
   3   9  -4  139.59    9.10
  -3   9   4  135.29   11.00
   3   9  -4  132.89    9.10
  -3   9   4  133.79   12.20
  -3   9   4  132.39   12.70
  -3   9   4  135.79   11.20
   3   9  -4  131.89    8.90
  -3   9   4  148.19   11.70
  -2  -9   4  257.57   12.10
   2  -9  -4  231.18   14.00
   2  -9  -4  239.78   13.70
  -2  -9   4  223.68   11.80
   2  -9  -4  242.68   14.20
   2  -9  -4  221.78   13.90
  -2  -9   4  226.08   11.90
   2  -9  -4  216.08   14.00
   2  -9  -4  238.58   13.40
   2   9  -4  226.78   11.70
  -2   9   4  261.37   14.50
  -2   9   4  234.58   13.50
   2   9  -4  233.88   11.90
  -2   9   4  225.58   14.40
   2   9  -4  233.78   11.80
  -2   9   4  243.98   13.90
   2   9  -4  251.67   11.90
  -2   9   4  233.98   14.50
   2   9  -4  245.98   12.00
   2   9  -4  251.97   11.70
   1  -9  -4   19.90    3.50
  -1  -9   4   16.50    2.40
  -1  -9   4   15.40    2.00
   1  -9  -4   14.90    3.90
  -1  -9   4   18.10    2.30
   1  -9  -4   10.00    2.70
   1  -9  -4   18.10    3.90
   1  -9  -4   22.80    3.60
   1  -9  -4   21.40    3.20
   1   9  -4   17.20    2.30
   1   9  -4   15.10    2.30
  -1   9   4   13.70    2.90
  -1   9   4   19.10    3.60
  -1   9   4   23.60    4.00
   1   9  -4   17.90    2.40
  -1   9   4   14.80    3.20
  -1   9   4   24.80    4.30
   1   9  -4   19.30    2.40
   1   9  -4   17.70    2.20
  -1   9   4   13.10    3.30
   1   9  -4   19.30    2.20
   0  -9  -4  396.16   20.80
   0  -9   4  408.46   19.90
   0  -9   4  433.66   20.00
   0  -9  -4  412.16   21.10
   0  -9   4  444.96   20.00
   0  -9  -4  427.36   20.50
   0  -9  -4  405.16   21.00
   0  -9  -4  427.56   20.50
   0  -9  -4  417.06   21.00
   0  -9   4  449.46   20.10
   0   9  -4  387.16   19.70
   0   9  -4  412.46   20.00
   0   9   4  438.36   21.10
   0   9  -4  397.86   19.70
   0   9  -4  418.26   19.80
   0   9  -4  435.76   19.90
   0   9   4  423.66   20.70
   0   9   4  428.16   21.10
   0   9   4  408.86   21.10
   0   9   4  419.46   21.00
   0   9   4  422.26   20.70
   0   9  -4  427.96   19.90
  -1  -9  -4   14.50    2.80
   1  -9   4   11.20    2.10
   1  -9   4   10.30    3.00
   1  -9   4    7.60    2.80
  -1  -9  -4   12.30    2.60
  -1  -9  -4   10.20    3.40
  -1  -9  -4    9.80    3.20
  -1  -9  -4   11.40    3.20
   1  -9   4   10.10    2.70
  -1  -9  -4   15.00    3.40
   1  -9   4    9.60    2.90
   1  -9   4    6.90    1.90
   1   9   4   13.00    3.10
   1   9   4   10.90    3.00
  -1   9  -4    6.50    2.60
   1   9   4    6.50    2.40
  -1   9  -4    6.00    2.30
   1   9   4    8.30    2.70
  -1   9  -4   11.40    2.70
   1   9   4   10.10    2.80
  -1   9  -4   10.40    2.40
  -1   9  -4    6.20    2.80
  -1   9  -4    9.80    2.90
  -2  -9  -4 1522.75   68.79
   2  -9   4 1543.95   69.69
   2  -9   4 1527.75   69.69
  -2  -9  -4 1498.35   69.59
  -2  -9  -4 1563.64   69.79
   2  -9   4 1510.05   68.59
  -2  -9  -4 1491.45   68.79
   2  -9   4 1420.46   68.69
   2  -9   4 1393.16   69.69
  -2  -9  -4 1547.05   69.69
   2   9   4 1513.85   69.49
   2   9   4 1491.95   69.09
  -2   9  -4 1455.65   69.59
  -2   9  -4 1473.85   69.79
  -2   9  -4 1503.55   69.29
  -2   9  -4 1489.65   69.49
   2   9   4 1516.45   69.29
   2   9   4 1509.55   69.79
  -2   9  -4 1492.65   69.19
  -2   9  -4 1582.94   69.79
   2   9   4 1513.85   69.59
   2   9   4 1521.35   69.59
  -3  -9  -4   -2.30    4.80
  -3  -9  -4    3.20    5.20
  -3  -9  -4   -1.20    3.60
   3  -9   4   -6.00    5.20
   3  -9   4   -6.40    4.80
   3  -9   4   -3.60    5.50
  -3  -9  -4    5.40    5.10
   3  -9   4    3.10    5.60
  -3  -9  -4   -0.20    4.80
  -3  -9  -4    0.40    4.10
   3  -9   4    0.90    4.30
   3   9   4    1.60    4.40
   3   9   4   -1.80    5.20
   3   9   4    6.30    4.40
  -3   9  -4    4.10    5.50
   3   9   4    2.40    5.30
   3   9   4    3.40    4.60
  -3   9  -4    3.20    5.20
  -3   9  -4    1.00    5.90
  -3   9  -4    2.30    5.90
   3   9   4    3.20    4.70
  -3   9  -4    3.50    6.20
  -3   9  -4   -1.00    5.80
   3 -10  -4   37.90    6.80
   3 -10  -4   44.30    8.00
   3 -10  -4   45.20    8.00
  -3 -10   4   40.40    6.10
   3 -10  -4   48.40    7.40
   3 -10  -4   36.90    8.00
   3 -10  -4   52.09    7.20
  -3 -10   4   39.90    5.00
  -3  10   4   33.20    7.90
  -3  10   4   56.49    7.60
  -3  10   4   48.10    7.50
  -3  10   4   47.40    7.50
   3  10  -4   52.09    6.60
  -3  10   4   42.40    8.40
   3  10  -4   52.09    5.90
   3  10  -4   41.90    4.80
   3  10  -4   38.90    5.00
   3  10  -4   46.80    5.50
  -3  10   4   31.40    7.30
   2 -10  -4   15.60    4.40
   2 -10  -4   16.20    4.40
   2 -10  -4   20.60    4.90
   2 -10  -4   15.70    5.10
   2 -10  -4   14.30    4.30
   2 -10  -4    9.40    4.30
  -2 -10   4   15.30    2.60
  -2 -10   4   15.50    2.70
  -2 -10   4   19.00    2.90
   2  10  -4   16.80    2.30
  -2  10   4   19.70    5.60
  -2  10   4   20.10    4.60
  -2  10   4   18.00    4.50
   2  10  -4   14.80    2.60
   2  10  -4   16.10    2.40
   2  10  -4   20.60    2.70
   2  10  -4   18.40    2.80
  -2  10   4   16.20    5.00
  -2  10   4   12.60    4.90
   2  10  -4   22.00    2.80
   1 -10  -4    7.60    2.80
  -1 -10   4    8.70    1.80
   1 -10  -4    6.70    3.10
   1 -10  -4    6.50    3.30
   1 -10  -4    4.00    3.10
   1 -10  -4    5.10    3.10
  -1 -10   4    6.70    1.70
  -1 -10   4    6.60    1.90
   1 -10  -4    4.30    3.60
  -1  10   4    9.30    3.20
  -1  10   4    7.70    3.60
   1  10  -4    9.80    1.90
  -1  10   4    8.40    3.10
   1  10  -4    9.60    1.80
   1  10  -4    8.90    1.80
   1  10  -4    8.00    1.80
   1  10  -4    5.90    1.80
  -1  10   4    3.30    3.40
   1  10  -4    8.30    1.70
  -1  10   4    5.80    3.50
  -1  10   4    5.90    3.30
   0 -10  -4   52.79    5.80
   0 -10   4   52.89    4.60
   0 -10  -4   56.89    5.30
   0 -10   4   62.69    4.90
   0 -10  -4   59.39    5.80
   0 -10  -4   65.09    5.80
   0 -10   4   67.89    4.90
   0 -10  -4   69.59    5.50
   0 -10  -4   63.09    6.20
   0 -10   4   56.79    4.40
   0  10  -4   62.19    4.50
   0  10  -4   58.59    4.50
   0  10   4   60.79    5.90
   0  10   4   65.79    5.80
   0  10  -4   57.19    4.60
   0  10  -4   59.49    4.60
   0  10  -4   58.99    4.40
   0  10  -4   63.89    4.80
   0  10   4   62.69    5.70
   0  10   4   67.79    6.40
   0  10   4   56.39    5.60
   0  10   4   50.69    5.90
  -1 -10  -4   36.30    4.20
   1 -10   4   34.60    4.80
  -1 -10  -4   25.90    4.20
   1 -10   4   30.10    4.20
   1 -10   4   32.70    4.60
   1 -10   4   32.90    4.80
   1 -10   4   23.50    3.30
  -1 -10  -4   31.10    4.40
  -1 -10  -4   24.90    4.40
  -1 -10  -4   37.20    5.30
   1 -10   4   28.30    3.30
  -1 -10  -4   34.70    3.90
   1  10   4   36.40    4.80
  -1  10  -4   34.30    4.30
  -1  10  -4   30.50    4.40
   1  10   4   38.70    4.50
  -1  10  -4   36.10    4.50
   1  10   4   27.80    4.20
   1  10   4   38.70    5.30
  -1  10  -4   32.40    4.20
  -1  10  -4   28.40    3.60
  -1  10  -4   30.70    3.90
   1  10   4   29.90    4.50
   1  10   4   31.30    4.20
  -2 -10  -4    0.40    2.80
   2 -10   4   -2.30    3.50
  -2 -10  -4    4.90    3.50
  -2 -10  -4    3.30    4.10
   2 -10   4    0.50    3.40
  -2 -10  -4    1.00    3.00
   2 -10   4    1.20    2.80
  -2 -10  -4    0.60    3.10
   2 -10   4   -2.60    2.70
   2 -10   4    3.70    3.30
  -2  10  -4   -0.50    3.50
  -2  10  -4   -2.20    3.30
   2  10   4   -2.00    3.50
   2  10   4    3.40    3.90
  -2  10  -4    9.00    4.30
  -2  10  -4    1.30    3.30
  -2  10  -4    4.10    4.50
   2  10   4   -1.60    3.40
   2  10   4    2.60    3.50
   2  10   4    8.20    3.80
   2  10   4   -1.50    3.80
  -2  10  -4   -7.40    3.70
  -3 -10  -4   79.99   10.20
   3 -10   4   74.79    8.80
  -3 -10  -4   81.59   10.30
   3 -10   4   75.99   10.50
   3 -10   4   81.99   11.50
  -3 -10  -4   68.39    8.50
  -3 -10  -4   71.59    8.50
  -3 -10  -4   84.89   10.40
  -3 -10  -4   75.39    7.80
   3 -10   4   87.59    9.80
   3 -10   4   92.09   11.80
   3  10   4   83.09    9.70
  -3  10  -4   76.09    9.30
  -3  10  -4   80.69   10.20
   3  10   4   94.09   10.90
  -3  10  -4   68.89    9.00
   3  10   4   83.69    9.40
  -3  10  -4   75.29    9.40
   3  10   4   86.09    9.80
   3  10   4   70.59    9.90
   3  10   4   71.69    9.40
  -3  10  -4   97.79   11.80
  -3  10  -4   56.79    9.00
   3 -11  -4  251.57   17.30
   3 -11  -4  261.27   17.40
   3 -11  -4  240.18   17.30
   3 -11  -4  270.57   16.40
  -3 -11   4  245.28   14.10
   3 -11  -4  253.17   16.90
   3 -11  -4  267.07   18.40
   3  11  -4  261.77   14.10
  -3  11   4  251.17   16.30
  -3  11   4  239.58   17.50
   3  11  -4  239.98   14.30
  -3  11   4  266.87   18.60
   3  11  -4  253.27   14.50
  -3  11   4  261.77   18.20
   3  11  -4  247.88   13.50
  -3  11   4  267.57   17.90
   3  11  -4  254.07   13.70
  -3  11   4  253.47   18.90
   2 -11  -4    3.70    4.90
  -2 -11   4    1.80    2.30
  -2 -11   4   -2.20    2.10
   2 -11  -4   -0.40    4.90
   2 -11  -4   -2.70    3.90
  -2 -11   4   -1.30    2.30
   2 -11  -4    1.30    4.00
   2 -11  -4    4.40    4.10
   2  11  -4    2.60    2.30
  -2  11   4   -3.90    4.60
   2  11  -4    4.60    2.00
   2  11  -4    2.30    2.40
  -2  11   4   -6.00    4.50
   2  11  -4    4.00    2.40
  -2  11   4    2.40    4.50
   2  11  -4    5.40    2.50
   2  11  -4    2.20    2.10
  -2  11   4    3.30    5.50
  -2  11   4   -4.30    3.80
   1 -11  -4   14.60    3.90
   1 -11  -4   16.60    3.60
  -1 -11   4   15.90    2.40
   1 -11  -4   13.90    3.60
   1 -11  -4   18.00    4.60
  -1 -11   4   13.20    3.80
  -1 -11   4   14.20    2.40
  -1 -11   4   11.40    2.20
   1 -11  -4   14.20    4.30
   1 -11  -4    7.60    3.90
   1  11  -4   12.90    2.30
  -1  11   4   19.10    4.30
   1  11  -4   12.40    2.30
  -1  11   4   15.50    3.70
  -1  11   4   13.90    4.40
  -1  11   4    9.00    4.10
   1  11  -4   14.50    2.40
  -1  11   4   10.80    4.10
   1  11  -4   18.60    2.50
  -1  11   4   13.20    4.00
   1  11  -4   13.10    2.40
   1  11  -4   15.70    2.30
   0 -11  -4  828.42   38.30
   0 -11   4  820.82   38.00
   0 -11  -4  805.62   39.00
   0 -11   4  824.12   37.80
   0 -11  -4  805.82   38.90
   0 -11   4  855.31   38.00
   0 -11  -4  815.22   38.30
   0 -11  -4  801.72   38.90
   0 -11   4  833.02   37.90
   0 -11  -4  787.32   38.90
   0  11   4  796.82   38.90
   0  11  -4  776.22   37.60
   0  11  -4  774.52   37.60
   0  11   4  798.92   38.50
   0  11  -4  827.82   37.80
   0  11   4  829.82   38.60
   0  11  -4  830.82   37.80
   0  11  -4  849.61   37.70
   0  11   4  816.22   38.90
   0  11   4  875.21   39.30
   0  11  -4  771.92   37.80
   0  11   4  801.62   39.00
  -1 -11  -4   76.69   10.10
   1 -11   4   81.09    5.20
   1 -11   4   79.19    6.50
  -1 -11  -4   68.59    7.40
  -1 -11  -4   74.59    6.30
  -1 -11  -4   80.09    7.30
  -1 -11  -4   77.69    6.50
  -1 -11  -4   88.89    7.60
   1 -11   4   82.89    7.20
   1 -11   4   68.99    6.70
   1 -11   4   79.89    5.10
  -1  11  -4   79.69    6.50
  -1  11  -4   80.19    7.10
  -1  11  -4   80.29    6.70
  -1  11  -4   85.09    6.70
   1  11   4   85.09    7.20
  -1  11  -4   78.39    7.40
  -1  11  -4   83.39    6.50
   1  11   4   82.09    7.60
   1  11   4   87.19    7.50
   1  11   4   79.89    7.40
   1  11   4   70.49    6.70
   1  11   4   75.69    7.20
   2 -11   4  132.59   10.50
  -2 -11  -4  141.69   10.70
   2 -11   4  147.89   11.10
  -2 -11  -4  140.39    9.50
  -2 -11  -4  146.99   10.80
  -2 -11  -4  123.29    8.90
   2 -11   4  139.89    9.00
   2 -11   4  153.68    9.30
   2 -11   4  134.99   10.40
  -2 -11  -4  130.69   10.40
  -2  11  -4  143.39   10.90
   2  11   4  138.49   10.10
   2  11   4  148.39   10.60
  -2  11  -4  153.28   11.30
   2  11   4  135.29   11.10
  -2  11  -4  141.09   10.20
  -2  11  -4  126.19    9.90
   2  11   4  144.69   10.30
  -2  11  -4  121.29   11.10
  -2  11  -4  140.89   10.50
   2  11   4  151.48   10.60
   3 -11   4   -1.80    6.30
   3 -11   4    5.90    7.30
   3 -11   4    9.70    6.20
  -3 -11  -4   -2.30    5.60
   3 -11   4    2.20    5.40
  -3 -11  -4    5.30    6.50
   3 -11   4    4.20    5.00
   3 -11   4   -3.20    6.30
  -3 -11  -4    6.00    4.70
  -3 -11  -4    4.40    4.10
  -3 -11  -4   -3.70    5.60
  -3 -11  -4    3.30    6.30
   3  11   4   14.70    6.30
   3  11   4   11.10    6.30
  -3  11  -4    2.30    7.50
  -3  11  -4    4.10    7.20
  -3  11  -4   -2.40    5.90
   3  11   4   20.80    5.60
  -3  11  -4   -4.30    6.40
   3  11   4   -0.90    5.70
   3  11   4    1.10    5.90
  -3  11  -4   -7.90    7.50
   3  11   4    5.50    5.70
  -3  11  -4    6.90    7.10
  -3 -12   4   97.69    8.90
   3 -12  -4  101.39   14.40
   3 -12  -4  114.89   14.30
   3 -12  -4  124.89   12.40
  -3 -12   4  123.79    9.30
   3 -12  -4  127.19   13.30
   3 -12  -4  119.29   12.70
   3 -12  -4   85.99   13.10
  -3  12   4  116.49   12.80
   3  12  -4  120.89    8.30
  -3  12   4   98.29   14.40
  -3  12   4  115.09   14.90
   3  12  -4  121.99    9.50
   3  12  -4  107.39    8.00
   3  12  -4  111.79    9.50
  -3  12   4   91.09   13.20
   3  12  -4  117.19    8.60
   3  12  -4  109.19    7.80
  -3  12   4   83.89   11.50
  -2 -12   4  513.95   24.10
   2 -12  -4  497.05   25.80
   2 -12  -4  516.65   26.60
   2 -12  -4  511.45   26.70
   2 -12  -4  486.45   26.90
   2 -12  -4  453.15   27.50
   2 -12  -4  495.05   26.90
   2  12  -4  497.75   23.50
   2  12  -4  476.75   23.60
  -2  12   4  546.55   27.40
   2  12  -4  506.15   24.20
  -2  12   4  531.35   26.80
   2  12  -4  497.65   23.90
  -2  12   4  535.25   27.00
  -2  12   4  506.85   26.10
   2  12  -4  493.05   24.20
  -2  12   4  481.05   27.00
  -2  12   4  526.75   26.60
   2  12  -4  484.65   23.70
  -1 -12   4   41.50    4.50
  -1 -12   4   28.20    4.20
  -1 -12   4   33.60    4.10
  -1 -12   4   36.00    4.30
   1 -12  -4   36.60    5.70
   1 -12  -4   32.10    4.60
   1 -12  -4   45.70    6.70
   1 -12  -4   45.40    5.50
   1  12  -4   41.30    3.90
  -1  12   4   38.10    6.30
   1  12  -4   34.40    4.10
  -1  12   4   36.20    4.90
  -1  12   4   49.20    6.50
   1  12  -4   46.30    4.30
   1  12  -4   43.90    4.20
  -1  12   4   30.40    5.50
   1  12  -4   29.10    4.20
  -1  12   4   37.50    5.90
  -1  12   4   27.60    5.30
   1  12  -4   35.10    4.30
   0 -12   4  329.37   17.10
   0 -12  -4  356.96   18.60
   0 -12  -4  325.87   18.20
   0 -12  -4  316.17   18.50
   0 -12  -4  326.77   17.50
   0 -12   4  339.67   17.30
   0 -12   4  346.37   17.30
   0 -12  -4  351.66   17.60
   0  12   4  333.87   18.00
   0  12  -4  372.76   17.20
   0  12  -4  336.37   17.20
   0  12   4  327.97   18.60
   0  12  -4  349.17   17.10
   0  12   4  337.97   18.50
   0  12  -4  347.97   17.10
   0  12   4  368.96   19.00
   0  12  -4  344.57   17.10
   0  12   4  340.57   18.40
   0  12  -4  325.97   17.20
   0  12   4  362.66   18.30
   1 -12   4  344.97   18.00
  -1 -12  -4  355.46   18.40
   1 -12   4  343.17   16.10
  -1 -12  -4  339.27   18.40
   1 -12   4  328.47   17.80
   1 -12   4  335.17   17.60
  -1 -12  -4  342.77   18.40
  -1 -12  -4  337.47   17.30
  -1 -12  -4  343.27   17.30
   1 -12   4  322.07   16.00
  -1  12  -4  309.87   17.20
  -1  12  -4  296.87   17.30
  -1  12  -4  339.27   17.40
   1  12   4  340.07   18.50
   1  12   4  340.97   18.20
   1  12   4  334.77   18.20
   1  12   4  327.57   18.20
   1  12   4  331.97   17.90
  -1  12  -4  335.47   17.70
  -1  12  -4  329.47   18.10
   1  12   4  319.87   17.80
  -1  12  -4  376.16   17.90
  -2 -12  -4   61.89    8.70
   2 -12   4   72.19    9.60
   2 -12   4   66.19    8.60
  -2 -12  -4   82.89    9.00
  -2 -12  -4   76.79    9.40
  -2 -12  -4   86.29    7.10
   2 -12   4   73.09    9.30
   2 -12   4   80.99    9.00
   2 -12   4   73.19    7.20
   2 -12   4   77.09    7.00
  -2 -12  -4   79.39    9.00
  -2 -12  -4   70.89    7.50
  -2  12  -4   80.99    9.50
   2  12   4   78.09    8.60
   2  12   4   73.49    8.90
  -2  12  -4   92.29    9.60
  -2  12  -4   91.99    8.90
   2  12   4   75.59    8.70
  -2  12  -4   87.29    8.60
  -2  12  -4   95.59    9.90
  -2  12  -4   65.79    9.60
   2  12   4   76.69    8.60
   2  12   4   74.09    9.80
   3 -12   4  186.98   14.30
   3 -12   4  200.28   13.70
   3 -12   4  208.78   16.80
  -3 -12  -4  221.68   16.90
   3 -12   4  210.08   16.40
  -3 -12  -4  181.48   15.10
  -3 -12  -4  202.58   13.10
   3 -12   4  164.48   15.90
   3  12   4  196.28   14.90
  -3  12  -4  226.78   16.60
   3  12   4  195.58   15.60
  -3  12  -4  194.68   16.20
   3  12   4  198.38   18.20
  -3  12  -4  167.08   14.80
  -3  12  -4  193.98   17.20
   3  12   4  159.68   14.60
  -3  12  -4  196.38   17.00
   3  12   4  194.68   14.90
  -2 -13   4  122.99    7.90
   2 -13  -4  124.79   10.80
   2 -13  -4  110.19   11.40
   2 -13  -4  109.89   10.80
   2 -13  -4  107.39   12.40
   2 -13  -4   94.49   10.60
  -2 -13   4  111.99    8.10
   2 -13  -4  103.29   11.90
   2  13  -4  109.29    8.10
  -2  13   4  116.49   12.10
  -2  13   4  118.29   11.60
  -2  13   4  119.09   11.20
   2  13  -4  114.29    7.30
   2  13  -4  118.19    7.70
   2  13  -4  122.79    7.40
  -2  13   4  106.69   11.60
  -2  13   4  146.09   12.50
  -2  13   4  139.99   13.00
   2  13  -4  112.39    8.20
   2  13  -4  106.49    7.10
   1 -13  -4   92.39    9.10
   1 -13  -4  100.89    9.70
   1 -13  -4   82.59    8.00
   1 -13  -4   91.99    8.30
  -1 -13   4   78.89    6.50
  -1 -13   4   93.89    6.80
  -1  13   4   99.09    8.80
   1  13  -4   90.59    6.30
  -1  13   4   77.49    9.70
   1  13  -4   91.79    6.40
  -1  13   4   99.69    9.20
   1  13  -4   78.29    6.30
  -1  13   4   86.19    8.60
  -1  13   4  108.99   10.00
  -1  13   4  104.19    9.90
   1  13  -4   78.79    6.00
   1  13  -4   92.49    6.50
   1  13  -4   78.49    6.60
   0 -13   4  420.56   20.80
   0 -13  -4  443.06   22.30
   0 -13   4  387.06   20.50
   0 -13  -4  426.46   22.10
   0 -13  -4  429.16   21.10
   0 -13  -4  426.36   21.00
   0 -13  -4  412.06   21.90
   0  13  -4  394.96   20.60
   0  13  -4  385.26   20.30
   0  13   4  418.96   22.30
   0  13  -4  419.36   20.70
   0  13   4  405.16   22.00
   0  13   4  437.76   21.60
   0  13   4  415.86   21.70
   0  13  -4  417.56   20.50
   0  13  -4  393.56   20.50
   0  13   4  416.66   22.00
   0  13  -4  424.36   20.50
   0  13   4  410.06   21.90
   1 -13   4   10.60    6.00
  -1 -13  -4   18.60    5.20
   1 -13   4   19.50    2.50
  -1 -13  -4   20.80    4.00
   1 -13   4   15.30    4.10
  -1 -13  -4   18.70    3.90
  -1 -13  -4   21.40    5.00
  -1 -13  -4   12.70    4.90
  -1 -13  -4   16.90    4.90
  -1  13  -4   18.90    4.30
  -1  13  -4   14.90    5.10
   1  13   4   12.80    4.00
   1  13   4   11.40    4.20
  -1  13  -4   21.70    4.90
  -1  13  -4   14.30    4.00
   1  13   4   17.90    4.90
   1  13   4   26.30    5.40
  -1  13  -4   18.20    4.10
   1  13   4   21.70    4.70
   1  13   4   23.70    4.70
  -1  13  -4   20.40    4.30
  -2 -13  -4  106.29    8.80
   2 -13   4  111.39   11.00
  -2 -13  -4   91.69   10.80
   2 -13   4  114.99   10.40
  -2 -13  -4  107.69   10.50
  -2 -13  -4   87.29    8.10
   2 -13   4   91.59    8.00
  -2 -13  -4   88.49   10.60
   2 -13   4  114.39    8.60
   2 -13   4  112.29   11.50
   2  13   4   99.49    9.90
   2  13   4   94.39   10.20
  -2  13  -4  122.19   11.10
  -2  13  -4  104.99    9.70
  -2  13  -4  101.89   11.10
  -2  13  -4   87.19   10.90
  -2  13  -4  116.19   10.90
   2  13   4  106.99    9.90
   2  13   4   92.59   11.10
   2  13   4   84.39   10.50
   2  13   4   81.39   10.20
  -2  13  -4  116.39   10.10
   2 -14  -4  393.36   22.30
   2 -14  -4  373.76   23.60
  -2 -14   4  409.56   19.80
   2 -14  -4  368.66   23.80
   2 -14  -4  395.36   22.50
   2 -14  -4  431.56   23.60
   2 -14  -4  402.86   23.60
   2  14  -4  401.46   20.40
   2  14  -4  409.76   19.30
  -2  14   4  384.46   22.50
   2  14  -4  387.76   19.60
  -2  14   4  390.86   24.30
   2  14  -4  387.76   20.20
  -2  14   4  405.16   23.80
  -2  14   4  385.36   23.20
  -2  14   4  419.26   24.50
   2  14  -4  394.56   19.50
   2  14  -4  398.46   19.20
  -2  14   4  419.56   23.70
  -1 -14   4   74.69    6.70
   1 -14  -4   88.59   10.30
   1 -14  -4  102.39   10.20
   1 -14  -4   86.39    8.30
  -1 -14   4   81.09    7.00
   1 -14  -4   63.69    9.80
   1  14  -4   80.19    6.70
  -1  14   4   81.49    9.60
   1  14  -4   80.39    6.50
  -1  14   4   77.09   10.40
   1  14  -4   73.09    6.10
  -1  14   4   77.89   10.50
  -1  14   4   95.99    9.60
   1  14  -4   73.99    6.50
  -1  14   4   78.99    9.40
  -1  14   4   87.79   10.90
   1  14  -4   77.89    6.70
   1  14  -4   75.79    6.90
   0 -14   4   43.80    6.20
   0 -14  -4   55.39    8.20
   0 -14  -4   43.50    6.50
   0 -14  -4   48.60    5.60
   0 -14   4   42.70    5.20
   0 -14  -4   42.60    5.50
   0 -14  -4   31.20    5.80
   0  14  -4   42.90    5.70
   0  14   4   44.50    6.60
   0  14  -4   32.70    4.60
   0  14   4   37.90    6.40
   0  14   4   42.60    7.00
   0  14  -4   42.40    6.10
   0  14  -4   43.70    5.00
   0  14   4   45.50    6.80
   0  14  -4   49.90    5.80
   0  14  -4   40.40    5.90
   0  14   4   29.50    5.70
   0  14   4   41.70    6.00
  -1 -14  -4  537.25   28.90
  -1 -14  -4  565.74   27.60
   1 -14   4  547.45   28.30
  -1 -14  -4  575.74   27.70
  -1 -14  -4  575.64   29.10
   1 -14   4  576.84   29.00
  -1 -14  -4  538.75   28.90
   1 -14   4  554.84   28.60
  -1 -14  -4  573.54   29.10
  -1  14  -4  570.74   28.30
  -1  14  -4  573.44   28.10
  -1  14  -4  579.84   28.20
   1  14   4  582.84   29.10
   1  14   4  560.84   28.60
   1  14   4  539.15   28.60
  -1  14  -4  563.94   28.40
   1  14   4  559.94   28.90
   1  14   4  569.34   29.20
  -1  14  -4  592.54   29.00
  -1  14  -4  589.14   28.60
   1  14   4  557.54   28.90
  -2 -14  -4   75.69   11.40
  -2 -14  -4   60.19    8.40
   2 -14   4   94.09   11.60
   2 -14   4   74.49    8.00
   2 -14   4   81.69   10.70
  -2 -14  -4   83.39   10.80
   2 -14   4   75.09   10.80
  -2 -14  -4   91.19    8.60
   2  14   4   77.09    9.80
   2  14   4   93.19   10.30
  -2  14  -4   84.49   10.90
  -2  14  -4  100.19   11.90
  -2  14  -4   91.79   10.40
  -2  14  -4   84.69   10.90
   2  14   4   80.29   10.90
   2  14   4   90.69   10.50
  -2  14  -4   98.69   11.40
   2  14   4   77.39   10.50
  -2  14  -4   86.79    9.70
   2  14   4   76.89    9.40
   2 -15  -4  150.18   15.30
   2 -15  -4  169.58   15.50
   2 -15  -4  169.28   16.00
  -2 -15   4  143.69   10.00
  -2 -15   4  154.18   10.50
   2  15  -4  149.29    9.80
  -2  15   4  160.78   15.60
  -2  15   4  123.59   16.40
   2  15  -4  148.19    9.40
  -2  15   4  162.68   16.90
   2  15  -4  150.08    9.20
   1 -15  -4  236.68   16.40
   1 -15  -4  265.37   17.40
  -1 -15   4  244.08   13.90
   1 -15  -4  256.57   15.80
   1 -15  -4  262.87   16.90
   1 -15  -4  240.08   15.20
   1  15  -4  253.67   14.00
  -1  15   4  247.98   16.50
  -1  15   4  252.07   17.30
   1  15  -4  250.27   13.60
   1  15  -4  240.98   13.10
   1  15  -4  244.68   13.60
  -1  15   4  244.38   16.30
   1  15  -4  243.38   13.60
  -1  15   4  259.27   16.10
  -1  15   4  256.87   17.70
  -1  15   4  266.27   17.50
   1  15  -4  219.98   13.90
   0 -15   4  105.99    9.10
   0 -15   4  114.29    9.10
   0 -15  -4   96.19   10.70
   0 -15  -4   98.69   10.70
   0 -15  -4   84.99    9.00
   0 -15  -4  101.59   10.90
   0 -15  -4  114.49   11.10
   0 -15  -4  109.79    9.10
   0  15   4  102.39   10.70
   0  15  -4   98.79    8.80
   0  15  -4  100.19    8.50
   0  15   4  122.29   11.50
   0  15  -4  116.99    8.50
   0  15  -4  103.69    8.70
   0  15  -4  116.69    8.50
   0  15   4  114.69   11.20
   0  15   4   97.39   10.40
   0  15   4   98.49   10.10
   0  15   4   96.29   10.70
   0  15  -4  106.29    9.00
  -1 -15  -4   -0.30    3.90
  -1 -15  -4    9.00    4.10
   1 -15   4    2.20    5.10
  -1 -15  -4    7.20    5.70
  -1 -15  -4    1.70    4.70
  -1 -15  -4    4.20    5.20
  -1 -15  -4    7.00    6.20
   1 -15   4    6.50    5.00
   1 -15   4   -1.10    5.40
  -1  15  -4   -3.70    5.20
   1  15   4   -4.20    4.90
   1  15   4    4.00    5.20
   1  15   4   -1.10    5.50
  -1  15  -4   11.60    4.60
   1  15   4    0.20    5.50
   1  15   4    6.10    5.00
  -1  15  -4   -3.40    6.00
  -1  15  -4    5.80    4.70
   1  15   4    4.00    5.40
  -1  15  -4    4.00    4.70
  -1  15  -4    4.80    5.70
   1 -16  -4   99.59   11.10
   1 -16  -4  110.29   11.20
  -1 -16   4  121.09    9.50
   1 -16  -4  113.59   13.40
  -1 -16   4  109.09    9.20
   1 -16  -4  103.59   13.30
  -1  16   4  108.29   13.70
   1  16  -4  100.89    8.90
  -1  16   4  127.29   12.50
   1  16  -4   98.89    8.20
  -1  16   4  103.99   14.30
  -1  16   4  104.19   13.60
   1  16  -4  107.29    8.80
   1  16  -4  121.79    9.60
   1  16  -4  104.29    9.90
  -1  16   4  130.99   14.70
   0 -16  -4   78.49   10.70
   0 -16   4   66.29    8.50
   0 -16   4   71.99    9.30
   0 -16  -4   69.89    8.80
   0 -16  -4   85.39   10.60
   0 -16  -4   77.39    9.70
   0  16   4   76.99    9.90
   0  16   4   81.19   11.00
   0  16  -4   60.59    7.90
   0  16   4   87.79   10.40
   0  16  -4   88.79    8.40
   0  16  -4   68.29    8.60
   0  16   4   58.29    8.30
   0  16  -4   73.29    8.00
   0  16  -4   63.89    8.20
   0  16  -4   57.69    8.70
   0  16   4   73.39   10.90
   0  16   4   79.59   11.00
   1 -16   4   34.20    7.30
  -1 -16  -4   44.70    6.20
   1 -16   4   47.90    8.00
  -1 -16  -4   54.09    8.80
  -1  16  -4   47.40    6.90
  -1  16  -4   42.60    7.60
   1  16   4   49.50    8.00
  -1  16  -4   42.00    6.40
   1  16   4   30.70    6.70
  -1  16  -4   42.20    7.40
   1  16   4   61.19    8.60
   1  16   4   27.50    7.20
  -4   0   5   -2.20    5.50
   4   0  -5   -0.70    4.90
  -4   0   5   -1.00    5.20
   4   0  -5   11.40    5.70
   4   0  -5    2.40    4.50
   4   0  -5   -0.50    4.90
  -4   0   5   -2.50    3.50
   4   0  -5   -0.90    4.90
  -4   0   5   -5.50    3.60
  -4   0   5    1.80    4.50
  -4   0   5    2.00    5.70
   4   0  -5    4.10    5.00
   3   0  -5    3.10    3.10
   3   0  -5    2.80    3.00
  -3   0   5    0.80    2.40
   3   0  -5   -3.40    2.70
  -3   0   5    2.10    3.10
  -3   0   5   -2.60    2.10
   3   0  -5    0.70    3.30
  -3   0   5   -1.20    2.80
  -3   0   5   -0.70    3.20
  -3   0   5    3.70    3.20
   3   0  -5   -0.20    2.40
   3   0  -5    3.20    3.00
   2   0  -5   -0.10    1.70
  -2   0   5    0.40    1.90
   2   0  -5   -0.70    1.90
  -2   0   5    1.50    1.90
  -2   0   5   -0.20    1.30
  -2   0   5    1.50    2.00
  -2   0   5   -1.70    1.70
   2   0  -5   -1.00    1.50
  -2   0   5    0.60    1.30
   2   0  -5   -2.70    1.40
   2   0  -5   -1.60    1.40
   2   0  -5    1.20    1.70
   1   0  -5    1.20    1.10
  -1   0   5   -0.10    0.80
   1   0  -5   -0.30    0.90
  -1   0   5    0.50    1.00
   1   0  -5    1.70    1.00
   1   0  -5   -0.10    1.00
  -1   0   5    1.30    1.10
   1   0  -5    0.10    1.00
  -1   0   5    0.80    1.00
  -1   0   5    0.50    0.80
   1   0  -5    0.60    0.90
  -1   0   5   -0.10    1.00
   0   0   5    0.50    1.00
   0   0  -5   -0.20    0.90
   0   0  -5   -0.60    0.90
   0   0  -5   -0.70    0.90
   0   0   5   -0.30    1.00
   0   0  -5   -0.30    0.90
   0   0  -5    0.20    0.80
   0   0  -5   -1.80    0.70
   0   0   5   -0.90    0.80
   0   0   5   -0.40    0.90
   0   0   5   -0.60    0.70
   1   0   5   -0.10    1.60
   1   0   5   -0.20    1.50
  -1   0  -5    0.20    1.50
   1   0   5   -0.50    1.30
   1   0   5   -1.00    1.60
  -1   0  -5    0.40    1.60
  -1   0  -5    1.20    1.20
   1   0   5    3.80    1.60
  -1   0  -5    0.20    1.30
  -1   0  -5    1.20    1.40
   1   0   5    0.40    1.20
  -1   0  -5    0.70    1.60
  -2   0  -5   -2.50    2.60
   2   0   5    1.60    2.50
  -2   0  -5    1.70    2.20
  -2   0  -5   -5.50    2.10
   2   0   5   -0.80    1.80
  -2   0  -5   -2.00    2.60
  -2   0  -5   -1.10    2.30
   2   0   5   -3.60    2.30
   2   0   5   -1.60    2.50
  -2   0  -5   -2.00    2.30
   2   0   5    0.20    2.60
  -3   0  -5   -5.20    3.80
   3   0   5    0.10    3.50
   3   0   5    1.10    4.20
  -3   0  -5   -1.10    3.30
  -3   0  -5   -1.00    3.70
   3   0   5   -1.90    3.70
  -3   0  -5   -4.80    3.70
  -3   0  -5   -3.40    3.80
   3   0   5   -0.20    4.00
   3   0   5    0.20    3.60
  -3   0  -5    5.80    3.80
   4   0   5   -4.80    6.30
  -4   0  -5   -6.00    6.60
  -4   0  -5    7.90    7.30
   4   0   5    3.20    5.40
  -4   0  -5   10.90    7.50
   4   0   5   -0.70    6.20
  -4   0  -5    9.50    6.30
  -4   0  -5   -3.80    6.40
   4   0   5   -6.30    6.60
  -4   0  -5   10.00    6.00
   4   0   5   -6.90    5.90
   4   0   5    1.50    6.80
  -4  -1   5    0.60    5.30
  -4  -1   5    5.10    5.70
   4  -1  -5   18.70    5.80
  -4  -1   5   -5.50    5.00
   4  -1  -5   12.50    5.40
   4  -1  -5    7.50    5.10
  -4  -1   5   10.40    3.80
  -4  -1   5    3.00    4.40
   4  -1  -5    4.30    5.50
   4  -1  -5    1.40    5.10
   4  -1  -5   -2.30    5.40
  -4  -1   5    1.70    3.30
   4   1  -5   -2.00    4.40
   4   1  -5   10.20    5.20
  -4   1   5    7.00    6.00
   4   1  -5   -1.90    5.50
   4   1  -5    5.70    5.20
  -4   1   5   10.00    6.10
  -4   1   5   -7.60    4.80
  -4   1   5    8.40    4.20
  -4   1   5    6.10    6.10
  -4   1   5    9.50    4.40
   4   1  -5    5.30    5.00
   4   1  -5    2.40    4.60
   3  -1  -5  398.86   21.70
  -3  -1   5  445.26   21.90
  -3  -1   5  412.06   22.00
   3  -1  -5  427.26   21.90
  -3  -1   5  420.76   20.80
  -3  -1   5  448.66   21.90
   3  -1  -5  435.36   22.10
  -3  -1   5  437.56   20.90
  -3  -1   5  437.36   22.00
   3  -1  -5  450.85   22.30
   3  -1  -5  460.45   22.10
   3  -1  -5  458.45   22.30
   3   1  -5  416.66   21.80
   3   1  -5  433.46   21.70
  -3   1   5  412.66   22.20
  -3   1   5  460.35   21.30
  -3   1   5  453.15   21.50
  -3   1   5  445.56   22.20
  -3   1   5  427.26   22.40
  -3   1   5  468.95   22.30
   3   1  -5  449.95   21.90
   3   1  -5  424.46   21.60
   3   1  -5  437.56   21.90
   3   1  -5  434.46   21.60
  -2  -1   5   41.20    3.70
   2  -1  -5   48.90    4.10
   2  -1  -5   48.70    4.00
  -2  -1   5   49.30    4.00
  -2  -1   5   44.90    3.20
  -2  -1   5   49.20    4.10
   2  -1  -5   45.00    4.20
  -2  -1   5   47.10    3.10
   2  -1  -5   54.29    4.20
   2  -1  -5   51.09    4.40
  -2  -1   5   45.50    4.10
   2  -1  -5   44.00    4.30
   2   1  -5   40.00    3.60
  -2   1   5   43.50    4.30
  -2   1   5   49.50    3.70
  -2   1   5   43.00    4.50
   2   1  -5   48.30    4.10
  -2   1   5   45.10    4.20
  -2   1   5   48.80    4.40
   2   1  -5   43.90    3.70
   2   1  -5   43.70    3.70
   2   1  -5   41.50    3.90
   2   1  -5   48.90    3.80
   1  -1  -5  334.87   15.30
   1  -1  -5  309.47   15.20
  -1  -1   5  325.37   14.90
   1  -1  -5  324.77   15.30
   1  -1  -5  348.87   15.30
   1  -1  -5  303.07   15.00
  -1  -1   5  305.47   14.90
  -1  -1   5  314.07   14.90
   1  -1  -5  322.37   15.10
  -1   1   5  303.87   15.20
  -1   1   5  332.67   15.30
   1   1  -5  304.27   14.70
   1   1  -5  328.37   14.80
   1   1  -5  327.57   14.90
  -1   1   5  320.57   15.30
  -1   1   5  328.97   15.00
  -1   1   5  296.07   15.20
   1   1  -5  291.77   14.80
   1   1  -5  351.96   14.90
  -1   1   5  322.07   15.00
   1   1  -5  315.07   14.90
   0  -1  -5    5.00    1.40
   0  -1   5    3.10    1.10
   0  -1   5    4.40    1.00
   0  -1  -5    5.30    1.50
   0  -1   5    6.20    1.20
   0  -1   5    6.50    1.20
   0  -1  -5    3.80    1.30
   0  -1   5    4.50    1.20
   0  -1  -5    2.10    1.10
   0  -1  -5    1.90    1.20
   0  -1  -5    6.30    1.30
   0   1   5    1.70    1.40
   0   1   5    2.20    1.40
   0   1  -5    4.30    1.20
   0   1  -5    4.80    1.20
   0   1  -5    3.50    1.10
   0   1  -5    5.20    1.10
   0   1   5    7.90    1.40
   0   1   5    3.30    1.30
   0   1   5    4.60    1.30
   0   1   5    4.90    1.50
   0   1  -5    3.80    1.20
   0   1  -5    3.90    1.00
  -1  -1  -5  936.51   39.70
  -1  -1  -5  918.31   39.50
   1  -1   5  824.02   39.40
   1  -1   5  803.82   39.00
   1  -1   5  797.72   39.40
   1  -1   5  936.61   39.60
  -1  -1  -5  909.91   39.60
   1  -1   5  812.92   39.30
  -1  -1  -5  809.42   39.20
  -1  -1  -5  821.52   39.40
  -1  -1  -5  851.81   39.20
  -1   1  -5  829.92   39.40
  -1   1  -5  847.92   39.20
   1   1   5  829.32   39.40
   1   1   5  823.22   39.50
   1   1   5  895.81   39.60
  -1   1  -5  800.32   39.30
   1   1   5  843.92   39.50
   1   1   5  851.81   39.20
  -1   1  -5  883.91   39.20
  -1   1  -5  937.41   39.60
  -1   1  -5  875.21   39.40
   1   1   5  874.61   39.30
   2  -1   5 1549.14   70.79
   2  -1   5 1572.94   71.19
   2  -1   5 1738.13   71.29
   2  -1   5 1543.65   71.19
   2  -1   5 1493.15   70.59
  -2  -1  -5 1579.04   71.19
  -2  -1  -5 1669.73   71.39
   2  -1   5 1597.74   71.29
  -2  -1  -5 1554.64   71.09
  -2  -1  -5 1595.94   70.79
  -2  -1  -5 1578.24   70.79
  -2  -1  -5 1509.45   70.99
   2   1   5 1399.66   70.89
  -2   1  -5 1592.24   71.29
  -2   1  -5 1432.26   70.99
  -2   1  -5 1545.15   71.19
  -2   1  -5 1513.15   70.79
  -2   1  -5 1550.64   70.79
   2   1   5 1553.54   70.79
   2   1   5 1540.85   71.19
   2   1   5 1502.25   70.99
  -2   1  -5 1543.45   71.09
   2   1   5 1552.34   70.69
   2   1   5 1543.85   71.29
  -3  -1  -5  222.78   13.90
  -3  -1  -5  225.68   13.40
   3  -1   5  223.98   13.20
  -3  -1  -5  243.88   14.20
  -3  -1  -5  214.38   14.10
  -3  -1  -5  219.88   13.20
   3  -1   5  226.68   14.30
   3  -1   5  232.98   13.50
  -3  -1  -5  237.98   13.90
   3  -1   5  207.48   13.80
   3  -1   5  219.18   13.80
   3  -1   5  232.48   14.30
   3   1   5  203.68   13.50
  -3   1  -5  245.78   14.50
   3   1   5  235.98   13.60
   3   1   5  233.18   14.10
  -3   1  -5  223.98   14.20
  -3   1  -5  205.68   13.90
  -3   1  -5  221.18   13.90
  -3   1  -5  220.88   13.50
   3   1   5  249.48   14.40
   4  -1   5   94.49   11.40
  -4  -1  -5  111.79   12.60
   4  -1   5  102.09   12.80
   4  -1   5  117.99   11.80
  -4  -1  -5  102.59   12.90
  -4  -1  -5  115.89   11.80
   4  -1   5  102.89   13.00
  -4  -1  -5  127.89   12.20
   4  -1   5  111.49   13.50
   4  -1   5  109.39   12.80
  -4  -1  -5  139.29   13.50
  -4  -1  -5   96.39   13.20
   4   1   5  141.39   13.70
  -4   1  -5  101.69   11.90
   4   1   5  144.09   12.50
  -4   1  -5  122.59   12.30
   4   1   5  104.09   11.60
  -4   1  -5  109.49   13.50
   4   1   5  141.69   12.00
  -4   1  -5  100.19   11.50
   4   1   5  103.39   12.70
  -4   1  -5  103.99   12.90
   4   1   5  119.99   12.70
  -4   1  -5   96.39   13.30
  -4  -2   5   -0.30    4.50
  -4  -2   5    2.90    5.40
  -4  -2   5    2.50    3.10
   4  -2  -5   -1.60    4.90
  -4  -2   5   13.50    5.40
   4  -2  -5    9.80    5.70
   4  -2  -5    2.80    5.40
  -4  -2   5    3.30    3.10
   4  -2  -5    1.80    5.50
   4  -2  -5    2.70    6.20
  -4  -2   5    7.00    5.10
   4  -2  -5    6.00    5.10
   4   2  -5    9.30    5.00
   4   2  -5    7.00    4.60
  -4   2   5    0.90    6.30
   4   2  -5    2.00    5.10
  -4   2   5    4.80    4.70
   4   2  -5    2.30    5.00
   4   2  -5    3.60    4.20
  -4   2   5    4.10    5.80
  -4   2   5   -0.40    4.10
  -4   2   5    2.20    5.40
   4   2  -5    9.60    5.00
  -4   2   5    1.40    6.40
   3  -2  -5  111.19    8.80
  -3  -2   5  113.89    7.80
   3  -2  -5  105.09    8.00
  -3  -2   5  120.89    7.90
   3  -2  -5   94.79    8.50
  -3  -2   5  106.69    8.10
  -3  -2   5  116.09    6.50
   3  -2  -5  108.29    8.30
   3  -2  -5  105.79    8.70
   3  -2  -5  112.49    8.30
  -3  -2   5  112.79    6.50
   3   2  -5  117.49    7.70
   3   2  -5  117.29    8.00
  -3   2   5  110.99    7.80
  -3   2   5  119.89    8.70
  -3   2   5  120.49    7.70
   3   2  -5  110.09    8.00
   3   2  -5  113.59    7.90
  -3   2   5  100.79    8.50
  -3   2   5  117.19    9.00
   3   2  -5  119.19    7.90
  -3   2   5  104.79    8.80
   3   2  -5  115.79    7.90
  -2  -2   5   10.70    1.20
  -2  -2   5   10.90    1.40
  -2  -2   5   12.20    2.20
   2  -2  -5   10.50    2.70
  -2  -2   5    8.30    2.10
   2  -2  -5   11.70    2.40
   2  -2  -5    9.70    2.50
   2  -2  -5    7.30    2.10
  -2  -2   5   10.50    1.80
   2  -2  -5   12.60    2.70
   2  -2  -5   10.20    2.10
  -2  -2   5    7.60    2.10
  -2   2   5    7.30    2.40
   2   2  -5    7.30    1.80
  -2   2   5   12.80    2.70
  -2   2   5   10.60    2.10
  -2   2   5   13.20    2.40
   2   2  -5    7.60    1.90
   2   2  -5   11.00    2.00
  -2   2   5   12.70    2.80
   2   2  -5    9.70    1.90
   2   2  -5    8.60    2.00
   2   2  -5    9.30    2.10
   1  -2  -5  681.53   32.30
   1  -2  -5  684.03   32.30
  -1  -2   5  737.43   31.90
  -1  -2   5  667.03   31.80
   1  -2  -5  730.83   32.50
   1  -2  -5  720.53   32.60
   1  -2  -5  705.53   32.50
   1  -2  -5  692.93   32.50
  -1  -2   5  743.43   31.90
  -1   2   5  677.83   32.50
   1   2  -5  739.73   31.80
  -1   2   5  721.93   32.30
   1   2  -5  716.63   31.80
   1   2  -5  715.93   31.70
  -1   2   5  697.73   32.50
  -1   2   5  665.33   32.50
   1   2  -5  745.83   31.80
  -1   2   5  731.83   32.50
  -1   2   5  689.03   32.20
   1   2  -5  652.53   31.70
   1   2  -5  653.03   31.70
   0  -2  -5  165.68    8.10
   0  -2  -5  162.08    8.30
   0  -2  -5  154.98    8.20
   0  -2   5  170.68    7.80
   0  -2  -5  167.18    8.10
   0  -2   5  137.69    7.70
   0  -2  -5  167.68    8.30
   0  -2  -5  172.58    8.40
   0  -2   5  148.59    7.70
   0  -2   5  164.48    7.70
   0   2   5  157.08    8.10
   0   2  -5  146.19    7.50
   0   2   5  152.68    8.20
   0   2  -5  160.88    7.70
   0   2  -5  176.48    7.70
   0   2   5  150.38    8.30
   0   2  -5  161.38    7.70
   0   2   5  149.39    8.30
   0   2  -5  162.48    7.60
   0   2   5  168.88    8.10
   0   2  -5  159.88    7.80
  -1  -2  -5 1931.21   87.09
  -1  -2  -5 2054.89   87.19
  -1  -2  -5 1913.91   86.89
   1  -2   5 1864.51   86.89
   1  -2   5 1910.91   86.99
  -1  -2  -5 1997.10   87.19
   1  -2   5 2041.90   86.69
  -1  -2  -5 1980.20   86.89
   1  -2   5 1941.71   86.69
  -1  -2  -5 1724.03   86.99
   1  -2   5 1777.12   86.99
   1  -2   5 1829.22   86.99
   1   2   5 1780.02   87.09
  -1   2  -5 1788.12   86.99
   1   2   5 1898.11   87.09
   1   2   5 1934.81   87.09
   1   2   5 2012.50   86.89
   1   2   5 1968.10   86.89
  -1   2  -5 2085.49   87.09
   1   2   5 1968.30   87.19
  -1   2  -5 1900.41   86.79
  -1   2  -5 1989.90   87.09
  -1   2  -5 1918.31   86.99
  -1   2  -5 2067.69   86.79
  -2  -2  -5   80.49    6.40
   2  -2   5   67.19    6.00
   2  -2   5   72.09    5.90
  -2  -2  -5   75.19    5.80
  -2  -2  -5   74.99    5.80
  -2  -2  -5   78.49    5.90
  -2  -2  -5   83.49    6.50
   2  -2   5   79.29    6.40
   2  -2   5   84.69    6.30
   2  -2   5   74.19    6.50
   2  -2   5   74.19    5.60
  -2  -2  -5   85.89    6.50
  -2   2  -5   78.79    6.60
  -2   2  -5   83.99    6.20
  -2   2  -5   84.49    6.00
  -2   2  -5   76.69    6.30
  -2   2  -5   66.39    5.90
   2   2   5   75.39    6.10
   2   2   5   71.79    5.60
   2   2   5   74.09    5.90
   2   2   5   75.29    6.00
   2   2   5   69.39    5.80
  -2   2  -5   69.19    6.20
   2   2   5   81.19    6.40
  -3  -2  -5  166.18   11.60
   3  -2   5  175.38   11.80
   3  -2   5  163.98   10.80
   3  -2   5  165.98   11.30
   3  -2   5  160.38   11.40
  -3  -2  -5  159.08   10.80
  -3  -2  -5  165.78   10.90
  -3  -2  -5  163.08   11.70
   3  -2   5  161.48   11.80
  -3  -2  -5  154.78   11.20
   3  -2   5  170.88   11.00
  -3  -2  -5  171.88   10.70
   3   2   5  168.58   11.00
  -3   2  -5  165.98   11.70
   3   2   5  164.38   11.40
   3   2   5  168.88   11.30
  -3   2  -5  133.89   11.60
   3   2   5  176.58   11.90
  -3   2  -5  172.58   10.90
  -3   2  -5  159.08   11.70
   3   2   5  153.28   11.60
  -3   2  -5  163.88   11.10
  -4  -2  -5   -6.70    5.60
  -4  -2  -5   -3.60    7.00
   4  -2   5    2.30    6.90
   4  -2   5  -11.10    5.50
   4  -2   5    0.00    7.30
   4  -2   5   -4.80    6.80
  -4  -2  -5    1.30    6.10
  -4  -2  -5    2.20    6.60
   4  -2   5    2.50    5.80
   4  -2   5    2.50    7.30
  -4  -2  -5   -7.00    7.00
  -4  -2  -5   -6.20    5.30
   4   2   5    5.80    6.10
   4   2   5    3.70    6.60
  -4   2  -5  -14.10    7.00
  -4   2  -5   -3.10    6.40
   4   2   5   -5.90    5.90
   4   2   5   -2.40    7.00
  -4   2  -5   -9.00    5.40
  -4   2  -5    4.90    7.70
   4   2   5    5.40    5.70
   4   2   5    0.70    5.90
  -4   2  -5   -5.50    6.80
  -4   2  -5   -6.20    7.60
   4  -3  -5   25.90    6.40
  -4  -3   5   21.90    5.70
  -4  -3   5   23.90    6.10
   4  -3  -5   29.20    6.90
   4  -3  -5   33.90    7.20
   4  -3  -5   22.30    5.50
  -4  -3   5   27.90    3.50
  -4  -3   5   11.70    5.70
   4  -3  -5   24.50    6.90
   4  -3  -5   22.70    6.50
  -4   3   5   20.60    7.00
  -4   3   5   19.10    6.70
  -4   3   5   14.60    6.80
  -4   3   5   32.40    5.70
  -4   3   5   28.10    7.50
   4   3  -5   27.60    5.60
   4   3  -5   23.00    5.70
   4   3  -5   28.30    5.50
   4   3  -5   20.20    5.60
   4   3  -5   24.70    5.80
   4   3  -5   28.10    6.10
  -3  -3   5  604.94   30.00
   3  -3  -5  624.44   30.50
  -3  -3   5  601.94   30.00
   3  -3  -5  674.83   30.80
  -3  -3   5  623.14   28.60
  -3  -3   5  633.64   30.00
   3  -3  -5  664.73   31.00
  -3  -3   5  681.03   30.20
  -3  -3   5  626.04   28.60
   3  -3  -5  626.34   30.30
   3  -3  -5  622.74   30.80
   3  -3  -5  596.64   30.90
   3   3  -5  596.04   29.80
  -3   3   5  661.43   30.10
  -3   3   5  620.64   30.70
  -3   3   5  621.54   31.00
   3   3  -5  671.83   30.10
  -3   3   5  651.63   30.80
   3   3  -5  600.84   29.80
   3   3  -5  562.34   29.80
   3   3  -5  603.14   29.80
   3   3  -5  612.24   29.90
  -2  -3   5  985.50   45.40
  -2  -3   5  990.10   45.40
   2  -3  -5  996.20   45.80
   2  -3  -5  950.80   45.80
   2  -3  -5 1064.19   46.30
  -2  -3   5  923.41   45.30
   2  -3  -5 1032.50   46.10
   2  -3  -5  985.40   46.10
   2  -3  -5  954.00   46.00
  -2  -3   5 1012.50   45.30
   2   3  -5  994.00   45.30
   2   3  -5  984.00   45.20
  -2   3   5 1008.10   45.70
  -2   3   5 1058.59   46.20
   2   3  -5  948.41   45.20
   2   3  -5 1049.30   45.30
  -2   3   5 1004.70   46.20
   2   3  -5  951.10   45.20
  -2   3   5  961.00   45.60
  -2   3   5  987.20   46.30
  -2   3   5 1040.60   46.20
  -1  -3   5  439.06   20.80
   1  -3  -5  441.96   21.50
   1  -3  -5  480.35   21.80
   1  -3  -5  466.95   21.80
  -1  -3   5  469.55   20.80
   1  -3  -5  467.45   21.90
  -1  -3   5  462.85   20.80
  -1  -3   5  492.25   20.80
   1  -3  -5  444.06   21.60
   1  -3  -5  455.85   21.90
  -1   3   5  454.75   21.60
  -1   3   5  436.36   21.50
  -1   3   5  474.15   21.90
  -1   3   5  465.25   21.90
  -1   3   5  454.95   21.80
  -1   3   5  442.76   21.80
   1   3  -5  454.15   20.70
   0  -3  -5  250.87   12.50
   0  -3   5  268.97   11.90
   0  -3   5  257.47   11.80
   0  -3  -5  262.27   12.60
   0  -3  -5  280.07   12.70
   0  -3  -5  273.77   12.60
   0  -3   5  225.18   11.80
   0  -3  -5  259.87   12.30
   0  -3  -5  257.67   12.40
   0   3  -5  248.98   11.60
   0   3   5  242.78   12.30
   0   3  -5  255.77   11.80
   0   3   5  222.18   12.50
   0   3   5  246.58   12.60
   0   3   5  221.98   12.40
   0   3  -5  256.67   11.80
   0   3   5  253.07   12.30
   0   3  -5  258.87   11.80
   0   3  -5  261.27   11.70
  -1  -3  -5   51.69    3.80
  -1  -3  -5   46.20    4.10
  -1  -3  -5   50.09    3.80
   1  -3   5   41.00    3.70
   1  -3   5   41.50    3.30
   1  -3   5   41.00    3.90
  -1  -3  -5   46.30    3.80
   1  -3   5   45.10    3.70
  -1  -3  -5   44.30    4.10
  -1  -3  -5   45.70    4.20
   1  -3   5   45.40    3.90
   1  -3   5   49.80    3.30
   1   3   5   42.60    4.00
   1   3   5   48.20    3.80
  -1   3  -5   45.40    3.70
   1   3   5   49.20    4.30
  -1   3  -5   39.90    3.90
  -1   3  -5   47.60    3.80
  -1   3  -5   47.80    3.50
  -1   3  -5   44.90    3.60
   1   3   5   46.40    3.90
  -1   3  -5   41.20    3.70
   1   3   5   46.10    4.10
   1   3   5   40.70    3.50
   2  -3   5   16.00    3.00
  -2  -3  -5   12.80    3.10
   2  -3   5   13.60    2.60
   2  -3   5   17.50    3.60
   2  -3   5   13.10    3.60
  -2  -3  -5   15.70    3.10
   2  -3   5   13.70    2.80
  -2  -3  -5   20.40    3.80
  -2  -3  -5   16.20    3.40
  -2  -3  -5   16.40    3.10
   2  -3   5   17.70    3.50
  -2  -3  -5   15.80    2.80
   2   3   5   17.70    3.30
  -2   3  -5   11.90    3.30
  -2   3  -5   23.60    3.80
  -2   3  -5   19.00    3.20
  -2   3  -5   11.20    2.90
   2   3   5   13.90    3.30
  -2   3  -5   11.70    3.10
   2   3   5   14.80    3.30
   2   3   5   14.50    3.20
  -2   3  -5   11.30    3.10
   2   3   5   12.30    2.40
   2   3   5   12.40    2.70
   3  -3   5   24.20    4.80
   3  -3   5   13.40    3.90
   3  -3   5   12.50    4.60
   3  -3   5   12.60    5.00
  -3  -3  -5   12.60    3.90
   3  -3   5   16.60    4.90
  -3  -3  -5   10.50    4.60
  -3  -3  -5   12.90    3.60
   3  -3   5   16.70    5.40
  -3  -3  -5   14.20    4.20
  -3  -3  -5   14.90    4.60
  -3  -3  -5   12.90    4.60
  -3   3  -5   18.00    4.50
  -3   3  -5   16.00    4.60
   3   3   5   11.80    5.00
   3   3   5   17.80    4.00
  -3   3  -5    9.40    4.60
   3   3   5    9.00    3.70
   3   3   5   19.40    4.60
  -3   3  -5    9.00    4.40
  -3   3  -5   21.10    4.90
   3   3   5   15.60    4.00
   3   3   5   20.60    5.30
  -4  -3  -5   -5.30    6.50
  -4  -3  -5    4.30    5.60
   4  -3   5    4.90    7.40
  -4  -3  -5   -3.30    6.80
   4  -3   5  -12.30    5.90
   4  -3   5   -4.90    6.20
   4  -3   5    0.30    6.00
  -4  -3  -5   -4.70    5.20
   4  -3   5   -0.20    6.60
   4  -3   5   -1.40    6.60
  -4  -3  -5    7.30    6.10
  -4  -3  -5    2.80    6.60
  -4   3  -5   11.30    7.80
   4   3   5  -10.10    6.90
  -4   3  -5    2.80    6.60
   4   3   5    1.30    5.80
   4   3   5   -5.10    5.80
  -4   3  -5    3.60    6.70
   4   3   5   -1.60    6.40
   4   3   5   -1.90    6.70
  -4   3  -5    5.30    7.20
   4   3   5    1.10    6.20
  -4   3  -5   -9.10    7.50
  -4   3  -5   -4.40    6.50
  -4  -4   5   -7.90    5.10
   4  -4  -5    3.80    5.70
   4  -4  -5   -8.80    6.40
  -4  -4   5    1.30    2.00
  -4  -4   5    0.50    2.00
   4  -4  -5    2.30    7.10
  -4  -4   5    5.20    5.20
   4  -4  -5   -4.40    5.80
  -4  -4   5    4.50    5.20
   4  -4  -5   -2.60    5.00
  -4  -4   5    2.70    4.10
   4  -4  -5   -0.20    6.00
   4   4  -5   -6.20    4.60
   4   4  -5   -3.00    5.00
  -4   4   5    2.20    6.20
   4   4  -5    3.00    4.90
  -4   4   5    8.40    4.80
  -4   4   5    3.70    5.50
  -4   4   5    1.30    6.60
  -4   4   5    4.80    6.30
   4   4  -5   -3.90    4.90
   4   4  -5    1.10    4.80
   4   4  -5   -3.00    4.60
  -4   4   5    5.30    7.00
   3  -4  -5  139.49    9.00
   3  -4  -5  117.19    9.50
  -3  -4   5  105.19    7.80
   3  -4  -5  127.39    9.20
  -3  -4   5  120.09    8.40
  -3  -4   5  110.89    8.10
   3  -4  -5  126.29    9.00
  -3  -4   5  135.89    8.40
   3  -4  -5  142.49   10.10
   3  -4  -5  132.59    9.90
   3   4  -5  125.89    8.00
   3   4  -5  125.59    8.20
   3   4  -5  128.89    8.20
  -3   4   5  128.29    8.90
  -3   4   5  122.69    9.60
   3   4  -5   99.49    7.80
  -3   4   5  115.19    8.60
  -3   4   5  125.49    9.50
  -3   4   5  128.59   10.00
   3   4  -5  126.99    8.20
   3   4  -5  123.89    8.00
   2  -4  -5 1386.46   62.99
   2  -4  -5 1353.36   62.89
   2  -4  -5 1368.66   62.69
   2  -4  -5 1185.58   62.79
  -2  -4   5 1374.46   61.99
  -2  -4   5 1363.26   61.89
   2  -4  -5 1399.56   62.69
   2  -4  -5 1404.36   63.09
  -2  -4   5 1454.85   61.99
  -2  -4   5 1360.16   61.99
   2   4  -5 1364.66   61.79
   2   4  -5 1373.66   61.89
   2   4  -5 1404.56   61.89
   2   4  -5 1382.16   61.89
  -2   4   5 1478.25   63.19
  -2   4   5 1391.96   63.19
  -2   4   5 1315.37   62.89
   2   4  -5 1288.47   61.79
  -2   4   5 1371.36   62.49
   2   4  -5 1328.07   61.79
  -2   4   5 1429.16   63.19
  -2   4   5 1375.76   62.59
   1  -4  -5  284.97   14.10
   1  -4  -5  267.07   14.20
   1  -4  -5  291.77   14.30
   1  -4  -5  286.67   14.20
   1  -4  -5  281.57   14.40
  -1   4   5  275.37   14.00
  -1   4   5  280.47   14.10
  -1   4   5  312.77   14.50
  -1   4   5  288.07   14.50
  -1   4   5  288.27   14.40
  -1   4   5  297.97   14.50
   0  -4   5  252.57   11.50
   0  -4   5  247.78   11.60
   0  -4  -5  243.38   12.40
   0  -4  -5  242.08   12.20
   0  -4  -5  254.17   12.40
   0  -4  -5  239.98   12.20
   0  -4  -5  230.18   12.40
   0  -4  -5  240.78   12.50
   0  -4   5  248.28   11.60
   0   4   5  227.48   12.40
   0   4   5  237.48   12.40
   0   4   5  235.68   12.20
   0   4  -5  247.78   11.50
   0   4  -5  242.78   11.50
   0   4   5  281.17   12.70
   0   4  -5  253.17   11.50
   0   4  -5  265.27   11.30
   0   4   5  244.78   12.20
   0   4  -5  242.18   11.30
   0   4  -5  243.98   11.50
  -1  -4  -5 3015.80  138.99
   1  -4   5 3115.19  138.79
  -1  -4  -5 3092.59  138.69
   1  -4   5 3154.18  138.79
   1  -4   5 2858.31  138.59
   1  -4   5 3148.68  138.29
   1  -4   5 2943.31  138.19
  -1  -4  -5 3264.87  139.19
   1  -4   5 3062.49  138.79
  -1  -4  -5 3077.09  138.69
  -1  -4  -5 2994.40  138.89
  -1  -4  -5 2979.30  138.99
   1   4   5 3031.10  138.69
  -1   4  -5 3159.58  138.59
   1   4   5 3094.69  138.79
   1   4   5 3221.78  139.09
  -1   4  -5 3202.48  138.79
  -1   4  -5 3060.59  138.49
   1   4   5 3288.27  139.19
   1   4   5 3062.39  138.99
   1   4   5 3002.20  138.89
  -1   4  -5 3497.35  138.89
  -1   4  -5 2893.21  138.69
  -1   4  -5 2969.20  138.69
  -2  -4  -5  471.05   23.30
   2  -4   5  486.95   23.70
  -2  -4  -5  468.15   23.20
   2  -4   5  465.35   23.80
  -2  -4  -5  486.45   23.70
  -2  -4  -5  486.65   23.80
  -2  -4  -5  534.35   24.10
   2  -4   5  480.85   23.60
   2  -4   5  486.55   23.80
   2  -4   5  482.45   23.10
  -2  -4  -5  496.25   23.70
   2  -4   5  488.55   23.20
   2   4   5  466.85   23.50
   2   4   5  465.75   23.80
  -2   4  -5  475.55   23.40
  -2   4  -5  473.35   23.40
   2   4   5  492.85   23.30
   2   4   5  478.85   23.40
  -2   4  -5  428.36   23.50
  -2   4  -5  468.55   23.80
   2   4   5  463.35   23.80
  -2   4  -5  465.05   23.70
  -2   4  -5  459.15   23.70
   2   4   5  532.25   23.90
  -3  -4  -5   -0.70    4.10
   3  -4   5   -0.20    3.50
   3  -4   5   -2.80    4.40
   3  -4   5    2.60    4.30
   3  -4   5   -0.30    4.20
  -3  -4  -5    6.40    3.60
  -3  -4  -5    4.50    4.00
  -3  -4  -5    4.10    4.20
   3  -4   5    6.50    3.70
  -3  -4  -5    4.40    4.20
  -3  -4  -5    0.30    3.70
   3  -4   5   -0.30    4.40
   3   4   5    3.20    4.10
   3   4   5    1.80    3.50
  -3   4  -5    1.10    3.70
   3   4   5    2.60    3.40
  -3   4  -5    1.10    4.00
  -3   4  -5    4.50    4.60
   3   4   5   -0.50    4.10
  -3   4  -5    4.80    4.10
  -3   4  -5    0.50    4.60
   3   4   5    4.00    4.80
   3   4   5    0.60    3.70
  -4  -4  -5   37.00    8.40
   4  -4   5   25.20    6.90
  -4  -4  -5   41.80    7.90
   4  -4   5   31.90    8.30
   4  -4   5   42.50    9.10
   4  -4   5   33.60    8.90
   4  -4   5   40.30    7.70
  -4  -4  -5   30.90    6.80
  -4  -4  -5   29.00    6.60
   4  -4   5   32.10    8.50
  -4  -4  -5   30.40    8.00
  -4  -4  -5   53.19    9.30
   4   4   5   29.50    8.60
   4   4   5   45.10    8.30
  -4   4  -5   39.70    9.00
   4   4   5   41.10    8.30
  -4   4  -5   27.30    7.20
   4   4   5   27.40    6.40
  -4   4  -5   41.40    9.00
  -4   4  -5   31.20    8.10
   4   4   5   27.70    7.10
  -4   4  -5   12.90    8.30
  -4   4  -5   32.00    8.70
   4  -5  -5  495.75   25.80
  -4  -5   5  427.36   23.30
  -4  -5   5  453.65   23.50
  -4  -5   5  444.16   23.60
   4  -5  -5  448.26   24.00
   4  -5  -5  443.26   25.20
   4  -5  -5  442.46   24.60
   4  -5  -5  426.36   24.50
   4  -5  -5  451.65   25.10
   4   5  -5  436.16   23.30
   4   5  -5  426.76   22.80
   4   5  -5  419.66   23.10
  -4   5   5  434.86   24.10
  -4   5   5  450.15   25.90
   4   5  -5  461.25   23.20
  -4   5   5  389.26   24.80
  -4   5   5  438.26   25.80
  -4   5   5  434.06   23.60
   4   5  -5  448.56   23.30
   4   5  -5  448.96   23.00
  -4   5   5  405.46   24.60
   3  -5  -5  693.13   36.40
   3  -5  -5  752.92   36.30
   3  -5  -5  826.02   36.70
   3  -5  -5  752.02   36.10
  -3  -5   5  694.23   34.90
  -3  -5   5  735.13   35.10
   3  -5  -5  716.53   35.70
  -3  -5   5  757.52   35.10
   3  -5  -5  851.11   36.80
  -3  -5   5  730.23   35.00
   3   5  -5  734.93   34.80
   3   5  -5  764.22   34.80
   3   5  -5  761.92   35.10
  -3   5   5  734.23   35.60
  -3   5   5  752.82   35.90
  -3   5   5  692.73   36.10
  -3   5   5  808.42   36.60
   3   5  -5  679.03   34.80
  -3   5   5  737.63   36.70
   3   5  -5  728.43   35.00
  -2  -5   5    1.10    1.50
   2  -5  -5    0.90    2.40
   2  -5  -5    3.60    2.60
   2  -5  -5    3.00    2.40
   2  -5  -5    1.10    2.30
  -2  -5   5   -0.90    1.50
  -2  -5   5   -0.20    1.30
   2  -5  -5   -0.50    2.40
   2  -5  -5    1.00    2.90
  -2   5   5    2.60    2.60
  -2   5   5    1.00    2.70
   2   5  -5   -0.70    1.40
  -2   5   5    0.70    2.90
   2   5  -5    1.80    1.40
  -2   5   5   -1.20    2.50
   2   5  -5   -1.30    1.20
   2   5  -5    1.10    1.40
   2   5  -5    0.70    1.40
  -2   5   5    1.40    2.00
  -2   5   5    1.20    2.10
   2   5  -5   -0.50    1.40
   1  -5  -5 1920.61   84.99
   1  -5  -5 1865.21   84.59
   1  -5  -5 1909.81   84.89
   1  -5  -5 1661.63   84.69
   1  -5  -5 1774.02   84.59
   1  -5  -5 2010.30   85.09
  -1   5   5 1882.61   84.99
  -1   5   5 1917.41   84.69
  -1   5   5 2017.80   84.99
  -1   5   5 1921.21   85.09
  -1   5   5 1689.93   84.79
  -1   5   5 1901.61   84.69
   0  -5  -5   74.19    5.20
   0  -5   5   69.39    4.00
   0  -5   5   69.09    4.00
   0  -5  -5   68.39    5.00
   0  -5  -5   78.79    4.90
   0  -5  -5   68.79    5.20
   0  -5  -5   74.09    5.30
   0  -5   5   69.49    4.00
   0  -5  -5   74.89    4.90
   0   5  -5   72.19    3.90
   0   5   5   74.49    4.90
   0   5  -5   73.29    3.80
   0   5  -5   71.49    4.00
   0   5  -5   71.49    4.00
   0   5   5   75.19    5.30
   0   5   5   74.49    5.40
   0   5  -5   68.49    3.70
   0   5   5   74.99    5.20
   0   5   5   73.39    4.90
   0   5  -5   74.09    3.80
   0   5   5   67.89    4.90
  -1  -5  -5 1173.98   54.19
  -1  -5  -5 1264.47   54.19
  -1  -5  -5 1128.19   53.69
   1  -5   5 1172.68   53.79
  -1  -5  -5 1138.09   53.69
   1  -5   5 1190.68   53.19
  -1  -5  -5 1203.38   54.09
   1  -5   5 1151.48   53.79
   1  -5   5 1091.29   53.69
   1  -5   5 1246.48   53.89
   1  -5   5 1218.18   53.19
  -1  -5  -5 1154.48   54.09
  -1   5  -5 1341.67   53.99
   1   5   5 1155.78   54.09
   1   5   5 1180.18   54.09
  -1   5  -5 1194.18   53.59
   1   5   5 1188.78   53.79
   1   5   5 1110.49   53.89
  -1   5  -5 1177.88   53.49
  -1   5  -5 1121.29   53.69
  -1   5  -5 1162.78   53.69
  -1   5  -5 1189.48   53.69
   1   5   5 1107.69   53.69
   1   5   5 1189.68   54.19
  -2  -5  -5   75.99    6.10
  -2  -5  -5   83.99    6.80
  -2  -5  -5   70.49    6.50
  -2  -5  -5   79.49    6.80
   2  -5   5   73.39    6.70
  -2  -5  -5   87.89    6.60
   2  -5   5   80.49    6.80
  -2  -5  -5   77.49    6.00
   2  -5   5   73.39    5.90
   2  -5   5   73.09    6.50
   2  -5   5   72.19    5.80
   2  -5   5   79.69    6.70
  -2   5  -5   73.89    6.10
   2   5   5   89.09    6.40
   2   5   5   74.89    5.90
   2   5   5   82.69    6.60
  -2   5  -5   72.99    6.90
   2   5   5   76.09    6.80
   2   5   5   80.59    6.50
  -2   5  -5   83.09    6.70
  -2   5  -5   71.79    6.70
   2   5   5   82.79    6.80
  -2   5  -5   64.89    6.50
   3  -5   5  232.38   15.80
  -3  -5  -5  269.17   16.10
  -3  -5  -5  235.78   15.70
   3  -5   5  280.87   16.40
  -3  -5  -5  284.87   15.10
  -3  -5  -5  279.57   16.30
   3  -5   5  261.57   15.20
   3  -5   5  256.07   16.30
   3  -5   5  275.17   16.40
  -3  -5  -5  269.67   15.30
   3  -5   5  285.97   15.40
   3   5   5  270.67   16.40
   3   5   5  255.97   15.50
   3   5   5  269.97   16.20
   3   5   5  268.47   15.50
  -3   5  -5  289.17   16.10
  -3   5  -5  286.47   16.70
  -3   5  -5  250.07   15.60
  -3   5  -5  279.97   16.30
  -3   5  -5  254.77   16.10
   3   5   5  262.17   15.60
   3   5   5  274.07   15.30
  -3   5  -5  253.27   15.50
  -4  -5  -5   78.19   10.60
   4  -5   5   65.09   10.60
   4  -5   5   80.19   10.60
   4  -5   5   71.29   10.40
  -4  -5  -5  106.59   11.40
   4  -5   5   55.79   10.00
   4  -5   5   86.69   11.80
  -4  -5  -5  101.79   13.00
   4  -5   5   70.89    9.00
  -4  -5  -5   99.79   13.30
  -4  -5  -5   92.39   11.10
  -4  -5  -5   76.89    9.80
  -4   5  -5   78.59   10.60
  -4   5  -5   90.29   11.80
  -4   5  -5   81.49   10.70
   4   5   5  112.19   12.50
   4   5   5   84.29   12.10
  -4   5  -5   91.39   12.10
  -4   5  -5   88.49   12.20
   4   5   5   82.69   11.10
  -4   5  -5   74.49   10.80
   4   5   5  103.99   11.70
   4   5   5   97.49   12.10
   4   5   5   70.69    9.10
   4  -6  -5  106.29   13.50
   4  -6  -5  109.09   12.80
   4  -6  -5  130.79   12.80
   4  -6  -5  123.09   13.30
  -4  -6   5  116.09   10.90
   4  -6  -5  106.39   11.10
   4  -6  -5  109.59   12.60
  -4  -6   5  109.99   10.70
   4   6  -5  123.39   10.70
  -4   6   5  129.99   13.40
  -4   6   5  100.89   12.10
   4   6  -5   91.99    9.20
   4   6  -5  114.29    9.70
   4   6  -5   88.79   10.00
   4   6  -5  104.39   10.00
  -4   6   5  102.99   12.80
  -4   6   5  109.89   14.40
   4   6  -5   96.19   10.70
  -4   6   5  105.99   11.30
  -4   6   5   96.99   12.90
   3  -6  -5 1072.19   51.59
   3  -6  -5 1107.89   51.39
  -3  -6   5 1162.28   50.19
   3  -6  -5 1122.09   51.59
   3  -6  -5 1133.19   51.19
  -3  -6   5  995.60   49.99
  -3  -6   5 1064.79   50.09
   3  -6  -5 1177.38   51.89
   3  -6  -5  937.01   51.49
  -3  -6   5 1045.90   50.09
   3   6  -5 1027.70   49.90
  -3   6   5 1033.40   51.29
  -3   6   5 1117.29   50.99
  -3   6   5 1078.69   51.89
   3   6  -5 1062.49   49.70
  -3   6   5 1095.79   51.69
   3   6  -5 1139.69   50.29
  -3   6   5 1182.48   52.29
   3   6  -5 1077.89   50.09
   3   6  -5 1081.19   50.09
  -3   6   5 1096.39   51.09
   3   6  -5 1087.99   49.90
   2  -6  -5  772.52   37.60
   2  -6  -5  759.22   37.50
  -2  -6   5  789.62   36.00
   2  -6  -5  869.01   37.90
   2  -6  -5  758.22   37.10
   2  -6  -5  777.62   37.70
  -2  -6   5  802.92   36.00
   2  -6  -5  809.12   37.40
  -2  -6   5  780.92   36.00
   2   6  -5  754.62   35.80
  -2   6   5  821.02   37.70
   2   6  -5  810.72   36.10
   2   6  -5  820.92   36.00
  -2   6   5  736.13   37.50
  -2   6   5  784.12   37.10
   2   6  -5  784.92   35.90
   2   6  -5  823.62   35.80
  -2   6   5  801.22   37.30
  -2   6   5  779.92   37.80
   2   6  -5  802.82   36.10
  -2   6   5  762.62   37.70
   1  -6  -5 1196.78   53.39
   1  -6  -5 1293.97   53.89
   1  -6  -5 1150.08   53.59
   1  -6  -5 1031.60   53.39
   1  -6  -5 1260.17   53.79
   1  -6  -5 1128.69   53.29
  -1   6   5 1150.58   53.69
  -1   6   5 1175.58   53.29
  -1   6   5 1209.68   53.69
  -1   6   5 1037.10   53.49
  -1   6   5 1186.28   53.69
  -1   6   5 1134.19   53.29
   0  -6  -5 2945.21  124.49
   0  -6  -5 2918.81  124.59
   0  -6   5 2793.02  123.39
   0  -6   5 2637.44  123.39
   0  -6  -5 2843.42  124.59
   0  -6   5 2783.72  123.39
   0  -6  -5 2807.72  124.19
   0  -6  -5 2760.42  124.09
   0  -6  -5 2757.02  124.49
   0   6  -5 2593.94  123.19
   0   6  -5 2426.76  123.29
   0   6  -5 2765.02  123.39
   0   6   5 2712.63  124.39
   0   6   5 2735.33  124.19
   0   6  -5 2730.33  123.29
   0   6  -5 2715.83  123.29
   0   6   5 2964.90  124.59
   0   6   5 2797.62  124.49
   0   6   5 2790.62  124.19
   0   6  -5 2675.23  123.29
   0   6   5 2834.52  124.49
   1  -6   5  167.58    8.40
  -1  -6  -5  163.58    9.20
  -1  -6  -5  164.88    9.60
  -1  -6  -5  178.98    9.30
   1  -6   5  159.48    9.30
   1  -6   5  169.88    8.50
  -1  -6  -5  183.58    9.80
  -1  -6  -5  161.18    9.70
   1  -6   5  165.28    9.30
   1  -6   5  163.88    9.30
   1  -6   5  167.98    9.30
  -1  -6  -5  160.58    9.60
  -1   6  -5  141.79    9.00
  -1   6  -5  164.98    9.00
  -1   6  -5  169.58    8.90
  -1   6  -5  182.58    9.40
   1   6   5  162.88    9.50
   1   6   5  174.78    9.30
  -1   6  -5  164.38    9.10
   1   6   5  172.88    9.40
   1   6   5  169.68    9.60
  -1   6  -5  184.68    9.50
   1   6   5  176.88    9.80
   1   6   5  161.98    9.80
   2  -6   5    5.40    3.20
  -2  -6  -5    1.50    3.00
   2  -6   5    2.30    2.50
  -2  -6  -5    3.20    3.40
  -2  -6  -5    1.00    2.70
  -2  -6  -5    2.40    2.20
  -2  -6  -5    2.20    3.00
   2  -6   5    2.10    2.80
  -2  -6  -5    5.80    2.70
   2  -6   5    3.80    2.30
   2  -6   5    3.30    3.10
   2  -6   5    4.60    3.40
  -2   6  -5    0.90    3.00
   2   6   5    2.30    2.90
   2   6   5    5.20    3.10
  -2   6  -5   -2.30    3.30
  -2   6  -5    2.40    3.00
   2   6   5    3.80    2.70
   2   6   5    2.30    2.70
  -2   6  -5    3.60    2.80
   2   6   5    2.70    2.50
   2   6   5    3.20    3.20
  -2   6  -5   -3.00    2.60
  -2   6  -5    4.90    3.20
   3  -6   5    2.40    3.80
   3  -6   5    3.50    4.80
  -3  -6  -5    2.80    4.00
   3  -6   5    3.40    4.80
   3  -6   5    2.80    5.10
  -3  -6  -5   10.30    4.60
   3  -6   5    3.80    4.60
  -3  -6  -5   10.00    3.60
   3  -6   5    5.70    4.10
  -3  -6  -5    4.40    4.80
  -3  -6  -5    3.20    4.90
   3   6   5    7.10    4.50
  -3   6  -5    1.70    4.00
  -3   6  -5    0.80    4.80
   3   6   5    2.90    4.00
  -3   6  -5    5.20    4.10
   3   6   5    0.40    4.20
  -3   6  -5    6.50    4.80
  -3   6  -5    7.90    5.20
   3   6   5    8.30    4.40
   3   6   5    6.00    5.10
  -3   6  -5    6.20    5.30
   3   6   5    3.40    3.90
  -4  -6  -5  114.29   12.80
   4  -6   5  125.09   14.40
   4  -6   5  106.59   12.70
   4  -6   5   88.39   12.50
   4  -6   5  110.19   14.40
  -4  -6  -5  121.69   14.20
  -4  -6  -5   83.49   11.10
  -4  -6  -5  143.69   12.30
   4  -6   5  122.89   12.50
  -4  -6  -5   76.29   13.10
   4  -6   5  111.49   14.90
  -4  -6  -5  122.49   14.60
   4   6   5  111.29   11.30
  -4   6  -5   73.39   10.30
  -4   6  -5   67.49   10.00
   4   6   5  105.69   14.20
   4   6   5  113.59   12.80
   4   6   5  106.19   13.00
  -4   6  -5   99.69   13.40
  -4   6  -5   92.09   13.40
  -4   6  -5  102.59   15.30
  -4   6  -5  103.69   13.00
   4   6   5   94.59   12.00
  -4  -7   5   -2.00    5.10
   4  -7  -5    7.30    7.20
   4  -7  -5   12.30    8.00
   4  -7  -5   -2.30    6.40
  -4  -7   5   -0.70    4.50
   4  -7  -5    5.20    6.60
   4  -7  -5    3.40    8.60
  -4  -7   5   -4.40    4.70
  -4  -7   5    4.10    5.60
  -4   7   5    7.70    7.50
   4   7  -5    1.90    5.40
   4   7  -5   12.10    5.00
   4   7  -5    2.50    4.20
  -4   7   5    2.10    6.10
   4   7  -5    4.10    4.50
  -4   7   5    7.00    8.30
  -4   7   5   14.10    8.00
   4   7  -5   12.90    5.70
  -4   7   5    8.60    7.90
   4   7  -5   10.00    5.20
  -3  -7   5   43.10    5.20
   3  -7  -5   56.09    8.30
  -3  -7   5   50.09    6.00
  -3  -7   5   54.69    5.60
   3  -7  -5   58.49    7.30
   3  -7  -5   60.39    8.60
   3  -7  -5   66.89    8.10
   3  -7  -5   44.80    6.60
  -3   7   5   46.80    7.10
   3   7  -5   41.60    5.70
  -3   7   5   47.10    6.40
  -3   7   5   59.29    8.50
   3   7  -5   48.50    5.40
  -3   7   5   55.19    7.40
   3   7  -5   35.90    5.20
   3   7  -5   50.09    5.00
   3   7  -5   49.20    4.90
  -3   7   5   46.40    7.40
   3   7  -5   59.59    5.80
  -2  -7   5    2.00    1.60
   2  -7  -5    1.10    3.10
  -2  -7   5    0.80    1.40
  -2  -7   5   -1.70    1.40
   2  -7  -5   -0.40    2.90
  -2  -7   5    0.40    1.40
   2  -7  -5    5.10    3.40
   2  -7  -5   -1.50    2.60
   2  -7  -5    1.40    2.50
   2  -7  -5    2.20    3.00
   2   7  -5    1.20    1.40
   2   7  -5    2.20    1.30
   2   7  -5    0.40    1.30
  -2   7   5    2.30    3.10
  -2   7   5    4.90    3.20
  -2   7   5    2.80    3.30
   2   7  -5   -0.10    1.20
  -2   7   5    6.10    2.70
   2   7  -5    1.30    1.50
  -2   7   5    2.10    3.40
  -2   7   5    4.10    3.10
   2   7  -5    0.60    1.50
  -1  -7   5  220.18    9.70
   1  -7  -5  212.38   11.40
   1  -7  -5  206.18   11.30
   1  -7  -5  196.28   11.70
   1  -7  -5  204.48   11.50
   1  -7  -5  225.28   11.80
   1  -7  -5  195.88   11.60
  -1  -7   5  215.88    9.60
  -1   7   5  195.18   11.50
   1   7  -5  210.68    9.60
   1   7  -5  213.68    9.60
  -1   7   5  214.08   11.40
  -1   7   5  214.58   11.40
  -1   7   5  196.58   11.80
  -1   7   5  211.68   11.80
  -1   7   5  198.18   11.50
   0  -7  -5   29.60    4.00
   0  -7  -5   31.20    3.60
   0  -7   5   32.70    2.70
   0  -7  -5   29.20    4.10
   0  -7   5   28.40    2.60
   0  -7  -5   26.90    3.90
   0  -7  -5   25.50    3.50
   0  -7   5   27.90    2.40
   0  -7  -5   31.10    4.10
   0   7  -5   28.60    2.20
   0   7   5   25.80    3.60
   0   7   5   37.30    4.10
   0   7  -5   27.00    2.30
   0   7   5   32.10    3.80
   0   7   5   37.10    3.90
   0   7  -5   26.20    2.40
   0   7   5   30.80    4.30
   0   7   5   33.70    4.10
   0   7  -5   32.00    2.70
   0   7  -5   28.10    2.50
   0   7  -5   28.80    2.70
   1  -7   5 1160.38   59.39
   1  -7   5 1281.27   59.69
  -1  -7  -5 1272.47   59.99
  -1  -7  -5 1283.97   59.59
  -1  -7  -5 1292.07   59.99
  -1  -7  -5 1367.66   60.19
   1  -7   5 1321.77   58.79
   1  -7   5 1261.47   59.59
   1  -7   5 1308.87   59.49
  -1  -7  -5 1332.47   59.99
   1  -7   5 1289.17   58.69
  -1  -7  -5 1310.87   59.49
  -1   7  -5 1302.47   59.39
   1   7   5 1289.67   59.59
  -1   7  -5 1278.17   59.29
  -1   7  -5 1298.07   59.29
   1   7   5 1365.16   60.19
   1   7   5 1294.27   59.69
  -1   7  -5 1427.56   59.69
   1   7   5 1324.07   60.09
   1   7   5 1220.98   59.79
  -1   7  -5 1334.37   59.69
  -1   7  -5 1350.66   59.59
   1   7   5 1302.67   60.09
  -2  -7  -5   66.89    6.90
   2  -7   5   62.19    5.50
   2  -7   5   57.89    6.50
  -2  -7  -5   65.59    6.10
  -2  -7  -5   60.39    6.30
   2  -7   5   65.29    6.50
   2  -7   5   70.89    6.80
  -2  -7  -5   60.69    6.60
  -2  -7  -5   64.69    5.80
   2  -7   5   60.59    6.50
   2  -7   5   69.99    5.70
  -2  -7  -5   64.49    6.00
  -2   7  -5   66.19    6.40
   2   7   5   66.99    6.60
   2   7   5   61.79    6.80
   2   7   5   70.59    6.40
  -2   7  -5   53.29    6.00
   2   7   5   69.49    6.50
  -2   7  -5   64.59    7.00
   2   7   5   64.29    6.40
  -2   7  -5   65.59    6.50
  -2   7  -5   62.39    6.70
   2   7   5   68.79    6.00
  -2   7  -5   47.10    6.60
   3  -7   5   12.20    4.30
   3  -7   5   29.60    4.90
  -3  -7  -5   30.00    6.30
  -3  -7  -5   24.30    4.60
  -3  -7  -5   29.50    5.00
  -3  -7  -5   25.90    5.70
   3  -7   5   27.10    5.80
  -3  -7  -5   33.00    6.50
   3  -7   5   18.20    5.70
   3  -7   5   14.30    5.50
   3  -7   5   27.50    6.50
   3   7   5   32.20    6.50
  -3   7  -5   25.80    6.10
   3   7   5   26.20    5.80
  -3   7  -5   27.30    6.40
  -3   7  -5   24.40    5.70
  -3   7  -5   26.20    5.20
   3   7   5   24.60    4.60
  -3   7  -5   19.40    5.00
   3   7   5   23.20    5.70
   3   7   5   30.10    5.60
   3   7   5   24.20    5.20
  -3   7  -5   29.20    6.20
  -4  -7  -5   83.09   10.80
   4  -7   5   55.89   10.30
   4  -7   5   98.69   14.70
   4  -7   5   55.09    8.40
   4  -7   5   79.49   11.20
  -4  -7  -5   96.69   13.80
  -4  -7  -5   77.99   11.60
   4   7   5   82.89   12.20
   4   7   5   65.89    9.50
  -4   7  -5   63.99   10.40
   4   7   5   56.89    9.50
  -4   7  -5   92.29   12.50
  -4   7  -5   80.39   12.50
   4  -8  -5   27.90    9.30
  -4  -8   5   34.50    6.60
   4  -8  -5   15.10    9.40
   4  -8  -5   21.90    8.40
   4   8  -5   22.80    6.40
  -4   8   5   19.30    9.40
   4   8  -5   22.60    5.60
  -4   8   5   17.90    8.30
  -4   8   5   20.70    9.80
   4   8  -5   24.00    5.70
   4   8  -5   21.90    6.10
  -3  -8   5   96.69    7.40
   3  -8  -5  103.39   10.80
  -3  -8   5  109.99    7.90
   3  -8  -5  107.59    9.60
   3  -8  -5  126.79   10.10
   3  -8  -5  105.79   10.30
   3  -8  -5  113.59   10.90
  -3   8   5  106.49   11.30
  -3   8   5  118.09   10.60
   3   8  -5  100.19    6.90
  -3   8   5  100.39    9.50
   3   8  -5  101.39    7.30
  -3   8   5   96.69   11.10
  -3   8   5  111.19   10.80
   3   8  -5   99.59    6.80
   3   8  -5  109.39    7.70
  -3   8   5  123.19   13.60
   3   8  -5   98.19    7.70
   3   8  -5  110.09    7.30
   2  -8  -5    1.30    3.10
  -2  -8   5    4.00    1.70
   2  -8  -5    0.40    2.80
   2  -8  -5    7.60    3.60
  -2  -8   5    3.90    1.70
   2  -8  -5    2.40    3.10
  -2  -8   5    2.30    1.60
  -2  -8   5    0.90    1.50
   2  -8  -5    0.20    3.10
   2  -8  -5    1.80    3.30
   2   8  -5    2.00    1.70
  -2   8   5   -0.90    3.60
  -2   8   5   -1.50    3.60
   2   8  -5    3.10    1.20
  -2   8   5    0.40    3.10
   2   8  -5    1.80    1.70
  -2   8   5    3.40    2.90
   2   8  -5    1.60    1.30
  -2   8   5    1.50    3.90
   2   8  -5    2.90    1.50
  -2   8   5    0.80    4.20
   2   8  -5    1.40    1.30
   1  -8  -5   -1.20    2.60
  -1  -8   5    0.00    0.80
   1  -8  -5   -1.40    2.40
   1  -8  -5    0.40    2.30
   1  -8  -5    1.80    2.40
   1  -8  -5    6.00    2.60
  -1  -8   5    0.30    0.90
  -1  -8   5    1.00    0.90
   1  -8  -5    0.00    2.20
  -1  -8   5    1.40    1.00
  -1   8   5    2.70    2.50
  -1   8   5   -1.60    2.40
  -1   8   5   -0.70    2.40
  -1   8   5   -2.80    2.30
   1   8  -5    1.10    0.90
  -1   8   5   -1.40    2.50
  -1   8   5   -0.40    2.60
   1   8  -5    1.30    0.90
   0  -8  -5  705.83   33.10
   0  -8  -5  697.23   33.40
   0  -8   5  689.23   32.30
   0  -8  -5  687.13   33.40
   0  -8  -5  735.93   33.60
   0  -8  -5  708.93   33.00
   0  -8   5  738.53   32.30
   0  -8   5  710.83   32.30
   0  -8  -5  689.33   33.50
   0  -8   5  698.73   32.20
   0   8   5  736.23   33.60
   0   8   5  708.13   33.10
   0   8  -5  622.74   32.10
   0   8  -5  706.43   32.20
   0   8   5  773.22   33.70
   0   8   5  676.83   33.10
   0   8  -5  714.53   32.20
   0   8   5  678.13   33.30
   0   8  -5  692.33   32.10
   0   8   5  691.53   33.50
   0   8  -5  723.83   32.30
   0   8  -5  693.93   32.10
   1  -8   5   51.59    4.80
  -1  -8  -5   47.60    5.20
  -1  -8  -5   57.39    5.40
  -1  -8  -5   53.69    5.50
  -1  -8  -5   56.19    4.90
   1  -8   5   51.29    3.60
   1  -8   5   48.90    3.60
   1  -8   5   47.30    6.80
   1  -8   5   59.09    5.10
  -1  -8  -5   48.40    5.50
   1  -8   5   45.90    4.70
  -1  -8  -5   51.09    4.70
  -1   8  -5   50.59    4.50
  -1   8  -5   49.10    4.60
   1   8   5   50.79    5.10
  -1   8  -5   46.40    5.00
   1   8   5   56.79    5.60
   1   8   5   48.60    5.70
   1   8   5   55.29    5.10
  -1   8  -5   61.89    5.00
  -1   8  -5   50.59    4.60
   1   8   5   54.19    5.20
  -1   8  -5   50.09    4.90
  -2  -8  -5  797.52   38.30
   2  -8   5  813.42   38.20
  -2  -8  -5  788.12   37.60
   2  -8   5  714.43   38.10
   2  -8   5  780.32   38.20
   2  -8   5  826.42   37.30
  -2  -8  -5  836.42   38.40
  -2  -8  -5  765.82   37.40
   2  -8   5  778.72   38.20
   2  -8   5  794.12   37.30
  -2  -8  -5  856.21   38.60
  -2   8  -5  825.02   38.30
  -2   8  -5  828.92   38.00
   2   8   5  796.22   37.90
   2   8   5  823.62   37.90
  -2   8  -5  758.42   38.10
   2   8   5  841.02   38.70
   2   8   5  766.92   38.10
  -2   8  -5  792.72   38.10
  -2   8  -5  809.42   37.90
   2   8   5  810.22   38.30
   2   8   5  797.02   38.10
  -2   8  -5  715.43   38.10
  -3  -8  -5  703.13   33.60
  -3  -8  -5  712.83   33.60
  -3  -8  -5  679.33   32.40
   3  -8   5  657.43   33.80
   3  -8   5  560.54   33.10
  -3  -8  -5  618.64   33.30
   3  -8   5  670.93   33.60
  -3  -8  -5  696.33   32.20
   3  -8   5  666.33   33.60
   3  -8   5  698.13   32.30
   3   8   5  670.23   33.60
  -3   8  -5  666.23   33.40
   3   8   5  658.13   33.40
   3   8   5  723.33   33.00
   3   8   5  618.34   32.70
  -3   8  -5  649.83   33.70
  -3   8  -5  583.44   33.40
   3   8   5  602.64   32.80
  -3   8  -5  669.63   33.00
  -3   8  -5  627.74   33.80
   3   8   5  685.43   32.90
  -3  -9   5    2.00    3.30
   3  -9  -5    5.20    5.80
   3  -9  -5   -8.50    5.70
   3  -9  -5   -1.80    4.90
  -3  -9   5   -0.80    2.90
   3  -9  -5   -0.40    5.20
  -3  -9   5   -1.60    3.00
   3  -9  -5   -2.50    4.50
  -3  -9   5    6.70    2.80
   3   9  -5    0.90    3.10
   3   9  -5   -0.70    2.80
  -3   9   5   -5.10    4.20
   3   9  -5   -1.00    2.50
  -3   9   5    2.60    5.50
  -3   9   5   -1.90    5.30
  -3   9   5    2.00    6.60
   3   9  -5   -2.40    3.30
  -3   9   5    0.30    5.20
   3   9  -5    4.30    2.60
  -3   9   5    5.40    6.40
   3   9  -5   -1.50    2.80
   2  -9  -5   16.90    4.50
   2  -9  -5   14.00    4.60
   2  -9  -5   10.20    4.10
  -2  -9   5   11.50    2.10
   2  -9  -5   15.00    4.30
  -2  -9   5   18.20    2.30
  -2  -9   5   14.20    2.10
  -2  -9   5   12.10    2.20
   2  -9  -5   10.70    4.00
   2  -9  -5   21.70    4.30
   2   9  -5   14.50    2.10
   2   9  -5   14.50    2.40
  -2   9   5   12.40    4.10
  -2   9   5   17.20    4.40
   2   9  -5   15.80    2.00
   2   9  -5   14.40    2.30
  -2   9   5   17.40    4.80
  -2   9   5   16.60    5.10
   2   9  -5   15.40    2.20
  -2   9   5   23.40    4.60
   2   9  -5   13.30    1.80
  -1  -9   5  379.36   17.30
   1  -9  -5  381.76   19.10
   1  -9  -5  332.57   19.30
  -1  -9   5  362.06   17.40
  -1  -9   5  393.26   17.40
   1  -9  -5  390.96   19.40
   1  -9  -5  387.56   19.40
  -1  -9   5  410.06   17.40
   1  -9  -5  395.36   19.60
   1  -9  -5  374.36   19.00
  -1   9   5  318.57   18.80
  -1   9   5  395.56   19.50
   1   9  -5  397.76   17.20
  -1   9   5  378.76   19.70
   1   9  -5  386.36   17.20
  -1   9   5  331.17   18.80
   1   9  -5  365.96   17.40
  -1   9   5  368.36   19.40
   1   9  -5  377.46   17.40
  -1   9   5  364.86   19.50
   0  -9  -5   59.89    5.90
   0  -9  -5   54.69    5.20
   0  -9  -5   60.49    5.70
   0  -9  -5   59.29    5.80
   0  -9  -5   55.99    5.50
   0  -9   5   57.89    3.90
   0  -9  -5   53.49    5.30
   0  -9   5   52.69    4.20
   0  -9   5   62.79    4.40
   0  -9   5   56.29    4.10
   0   9   5   55.99    5.80
   0   9  -5   58.29    4.10
   0   9  -5   56.99    4.30
   0   9  -5   58.29    4.00
   0   9  -5   59.49    4.00
   0   9   5   59.39    5.40
   0   9   5   54.59    6.00
   0   9   5   59.49    5.80
   0   9   5   55.49    5.20
   0   9  -5   55.29    4.20
   0   9  -5   50.59    3.90
   0   9   5   61.79    5.80
  -1  -9  -5  137.69    9.10
   1  -9   5  134.59    8.60
  -1  -9  -5  132.59    9.10
   1  -9   5  132.39    7.20
   1  -9   5  140.89    8.30
   1  -9   5  132.79    8.60
  -1  -9  -5  132.69    8.50
  -1  -9  -5  142.99    9.30
  -1  -9  -5  135.09    8.50
  -1  -9  -5  139.99    9.20
   1  -9   5  138.89    7.20
   1   9   5  142.59    9.20
  -1   9  -5  147.09    8.50
   1   9   5  143.79    9.20
   1   9   5  156.08    9.60
   1   9   5  134.39    8.90
  -1   9  -5  137.09    8.90
  -1   9  -5  134.79    8.20
  -1   9  -5  133.79    8.20
   1   9   5  129.99    8.70
  -1   9  -5  141.79    8.20
  -1   9  -5  136.59    8.50
  -2  -9  -5   12.10    3.70
   2  -9   5   11.10    3.10
  -2  -9  -5    9.50    3.30
   2  -9   5   10.80    3.20
   2  -9   5   12.70    4.30
   2  -9   5    9.50    3.40
   2  -9   5   14.30    4.30
  -2  -9  -5   15.20    4.10
  -2  -9  -5   20.30    4.80
  -2  -9  -5   12.80    3.80
   2  -9   5    8.80    4.30
  -2   9  -5   13.30    4.10
  -2   9  -5    8.40    4.40
   2   9   5   20.10    4.10
  -2   9  -5    8.60    4.50
  -2   9  -5   12.50    4.70
   2   9   5   13.80    4.40
   2   9   5    8.50    3.80
   2   9   5   13.40    4.40
   2   9   5   13.60    4.20
   2   9   5   23.40    5.30
  -2   9  -5   13.80    4.10
  -2   9  -5   15.70    3.90
  -3  -9  -5    8.50    4.10
   3  -9   5   11.70    6.20
  -3  -9  -5   -0.70    4.90
   3  -9   5   -5.20    6.10
   3  -9   5    3.40    4.30
  -3  -9  -5    5.80    4.70
   3  -9   5    4.20    6.00
   3  -9   5    0.90    5.00
  -3  -9  -5   11.70    5.70
  -3  -9  -5   12.00    5.80
  -3  -9  -5    8.60    5.10
   3   9   5    9.90    6.10
  -3   9  -5   12.00    5.90
  -3   9  -5   12.70    5.60
  -3   9  -5    3.30    6.60
   3   9   5    6.50    5.40
  -3   9  -5    2.10    6.00
   3   9   5   13.60    5.70
   3   9   5    4.40    5.50
   3   9   5    1.80    4.80
  -3   9  -5    6.90    6.00
   3   9   5    4.00    5.50
  -3 -10   5  370.66   20.00
   3 -10  -5  401.76   23.30
   3 -10  -5  362.16   22.60
   3 -10  -5  410.86   22.30
   3 -10  -5  358.66   22.80
  -3 -10   5  390.36   19.90
   3 -10  -5  422.86   23.80
   3 -10  -5  399.06   23.70
  -3  10   5  412.76   24.00
  -3  10   5  431.66   23.50
  -3  10   5  414.96   22.40
  -3  10   5  440.16   24.30
   3  10  -5  386.96   20.40
   3  10  -5  391.06   19.40
  -3  10   5  440.56   23.30
  -3  10   5  451.15   23.80
   3  10  -5  397.46   20.30
   3  10  -5  408.16   19.70
  -2 -10   5   63.79    4.60
  -2 -10   5   53.79    4.30
  -2 -10   5   60.69    4.60
   2 -10  -5   63.99    8.00
   2 -10  -5   83.29    7.80
   2 -10  -5   63.69    7.80
   2 -10  -5   68.89    7.50
   2 -10  -5   60.19    7.40
  -2 -10   5   53.39    4.30
  -2  10   5   67.39    9.00
  -2  10   5   54.59    7.80
  -2  10   5   67.29    8.20
  -2  10   5   76.59    7.70
   2  10  -5   54.19    4.70
   2  10  -5   53.19    4.60
   2  10  -5   59.19    3.50
   2  10  -5   60.79    3.90
   2  10  -5   62.19    4.10
  -2  10   5   77.89    8.50
  -1 -10   5  939.81   40.70
   1 -10  -5  868.11   42.90
   1 -10  -5  879.41   42.80
   1 -10  -5  894.51   42.30
   1 -10  -5  815.52   42.50
  -1 -10   5  910.11   40.80
  -1 -10   5  957.10   40.80
   1 -10  -5  916.41   42.30
  -1 -10   5  855.61   40.70
   1  10  -5  925.01   40.60
  -1  10   5  902.71   43.00
   1  10  -5  859.41   40.80
  -1  10   5  902.51   42.50
   1  10  -5  890.91   40.30
   1  10  -5  872.61   40.30
   1  10  -5  944.91   40.90
  -1  10   5  873.91   42.30
  -1  10   5  901.21   42.90
  -1  10   5  925.61   42.70
  -1  10   5  887.81   42.70
   1  10  -5  929.51   40.60
   0 -10  -5 1261.37   59.09
   0 -10  -5 1312.67   58.69
   0 -10  -5 1349.07   59.39
   0 -10  -5 1314.37   59.29
   0 -10   5 1283.97   57.99
   0 -10   5 1255.27   57.89
   0 -10   5 1285.37   57.89
   0 -10  -5 1294.07   58.69
   0 -10  -5 1222.68   59.19
   0  10  -5 1265.47   57.79
   0  10  -5 1320.27   57.99
   0  10  -5 1218.18   57.79
   0  10   5 1258.57   59.29
   0  10   5 1227.18   58.69
   0  10   5 1336.87   59.39
   0  10  -5 1290.57   57.79
   0  10  -5 1281.87   57.89
   0  10   5 1204.78   58.99
   0  10  -5 1273.07   57.79
   0  10   5 1274.77   58.79
   0  10   5 1218.78   59.09
  -1 -10  -5   36.20    5.30
   1 -10   5   41.80    3.30
  -1 -10  -5   36.80    4.80
  -1 -10  -5   34.70    4.90
   1 -10   5   40.60    5.00
   1 -10   5   37.80    4.90
   1 -10   5   33.70    3.10
   1 -10   5   30.70    4.20
  -1 -10  -5   39.30    5.80
  -1 -10  -5   32.30    4.50
  -1 -10  -5   47.70    5.30
  -1  10  -5   40.60    5.30
  -1  10  -5   40.30    4.70
   1  10   5   41.00    5.80
   1  10   5   35.60    5.30
  -1  10  -5   41.60    5.80
  -1  10  -5   45.00    5.20
  -1  10  -5   40.80    4.60
   1  10   5   44.80    5.50
   1  10   5   42.90    5.90
   1  10   5   41.90    6.10
   1  10   5   31.10    4.40
  -1  10  -5   41.80    4.90
   2 -10   5   95.69    7.20
  -2 -10  -5  104.79    9.10
   2 -10   5   95.39    8.70
  -2 -10  -5  117.99    9.10
   2 -10   5   87.99    7.00
   2 -10   5  109.89    8.70
   2 -10   5   95.59    9.20
  -2 -10  -5  104.09    9.50
  -2 -10  -5   85.79    7.90
  -2 -10  -5   94.29    7.60
  -2  10  -5   98.49    8.10
  -2  10  -5   98.59    9.20
   2  10   5   92.79    9.00
   2  10   5   95.09    8.80
  -2  10  -5   97.89    9.00
   2  10   5  104.69    8.80
  -2  10  -5  103.59    8.90
  -2  10  -5   85.49    8.20
   2  10   5  114.19    8.70
  -2  10  -5   91.89    8.90
   2  10   5   97.79    9.10
   2  10   5  109.39    9.70
   3 -10   5  610.44   31.70
   3 -10   5  629.14   32.50
   3 -10   5  618.14   30.20
  -3 -10  -5  604.74   31.50
  -3 -10  -5  591.94   30.10
  -3 -10  -5  648.14   32.00
   3 -10   5  615.74   31.80
  -3 -10  -5  605.74   31.80
  -3 -10  -5  568.04   31.50
   3 -10   5  581.24   31.70
   3  10   5  608.14   31.10
  -3  10  -5  589.94   32.50
   3  10   5  593.44   31.40
   3  10   5  636.64   31.20
   3  10   5  612.84   32.00
  -3  10  -5  592.44   31.10
  -3  10  -5  616.34   32.20
  -3  10  -5  602.84   31.20
   3  10   5  579.94   31.20
   3  10   5  630.64   31.10
  -3  10  -5  566.94   31.80
   3 -11  -5  164.08   14.20
  -3 -11   5  153.58    9.90
   3 -11  -5  147.39   15.20
   3 -11  -5  164.78   13.40
   3 -11  -5  170.28   14.00
   3 -11  -5  157.38   13.40
   3 -11  -5  177.78   14.40
  -3  11   5  159.78   14.80
   3  11  -5  157.28    9.10
   3  11  -5  149.69    9.00
   3  11  -5  159.18   10.70
  -3  11   5  172.08   13.90
   3  11  -5  164.48    9.50
  -3  11   5  170.68   14.70
  -3  11   5  168.48   16.10
   3  11  -5  161.38    9.10
  -3  11   5  182.58   14.00
  -3  11   5  135.29   14.70
   3  11  -5  170.68   10.70
   2 -11  -5    2.20    4.20
   2 -11  -5    7.70    5.10
   2 -11  -5   -1.30    4.10
  -2 -11   5    6.30    2.40
   2 -11  -5    1.50    5.10
  -2 -11   5    5.80    2.10
   2 -11  -5    5.90    5.00
  -2 -11   5    0.90    2.20
  -2 -11   5    5.80    2.20
  -2  11   5    9.60    4.60
   2  11  -5    8.20    2.00
  -2  11   5    6.20    5.60
  -2  11   5   -3.00    5.10
  -2  11   5    5.90    4.60
   2  11  -5    9.70    1.80
   2  11  -5    4.70    2.50
  -2  11   5    9.30    4.90
   2  11  -5    4.10    2.30
   1 -11  -5  386.16   20.30
  -1 -11   5  391.26   18.10
  -1 -11   5  387.46   18.00
   1 -11  -5  331.87   20.10
   1 -11  -5  343.87   20.30
   1 -11  -5  404.36   19.90
   1 -11  -5  383.36   19.80
  -1 -11   5  375.06   18.00
  -1 -11   5  386.96   18.00
   1  11  -5  393.86   17.90
   1  11  -5  375.56   17.80
  -1  11   5  382.76   20.10
  -1  11   5  375.96   19.80
   1  11  -5  377.96   18.10
  -1  11   5  356.16   20.00
  -1  11   5  414.16   20.80
   1  11  -5  386.46   17.60
   1  11  -5  369.66   18.10
  -1  11   5  377.76   20.60
   1  11  -5  394.96   17.60
  -1  11   5  399.46   20.60
   0 -11   5   29.00    4.10
   0 -11  -5   38.40    5.20
   0 -11   5   29.70    4.00
   0 -11  -5   29.10    4.50
   0 -11   5   28.30    3.70
   0 -11  -5   30.30    5.10
   0 -11  -5   26.30    4.30
   0 -11  -5   36.40    4.60
   0 -11   5   33.10    4.10
   0 -11  -5   35.90    4.60
   0  11  -5   29.30    3.90
   0  11  -5   29.60    4.00
   0  11  -5   30.00    4.30
   0  11  -5   33.00    3.80
   0  11   5   31.90    4.30
   0  11  -5   29.80    3.60
   0  11   5   33.00    4.40
   0  11   5   32.10    5.30
   0  11   5   30.80    4.90
   0  11   5   20.50    4.30
   0  11  -5   27.90    3.70
   0  11   5   31.30    5.00
  -1 -11  -5  606.44   29.10
   1 -11   5  605.94   29.10
  -1 -11  -5  591.44   30.00
  -1 -11  -5  595.54   30.10
  -1 -11  -5  602.24   30.00
   1 -11   5  583.04   27.60
  -1 -11  -5  614.94   29.20
   1 -11   5  620.04   29.40
   1 -11   5  592.14   27.70
  -1  11  -5  573.54   28.90
  -1  11  -5  644.34   29.40
  -1  11  -5  606.34   29.00
   1  11   5  608.04   29.60
  -1  11  -5  609.84   29.20
   1  11   5  600.14   29.90
   1  11   5  611.04   29.60
   1  11   5  626.74   30.10
   1  11   5  610.94   30.00
  -1  11  -5  606.44   29.00
  -1  11  -5  606.04   29.50
   1  11   5  600.44   30.10
   2 -11   5    8.40    4.50
  -2 -11  -5   10.60    4.80
   2 -11   5   13.60    4.60
  -2 -11  -5   12.60    3.80
  -2 -11  -5   16.20    5.50
  -2 -11  -5   16.20    5.00
   2 -11   5   12.70    5.10
   2 -11   5   10.70    3.40
  -2 -11  -5   14.90    4.20
   2 -11   5   14.90    5.10
   2 -11   5   16.30    3.50
  -2  11  -5   13.90    4.80
  -2  11  -5    3.60    4.40
  -2  11  -5    6.10    5.00
   2  11   5   14.90    5.40
  -2  11  -5    8.40    4.70
   2  11   5   13.60    4.70
   2  11   5   19.60    5.20
  -2  11  -5   13.30    4.80
  -2  11  -5   11.60    4.50
   2  11   5   10.20    5.10
   2  11   5   17.70    4.60
   3 -11   5  137.69   13.80
  -3 -11  -5  118.39   12.30
   3 -11   5  149.99   11.70
  -3 -11  -5  131.39   11.20
   3 -11   5  106.29   13.30
   3 -11   5  138.99   11.10
   3 -11   5  126.69   13.20
  -3 -11  -5  155.78   13.40
  -3 -11  -5  159.38   13.90
   3 -11   5  119.39   14.60
  -3  11  -5  138.49   14.20
  -3  11  -5  126.29   12.90
   3  11   5  135.89   12.90
  -3  11  -5  152.88   14.30
   3  11   5  121.79   13.60
   3  11   5  147.59   13.60
  -3  11  -5  142.59   12.40
   3  11   5  132.89   12.80
  -3  11  -5  148.59   14.40
   3  11   5  166.88   12.90
   3  11   5  153.08   13.20
  -3  11  -5  140.69   15.40
   3 -12  -5   81.99   10.40
   3 -12  -5   64.39    9.30
   3 -12  -5   66.89   10.20
   3 -12  -5   55.69    9.70
   3 -12  -5   59.99    8.80
  -3 -12   5   61.59    6.70
   3 -12  -5   56.29    9.20
  -3  12   5  113.49   14.00
   3  12  -5   61.59    7.70
  -3  12   5   50.49    8.90
   3  12  -5   67.19    5.00
   3  12  -5   65.89    5.50
   3  12  -5   77.59    5.50
  -3  12   5   49.90   10.00
   3  12  -5   80.29    8.30
  -3  12   5   77.59   11.30
  -3  12   5   59.99   11.00
   3  12  -5   65.19    6.20
   2 -12  -5    4.60    5.60
   2 -12  -5    4.30    4.60
  -2 -12   5    4.00    2.60
   2 -12  -5   12.70    5.90
  -2 -12   5    4.10    2.60
   2 -12  -5    1.00    4.90
   2 -12  -5   10.90    5.00
   2 -12  -5    5.50    5.10
  -2 -12   5    4.70    2.30
   2  12  -5    7.20    1.90
   2  12  -5    7.40    2.10
   2  12  -5    1.80    2.50
  -2  12   5   -1.80    5.80
  -2  12   5   11.30    6.10
  -2  12   5    4.60    5.30
  -2  12   5    0.90    5.60
  -2  12   5   -1.90    8.70
  -2  12   5    9.60    6.40
   2  12  -5    6.20    2.90
  -1 -12   5  101.49    6.40
   1 -12  -5   98.99    8.70
   1 -12  -5  106.49    9.10
  -1 -12   5  103.79    6.40
   1 -12  -5   90.59    9.50
  -1 -12   5  107.29    6.30
   1 -12  -5  108.39    9.10
   1 -12  -5  123.69    9.20
   1 -12  -5  102.39    8.90
  -1  12   5   98.59    9.10
  -1  12   5  103.09    8.80
   1  12  -5   99.69    6.60
  -1  12   5  103.09    8.90
  -1  12   5  100.29    8.90
   1  12  -5  103.49    6.20
  -1  12   5  112.19    9.90
   1  12  -5   97.39    5.70
   1  12  -5   97.59    5.80
  -1  12   5  109.79   10.00
   1  12  -5  108.29    6.20
   1  12  -5  112.69    6.60
   0 -12   5  305.47   15.50
   0 -12  -5  288.97   16.70
   0 -12  -5  311.27   16.20
   0 -12   5  300.07   15.40
   0 -12   5  298.77   15.60
   0 -12  -5  295.07   16.30
   0 -12  -5  305.17   17.10
   0 -12  -5  322.57   17.40
   0  12  -5  321.97   15.30
   0  12  -5  298.47   15.50
   0  12   5  286.27   17.00
   0  12   5  299.67   17.30
   0  12  -5  298.77   15.30
   0  12   5  305.37   16.60
   0  12  -5  300.27   15.30
   0  12   5  309.37   16.80
   0  12  -5  327.07   15.30
   0  12   5  284.57   17.00
   0  12  -5  311.67   15.40
   0  12   5  304.07   17.40
  -1 -12  -5  374.16   20.20
   1 -12   5  380.26   19.20
  -1 -12  -5  346.77   20.10
   1 -12   5  371.76   19.60
   1 -12   5  379.96   17.30
  -1 -12  -5  373.26   19.20
  -1 -12  -5  385.96   20.40
   1 -12   5  368.26   17.30
  -1 -12  -5  361.26   19.20
  -1  12  -5  363.46   19.40
  -1  12  -5  403.66   19.80
  -1  12  -5  371.56   19.10
   1  12   5  378.36   20.40
   1  12   5  362.36   20.00
  -1  12  -5  376.56   19.00
   1  12   5  378.76   19.90
   1  12   5  376.46   20.30
   1  12   5  374.86   20.10
  -1  12  -5  385.86   19.30
  -1  12  -5  370.36   19.10
   1  12   5  364.36   19.60
   2 -12   5   36.80    4.50
  -2 -12  -5   31.90    4.80
   2 -12   5   36.10    4.60
   2 -12   5   32.60    5.90
   2 -12   5   42.80    6.90
   2 -12   5   30.70    6.10
   2 -12   5   39.00    6.70
  -2 -12  -5   36.30    6.40
  -2 -12  -5   40.60    5.50
  -2 -12  -5   18.20    6.00
  -2 -12  -5   25.50    5.80
  -2 -12  -5   37.10    6.70
  -2  12  -5   39.40    6.50
  -2  12  -5   20.00    6.40
   2  12   5   36.60    6.70
   2  12   5   31.50    5.60
   2  12   5   50.79    6.70
   2  12   5   33.50    5.70
  -2  12  -5   31.90    5.80
   2  12   5   36.70    6.20
  -2  12  -5   37.10    6.10
  -2  12  -5   38.60    6.60
  -2  12  -5   32.50    5.90
   2 -13  -5   40.20    7.90
   2 -13  -5   28.30    7.60
  -2 -13   5   29.40    3.50
   2 -13  -5   27.70    6.10
   2 -13  -5   33.50    6.80
  -2 -13   5   22.50    3.60
   2 -13  -5   31.70    6.80
   2 -13  -5   24.90    7.40
  -2  13   5   31.20    7.10
  -2  13   5   26.30    8.50
   2  13  -5   23.20    3.90
  -2  13   5   31.90    6.90
   2  13  -5   25.60    3.00
  -2  13   5   18.20    7.10
   2  13  -5   23.60    3.40
  -2  13   5   10.80    6.90
  -2  13   5   25.70    6.20
   2  13  -5   25.10    3.90
   1 -13  -5  498.05   25.50
  -1 -13   5  492.95   22.70
   1 -13  -5  473.95   24.90
   1 -13  -5  486.25   24.30
   1 -13  -5  452.25   25.30
  -1  13   5  473.05   24.80
   1  13  -5  447.06   22.30
  -1  13   5  464.65   24.80
  -1  13   5  491.85   25.50
  -1  13   5  479.75   25.40
   1  13  -5  450.75   22.70
  -1  13   5  440.16   25.40
   1  13  -5  469.25   22.00
   1  13  -5  484.65   22.70
   1  13  -5  479.55   22.00
  -1  13   5  473.15   24.60
   1  13  -5  489.05   22.40
   0 -13  -5   30.40    5.70
   0 -13  -5   30.40    4.60
   0 -13  -5   23.50    5.30
   0 -13  -5   29.00    4.60
   0 -13   5   32.40    4.40
   0 -13  -5   19.80    5.10
   0  13  -5   24.00    4.20
   0  13   5   35.10    6.30
   0  13   5   34.90    5.70
   0  13   5   23.90    5.30
   0  13   5   36.20    6.00
   0  13  -5   30.50    4.50
   0  13  -5   27.80    3.90
   0  13   5   31.90    5.30
   0  13  -5   28.10    3.80
   0  13   5   22.40    5.20
   0  13  -5   27.70    4.00
   0  13  -5   29.40    3.90
  -1 -13  -5  221.08   14.10
  -1 -13  -5  213.38   13.80
   1 -13   5  225.28   12.80
  -1 -13  -5  206.68   12.60
  -1 -13  -5  218.58   12.80
  -1 -13  -5  218.48   13.80
  -1  13  -5  214.08   13.20
   1  13   5  201.28   13.70
   1  13   5  202.78   13.40
  -1  13  -5  190.48   12.80
   1  13   5  210.78   13.20
   1  13   5  210.98   13.90
   1  13   5  211.58   13.70
   1  13   5  222.98   14.10
  -1  13  -5  206.88   12.50
  -1  13  -5  217.88   12.70
  -1  13  -5  218.48   12.70
  -1  13  -5  198.28   12.30
   2 -13   5   72.19   10.40
  -2 -13  -5   40.60    7.60
  -2 -13  -5   62.29    7.60
  -2 -13  -5   51.19    7.70
   2 -13   5   69.59    9.70
   2 -13   5   64.69    7.90
  -2 -13  -5   61.49    8.70
  -2 -13  -5   63.49    8.40
   2 -13   5   63.19    6.50
  -2 -13  -5   66.09    8.40
   2  13   5   59.29    8.40
   2  13   5   67.29    7.90
   2  13   5   38.60    6.60
  -2  13  -5   52.99    6.80
   2  13   5   37.30    7.10
  -2  13  -5   56.09    7.40
  -2  13  -5   67.19    8.80
   2  13   5   48.60    7.60
  -2  13  -5   49.10    7.50
  -2  13  -5   58.99    8.10
   2  13   5   67.19    8.30
  -2  13  -5   71.09    9.70
   2 -14  -5  433.26   22.50
   2 -14  -5  396.46   22.50
   2 -14  -5  379.26   23.80
   2 -14  -5  367.76   22.60
   2 -14  -5  408.46   23.60
  -2 -14   5  371.26   19.20
   2 -14  -5  362.76   22.70
  -2 -14   5  401.26   19.00
  -2  14   5  417.06   23.50
  -2  14   5  422.96   23.80
  -2  14   5  378.56   22.30
  -2  14   5  414.16   24.40
   2  14  -5  393.96   18.30
  -2  14   5  390.06   24.30
  -2  14   5  364.96   23.00
   2  14  -5  377.76   19.80
   2  14  -5  409.76   18.40
   2  14  -5  345.57   19.70
   1 -14  -5   70.39   10.60
   1 -14  -5   83.59   10.60
   1 -14  -5   85.39    8.80
  -1 -14   5   79.39    6.50
   1 -14  -5   81.59   10.30
   1 -14  -5   85.39   10.30
  -1 -14   5   79.79    6.60
  -1  14   5   89.69    9.60
   1  14  -5   77.39    6.70
  -1  14   5   97.99   11.30
  -1  14   5  104.39   11.40
   1  14  -5   89.39    7.00
  -1  14   5   97.89   10.10
   1  14  -5   70.49    5.70
   1  14  -5   82.19    5.50
  -1  14   5   83.29    9.30
   1  14  -5   74.49    6.10
  -1  14   5   89.19   11.20
   1  14  -5   78.39    6.10
   0 -14   5   12.70    3.90
   0 -14  -5   17.30    4.50
   0 -14  -5   14.30    5.40
   0 -14   5    8.70    3.60
   0 -14  -5   21.10    4.70
   0 -14  -5    9.80    5.00
   0 -14   5   19.10    4.10
   0 -14  -5   17.30    5.10
   0  14  -5   17.10    3.70
   0  14   5   10.40    5.10
   0  14  -5   11.20    3.50
   0  14  -5   14.40    4.00
   0  14  -5   14.10    3.70
   0  14   5    9.10    5.20
   0  14  -5   20.00    3.60
   0  14   5   14.90    5.90
   0  14   5   20.70    5.50
   0  14   5   13.30    5.80
   0  14  -5   15.90    3.60
   0  14   5   15.00    5.20
  -1 -14  -5  262.47   17.00
  -1 -14  -5  285.27   17.20
   1 -14   5  289.77   15.70
  -1 -14  -5  271.17   16.90
   1 -14   5  272.77   16.40
  -1 -14  -5  271.77   15.50
  -1 -14  -5  296.47   17.20
  -1 -14  -5  281.07   15.70
   1 -14   5  269.27   16.30
   1  14   5  281.17   16.80
  -1  14  -5  258.27   16.00
  -1  14  -5  267.87   15.60
   1  14   5  270.67   16.40
  -1  14  -5  272.77   15.80
  -1  14  -5  270.27   15.40
  -1  14  -5  274.97   16.40
   1  14   5  269.47   16.60
  -1  14  -5  268.87   15.80
   1  14   5  288.57   17.30
   1  14   5  292.27   17.20
   1  14   5  267.67   16.70
  -2 -14  -5   14.30    6.00
   2 -14   5   18.60    4.40
  -2 -14  -5    9.30    6.50
   2 -14   5   17.50    6.60
   2 -14   5   18.00    6.50
  -2 -14  -5   16.00    5.60
   2 -14   5   17.70    7.00
  -2 -14  -5    6.40    4.80
  -2 -14  -5   16.10    7.70
  -2  14  -5   25.10    6.10
   2  14   5   11.00    5.60
   2  14   5   23.10    7.20
   2  14   5    9.60    6.60
  -2  14  -5   19.80    6.60
  -2  14  -5   10.80    5.80
   2  14   5   18.70    5.70
  -2  14  -5   14.20    7.00
   2  14   5   11.20    6.20
   2  14   5   19.90    6.80
  -2  14  -5   10.60    7.10
  -2  14  -5   15.50    6.40
   1 -15  -5    1.40    6.10
   1 -15  -5   -4.40    4.80
   1 -15  -5    7.40    5.50
  -1 -15   5   -1.50    3.80
  -1 -15   5   -5.30    3.40
   1 -15  -5    4.20    6.70
   1 -15  -5    0.70    6.60
  -1 -15   5   -3.10    3.20
  -1  15   5   -2.40    6.10
  -1  15   5   -0.50    6.50
   1  15  -5    2.60    3.00
  -1  15   5    5.30    6.80
  -1  15   5    2.40    5.60
   1  15  -5   -0.70    3.20
  -1  15   5   -1.20    7.30
   1  15  -5    1.20    2.70
  -1  15   5    0.20    6.50
   1  15  -5    3.50    3.90
   1  15  -5    2.40    3.50
   1  15  -5   -2.40    3.10
   0 -15  -5  113.09    9.70
   0 -15  -5  100.99   11.40
   0 -15  -5  100.49   11.40
   0 -15  -5  103.89   11.40
   0 -15   5  114.49   10.30
   0 -15   5   91.79    8.80
   0 -15  -5   96.19   11.80
   0  15  -5  113.19    8.50
   0  15  -5  106.69    8.20
   0  15  -5  110.39    8.50
   0  15   5  130.09   11.80
   0  15   5  110.29   11.60
   0  15  -5  125.29    9.30
   0  15   5   96.79   10.70
   0  15  -5  114.49    8.30
   0  15   5  114.89   11.40
   0  15  -5   94.29    8.50
   0  15   5  102.99   11.60
   0  15   5  112.09   10.90
   1 -15   5   21.60    5.90
   1 -15   5   19.80    5.40
  -1 -15  -5   19.00    5.10
  -1 -15  -5   11.00    4.90
  -1 -15  -5   20.90    6.80
  -1 -15  -5   29.50    6.80
   1 -15   5   26.90    6.40
  -1 -15  -5   33.50    7.50
  -1  15  -5   26.60    6.30
   1  15   5   22.70    6.70
  -1  15  -5   26.10    5.10
  -1  15  -5   13.10    5.10
   1  15   5   24.70    5.80
  -1  15  -5   29.30    6.20
   1  15   5   25.40    6.70
  -1  15  -5   25.50    5.60
   1  15   5   24.60    7.10
   1  15   5   23.60    6.90
  -1  15  -5   28.40    5.40
   1  15   5   16.30    6.40
   1 -16  -5    4.20    7.40
  -1 -16   5    7.80    4.10
  -1 -16   5    0.80    3.60
  -1  16   5    9.80    7.30
   0 -16  -5   45.50    7.00
   0 -16  -5   51.69    6.90
   0 -16  -5   48.10    8.70
   0 -16  -5   48.20    7.60
   0 -16   5   43.80    6.70
   0 -16   5   55.69    7.70
   0 -16  -5   41.90    8.60
   0 -16  -5   37.90   11.30
   0  16  -5   62.59    7.10
   0  16   5   83.69   11.00
   0  16   5   45.50    9.30
   0  16  -5   52.99    6.70
   0  16  -5   52.49    6.20
   0  16   5   43.70    7.90
   0  16  -5   58.39    7.60
   0  16   5   48.20    8.40
   0  16   5   48.80    7.60
   0  16  -5   52.69    6.50
   4   0  -6   -0.70    4.80
  -4   0   6    1.50    5.90
   4   0  -6    8.10    5.50
   4   0  -6    4.30    5.00
  -4   0   6    3.90    5.60
  -4   0   6   -2.90    4.80
   4   0  -6    1.40    5.30
  -4   0   6    5.60    5.70
   4   0  -6    2.00    4.80
   4   0  -6    2.40    5.60
  -4   0   6    9.00    3.80
  -4   0   6    2.40    3.60
  -3   0   6  113.09    8.20
  -3   0   6   90.99    8.30
  -3   0   6  114.89    7.10
   3   0  -6  124.89    8.20
   3   0  -6  121.19    8.30
   3   0  -6  115.29    8.10
  -3   0   6  104.19    6.90
   3   0  -6  101.39    8.20
  -3   0   6  117.29    8.70
  -3   0   6  113.09    8.10
   3   0  -6  105.69    7.70
   3   0  -6  108.19    7.90
   2   0  -6  839.52   40.60
  -2   0   6  912.61   40.80
  -2   0   6  915.81   40.10
   2   0  -6  943.31   40.60
   2   0  -6  758.02   40.50
  -2   0   6  950.70   40.70
   2   0  -6  877.91   40.50
   2   0  -6  877.91   40.60
  -2   0   6  886.11   40.00
  -2   0   6  850.51   40.70
   2   0  -6  878.31   40.40
   1   0  -6   49.90    3.20
   1   0  -6   36.80    3.20
  -1   0   6   41.40    3.30
  -1   0   6   44.90    2.80
  -1   0   6   40.80    3.20
   1   0  -6   43.60    3.10
  -1   0   6   42.50    3.30
   1   0  -6   47.90    3.10
   1   0  -6   40.40    3.20
  -1   0   6   42.10    2.80
  -1   0   6   50.49    3.30
  -1   0  -6 2797.82  133.89
   1   0   6 2902.71  133.49
   1   0   6 2996.50  133.99
   1   0   6 3103.39  133.89
  -1   0  -6 2739.43  133.79
   1   0   6 2970.20  133.89
  -1   0  -6 3155.48  133.69
  -1   0  -6 2836.52  133.79
   1   0   6 3009.80  133.59
  -1   0  -6 3062.19  133.69
   1   0   6 3157.08  133.99
  -1   0  -6 3021.10  133.79
   2   0   6   32.30    3.80
   2   0   6   34.30    5.00
   2   0   6   24.50    4.30
  -2   0  -6   31.30    4.30
  -2   0  -6   32.00    4.30
  -2   0  -6   30.60    4.10
  -2   0  -6   26.60    3.50
   2   0   6   32.10    4.40
   2   0   6   32.70    4.30
  -2   0  -6   26.90    4.20
   2   0   6   30.90    4.60
  -3   0  -6  623.74   33.70
  -3   0  -6  654.93   34.10
   3   0   6  722.23   34.60
  -3   0  -6  692.43   33.70
  -3   0  -6  666.63   34.30
   3   0   6  715.23   33.80
   3   0   6  717.13   34.30
   3   0   6  728.03   36.40
  -3   0  -6  699.73   34.10
   3   0   6  674.13   34.20
   3   0   6  704.73   34.00
  -4   0  -6 1200.98   62.39
   4   0   6 1316.97   62.69
   4   0   6 1241.98   62.29
   4   0   6 1251.97   63.09
   4   0   6 1262.07   61.99
  -4   0  -6 1372.06   63.09
  -4   0  -6 1334.27   61.99
  -4   0  -6 1356.46   63.39
   4   0   6 1246.68   61.69
  -4   0  -6 1309.87   62.79
  -4   0  -6 1324.57   62.09
   4   0   6 1420.96   63.29
   4  -1  -6   47.50    6.90
  -4  -1   6   60.89    7.90
   4  -1  -6   65.49    9.60
   4  -1  -6   64.79    9.70
  -4  -1   6   67.79    8.20
  -4  -1   6   57.29    8.60
   4  -1  -6   37.80    6.50
   4  -1  -6   53.79    7.40
  -4  -1   6   55.69    6.00
   4  -1  -6   69.49    8.90
   4   1  -6   59.29    8.10
   4   1  -6   66.79    9.20
   4   1  -6   46.70    7.00
  -4   1   6   66.89    8.30
  -4   1   6   62.69    7.20
  -4   1   6   56.09    6.20
  -4   1   6   57.79    8.30
   4   1  -6   60.49    8.40
  -4   1   6   57.39    8.10
   4   1  -6   55.49    6.80
   4   1  -6   51.19    7.30
   3  -1  -6    2.40    2.80
   3  -1  -6    5.80    3.30
  -3  -1   6    1.50    1.90
  -3  -1   6   -1.80    3.10
  -3  -1   6    2.60    3.00
  -3  -1   6    4.10    2.00
   3  -1  -6    7.10    3.30
   3  -1  -6   -0.60    3.30
   3  -1  -6    4.60    3.00
   3  -1  -6   -1.70    3.00
   3   1  -6    1.30    3.10
  -3   1   6    2.30    3.60
  -3   1   6    5.70    3.50
  -3   1   6    3.00    2.50
   3   1  -6    3.60    3.00
   3   1  -6    6.20    3.20
   3   1  -6    4.20    2.70
  -3   1   6    9.20    3.60
  -3   1   6    8.40    3.60
   3   1  -6    1.50    2.90
   3   1  -6    3.30    2.90
  -3   1   6    4.60    2.70
  -2  -1   6  218.68   12.30
  -2  -1   6  233.18   12.60
   2  -1  -6  244.28   12.60
  -2  -1   6  249.38   12.70
  -2  -1   6  247.58   11.70
  -2  -1   6  237.88   12.50
   2  -1  -6  249.18   12.80
   2  -1  -6  268.27   13.00
  -2  -1   6  248.88   11.70
   2  -1  -6  270.37   13.00
   2  -1  -6  265.57   12.80
   2  -1  -6  265.97   13.00
  -2   1   6  238.68   12.80
   2   1  -6  246.68   12.60
   2   1  -6  257.87   12.50
   2   1  -6  243.48   12.30
   2   1  -6  249.08   12.40
  -2   1   6  261.07   13.10
   2   1  -6  242.18   12.50
  -2   1   6  230.98   12.20
   2   1  -6  254.17   12.40
  -2   1   6  271.87   12.90
  -2   1   6  238.28   12.90
   1  -1  -6   26.80    2.70
  -1  -1   6   32.10    2.40
   1  -1  -6   22.10    2.70
   1  -1  -6   29.30    2.60
   1  -1  -6   26.30    2.80
  -1  -1   6   27.80    2.40
   1  -1  -6   31.40    2.80
  -1  -1   6   31.70    2.50
   1  -1  -6   30.40    2.70
  -1  -1   6   32.70    2.50
  -1   1   6   26.50    2.90
   1   1  -6   31.40    2.40
  -1   1   6   30.40    3.10
  -1   1   6   29.80    2.80
   1   1  -6   29.10    2.40
   1   1  -6   24.40    2.30
  -1   1   6   28.20    2.50
  -1   1   6   29.90    2.50
  -1   1   6   25.70    2.80
   1   1  -6   29.90    2.20
   1   1  -6   25.00    2.20
   1   1  -6   26.30    2.40
   0  -1  -6  109.99    5.80
   0  -1   6  102.99    5.70
   0  -1  -6  117.89    6.10
   0  -1  -6  115.99    6.10
   0  -1   6  117.29    5.80
   0  -1   6   95.29    6.10
   0  -1   6  104.09    5.70
   0  -1   6  110.89    5.40
   0  -1  -6  113.69    5.90
   0  -1   6  112.79    5.30
   0  -1  -6  116.89    6.10
   0  -1  -6   91.29    5.90
   0   1   6  102.59    6.00
   0   1   6  113.39    6.10
   0   1   6  115.49    5.80
   0   1   6  110.79    6.10
   0   1  -6  102.19    5.70
   0   1   6  107.99    6.00
   0   1  -6   95.49    5.70
   0   1   6  113.49    5.80
   0   1  -6   89.39    5.60
   0   1  -6  110.09    5.60
   0   1  -6  115.79    5.60
   1  -1   6  741.83   36.30
   1  -1   6  771.42   36.30
  -1  -1  -6  771.22   36.40
  -1  -1  -6  759.72   36.10
   1  -1   6  737.53   36.20
  -1  -1  -6  755.02   36.00
  -1  -1  -6  748.53   36.30
   1  -1   6  781.82   35.90
   1  -1   6  772.62   36.20
  -1  -1  -6  710.13   36.20
  -1  -1  -6  785.92   36.30
  -1   1  -6  753.82   36.00
  -1   1  -6  878.41   36.40
   1   1   6  841.82   36.50
  -1   1  -6  890.41   36.40
  -1   1  -6  770.02   36.00
   1   1   6  805.12   36.00
   1   1   6  869.01   36.50
   1   1   6  779.32   36.40
   1   1   6  831.42   36.40
  -1   1  -6  755.82   36.20
  -1   1  -6  729.43   36.30
   1   1   6  778.32   36.10
  -2  -1  -6   14.10    3.30
  -2  -1  -6   12.50    2.70
  -2  -1  -6   20.50    3.50
   2  -1   6   18.60    3.60
   2  -1   6   12.40    3.30
  -2  -1  -6   14.00    3.30
   2  -1   6   15.70    3.10
  -2  -1  -6   21.70    3.40
   2  -1   6   12.30    3.60
   2  -1   6   11.90    3.20
  -2  -1  -6   14.00    3.30
   2  -1   6   11.50    2.50
  -2   1  -6   10.70    3.10
  -2   1  -6   13.50    3.00
   2   1   6   16.60    3.40
  -2   1  -6   15.40    3.00
   2   1   6   13.70    2.70
   2   1   6   18.20    3.40
  -2   1  -6   14.20    3.20
  -2   1  -6   13.10    3.10
   2   1   6   10.40    3.40
   2   1   6   14.30    3.00
   2   1   6   11.80    3.10
  -2   1  -6   13.40    3.00
   3  -1   6   80.79    8.50
   3  -1   6   68.39    8.10
  -3  -1  -6   68.49    8.50
  -3  -1  -6   67.49    7.40
   3  -1   6   69.29    8.50
  -3  -1  -6   64.89    8.10
   3  -1   6   61.89    7.50
  -3  -1  -6   72.09    8.50
  -3  -1  -6   82.39    7.80
  -3  -1  -6   77.19    8.30
   3  -1   6   65.09    8.20
   3  -1   6   68.99    7.30
   3   1   6   72.49    8.10
   3   1   6   63.29    7.50
  -3   1  -6   76.49    8.10
   3   1   6   82.09    8.70
  -3   1  -6   71.49    7.90
  -3   1  -6   76.09    8.90
   3   1   6   61.39    8.40
  -3   1  -6   69.89    8.40
  -3   1  -6   70.79    8.10
   4  -1   6  627.04   33.90
  -4  -1  -6  637.54   34.10
   4  -1   6  646.34   33.40
  -4  -1  -6  667.23   32.80
   4  -1   6  597.24   32.70
  -4  -1  -6  618.74   32.70
  -4  -1  -6  638.64   32.50
   4  -1   6  613.74   32.50
   4  -1   6  635.44   32.50
  -4  -1  -6  591.24   33.20
   4  -1   6  627.74   33.60
  -4  -1  -6  590.94   33.10
  -4   1  -6  626.54   32.80
   4   1   6  622.64   32.60
  -4   1  -6  647.24   33.50
   4   1   6  645.64   32.40
  -4   1  -6  600.14   33.70
  -4   1  -6  666.43   33.80
   4   1   6  621.64   33.50
   4   1   6  638.34   33.30
  -4   1  -6  615.44   33.10
   4   1   6  623.14   33.80
  -4   1  -6  625.74   32.60
   4   1   6  633.04   33.00
  -4  -2   6   29.90    6.50
   4  -2  -6   31.40    6.50
   4  -2  -6   35.80    6.80
   4  -2  -6   30.80    6.00
   4  -2  -6   42.60    7.40
   4  -2  -6   38.50    7.20
  -4  -2   6   23.60    3.60
  -4  -2   6   26.70    6.10
  -4  -2   6   22.50    5.70
   4  -2  -6   35.10    6.80
   4   2  -6   17.10    5.70
   4   2  -6   26.90    6.10
  -4   2   6   27.50    5.20
   4   2  -6   30.70    6.10
  -4   2   6   22.40    7.30
   4   2  -6   35.00    5.70
   4   2  -6   34.00    5.90
  -4   2   6   38.60    7.10
  -4   2   6   19.20    6.10
  -4   2   6   30.40    5.50
   4   2  -6   30.00    5.50
  -4   2   6   32.20    7.70
   3  -2  -6  684.63   32.70
  -3  -2   6  681.33   32.20
  -3  -2   6  670.93   32.10
   3  -2  -6  667.53   32.30
  -3  -2   6  685.73   32.00
  -3  -2   6  704.73   30.70
   3  -2  -6  617.34   32.50
  -3  -2   6  683.43   30.70
   3  -2  -6  617.84   32.40
   3  -2  -6  700.13   32.50
   3  -2  -6  735.93   33.00
  -3  -2   6  664.93   32.60
   3   2  -6  645.64   31.80
  -3   2   6  691.33   32.90
  -3   2   6  647.14   32.50
  -3   2   6  654.43   31.70
   3   2  -6  643.94   32.00
   3   2  -6  678.03   32.00
  -3   2   6  704.93   32.80
  -3   2   6  662.03   31.90
   3   2  -6  682.23   32.00
  -3   2   6  640.34   32.80
   3   2  -6  678.53   31.90
   3   2  -6  692.83   32.10
   2  -2  -6  751.82   38.80
  -2  -2   6  845.92   38.50
  -2  -2   6  859.71   38.40
   2  -2  -6  822.62   39.00
   2  -2  -6  875.71   38.80
  -2  -2   6  868.91   38.40
  -2  -2   6  848.82   38.50
   2  -2  -6  773.32   38.70
   2  -2  -6  793.42   38.90
   2  -2  -6  935.91   39.20
  -2   2   6  820.52   38.50
  -2   2   6  845.52   38.50
  -2   2   6  804.22   39.10
   2   2  -6  890.21   38.50
   2   2  -6  814.52   38.30
  -2   2   6  770.52   38.90
  -2   2   6  789.92   38.90
   2   2  -6  857.11   38.30
   2   2  -6  826.82   38.30
  -2   2   6  904.31   39.20
   2   2  -6  860.61   38.30
   2   2  -6  838.72   38.30
   1  -2  -6  138.29    8.60
  -1  -2   6  175.38    8.10
   1  -2  -6  162.08    8.60
   1  -2  -6  170.98    8.80
  -1  -2   6  144.59    8.00
   1  -2  -6  177.38    8.90
   1  -2  -6  162.18    8.80
   1  -2  -6  173.68    8.60
  -1  -2   6  167.58    8.10
   1   2  -6  164.98    7.90
   1   2  -6  171.48    8.00
  -1   2   6  179.88    9.00
   1   2  -6  161.38    8.00
   1   2  -6  184.58    7.90
  -1   2   6  167.88    8.50
  -1   2   6  168.38    8.90
  -1   2   6  166.48    8.50
   1   2  -6  161.18    8.00
  -1   2   6  158.68    8.80
  -1   2   6  183.78    8.90
   0  -2   6  830.82   38.00
   0  -2  -6  897.51   38.70
   0  -2   6  901.51   38.20
   0  -2  -6  867.01   38.60
   0  -2   6  840.82   38.10
   0  -2  -6  868.21   38.70
   0  -2  -6  808.52   38.40
   0  -2   6  957.20   38.20
   0  -2  -6  817.92   38.30
   0  -2  -6  871.41   38.60
   0   2   6  833.62   38.60
   0   2   6  738.63   38.50
   0   2  -6  801.92   38.00
   0   2   6  722.33   38.50
   0   2  -6  911.91   38.10
   0   2   6  859.81   38.60
   0   2  -6  763.62   38.00
   0   2  -6  905.81   37.90
   0   2   6  823.12   38.30
   0   2  -6  816.62   37.90
   0   2   6  832.32   38.30
   0   2  -6  796.32   38.10
  -1  -2  -6   29.70    3.30
   1  -2   6   37.40    3.80
   1  -2   6   29.40    3.20
   1  -2   6   33.40    2.80
  -1  -2  -6   37.60    3.70
   1  -2   6   31.60    3.40
  -1  -2  -6   27.50    3.50
  -1  -2  -6   30.70    3.50
   1  -2   6   25.20    3.30
  -1  -2  -6   31.40    3.30
  -1  -2  -6   33.60    3.30
   1  -2   6   30.60    3.00
  -1   2  -6   29.50    3.30
  -1   2  -6   27.70    3.20
   1   2   6   26.80    3.30
   1   2   6   31.50    3.10
  -1   2  -6   27.50    3.50
  -1   2  -6   30.40    3.40
   1   2   6   34.10    3.90
   1   2   6   33.80    3.80
   1   2   6   28.80    3.50
  -1   2  -6   30.90    3.10
  -1   2  -6   30.40    3.40
   1   2   6   32.10    3.50
  -2  -2  -6   61.19    5.90
   2  -2   6   64.69    5.10
   2  -2   6   61.69    6.10
   2  -2   6   57.89    5.30
   2  -2   6   56.69    5.80
  -2  -2  -6   64.89    6.20
   2  -2   6   58.49    5.30
   2  -2   6   60.39    6.20
  -2  -2  -6   56.99    5.40
  -2  -2  -6   60.29    5.40
  -2  -2  -6   58.99    5.50
  -2  -2  -6   55.19    5.50
   2   2   6   67.69    6.30
  -2   2  -6   46.70    5.70
   2   2   6   62.69    5.40
  -2   2  -6   52.09    5.40
   2   2   6   57.29    5.60
   2   2   6   57.49    5.50
  -2   2  -6   62.39    5.90
   2   2   6   55.69    5.70
  -2   2  -6   52.19    5.30
   2   2   6   61.19    5.10
  -2   2  -6   58.09    5.40
  -2   2  -6   68.59    6.00
  -3  -2  -6    4.10    3.90
   3  -2   6    4.20    4.00
   3  -2   6    5.30    4.40
   3  -2   6    2.40    4.10
  -3  -2  -6   -2.70    3.80
   3  -2   6    1.90    3.40
   3  -2   6    1.70    4.00
   3  -2   6    2.30    4.30
  -3  -2  -6    2.20    4.80
  -3  -2  -6   -2.00    4.10
  -3  -2  -6    3.30    3.70
  -3  -2  -6   -1.60    3.70
   3   2   6    0.90    4.10
   3   2   6    3.40    4.00
  -3   2  -6    1.20    4.30
   3   2   6    5.20    4.30
  -3   2  -6    3.40    4.40
   3   2   6    4.00    3.80
  -3   2  -6   -2.40    4.50
   3   2   6    2.40    4.40
  -3   2  -6    2.20    4.20
  -3   2  -6   -0.60    4.00
  -4  -2  -6   48.60    8.10
   4  -2   6   47.30    9.20
  -4  -2  -6   32.90    8.40
   4  -2   6   39.30    7.90
   4  -2   6   35.70    7.30
  -4  -2  -6   29.20    7.70
   4  -2   6   50.09    8.30
   4  -2   6   27.10    8.20
  -4  -2  -6   53.79    8.30
  -4  -2  -6   33.80    8.30
   4  -2   6   44.60    8.70
  -4  -2  -6   49.30    9.50
   4   2   6   47.60    8.40
  -4   2  -6   49.99    8.90
   4   2   6   37.00    7.30
   4   2   6   29.30    7.30
  -4   2  -6   30.00    8.10
   4   2   6   38.60    8.30
  -4   2  -6   42.80    8.20
  -4   2  -6   24.00    7.70
   4   2   6   61.09    9.90
  -4   2  -6   54.79    8.10
  -4   2  -6   43.50    9.00
   4   2   6   39.40    9.00
   4  -3  -6   80.69   10.80
  -4  -3   6   73.19    9.00
  -4  -3   6   65.59    8.10
   4  -3  -6   70.79    8.80
   4  -3  -6   64.49    9.60
   4  -3  -6   70.59    8.90
   4  -3  -6   59.79    7.80
   4  -3  -6   55.49    8.00
  -4  -3   6   63.49    7.70
  -4   3   6   77.39   10.60
  -4   3   6   84.89   10.30
   4   3  -6   63.99    8.90
  -4   3   6   79.29    8.50
  -4   3   6   62.19    9.30
   4   3  -6   56.39    7.20
   4   3  -6   51.89    6.90
   4   3  -6   72.09    7.70
   4   3  -6   66.39    8.70
   4   3  -6   55.79    7.20
  -4   3   6   66.89    9.20
   3  -3  -6   58.59    7.20
  -3  -3   6   52.19    5.80
   3  -3  -6   46.10    6.80
   3  -3  -6   42.00    6.40
  -3  -3   6   44.80    5.70
  -3  -3   6   47.30    5.20
   3  -3  -6   57.19    7.00
   3  -3  -6   53.19    6.30
  -3  -3   6   47.90    5.50
   3  -3  -6   47.10    6.50
  -3   3   6   52.49    7.20
  -3   3   6   60.79    5.80
  -3   3   6   49.70    6.10
   3   3  -6   52.19    5.50
   3   3  -6   46.60    5.40
   3   3  -6   52.79    5.50
   3   3  -6   55.19    5.80
   3   3  -6   55.69    5.60
   3   3  -6   57.19    5.50
  -3   3   6   54.69    6.80
   2  -3  -6 1131.29   51.39
  -2  -3   6 1167.98   50.79
  -2  -3   6 1201.68   50.99
   2  -3  -6 1059.19   51.39
  -2  -3   6 1176.28   50.89
   2  -3  -6 1142.89   51.79
   2  -3  -6 1124.09   51.69
  -2  -3   6 1254.57   50.89
   2  -3  -6 1143.39   51.69
   2  -3  -6 1028.00   51.59
  -2   3   6 1121.09   51.19
  -2   3   6 1063.59   51.79
  -2   3   6 1118.69   51.29
   2   3  -6 1076.69   50.69
   2   3  -6 1142.19   50.69
   2   3  -6 1139.69   50.69
  -2   3   6 1074.29   51.69
   2   3  -6 1118.99   50.69
  -2   3   6 1171.68   51.79
   2   3  -6 1095.59   50.69
   2   3  -6 1089.59   50.59
  -2   3   6  973.30   51.39
  -1  -3   6  100.19    5.10
   1  -3  -6  107.89    6.40
  -1  -3   6  111.79    5.10
   1  -3  -6   93.99    6.10
   1  -3  -6  104.59    6.10
  -1  -3   6   99.89    5.10
   1  -3  -6   99.49    6.10
   1  -3  -6  108.09    6.40
   1  -3  -6  116.19    6.50
  -1  -3   6  100.99    5.10
  -1   3   6   96.09    6.40
  -1   3   6  102.69    6.00
  -1   3   6  105.29    6.40
  -1   3   6  100.69    6.40
  -1   3   6  103.39    6.00
  -1   3   6  108.39    6.30
   1   3  -6  103.69    5.00
   1   3  -6  112.69    5.00
   1   3  -6  109.39    4.90
   0  -3  -6  784.32   35.90
   0  -3  -6  680.93   35.70
   0  -3  -6  808.42   35.90
   0  -3  -6  787.62   35.60
   0  -3   6  781.82   35.10
   0  -3  -6  784.92   35.60
   0  -3   6  686.83   35.10
   0  -3   6  837.82   35.20
   0  -3   6  734.43   35.00
   0  -3  -6  770.62   35.80
   0   3   6  774.42   35.60
   0   3   6  828.62   35.70
   0   3   6  821.22   35.90
   0   3  -6  734.23   35.00
   0   3  -6  793.12   35.10
   0   3  -6  802.82   34.90
   0   3   6  729.63   35.80
   0   3  -6  791.92   35.10
   0   3   6  793.52   35.90
  -1  -3  -6  156.58    8.40
   1  -3   6  143.29    8.50
   1  -3   6  142.09    8.40
  -1  -3  -6  159.68    8.40
  -1  -3  -6  154.78    8.70
  -1  -3  -6  155.78    8.60
  -1  -3  -6  153.78    8.80
   1  -3   6  147.89    7.80
  -1  -3  -6  151.98    8.60
   1  -3   6  156.78    8.00
   1  -3   6  136.09    8.50
   1  -3   6  145.59    8.30
  -1   3  -6  152.68    8.50
   1   3   6  155.18    8.50
  -1   3  -6  144.39    8.30
   1   3   6  154.08    8.90
   1   3   6  154.48    8.70
   1   3   6  149.09    8.30
   1   3   6  150.28    8.50
  -1   3  -6  150.78    8.40
  -1   3  -6  159.28    8.20
   1   3   6  166.08    8.80
  -1   3  -6  168.18    8.50
  -1   3  -6  143.19    8.10
  -2  -3  -6  181.18   10.60
  -2  -3  -6  199.98   11.10
   2  -3   6  201.78   11.20
   2  -3   6  183.88   10.40
  -2  -3  -6  178.88   11.10
  -2  -3  -6  196.68   11.40
   2  -3   6  170.48   10.20
  -2  -3  -6  184.48   10.90
   2  -3   6  182.48   11.10
   2  -3   6  195.58   11.00
   2  -3   6  162.48   11.00
  -2  -3  -6  188.18   10.50
  -2   3  -6  200.88   11.40
   2   3   6  193.78   11.40
  -2   3  -6  186.08   10.80
  -2   3  -6  198.28   10.70
   2   3   6  158.28   10.80
   2   3   6  197.68   11.30
  -2   3  -6  170.98   10.90
  -2   3  -6  177.78   10.80
  -2   3  -6  178.48   10.60
   2   3   6  203.38   10.50
   2   3   6  183.68   10.70
   2   3   6  192.98   10.80
  -3  -3  -6    8.70    4.10
   3  -3   6    5.60    4.60
  -3  -3  -6    6.20    4.20
   3  -3   6    5.50    4.40
  -3  -3  -6    9.50    4.90
  -3  -3  -6    7.00    4.70
   3  -3   6    3.10    3.50
   3  -3   6    8.10    5.40
   3  -3   6    4.20    4.40
  -3  -3  -6    6.20    3.80
  -3  -3  -6   11.90    3.90
   3  -3   6    3.40    3.80
   3   3   6    6.20    4.20
  -3   3  -6    2.50    4.50
   3   3   6   12.60    4.70
  -3   3  -6    1.90    4.40
  -3   3  -6   -1.80    4.30
  -3   3  -6    5.40    4.00
   3   3   6    4.60    3.90
   3   3   6    6.00    4.40
  -3   3  -6    4.00    4.80
   3   3   6    4.70    3.70
  -4  -3  -6  133.99   13.20
  -4  -3  -6  151.08   13.20
   4  -3   6  157.58   15.20
   4  -3   6  149.99   13.60
   4  -3   6  146.49   13.70
  -4  -3  -6  135.99   13.60
  -4  -3  -6  167.28   15.40
  -4  -3  -6  161.28   13.80
   4  -3   6  158.28   15.20
   4  -3   6  157.98   15.20
  -4  -3  -6  156.88   14.70
   4  -3   6  146.29   15.20
  -4   3  -6  190.48   15.90
   4   3   6  162.78   15.70
   4   3   6  154.38   14.20
   4   3   6  164.08   15.00
   4   3   6  176.08   13.40
  -4   3  -6  148.09   14.00
  -4   3  -6  152.98   14.00
   4   3   6  158.18   14.30
  -4   3  -6  154.18   15.50
  -4   3  -6  166.78   14.30
  -4   3  -6  140.89   14.90
   4  -4  -6  113.19   12.80
   4  -4  -6  114.19   11.90
   4  -4  -6  108.89   11.30
   4  -4  -6   96.89   12.30
  -4  -4   6  114.69   11.00
   4  -4  -6  132.29   12.60
   4  -4  -6  101.79   11.10
  -4  -4   6  113.89   10.40
  -4  -4   6  105.19   10.70
  -4   4   6  114.19   12.10
   4   4  -6  121.19   10.30
  -4   4   6  124.29   12.10
   4   4  -6  107.89    9.80
   4   4  -6  120.89   10.30
   4   4  -6  119.49   10.20
   4   4  -6  113.29   10.70
  -4   4   6  125.99   13.60
  -4   4   6  117.09   13.70
   4   4  -6  113.39   10.10
  -4   4   6  107.19   10.30
   3  -4  -6  114.89    8.50
   3  -4  -6  110.19    8.70
   3  -4  -6  112.39    9.20
  -3  -4   6  101.69    7.60
   3  -4  -6  109.89    9.40
  -3  -4   6   94.89    7.50
  -3  -4   6  103.39    7.50
   3  -4  -6  113.09    9.30
  -3  -4   6  104.39    7.20
   3  -4  -6  109.89    8.90
  -3   4   6  110.09    8.30
   3   4  -6  112.79    7.50
   3   4  -6   99.89    7.50
  -3   4   6  113.99    8.10
  -3   4   6  108.39    9.00
   3   4  -6  106.49    7.00
  -3   4   6  112.69    9.00
   3   4  -6  101.39    7.20
   3   4  -6  101.69    7.20
   3   4  -6  107.89    7.50
  -3   4   6  110.19    9.70
  -2  -4   6    3.10    1.70
   2  -4  -6    4.00    2.40
   2  -4  -6    3.40    2.80
   2  -4  -6    4.40    2.30
   2  -4  -6    6.00    2.50
   2  -4  -6    7.50    2.60
  -2  -4   6    6.00    1.50
   2  -4  -6    0.40    2.20
  -2  -4   6    3.80    1.60
   2   4  -6    4.30    1.40
   2   4  -6    4.60    1.60
   2   4  -6    6.30    1.60
   2   4  -6    3.10    1.40
  -2   4   6    1.00    2.90
  -2   4   6    9.30    2.80
  -2   4   6    3.70    2.40
  -2   4   6    7.60    2.50
  -2   4   6    4.10    2.60
   2   4  -6    5.70    1.50
  -2   4   6    1.50    2.80
   1  -4  -6 2186.08   97.99
   1  -4  -6 2003.20   97.89
   1  -4  -6 2224.18   97.99
   1  -4  -6 2159.28   97.99
   1  -4  -6 2144.49   97.69
   1  -4  -6 2151.18   97.79
  -1   4   6 2167.18   97.99
  -1   4   6 2225.88   98.09
  -1   4   6 2400.76   98.19
  -1   4   6 2072.09   97.99
  -1   4   6 2142.89   97.69
  -1   4   6 2145.19   97.69
   0  -4  -6  427.86   19.30
   0  -4  -6  397.26   19.00
   0  -4   6  410.46   18.30
   0  -4  -6  376.06   18.90
   0  -4  -6  369.06   19.20
   0  -4  -6  398.86   19.30
   0  -4  -6  385.96   19.20
   0  -4   6  405.96   18.30
   0  -4   6  394.76   18.20
   0   4  -6  404.36   18.20
   0   4   6  359.06   19.20
   0   4  -6  387.26   18.10
   0   4   6  396.86   19.00
   0   4   6  397.86   18.90
   0   4   6  380.66   19.20
   0   4  -6  402.86   18.10
   0   4   6  446.16   19.40
   0   4  -6  372.26   18.20
   0   4  -6  409.86   18.20
   0   4  -6  398.46   18.30
   1  -4   6  879.21   42.00
   1  -4   6 1009.30   42.80
  -1  -4  -6  854.91   42.80
   1  -4   6  830.52   42.50
   1  -4   6  899.31   42.50
  -1  -4  -6  925.21   42.60
  -1  -4  -6  788.02   42.70
  -1  -4  -6  875.21   42.90
   1  -4   6  942.21   42.00
  -1  -4  -6 1038.00   43.20
  -1  -4  -6  896.41   42.60
   1  -4   6  932.81   42.70
  -1   4  -6 1070.59   42.80
   1   4   6  989.50   43.20
   1   4   6  918.51   42.60
  -1   4  -6  980.70   42.40
   1   4   6  991.90   42.70
   1   4   6  932.91   43.00
  -1   4  -6  874.41   42.60
   1   4   6  914.81   42.90
  -1   4  -6  995.90   42.60
  -1   4  -6  785.42   42.30
   1   4   6  956.70   43.00
  -2  -4  -6  237.78   12.50
  -2  -4  -6  227.98   12.90
  -2  -4  -6  215.38   12.90
  -2  -4  -6  233.88   12.40
   2  -4   6  240.18   13.10
   2  -4   6  236.48   12.20
  -2  -4  -6  231.98   13.10
   2  -4   6  225.98   12.00
   2  -4   6  223.38   12.70
   2  -4   6  210.28   12.60
   2  -4   6  229.98   12.80
  -2  -4  -6  223.08   12.60
   2   4   6  222.78   13.10
   2   4   6  203.98   12.60
   2   4   6  226.68   12.60
  -2   4  -6  247.98   13.00
  -2   4  -6  212.38   12.50
  -2   4  -6  224.38   12.50
  -2   4  -6  213.58   12.40
  -2   4  -6  234.98   12.90
   2   4   6  233.18   12.30
   2   4   6  217.98   12.50
  -2   4  -6  244.68   13.10
   2   4   6  220.98   12.80
   3  -4   6  278.77   16.40
  -3  -4  -6  254.47   15.00
  -3  -4  -6  286.77   16.20
   3  -4   6  272.47   16.10
  -3  -4  -6  301.37   16.50
   3  -4   6  275.97   15.30
  -3  -4  -6  253.77   15.80
   3  -4   6  232.48   15.80
   3  -4   6  272.67   15.10
   3  -4   6  251.17   16.30
  -3  -4  -6  265.47   15.80
  -3  -4  -6  284.37   15.40
   3   4   6  259.97   15.90
   3   4   6  264.17   15.50
  -3   4  -6  264.07   15.50
  -3   4  -6  266.97   15.70
   3   4   6  250.57   16.40
  -3   4  -6  250.67   15.60
  -3   4  -6  242.48   16.30
  -3   4  -6  267.97   16.30
   3   4   6  247.38   15.20
   3   4   6  297.17   16.00
  -3   4  -6  242.38   15.60
  -4  -4  -6   -2.80    6.90
   4  -4   6   10.70    8.30
   4  -4   6    0.20    6.40
   4  -4   6    8.80    7.40
   4  -4   6   11.40    5.80
  -4  -4  -6   17.70    8.50
  -4  -4  -6   15.90    6.50
  -4  -4  -6    2.50    6.20
   4  -4   6    9.40    7.60
  -4  -4  -6    5.40    7.30
  -4  -4  -6    2.90    6.90
   4  -4   6   17.00    7.90
  -4   4  -6    6.20    7.90
  -4   4  -6   26.50    8.50
   4   4   6   14.80    7.30
  -4   4  -6   -3.00    6.60
   4   4   6    8.00    7.30
   4   4   6    7.70    6.00
   4   4   6   11.20    7.40
  -4   4  -6    9.70    8.20
  -4   4  -6    9.70    8.00
  -4   4  -6    5.70    6.30
   4   4   6    0.30    6.60
   4  -5  -6  614.24   32.70
   4  -5  -6  607.54   32.90
  -4  -5   6  614.24   31.70
  -4  -5   6  604.54   31.60
   4  -5  -6  662.53   33.90
   4  -5  -6  670.43   33.80
   4  -5  -6  665.33   33.50
   4  -5  -6  645.84   32.40
  -4   5   6  627.54   33.90
  -4   5   6  655.93   32.50
   4   5  -6  613.24   31.50
   4   5  -6  655.43   31.30
  -4   5   6  623.14   31.90
  -4   5   6  650.63   33.40
   4   5  -6  610.84   31.10
   4   5  -6  654.73   31.10
   4   5  -6  622.74   31.30
  -4   5   6  597.44   33.90
  -4   5   6  664.23   33.40
   4   5  -6  625.64   31.70
   3  -5  -6  658.93   33.40
  -3  -5   6  700.63   32.10
   3  -5  -6  641.54   33.60
   3  -5  -6  675.23   32.90
   3  -5  -6  752.32   33.80
   3  -5  -6  671.83   33.30
   3  -5  -6  665.43   33.20
  -3  -5   6  628.84   31.90
  -3  -5   6  681.03   32.00
  -3  -5   6  675.03   31.90
  -3   5   6  668.53   33.40
   3   5  -6  659.03   31.80
   3   5  -6  692.23   32.10
   3   5  -6  667.93   32.00
  -3   5   6  688.63   33.90
   3   5  -6  695.83   31.90
  -3   5   6  723.13   33.00
  -3   5   6  703.93   32.80
   3   5  -6  676.93   31.70
   3   5  -6  658.13   31.70
  -3   5   6  643.54   33.20
   2  -5  -6   12.40    3.20
  -2  -5   6   11.70    1.70
   2  -5  -6    7.50    2.90
   2  -5  -6    5.10    2.80
   2  -5  -6   11.50    2.70
  -2  -5   6   11.10    1.80
  -2  -5   6   10.60    1.90
   2  -5  -6    7.40    2.80
   2  -5  -6    5.00    2.70
  -2  -5   6    9.20    1.90
   2   5  -6    9.60    1.40
  -2   5   6    8.40    3.10
  -2   5   6   11.90    2.80
   2   5  -6   10.60    1.80
  -2   5   6    8.30    3.40
  -2   5   6    6.10    2.60
  -2   5   6    5.50    2.90
   2   5  -6    9.20    1.50
   2   5  -6    9.90    1.80
   2   5  -6   10.10    1.50
   2   5  -6   10.10    1.50
  -2   5   6   13.70    3.20
   1  -5  -6   45.80    4.10
   1  -5  -6   39.60    4.10
   1  -5  -6   43.70    4.30
   1  -5  -6   33.90    4.00
   1  -5  -6   42.80    4.30
   1  -5  -6   39.70    4.10
  -1   5   6   42.90    4.00
  -1   5   6   47.80    4.60
  -1   5   6   43.80    4.10
  -1   5   6   39.80    4.50
  -1   5   6   49.20    4.60
  -1   5   6   38.40    4.10
   0  -5   6  359.06   17.30
   0  -5  -6  374.86   18.40
   0  -5  -6  390.16   18.50
   0  -5  -6  400.46   18.40
   0  -5   6  373.96   17.30
   0  -5   6  380.76   17.30
   0  -5  -6  358.16   18.00
   0  -5  -6  386.26   18.50
   0  -5  -6  377.46   18.10
   0   5  -6  382.46   17.10
   0   5   6  335.57   18.30
   0   5  -6  379.96   17.20
   0   5   6  366.36   18.40
   0   5  -6  344.57   17.10
   0   5   6  360.86   18.00
   0   5   6  403.96   18.60
   0   5  -6  377.06   17.10
   0   5  -6  383.26   17.20
   0   5  -6  360.06   17.00
   0   5   6  357.56   18.00
   0   5   6  374.96   18.40
  -1  -5  -6  251.77   13.00
   1  -5   6  255.17   12.40
  -1  -5  -6  209.28   12.70
  -1  -5  -6  237.38   12.40
   1  -5   6  253.87   11.70
   1  -5   6  251.17   12.40
   1  -5   6  247.78   11.60
  -1  -5  -6  222.08   12.60
  -1  -5  -6  227.88   12.70
   1  -5   6  222.28   12.30
  -1  -5  -6  245.88   12.50
   1  -5   6  235.88   12.50
  -1   5  -6  257.87   12.20
  -1   5  -6  253.67   12.30
  -1   5  -6  247.58   12.30
   1   5   6  223.28   12.60
  -1   5  -6  206.08   12.20
   1   5   6  234.48   12.50
   1   5   6  265.97   12.60
   1   5   6  242.18   12.80
   1   5   6  261.37   13.10
  -1   5  -6  235.38   12.40
   1   5   6  246.08   12.70
  -1   5  -6  239.08   12.10
   2  -5   6  273.37   14.00
  -2  -5  -6  280.07   14.40
  -2  -5  -6  264.97   14.90
  -2  -5  -6  277.37   14.20
   2  -5   6  221.38   14.10
  -2  -5  -6  288.17   14.90
   2  -5   6  248.58   14.50
  -2  -5  -6  287.07   14.90
   2  -5   6  263.87   14.80
  -2  -5  -6  292.07   14.80
   2  -5   6  269.07   14.80
   2  -5   6  268.27   13.80
   2   5   6  246.28   14.30
  -2   5  -6  259.67   14.60
  -2   5  -6  282.97   14.40
   2   5   6  278.27   15.00
   2   5   6  291.97   14.90
  -2   5  -6  259.77   14.70
   2   5   6  278.87   14.60
   2   5   6  280.07   15.10
  -2   5  -6  270.57   14.30
  -2   5  -6  230.18   14.40
   2   5   6  244.28   14.10
  -2   5  -6  268.67   14.90
   3  -5   6    1.40    3.90
  -3  -5  -6    6.50    4.70
   3  -5   6    1.90    4.60
  -3  -5  -6    1.90    4.70
  -3  -5  -6    5.70    3.80
   3  -5   6    0.80    3.80
   3  -5   6    4.40    4.70
   3  -5   6   -0.10    4.50
  -3  -5  -6    0.50    4.70
  -3  -5  -6    3.70    4.10
  -3  -5  -6    4.50    4.60
   3  -5   6    7.20    5.40
  -3   5  -6    2.80    4.30
   3   5   6    6.60    4.30
  -3   5  -6    5.80    4.20
   3   5   6    1.20    5.00
   3   5   6    7.40    4.60
   3   5   6    6.50    4.80
   3   5   6   -1.20    3.40
  -3   5  -6    3.30    4.50
  -3   5  -6    0.70    4.90
   3   5   6    9.20    4.50
  -3   5  -6    5.90    5.20
  -3   5  -6    9.10    5.20
  -4  -5  -6   19.60    7.70
   4  -5   6   26.10    8.30
  -4  -5  -6   24.50    9.40
   4  -5   6   16.00    9.10
  -4  -5  -6   49.60    8.00
  -4  -5  -6   22.30    8.40
   4  -5   6   23.40    8.90
  -4  -5  -6   42.00    9.00
  -4  -5  -6   30.10    6.80
   4  -5   6   16.10    6.50
   4  -5   6   24.70    7.50
   4  -5   6   35.90    8.20
   4   5   6   15.10    6.80
  -4   5  -6   23.10    9.00
   4   5   6   18.90    7.90
   4   5   6   33.00    8.30
  -4   5  -6   23.30    7.50
  -4   5  -6   35.10    9.90
   4   5   6   23.60    7.60
   4   5   6   16.80    6.50
   4   5   6   23.70    8.40
  -4   5  -6   25.80    9.40
  -4   5  -6   29.40   10.60
  -4   5  -6    4.80    8.20
   4  -6  -6  156.58   15.30
   4  -6  -6  112.49   12.70
   4  -6  -6  112.39   14.70
   4  -6  -6  157.78   14.30
   4  -6  -6  131.79   13.20
  -4  -6   6  139.09   11.30
  -4  -6   6  157.18   11.60
   4  -6  -6  140.99   12.70
  -4   6   6  131.69   13.30
   4   6  -6  134.89   11.60
  -4   6   6  145.59   13.60
   4   6  -6  134.59   10.80
  -4   6   6  130.39   14.40
  -4   6   6  151.18   14.60
   4   6  -6  153.98    9.90
   4   6  -6  139.39   10.90
   4   6  -6  131.79   11.70
   4   6  -6  142.69   10.40
  -4   6   6  141.89   12.60
  -4   6   6  167.08   15.60
   3  -6  -6   22.90    5.10
  -3  -6   6   13.20    3.20
   3  -6  -6   25.40    4.90
   3  -6  -6   21.60    5.30
   3  -6  -6   20.50    5.20
   3  -6  -6   18.30    5.30
  -3  -6   6   18.90    3.50
  -3  -6   6   16.10    3.10
   3  -6  -6   16.90    5.00
  -3  -6   6   18.60    3.70
   3   6  -6   15.40    3.10
  -3   6   6   25.10    5.80
  -3   6   6   16.00    5.20
  -3   6   6   17.90    4.20
   3   6  -6   15.90    3.10
   3   6  -6   18.90    2.90
   3   6  -6   20.80    3.50
   3   6  -6   20.20    3.30
  -3   6   6   22.70    5.30
  -3   6   6   14.40    5.60
  -3   6   6   19.00    4.60
  -2  -6   6   14.30    2.20
   2  -6  -6   11.70    3.90
  -2  -6   6   16.80    2.00
   2  -6  -6   11.30    3.40
   2  -6  -6   14.40    3.00
   2  -6  -6   16.50    3.50
   2  -6  -6   17.30    3.60
  -2  -6   6   16.10    1.90
  -2  -6   6   13.90    2.10
   2  -6  -6   17.40    3.20
   2   6  -6   14.70    1.70
   2   6  -6   14.00    2.00
  -2   6   6   16.60    3.90
   2   6  -6   17.00    2.00
  -2   6   6   14.60    3.70
   2   6  -6   15.30    1.70
   2   6  -6   14.30    1.90
  -2   6   6   20.90    3.50
  -2   6   6   11.90    3.70
   2   6  -6   16.40    1.60
  -2   6   6   20.80    3.80
  -2   6   6   13.20    3.60
   1  -6  -6 1463.55   66.89
   1  -6  -6 1473.65   67.19
   1  -6  -6 1475.75   67.19
   1  -6  -6 1485.05   66.89
   1  -6  -6 1493.65   67.29
   1  -6  -6 1444.26   67.09
  -1   6   6 1454.75   67.19
  -1   6   6 1494.45   67.29
  -1   6   6 1453.95   67.29
  -1   6   6 1444.86   66.79
  -1   6   6 1361.66   66.99
  -1   6   6 1545.35   66.89
   0  -6  -6  729.53   31.80
   0  -6  -6  617.24   31.50
   0  -6  -6  634.04   31.20
   0  -6   6  696.23   30.40
   0  -6  -6  629.54   31.40
   0  -6   6  659.93   30.30
   0  -6  -6  709.33   31.70
   0  -6  -6  684.93   31.30
   0  -6   6  664.63   30.40
   0   6  -6  661.63   30.30
   0   6   6  661.73   31.70
   0   6  -6  742.63   30.30
   0   6  -6  664.73   30.30
   0   6  -6  642.14   30.20
   0   6   6  664.73   31.30
   0   6   6  669.03   31.60
   0   6  -6  641.34   30.20
   0   6   6  688.33   31.30
   0   6  -6  656.63   30.20
   0   6   6  622.44   31.50
   0   6   6  654.83   31.60
   1  -6   6   99.39    5.20
  -1  -6  -6   95.39    6.90
  -1  -6  -6  104.49    7.00
  -1  -6  -6   97.69    6.40
   1  -6   6  104.29    6.30
  -1  -6  -6   86.69    6.30
   1  -6   6   96.99    6.20
   1  -6   6   89.49    5.20
   1  -6   6   88.29    6.20
  -1  -6  -6   84.79    6.70
  -1  -6  -6   86.49    6.90
   1   6   6   95.69    6.90
  -1   6  -6   88.29    6.20
  -1   6  -6  109.69    6.30
  -1   6  -6   92.89    6.50
   1   6   6   99.49    7.00
  -1   6  -6  104.69    6.20
   1   6   6   96.79    7.10
   1   6   6   88.29    6.80
   1   6   6   95.39    6.30
  -1   6  -6   93.29    5.90
  -1   6  -6   89.69    6.00
   1   6   6   96.99    6.50
  -2  -6  -6  536.15   27.00
   2  -6   6  537.15   27.10
  -2  -6  -6  575.94   26.90
   2  -6   6  595.94   27.50
  -2  -6  -6  573.54   27.40
   2  -6   6  558.34   26.40
   2  -6   6  592.34   26.40
  -2  -6  -6  461.75   26.40
   2  -6   6  559.44   27.30
  -2  -6  -6  521.55   27.30
  -2  -6  -6  576.54   27.50
   2  -6   6  564.34   27.20
   2   6   6  570.74   27.60
   2   6   6  559.34   27.30
  -2   6  -6  566.44   26.90
   2   6   6  533.85   27.20
  -2   6  -6  571.04   27.30
  -2   6  -6  530.55   27.20
   2   6   6  518.65   27.10
  -2   6  -6  482.95   27.00
  -2   6  -6  549.45   27.10
   2   6   6  590.04   26.90
   2   6   6  545.85   26.90
   3  -6   6    9.70    4.30
  -3  -6  -6   17.70    5.50
   3  -6   6   15.40    4.20
  -3  -6  -6    4.70    5.20
  -3  -6  -6   18.50    5.50
   3  -6   6    8.20    5.70
  -3  -6  -6   11.60    5.10
   3  -6   6   13.20    5.00
   3  -6   6   19.00    5.70
  -3  -6  -6    4.20    4.20
   3  -6   6   17.30    6.10
  -3  -6  -6   20.20    5.00
   3   6   6   12.70    5.70
   3   6   6   16.70    4.40
  -3   6  -6   11.20    5.20
  -3   6  -6   12.70    5.60
   3   6   6   13.80    3.90
   3   6   6   21.50    5.80
  -3   6  -6   13.00    5.30
  -3   6  -6    6.00    4.40
   3   6   6   20.80    5.70
   3   6   6   15.80    5.00
  -3   6  -6   12.20    5.90
  -3   6  -6   11.40    5.90
  -4  -6  -6  102.69   12.70
   4  -6   6   96.19   11.90
   4  -6   6   88.19   12.40
  -4  -6  -6   83.79   12.10
   4  -6   6   91.49   11.60
   4  -6   6   65.09   13.60
   4  -6   6   89.99   12.20
   4  -6   6   62.69   10.60
  -4  -6  -6   63.69   10.70
  -4  -6  -6   86.59   11.70
  -4  -6  -6  101.19   14.10
  -4   6  -6  101.19   12.90
  -4   6  -6  101.69   12.70
   4   6   6  115.29   14.80
   4   6   6  100.69   11.70
   4   6   6   67.79   10.10
  -4   6  -6  100.29   13.50
   4  -7  -6   69.09   10.10
   4  -7  -6   49.40    9.20
   4  -7  -6   62.49   10.80
  -4  -7   6   54.09    8.20
  -4  -7   6   71.39    9.60
   4   7  -6   63.09    7.60
  -4   7   6   44.80    9.80
   4   7  -6   71.89    9.70
   4   7  -6   61.69    8.30
  -4   7   6   49.90   14.00
  -4   7   6   57.39   10.00
   4   7  -6   65.49    7.70
  -4   7   6   81.49    9.20
   4   7  -6   67.19    8.50
  -4   7   6   52.19    9.40
  -3  -7   6   -1.10    3.00
   3  -7  -6    4.20    4.20
   3  -7  -6   -1.40    4.60
   3  -7  -6    4.40    5.30
  -3  -7   6   -0.30    2.40
   3  -7  -6    0.60    4.30
   3  -7  -6    4.30    5.00
  -3  -7   6   -1.20    2.70
   3  -7  -6   -5.00    4.50
   3   7  -6    1.60    3.00
  -3   7   6   -0.30    5.00
   3   7  -6   -0.80    2.50
  -3   7   6    0.60    4.50
  -3   7   6   -2.10    4.70
   3   7  -6   -2.40    2.20
  -3   7   6   -2.50    4.90
  -3   7   6    5.70    4.70
   3   7  -6    1.00    2.60
   3   7  -6    0.30    2.70
   3   7  -6   -1.00    2.30
   2  -7  -6  157.98   10.40
  -2  -7   6  150.88    7.70
   2  -7  -6  163.58   10.50
   2  -7  -6  163.88   10.00
  -2  -7   6  159.58    7.90
  -2  -7   6  157.98    7.90
   2  -7  -6  160.08   10.30
   2  -7  -6  164.98   10.10
  -2  -7   6  157.38    7.70
   2  -7  -6  158.48   10.40
   2   7  -6  158.48    8.10
  -2   7   6  167.88   10.90
  -2   7   6  160.98   10.90
   2   7  -6  148.99    8.10
  -2   7   6  158.48   10.50
  -2   7   6  159.58   10.10
  -2   7   6  153.28   10.60
  -2   7   6  159.08    9.90
   1  -7  -6  136.19    8.40
   1  -7  -6  152.98    8.90
   1  -7  -6  128.59    8.20
   1  -7  -6  130.49    8.50
   1  -7  -6  142.49    8.80
   1  -7  -6  123.69    8.60
  -1   7   6  145.09    8.90
  -1   7   6  129.69    8.70
  -1   7   6  117.09    8.60
  -1   7   6  134.09    8.80
  -1   7   6  141.79    8.40
  -1   7   6  133.49    8.30
   0  -7  -6  487.05   23.60
   0  -7   6  487.05   22.60
   0  -7   6  499.25   22.70
   0  -7  -6  473.95   24.00
   0  -7  -6  512.65   24.10
   0  -7   6  509.15   22.70
   0  -7  -6  468.55   23.90
   0  -7  -6  512.85   24.00
   0  -7  -6  489.95   23.60
   0   7  -6  479.85   22.50
   0   7  -6  474.65   22.40
   0   7  -6  439.86   22.40
   0   7  -6  511.05   22.60
   0   7   6  490.45   23.90
   0   7   6  483.95   23.60
   0   7   6  508.75   24.10
   0   7   6  490.75   23.90
   0   7   6  525.25   24.20
   0   7  -6  491.85   22.50
   0   7   6  488.25   23.60
   0   7  -6  473.45   22.50
   1  -7   6   51.29    4.80
   1  -7   6   50.39    4.80
  -1  -7  -6   44.50    5.30
   1  -7   6   53.49    3.50
  -1  -7  -6   47.00    5.00
  -1  -7  -6   54.89    5.00
   1  -7   6   54.89    3.40
   1  -7   6   55.49    4.80
  -1  -7  -6   53.79    5.50
  -1  -7  -6   47.70    5.40
  -1  -7  -6   61.39    5.50
  -1   7  -6   50.79    4.60
   1   7   6   50.49    5.70
   1   7   6   50.59    5.00
   1   7   6   53.99    5.70
   1   7   6   57.29    5.30
  -1   7  -6   49.99    4.50
   1   7   6   57.79    5.40
  -1   7  -6   50.59    4.40
  -1   7  -6   52.69    5.20
  -1   7  -6   49.80    4.80
   1   7   6   51.59    5.10
  -1   7  -6   52.29    4.50
  -2  -7  -6   37.50    5.00
   2  -7   6   37.00    5.50
  -2  -7  -6   46.90    6.10
  -2  -7  -6   43.60    6.10
   2  -7   6   40.10    5.20
  -2  -7  -6   34.60    4.70
  -2  -7  -6   47.90    6.70
   2  -7   6   40.70    4.70
   2  -7   6   38.60    4.90
   2  -7   6   37.00    5.20
   2  -7   6   41.60    6.10
  -2  -7  -6   49.30    5.50
  -2   7  -6   36.70    5.00
  -2   7  -6   38.10    4.90
   2   7   6   42.60    5.90
   2   7   6   41.90    6.00
   2   7   6   38.00    4.80
   2   7   6   45.10    5.60
  -2   7  -6   34.80    5.10
  -2   7  -6   34.00    5.10
  -2   7  -6   53.99    6.10
   2   7   6   48.60    6.10
   2   7   6   49.00    6.20
  -2   7  -6   39.70    5.70
   3  -7   6   62.09   12.00
   3  -7   6   66.19    8.50
   3  -7   6   87.79    8.10
   3  -7   6   54.59    7.90
  -3  -7  -6   72.79    9.70
  -3  -7  -6   70.89   10.20
  -3  -7  -6   73.19    9.60
  -3  -7  -6   78.79    9.90
  -3  -7  -6   76.79    8.60
   3  -7   6   73.09    8.60
   3   7   6   80.09   10.00
  -3   7  -6   71.89    9.10
  -3   7  -6   66.49    9.10
   3   7   6   70.99    9.00
   3   7   6   80.29    9.10
   3   7   6   80.59    8.90
  -3   7  -6   64.69    9.80
  -3   7  -6   57.09    8.10
   3   7   6   83.79    9.50
  -3   7  -6   70.59    9.30
   3   7   6   69.79    9.00
  -3   7  -6   82.19   10.10
   3  -8  -6   14.20    5.60
   3  -8  -6   24.00    6.40
   3  -8  -6   26.20    6.20
   3  -8  -6   20.20    6.10
  -3  -8   6   18.20    3.50
   3  -8  -6   19.30    4.70
   3   8  -6   23.10    3.80
  -3   8   6   27.50    5.80
  -3   8   6   19.00    5.80
  -3   8   6   21.60    6.20
   3   8  -6   20.60    3.00
  -3   8   6   24.20    6.40
   3   8  -6   21.60    3.20
   3   8  -6   18.70    3.60
  -3   8   6   19.30    5.80
  -3   8   6   20.70    6.40
   3   8  -6   17.00    2.70
   2  -8  -6    6.50    4.00
  -2  -8   6   13.20    1.80
   2  -8  -6   11.20    6.30
  -2  -8   6   13.60    1.50
   2  -8  -6   12.90    3.60
  -2  -8   6   10.50    1.50
  -2  -8   6   11.80    1.80
   2  -8  -6    6.60    3.70
   2  -8  -6    5.30    3.90
   2  -8  -6    9.60    4.20
  -2   8   6    9.50    4.20
  -2   8   6   23.80    4.20
  -2   8   6   13.60    4.50
  -2   8   6   11.20    4.30
  -2   8   6    5.00    3.40
   2   8  -6   13.40    2.10
  -2   8   6   10.60    4.10
   2   8  -6   11.30    2.00
   1  -8  -6    0.80    2.90
   1  -8  -6    1.70    2.40
   1  -8  -6   -0.50    2.50
   1  -8  -6    1.30    2.90
   1  -8  -6   -0.40    2.50
  -1   8   6    3.10    3.10
  -1   8   6   -1.20    2.30
  -1   8   6    0.00    2.60
  -1   8   6   -0.70    2.80
   1   8  -6    0.90    0.80
  -1   8   6   -3.60    2.80
  -1   8   6    2.50    2.90
   1   8  -6    1.10    0.70
   0  -8   6  268.17   12.90
   0  -8  -6  258.27   13.80
   0  -8  -6  266.67   13.90
   0  -8   6  266.17   12.80
   0  -8  -6  272.87   14.50
   0  -8   6  261.97   12.90
   0  -8  -6  270.67   14.30
   0  -8  -6  263.57   14.40
   0  -8  -6  252.67   14.10
   0   8   6  256.17   13.90
   0   8  -6  265.57   12.70
   0   8  -6  271.77   12.80
   0   8   6  282.07   14.70
   0   8  -6  284.17   12.60
   0   8   6  246.28   14.10
   0   8  -6  250.97   12.60
   0   8  -6  286.17   12.90
   0   8   6  252.37   14.30
   0   8  -6  262.47   12.70
   0   8   6  257.37   13.90
   0   8   6  279.07   14.50
   1  -8   6   54.69    3.40
  -1  -8  -6   53.99    5.80
  -1  -8  -6   60.49    5.90
   1  -8   6   46.90    5.10
  -1  -8  -6   57.59    5.70
   1  -8   6   51.69    5.10
  -1  -8  -6   53.19    5.10
  -1  -8  -6   54.19    5.50
   1  -8   6   48.30    4.70
   1  -8   6   54.09    3.60
  -1  -8  -6   50.69    5.30
   1   8   6   56.89    6.00
  -1   8  -6   53.79    4.80
  -1   8  -6   55.09    4.90
   1   8   6   49.70    5.80
  -1   8  -6   52.29    4.70
  -1   8  -6   56.99    5.00
   1   8   6   61.29    5.60
   1   8   6   59.29    6.30
  -1   8  -6   55.29    5.10
   1   8   6   54.69    5.50
  -1   8  -6   53.29    5.40
  -2  -8  -6 1089.19   49.70
   2  -8   6 1066.49   49.40
   2  -8   6 1081.49   49.30
  -2  -8  -6 1035.00   48.70
   2  -8   6 1165.28   49.60
  -2  -8  -6 1011.20   49.50
   2  -8   6  978.70   49.30
  -2  -8  -6 1079.69   49.00
   2  -8   6 1087.59   48.30
   2  -8   6 1052.89   48.20
  -2  -8  -6  941.41   49.30
  -2   8  -6 1018.00   49.30
  -2   8  -6 1020.50   48.90
   2   8   6 1085.49   49.50
  -2   8  -6 1039.50   49.10
   2   8   6 1038.40   49.40
   2   8   6 1044.60   49.00
   2   8   6 1034.20   49.10
   2   8   6 1029.00   49.20
  -2   8  -6  996.10   49.10
   2   8   6 1030.30   49.70
  -2   8  -6 1067.89   49.50
  -2   8  -6 1030.60   49.00
   3  -8   6   -5.10    5.00
   3  -8   6    0.50    4.10
  -3  -8  -6    4.90    5.30
   3  -8   6    9.50    5.50
  -3  -8  -6   -1.60    5.10
  -3  -8  -6    7.40    4.90
  -3  -8  -6    6.30    5.90
   3  -8   6   -0.40    5.80
   3  -8   6    0.90    6.30
   3   8   6    7.00    5.20
   3   8   6    2.30    5.20
   3   8   6    1.00    5.10
  -3   8  -6   15.30    5.80
  -3   8  -6   -3.30    4.60
   3   8   6    2.80    5.50
  -3   8  -6   10.70    5.60
  -3   8  -6    7.40    6.10
   3   8   6   11.10    6.00
  -3   8  -6    4.90    5.80
  -3   8  -6    0.80    6.10
   3   8   6    3.80    4.50
   3  -9  -6   10.70    5.80
   3  -9  -6   13.90    6.70
   3  -9  -6    4.10    5.10
   3  -9  -6    4.40    5.30
  -3  -9   6    2.80    3.00
   3  -9  -6   -1.30    5.10
   3  -9  -6    4.90    6.00
  -3  -9   6   -1.90    2.50
  -3  -9   6    1.40    3.20
   3   9  -6    3.80    2.40
  -3   9   6   -0.10    5.60
   3   9  -6    4.40    2.50
  -3   9   6    7.80    6.90
  -3   9   6   13.40    5.70
  -3   9   6   -1.60    5.30
   3   9  -6    4.40    3.30
   3   9  -6    3.80    3.20
  -3   9   6    8.40    6.90
  -3   9   6   -1.60    5.30
   2  -9  -6  775.72   38.30
   2  -9  -6  801.72   38.50
  -2  -9   6  748.53   35.60
   2  -9  -6  801.22   37.70
   2  -9  -6  770.42   38.40
  -2  -9   6  763.62   35.60
   2  -9  -6  752.82   38.20
  -2   9   6  808.22   38.40
  -2   9   6  791.72   37.80
   2   9  -6  764.52   35.90
  -2   9   6  816.62   38.80
  -2   9   6  814.52   38.20
  -2   9   6  811.72   38.80
   2   9  -6  762.22   35.90
  -2   9   6  831.82   38.60
   1  -9  -6   11.40    3.50
   1  -9  -6   19.30    3.60
   1  -9  -6   16.90    3.60
  -1  -9   6   13.80    1.50
   1  -9  -6   12.20    3.10
  -1  -9   6   13.10    1.60
   1  -9  -6   15.80    3.70
  -1   9   6   12.50    3.50
   1   9  -6   11.70    1.60
   1   9  -6   18.10    1.90
  -1   9   6   12.70    3.90
  -1   9   6   13.90    3.80
  -1   9   6    9.20    3.20
  -1   9   6   10.20    3.80
  -1   9   6   12.60    3.40
   0  -9  -6  627.64   28.70
   0  -9  -6  617.64   29.20
   0  -9  -6  619.34   29.10
   0  -9  -6  610.34   29.00
   0  -9   6  598.44   27.60
   0  -9  -6  554.94   28.90
   0  -9   6  590.44   27.60
   0  -9  -6  615.14   28.60
   0  -9   6  584.74   27.40
   0   9   6  585.04   28.60
   0   9  -6  570.74   27.40
   0   9   6  573.74   28.60
   0   9   6  616.34   29.10
   0   9  -6  530.35   27.20
   0   9  -6  578.34   27.30
   0   9  -6  600.84   27.40
   0   9   6  616.74   29.10
   0   9  -6  588.34   27.50
   0   9   6  634.04   29.30
   0   9  -6  588.44   27.30
   0   9   6  586.44   29.10
  -1  -9  -6   42.50    5.30
  -1  -9  -6   41.50    5.70
   1  -9   6   43.00    2.90
  -1  -9  -6   50.39    6.20
   1  -9   6   41.20    3.10
  -1  -9  -6   31.10    4.60
   1  -9   6   45.80    5.00
  -1  -9  -6   39.00    5.90
   1  -9   6   45.90    5.00
   1  -9   6   40.50    4.70
  -1  -9  -6   45.10    5.00
  -1   9  -6   46.90    4.70
  -1   9  -6   45.20    4.70
   1   9   6   49.40    5.60
   1   9   6   39.20    5.70
  -1   9  -6   40.20    4.60
  -1   9  -6   45.50    4.90
   1   9   6   45.50    5.50
   1   9   6   41.10    6.10
  -1   9  -6   43.00    4.90
  -1   9  -6   50.59    5.50
   1   9   6   37.60    5.70
   2  -9   6  105.49    8.60
   2  -9   6  102.59    7.20
   2  -9   6  102.69    7.20
  -2  -9  -6   97.79    9.10
  -2  -9  -6  114.79    9.30
  -2  -9  -6  116.79    9.70
   2  -9   6  108.29    8.80
  -2  -9  -6  107.39    8.10
  -2  -9  -6  106.89    8.50
   2  -9   6   97.79    9.10
  -2   9  -6  106.09    9.20
  -2   9  -6  107.79    8.80
   2   9   6   97.59    9.00
  -2   9  -6   95.69    8.40
   2   9   6  107.69    9.40
  -2   9  -6   92.09    8.80
  -2   9  -6   98.89    8.40
   2   9   6  102.79    8.60
  -2   9  -6  115.59    9.10
   2   9   6  101.79    9.70
   2   9   6  105.89    9.10
   2   9   6  120.59    9.20
   3  -9   6  894.11   46.80
   3  -9   6  989.70   47.20
  -3  -9  -6  974.40   45.90
   3  -9   6  957.60   45.40
  -3  -9  -6  964.10   46.90
  -3  -9  -6  945.91   46.70
   3  -9   6  956.80   47.00
  -3  -9  -6  894.31   46.60
   3  -9   6  929.91   47.20
  -3  -9  -6  930.01   47.20
  -3   9  -6  981.40   46.90
  -3   9  -6  999.40   47.60
  -3   9  -6  978.20   47.20
  -3   9  -6  987.30   46.70
  -3   9  -6  992.80   46.60
   3   9   6  965.40   46.80
   3   9   6  949.40   47.00
   3   9   6  987.20   46.70
   3   9   6  931.01   46.30
   3   9   6  945.41   47.30
   3   9   6  982.00   46.30
  -3   9  -6  944.01   47.10
  -3 -10   6   83.59    6.40
  -3 -10   6   79.69    6.90
   3 -10  -6   77.99    9.50
   3 -10  -6   88.59   10.50
   3 -10  -6   88.79   11.10
   3 -10  -6  103.49   11.40
   3 -10  -6   89.59   12.00
   3 -10  -6  101.39   12.40
  -3  10   6  107.09   12.20
  -3  10   6   98.69   10.90
   3  10  -6   80.59    5.50
   3  10  -6   96.59    7.70
   3  10  -6   95.99    7.60
  -3  10   6   96.49   12.00
  -3  10   6   98.59   13.10
  -3  10   6  107.79   12.40
  -3  10   6  105.29   13.40
   3  10  -6   76.69    5.70
   2 -10  -6   -1.70    3.70
   2 -10  -6    1.10    4.10
   2 -10  -6   -3.40    4.60
   2 -10  -6    3.40    4.30
   2 -10  -6    6.90    4.70
  -2 -10   6    0.50    1.50
  -2 -10   6    0.80    1.70
   2  10  -6   -0.60    1.90
  -2  10   6    0.70    5.10
  -2  10   6    3.10    3.90
  -2  10   6    3.10    4.80
   2  10  -6   -2.00    1.80
  -2  10   6   -0.10    5.00
  -2  10   6   -3.20    4.60
   1 -10  -6  133.59   10.00
  -1 -10   6  145.89    6.90
   1 -10  -6  121.09    9.50
  -1 -10   6  137.59    6.80
   1 -10  -6  150.58   10.00
   1 -10  -6  149.19    9.80
   1 -10  -6  133.39    9.50
   1 -10  -6  142.79    9.50
  -1 -10   6  148.69    7.00
  -1 -10   6  139.09    7.00
  -1  10   6  122.59    9.60
  -1  10   6  107.19    9.30
   1  10  -6  133.79    7.20
  -1  10   6  142.69   10.30
  -1  10   6  150.08   10.20
  -1  10   6  141.99   10.40
  -1  10   6  154.58    9.60
   1  10  -6  143.19    7.20
   0 -10  -6  217.48   12.60
   0 -10  -6  259.97   13.60
   0 -10   6  235.08   11.70
   0 -10   6  211.78   11.50
   0 -10  -6  220.58   13.30
   0 -10  -6  220.58   13.30
   0 -10  -6  217.38   13.40
   0 -10   6  225.28   11.60
   0 -10   6  222.38   11.40
   0 -10  -6  217.28   12.60
   0  10  -6  231.88   11.50
   0  10   6  244.38   13.50
   0  10   6  222.48   13.40
   0  10  -6  246.58   11.50
   0  10  -6  228.38   11.60
   0  10  -6  246.98   11.30
   0  10  -6  226.98   11.40
   0  10   6  249.08   13.80
   0  10   6  215.68   13.30
   0  10   6  235.08   12.90
   0  10   6  227.38   12.90
   0  10  -6  191.98   11.30
   1 -10   6  210.38   12.10
   1 -10   6  221.78   10.30
   1 -10   6  207.98   12.10
   1 -10   6  236.88   12.50
   1 -10   6  215.28   10.30
  -1 -10  -6  245.08   13.60
  -1 -10  -6  211.48   12.90
  -1 -10  -6  183.58   12.30
  -1 -10  -6  220.38   12.40
  -1 -10  -6  221.08   13.30
   1  10   6  232.28   13.50
  -1  10  -6  221.88   12.20
  -1  10  -6  224.98   12.00
  -1  10  -6  207.28   12.40
   1  10   6  216.78   13.20
   1  10   6  210.58   13.10
  -1  10  -6  213.18   12.00
   1  10   6  226.58   13.30
  -1  10  -6  237.58   12.10
   1  10   6  218.78   12.90
  -1  10  -6  221.48   12.30
   1  10   6  228.28   12.90
  -2 -10  -6  563.44   27.30
   2 -10   6  532.95   26.20
  -2 -10  -6  558.14   28.30
  -2 -10  -6  550.04   28.20
   2 -10   6  575.64   27.80
   2 -10   6  526.85   27.90
   2 -10   6  528.05   27.50
   2 -10   6  548.35   26.30
  -2 -10  -6  507.95   28.20
  -2 -10  -6  558.34   27.10
   2  10   6  540.25   27.60
  -2  10  -6  541.55   27.40
  -2  10  -6  542.35   27.50
   2  10   6  557.94   27.70
  -2  10  -6  536.35   27.70
   2  10   6  562.54   28.10
  -2  10  -6  564.14   28.00
   2  10   6  573.64   28.70
  -2  10  -6  549.85   27.80
   2  10   6  548.45   28.20
   2  10   6  547.55   28.20
  -2  10  -6  556.84   27.60
  -3 -10  -6   47.60    8.40
  -3 -10  -6   43.70    7.50
  -3 -10  -6   48.70    6.80
   3 -10   6   42.80    8.00
   3 -10   6   48.10    6.10
  -3 -10  -6   41.90    6.40
   3 -10   6   41.20    8.50
   3 -10   6   29.40    7.30
  -3 -10  -6   32.80    7.40
   3 -10   6   26.00    7.00
  -3 -10  -6   34.50    8.10
   3  10   6   40.30    7.90
  -3  10  -6   32.10    8.30
   3  10   6   54.29    8.40
   3  10   6   47.90    8.10
  -3  10  -6   44.80    8.00
  -3  10  -6   32.30    6.40
   3  10   6   34.10    6.80
   3  10   6   44.00    7.60
  -3  10  -6   43.30    8.60
   3  10   6   28.70    7.30
  -3  10  -6   41.60    9.10
   3 -11  -6   -4.70    7.00
   3 -11  -6    2.70    6.20
  -3 -11   6    6.00    3.50
  -3 -11   6    3.20    2.80
   3 -11  -6    2.00    6.20
   3 -11  -6    6.50    7.10
  -3 -11   6    7.00    3.00
   3 -11  -6   -2.20    6.20
   3 -11  -6   13.90    8.30
  -3 -11   6    0.40    3.10
  -3  11   6    2.00    8.30
  -3  11   6   12.50    8.30
  -3  11   6   13.20    7.40
   3  11  -6    9.30    4.20
  -3  11   6    8.60    7.40
   3  11  -6   10.50    4.20
  -3  11   6   15.90    7.80
  -3  11   6    6.10    6.20
   2 -11  -6  118.09   11.40
   2 -11  -6  138.19   11.30
  -2 -11   6  113.59    6.60
   2 -11  -6  124.79   11.00
   2 -11  -6  130.79   10.70
   2 -11  -6  153.08   11.70
   2 -11  -6  127.69   10.40
  -2  11   6  108.29   11.10
  -2  11   6  124.69   10.50
  -2  11   6  136.89   10.50
   2  11  -6  119.29    7.30
  -2  11   6  130.89   11.40
  -2  11   6  113.99   11.70
   2  11  -6  119.09    7.30
   1 -11  -6   13.60    4.60
   1 -11  -6   14.10    4.60
  -1 -11   6    9.90    1.70
   1 -11  -6    5.30    4.40
  -1 -11   6   11.50    2.00
   1 -11  -6    9.40    4.20
  -1 -11   6   11.30    1.80
  -1 -11   6    9.70    1.80
   1 -11  -6   17.90    3.90
   1 -11  -6   11.70    4.10
  -1  11   6    9.20    4.70
  -1  11   6    8.50    4.00
  -1  11   6    7.10    4.50
  -1  11   6    6.60    4.30
   1  11  -6    9.60    2.00
   1  11  -6   11.80    2.10
  -1  11   6    5.70    3.60
   0 -11   6   59.79    5.10
   0 -11  -6   45.60    6.90
   0 -11  -6   68.59    6.50
   0 -11  -6   57.19    6.60
   0 -11   6   50.09    4.80
   0 -11  -6   65.29    6.70
   0 -11  -6   60.39    6.30
   0 -11  -6   57.39    7.20
   0 -11   6   59.19    5.00
   0 -11   6   56.79    4.50
   0  11  -6   69.79    4.70
   0  11  -6   65.29    4.90
   0  11  -6   65.69    5.10
   0  11  -6   56.39    4.40
   0  11   6   68.29    6.70
   0  11   6   54.49    6.70
   0  11   6   65.79    7.00
   0  11   6   59.59    7.80
   0  11  -6   63.39    4.70
   0  11   6   54.49    6.60
   0  11   6   65.99    7.40
   0  11  -6   55.69    5.00
  -1 -11  -6   36.30    4.90
  -1 -11  -6   27.60    5.00
   1 -11   6   32.70    4.80
   1 -11   6   29.40    4.20
  -1 -11  -6   28.70    4.40
  -1 -11  -6   35.40    5.70
  -1 -11  -6   27.50    5.00
   1 -11   6   40.50    6.00
  -1  11  -6   33.40    4.60
  -1  11  -6   40.40    5.80
  -1  11  -6   30.50    4.10
   1  11   6   32.80    5.30
   1  11   6   17.40    4.70
   1  11   6   37.40    5.70
   1  11   6   41.10    5.50
  -1  11  -6   31.20    4.30
  -1  11  -6   27.60    3.90
  -1  11  -6   27.40    4.10
   1  11   6   30.00    4.60
   1  11   6   29.60    5.30
   2 -11   6   59.19    7.40
  -2 -11  -6   42.40    7.00
   2 -11   6   35.80    5.20
  -2 -11  -6   55.09    7.60
  -2 -11  -6   44.90    6.00
  -2 -11  -6   58.29    8.60
   2 -11   6   51.09    7.50
   2 -11   6   45.50    6.90
   2 -11   6   48.70    5.60
   2 -11   6   50.59    7.20
  -2 -11  -6   50.59    7.00
  -2  11  -6   58.89    7.40
  -2  11  -6   59.99    8.30
   2  11   6   49.20    6.80
   2  11   6   51.19    6.70
  -2  11  -6   42.00    6.20
  -2  11  -6   65.59    7.70
   2  11   6   54.69    6.90
  -2  11  -6   46.70    6.60
   2  11   6   52.69    7.40
  -2  11  -6   46.90    6.60
   2  11   6   49.99    7.10
  -3 -11  -6   -3.30    9.00
   3 -11   6   10.60   12.00
  -3 -11  -6    9.20    5.00
   3 -11   6    0.80    6.60
   3 -11   6   15.80    7.40
  -3 -11  -6  -15.10    7.00
  -3 -11  -6    4.10    5.90
   3 -11   6   -3.00    6.40
  -3 -11  -6    4.10    6.20
   3 -11   6    1.50    6.20
  -3 -11  -6    6.80    7.90
   3 -11   6    9.40    5.20
  -3  11  -6    6.20    8.30
   3  11   6   15.40    7.20
   3  11   6    4.60    6.50
   3  11   6    1.80    7.40
   3  11   6    6.00    6.70
  -3  11  -6    5.70    6.40
  -3  11  -6   22.00    8.50
  -3  11  -6   10.90    7.60
  -3  11  -6   -4.50    6.80
   3  11   6    7.50    7.00
   3  11   6   -0.90    6.50
   3 -12  -6   32.80    9.30
   3 -12  -6    6.50    7.00
   3 -12  -6   10.00    7.20
  -3 -12   6   21.40    3.40
   3 -12  -6    7.60    8.10
   3 -12  -6   27.40    8.00
   3  12  -6   26.00    5.00
  -3  12   6   12.50    9.40
  -3  12   6   12.00    8.40
  -3  12   6   29.90   10.30
  -3  12   6   23.70    8.30
   3  12  -6   26.80    4.90
   2 -12  -6   22.90    6.00
   2 -12  -6   23.10    5.70
   2 -12  -6   27.80    6.20
   2 -12  -6   34.70    7.30
   2 -12  -6   16.40    6.00
   2 -12  -6   25.30    6.00
  -2 -12   6   23.20    3.40
  -2  12   6   31.70    6.80
  -2  12   6   34.30    7.80
  -2  12   6   34.00    6.80
   2  12  -6   29.70    3.50
   2  12  -6   28.90    3.60
  -2  12   6   18.10    7.40
  -2  12   6   15.40    6.30
  -2  12   6   31.10    7.60
   1 -12  -6  300.27   17.60
   1 -12  -6  285.87   16.70
   1 -12  -6  307.47   17.70
  -1 -12   6  256.97   14.10
  -1 -12   6  296.17   14.10
   1 -12  -6  324.67   17.70
  -1 -12   6  312.27   14.20
  -1 -12   6  303.87   14.30
  -1  12   6  288.07   16.70
  -1  12   6  294.27   17.60
   1  12  -6  303.67   14.60
   1  12  -6  293.47   14.50
  -1  12   6  280.77   17.60
  -1  12   6  300.67   17.10
  -1  12   6  297.47   17.30
   0 -12  -6   28.90    5.00
   0 -12   6   33.40    4.70
   0 -12  -6   41.90    5.40
   0 -12  -6   31.50    5.70
   0 -12   6   36.70    4.30
   0 -12   6   46.80    4.90
   0 -12  -6   26.10    4.60
   0 -12  -6   38.90    5.70
   0  12  -6   34.60    4.60
   0  12   6   37.00    5.90
   0  12  -6   39.60    4.30
   0  12   6   31.50    5.50
   0  12   6   35.10    5.30
   0  12   6   36.20    5.60
   0  12  -6   43.10    4.20
   0  12  -6   34.30    4.70
   0  12  -6   44.20    4.70
   0  12   6   40.60    6.10
   0  12  -6   38.90    4.40
   0  12   6   49.80    6.10
   1 -12   6  163.58   10.00
  -1 -12  -6  168.58   10.60
  -1 -12  -6  157.98   11.80
  -1 -12  -6  155.68   10.40
  -1 -12  -6  153.08   11.50
  -1 -12  -6  154.08   11.40
   1 -12   6  125.29   10.20
   1  12   6  167.88   11.40
  -1  12  -6  144.49   10.30
  -1  12  -6  152.38   10.40
   1  12   6  154.28   11.50
  -1  12  -6  163.58    9.80
   1  12   6  152.98   10.90
  -1  12  -6  168.48   10.10
  -1  12  -6  160.68   10.20
   1  12   6  172.98   12.00
  -1  12  -6  155.88   10.10
   1  12   6  167.78   11.80
   1  12   6  157.78   11.40
   2 -12   6  234.58   14.60
  -2 -12  -6  223.68   15.30
  -2 -12  -6  240.98   16.00
  -2 -12  -6  229.48   15.40
  -2 -12  -6  219.68   14.00
   2 -12   6  223.98   15.10
   2 -12   6  224.38   15.20
  -2 -12  -6  219.88   15.50
   2 -12   6  219.88   12.30
   2  12   6  248.08   16.20
  -2  12  -6  227.48   14.80
  -2  12  -6  227.48   14.80
  -2  12  -6  221.88   15.20
  -2  12  -6  204.18   14.20
   2  12   6  239.58   15.40
   2  12   6  224.98   15.10
   2  12   6  215.38   14.80
   2  12   6  247.08   15.30
  -2  12  -6  202.68   14.70
  -2  12  -6  250.77   14.50
   2 -13  -6   28.70    6.90
   2 -13  -6   29.30    7.50
   2 -13  -6   10.30    6.10
   2 -13  -6   14.70    7.40
   2 -13  -6   22.90    6.30
   2 -13  -6   21.00    6.80
  -2  13   6   18.60    8.20
  -2  13   6   17.20    7.30
  -2  13   6   20.80    7.40
   2  13  -6   39.50    5.20
   2  13  -6   26.40    3.80
  -2  13   6   31.90    6.60
  -2  13   6   31.10    6.90
  -2  13   6   15.70    7.90
   1 -13  -6    6.40    5.50
   1 -13  -6   17.40    5.50
   1 -13  -6    4.30    5.10
  -1 -13   6   12.90    2.70
   1 -13  -6   14.30    4.50
  -1 -13   6   11.90    2.40
   1  13  -6   12.50    2.10
  -1  13   6   15.40    5.10
  -1  13   6   12.80    6.00
  -1  13   6   12.60    5.30
  -1  13   6   11.20    6.10
   1  13  -6   12.30    2.80
   1  13  -6   10.00    1.90
  -1  13   6   16.20    5.50
  -1  13   6   13.60    5.10
   1  13  -6   16.50    3.10
   0 -13  -6   29.40    5.90
   0 -13  -6   24.80    5.70
   0 -13   6   31.60    4.20
   0 -13  -6   31.50    4.80
   0 -13  -6   13.30    4.50
   0 -13  -6   30.90    5.90
   0  13  -6   28.50    3.70
   0  13   6   24.30    4.90
   0  13  -6   40.50    5.20
   0  13   6   23.60    6.10
   0  13  -6   29.20    3.90
   0  13  -6   27.50    3.50
   0  13   6   36.60    5.80
   0  13  -6   32.90    3.90
   0  13   6   27.70    5.80
   0  13  -6   29.20    3.90
   0  13   6   32.70    6.00
   0  13   6   33.80    6.20
  -1 -13  -6    8.80    4.40
  -1 -13  -6   15.10    5.20
   1 -13   6    3.60    3.10
  -1 -13  -6    9.70    5.40
  -1 -13  -6   15.30    4.50
   1 -13   6   20.70    4.70
  -1 -13  -6   10.50    4.90
   1 -13   6   13.70    4.10
  -1  13  -6   19.20    4.20
   1  13   6   12.70    5.30
   1  13   6   15.50    4.60
  -1  13  -6   12.80    3.90
  -1  13  -6   12.60    3.90
  -1  13  -6    6.50    4.40
   1  13   6   11.50    5.60
   1  13   6    5.00    5.20
  -1  13  -6   19.10    4.20
   1  13   6   15.60    5.00
   1  13   6   22.00    5.80
  -1  13  -6   10.00    4.40
   2 -13   6  115.99   12.10
   2 -13   6  116.99    8.40
  -2 -13  -6  109.29   12.50
  -2 -13  -6  120.79   13.00
   2 -13   6  135.59   12.00
  -2 -13  -6  133.29   12.70
   2 -13   6  130.69   12.10
  -2 -13  -6  104.99   12.00
  -2 -13  -6  128.99   10.70
  -2  13  -6  143.39   12.00
   2  13   6  119.89   12.20
   2  13   6  136.89   12.10
   2  13   6  105.99   12.90
  -2  13  -6  114.69   10.30
  -2  13  -6  137.49   11.60
  -2  13  -6  129.59   12.00
  -2  13  -6  126.39   11.10
   2  13   6  110.49   12.30
  -2  13  -6  118.49   11.60
   2  13   6  134.79   12.50
   2  13   6  118.69   11.90
   2 -14  -6  181.78   16.90
   2 -14  -6  184.18   15.50
   2 -14  -6  187.68   16.10
   2 -14  -6  231.08   15.40
   2 -14  -6  210.18   16.80
  -2  14   6  176.38   17.50
   2  14  -6  195.28   11.70
   2  14  -6  209.18   11.70
  -2  14   6  215.68   15.80
  -2  14   6  204.68   18.20
  -2  14   6  191.98   17.10
  -2  14   6  189.48   18.10
   1 -14  -6  453.95   26.30
   1 -14  -6  486.05   25.00
  -1 -14   6  479.15   22.80
  -1 -14   6  459.95   22.60
   1 -14  -6  469.35   25.70
   1 -14  -6  481.95   25.20
   1 -14  -6  504.55   26.50
   1 -14  -6  544.25   26.90
  -1  14   6  497.75   26.60
  -1  14   6  470.65   25.40
  -1  14   6  471.95   25.80
   1  14  -6  488.05   23.10
   1  14  -6  471.05   22.10
   1  14  -6  456.25   22.10
  -1  14   6  465.85   26.70
   1  14  -6  466.25   23.10
  -1  14   6  466.35   26.10
  -1  14   6  473.65   26.60
   0 -14  -6   16.90    4.70
   0 -14   6   14.20    4.10
   0 -14  -6    9.00    5.50
   0 -14  -6   15.90    5.50
   0 -14  -6   12.10    5.80
   0 -14   6    1.50    3.30
   0 -14   6   14.20    4.00
   0 -14  -6   13.60    5.80
   0  14  -6   13.50    3.30
   0  14   6   17.70    5.90
   0  14  -6   10.10    3.80
   0  14   6   10.40    5.40
   0  14  -6   10.60    3.50
   0  14  -6   11.40    3.60
   0  14   6   20.10    6.30
   0  14   6   22.40    6.20
   0  14  -6   10.00    3.60
   0  14  -6   23.00    4.00
   0  14   6   12.10    6.30
   0  14   6   19.20    6.00
  -1 -14  -6    6.30    6.20
   1 -14   6   24.60    4.80
   1 -14   6   15.00    5.40
  -1 -14  -6   14.90    6.10
  -1 -14  -6   20.00    5.10
  -1 -14  -6   16.40    5.80
   1 -14   6   12.90    4.90
  -1 -14  -6   13.40    6.10
   1 -14   6    3.90    3.40
   1  14   6   11.50    5.70
  -1  14  -6    6.80    5.00
  -1  14  -6   17.50    4.60
  -1  14  -6   13.90    4.30
   1  14   6   13.70    5.70
   1  14   6   21.00    6.20
  -1  14  -6   16.50    4.50
   1  14   6   18.00    5.40
   1  14   6   21.40    5.90
  -1  14  -6   17.40    5.30
  -1  14  -6    9.50    4.50
   1  14   6    7.50    5.60
  -2 -14  -6  335.77   21.20
  -2 -14  -6  341.07   24.90
  -2 -14  -6  301.77   18.50
   2 -14   6  288.07   19.40
   2 -14   6  333.47   19.80
   2  14   6  295.67   19.60
  -2  14  -6  337.77   19.70
   2  14   6  304.07   19.50
   2  14   6  312.07   20.70
  -2  14  -6  337.67   19.20
   2  14   6  313.67   20.30
  -2  14  -6  312.17   18.70
  -2  14  -6  309.77   19.90
  -1 -15   6    3.40    3.40
   1 -15  -6    4.20    7.00
  -1 -15   6   -0.20    2.80
   1 -15  -6    0.60    6.90
  -1 -15   6   -0.80    2.90
   1 -15  -6    3.30    7.40
   1 -15  -6    2.00    5.40
  -1 -15   6    1.30    3.10
   1 -15  -6    2.10    6.50
   1 -15  -6   -6.30    5.20
   1  15  -6   -1.10    3.40
   1  15  -6    7.00    2.60
  -1  15   6    3.20    7.30
  -1  15   6    3.30    6.90
  -1  15   6   -2.60    5.70
   1  15  -6    2.70    2.50
  -1  15   6    4.90    6.80
  -1  15   6    5.20    6.00
  -1  15   6   -3.80    6.90
   0 -15  -6  204.48   15.80
   0 -15  -6  220.98   15.90
   0 -15  -6  230.08   16.30
   0 -15  -6  220.78   14.30
   0 -15  -6  219.78   15.50
   0 -15  -6  216.98   14.30
   0 -15   6  217.28   13.10
   0  15  -6  234.08   12.10
   0  15  -6  215.98   12.50
   0  15  -6  221.28   12.90
   0  15   6  205.88   15.40
   0  15   6  214.18   15.00
   0  15   6  219.18   16.20
   0  15   6  221.38   16.10
   0  15  -6  221.78   12.60
   0  15  -6  223.68   12.90
   0  15   6  212.88   15.30
   0  15   6  214.48   16.20
   0  15  -6  208.68   13.10
  -1 -15  -6   91.89   11.40
  -1 -15  -6   68.99    9.40
  -1 -15  -6   96.19   10.50
  -1 -15  -6   59.19    8.70
   1 -15   6   75.69   10.20
   1 -15   6   86.69    9.30
  -1 -15  -6   91.39   11.60
  -1 -15  -6   71.99   10.70
   1  15   6   76.59   11.60
   1  15   6   73.19   10.00
  -1  15  -6   65.69    7.60
  -1  15  -6   87.29    9.90
   1  15   6   65.79    8.50
  -1  15  -6   75.39    9.60
  -1  15  -6   90.39    8.70
  -1  15  -6   74.79    9.40
   1  15   6   84.69   11.60
   1  15   6   74.19   10.60
  -1  15  -6   77.79    8.50
   1  15   6   74.59    9.70
   0 -16   6  487.75   25.10
   0 -16  -6  493.95   27.90
   0 -16  -6  509.25   26.10
   0 -16   6  475.85   24.80
   0 -16  -6  498.95   27.40
   0 -16  -6  515.05   27.80
   0  16  -6  472.85   24.30
   0  16  -6  503.35   24.00
   0  16   6  461.65   27.50
   0  16   6  476.55   27.90
   0  16  -6  484.35   24.80
   0  16   6  527.35   29.50
   0  16  -6  496.85   24.70
   0  16   6  484.15   27.60
  -4   0   7   -0.30    3.50
  -4   0   7    0.80    3.40
  -4   0   7   -3.70    5.90
  -4   0   7    9.90    6.30
   4   0  -7   -0.30    5.80
  -4   0   7    1.90    5.10
  -4   0   7    7.60    5.60
   4   0  -7   -4.10    4.80
   4   0  -7   -4.50    4.90
   4   0  -7   -7.30    4.60
   4   0  -7    9.60    5.20
   4   0  -7   -2.50    5.20
   3   0  -7    4.60    3.00
   3   0  -7    2.00    3.20
   3   0  -7   -2.90    3.40
   3   0  -7    0.00    3.10
   3   0  -7   -1.90    2.80
  -3   0   7    1.70    3.20
  -3   0   7    1.50    3.20
   3   0  -7    2.40    2.90
  -3   0   7   -2.90    1.90
  -3   0   7   -1.50    3.30
  -3   0   7   -5.10    2.10
   2   0  -7   -3.60    1.70
   2   0  -7   -0.70    1.70
   2   0  -7    1.20    1.80
  -2   0   7   -0.20    1.30
  -2   0   7    1.10    1.90
  -2   0   7   -0.20    1.90
  -2   0   7    0.60    1.90
  -2   0   7    0.90    1.30
   2   0  -7    0.90    1.70
   2   0  -7    2.20    1.80
  -2   0   7    1.80    2.10
   2   0  -7    0.10    2.00
  -1   0   7   -0.60    1.10
   1   0  -7    0.30    1.20
   1   0  -7    0.20    1.20
  -1   0   7   -0.30    1.30
  -1   0   7    0.70    1.30
   1   0  -7    0.20    1.10
  -1   0   7   -0.20    0.80
   1   0  -7    0.90    1.10
   1   0  -7    0.30    1.20
  -1   0   7    0.20    0.90
  -1   0   7   -0.50    1.20
   0   0  -7    1.60    1.10
   0   0   7    0.70    1.00
   0   0   7    0.40    1.40
   0   0   7    1.50    1.30
   0   0  -7    1.70    1.30
   0   0  -7    2.40    1.10
   0   0   7    1.50    1.10
   0   0  -7    1.90    1.20
   0   0  -7    2.70    1.30
   0   0   7   -0.70    1.20
   0   0   7   -0.70    1.30
   0   0  -7    1.90    1.30
   1   0   7   -0.10    1.60
   1   0   7    0.00    1.50
  -1   0  -7   -2.00    1.70
  -1   0  -7   -0.80    1.80
   1   0   7    0.10    1.80
  -1   0  -7   -1.80    1.20
   1   0   7   -0.40    1.70
   1   0   7    1.20    1.50
  -1   0  -7    1.60    1.80
  -1   0  -7   -3.00    1.40
  -1   0  -7    1.40    1.60
   1   0   7    2.00    2.10
  -2   0  -7    0.10    2.80
  -2   0  -7    1.10    2.50
   2   0   7    2.30    2.90
   2   0   7    2.40    2.60
  -2   0  -7    2.00    2.60
   2   0   7   -0.80    2.60
   2   0   7   -0.10    1.90
   2   0   7    1.10    2.90
  -2   0  -7    1.00    2.20
  -2   0  -7   -2.10    2.90
   2   0   7    2.90    2.60
  -2   0  -7    3.10    3.00
   3   0   7    5.40    4.20
   3   0   7   -0.80    4.40
   3   0   7    3.70    4.20
  -3   0  -7   -1.90    3.50
   3   0   7    7.20    5.00
  -3   0  -7    5.40    4.50
  -3   0  -7    4.20    4.10
  -3   0  -7    0.50    3.90
   3   0   7   -0.30    4.20
   3   0   7   -2.50    3.10
  -3   0  -7    1.20    4.20
   4   0   7   -3.20    7.80
   4   0   7    1.10    7.50
  -4   0  -7   -0.10    7.40
  -4   0  -7   15.80    7.20
   4   0   7   -2.00    6.60
   4   0   7  -12.90    7.30
  -4   0  -7    7.00    8.40
  -4   0  -7    1.40    6.90
  -4   0  -7   -0.20    7.00
  -4   0  -7    4.90    6.20
   4   0   7   -2.70    6.00
   4   0   7    0.90    6.40
  -4  -1   7  120.49   11.60
  -4  -1   7  102.89   11.50
   4  -1  -7  110.39   10.90
   4  -1  -7  102.79   10.60
  -4  -1   7   93.49    7.20
   4  -1  -7   89.99   10.90
   4  -1  -7  103.19   10.30
   4  -1  -7   99.79   11.20
   4  -1  -7  104.79   10.20
  -4  -1   7   97.09   10.70
   4   1  -7  117.29   10.70
  -4   1   7  114.49   10.90
  -4   1   7   95.79    8.70
  -4   1   7   99.19    8.60
   4   1  -7  130.19   10.60
   4   1  -7   91.29   10.80
   4   1  -7  107.19   10.20
  -4   1   7   81.49   11.30
   4   1  -7  106.69   11.00
  -4   1   7  125.89   12.30
   4   1  -7  118.89   10.00
   3  -1  -7  310.57   16.80
   3  -1  -7  317.27   16.60
  -3  -1   7  306.57   16.70
   3  -1  -7  314.47   16.90
   3  -1  -7  297.57   16.60
   3  -1  -7  322.37   17.00
   3  -1  -7  321.67   16.60
  -3  -1   7  320.67   16.40
  -3  -1   7  326.37   15.10
  -3  -1   7  266.27   16.30
  -3  -1   7  315.77   15.10
   3   1  -7  317.67   16.60
  -3   1   7  320.27   17.10
  -3   1   7  346.17   17.10
   3   1  -7  312.97   16.30
  -3   1   7  339.97   17.00
   3   1  -7  309.57   16.40
   3   1  -7  319.27   16.70
   3   1  -7  327.77   16.40
  -3   1   7  328.37   16.00
  -3   1   7  298.17   15.70
   3   1  -7  296.57   16.40
   2  -1  -7  181.68   10.20
  -2  -1   7  177.18    9.70
  -2  -1   7  191.98    8.80
  -2  -1   7  172.98    9.80
   2  -1  -7  182.18   10.20
   2  -1  -7  184.08   10.00
  -2  -1   7  193.28    8.80
   2  -1  -7  203.38   10.30
   2  -1  -7  178.58    9.90
  -2  -1   7  192.38   10.00
   2  -1  -7  183.68   10.20
  -2  -1   7  179.58    9.90
  -2   1   7  184.88    9.50
  -2   1   7  181.28   10.30
   2   1  -7  185.38    9.80
   2   1  -7  185.78    9.70
  -2   1   7  185.48   10.20
   2   1  -7  188.68    9.90
   2   1  -7  189.28    9.70
  -2   1   7  189.68   10.30
  -2   1   7  192.68   10.20
   2   1  -7  192.88    9.80
   2   1  -7  182.48    9.70
   1  -1  -7  178.68    8.40
  -1  -1   7  156.78    8.10
   1  -1  -7  145.99    8.10
  -1  -1   7  177.38    8.10
   1  -1  -7  160.18    8.30
  -1  -1   7  158.08    8.00
  -1  -1   7  161.28    8.00
   1  -1  -7  129.69    8.20
   1  -1  -7  148.99    8.40
   1   1  -7  180.08    8.00
  -1   1   7  154.48    8.50
  -1   1   7  154.08    7.90
  -1   1   7  174.68    8.50
  -1   1   7  151.08    8.40
   1   1  -7  162.18    8.10
   1   1  -7  147.89    7.80
  -1   1   7  159.08    8.00
   1   1  -7  143.69    7.90
   1   1  -7  152.18    7.80
   1   1  -7  162.38    8.00
   0  -1  -7  190.38    9.40
   0  -1   7  165.58    9.10
   0  -1   7  187.18    8.70
   0  -1   7  162.88    9.00
   0  -1  -7  186.08    9.40
   0  -1  -7  204.28    9.60
   0  -1  -7  186.78    9.20
   0  -1  -7  179.98    9.40
   0  -1  -7  189.88    9.20
   0  -1   7  178.68    9.10
   0  -1   7  192.18    8.60
   0   1   7  188.28    9.10
   0   1   7  179.38    9.40
   0   1   7  174.58    9.40
   0   1  -7  183.48    9.00
   0   1  -7  193.08    9.20
   0   1   7  185.58    9.10
   0   1  -7  180.38    9.10
   0   1  -7  180.38    8.90
   0   1  -7  148.49    9.00
   0   1   7  170.88    9.40
   1  -1   7  186.08   10.00
  -1  -1  -7  184.38    9.80
   1  -1   7  168.98    9.70
   1  -1   7  178.68    9.90
  -1  -1  -7  183.28   10.00
  -1  -1  -7  171.68    9.60
  -1  -1  -7  178.38    9.60
   1  -1   7  170.78    9.60
   1  -1   7  165.88    9.20
  -1  -1  -7  212.98   10.10
  -1  -1  -7  190.98   10.00
   1   1   7  175.78   10.00
  -1   1  -7  171.08    9.60
  -1   1  -7  166.88    9.50
  -1   1  -7  175.98    9.70
   1   1   7  185.08    9.90
   1   1   7  172.78    9.40
  -1   1  -7  204.18    9.90
   1   1   7  192.48    9.90
  -1   1  -7  194.68   10.00
  -1   1  -7  170.68    9.40
   1   1   7  180.78    9.60
   1   1   7  175.18    9.80
  -2  -1  -7  133.69    8.40
  -2  -1  -7  130.69    8.60
  -2  -1  -7  124.19    8.90
  -2  -1  -7  118.79    8.00
  -2  -1  -7  125.89    8.80
   2  -1   7  127.09    7.80
   2  -1   7  109.49    8.40
  -2  -1  -7  111.79    8.40
   2  -1   7  139.29    9.00
   2  -1   7  139.09    8.60
   2  -1   7  129.19    8.90
   2  -1   7  117.99    8.10
   2   1   7  133.99    8.60
   2   1   7  131.49    8.90
   2   1   7  129.19    8.00
   2   1   7  124.69    8.20
  -2   1  -7  127.39    8.70
  -2   1  -7  123.99    8.20
  -2   1  -7  120.29    8.70
   2   1   7  122.89    8.60
  -2   1  -7  130.39    8.80
  -2   1  -7  136.59    8.40
   2   1   7  130.99    8.80
  -2   1  -7  114.39    8.00
   3  -1   7  941.11   45.40
  -3  -1  -7  882.11   45.30
  -3  -1  -7 1007.60   45.20
  -3  -1  -7  926.11   45.20
   3  -1   7  869.91   44.90
   3  -1   7  912.11   45.10
   3  -1   7  962.90   44.60
  -3  -1  -7  984.90   45.50
  -3  -1  -7  972.60   44.80
   3  -1   7  950.10   45.60
  -3   1  -7  872.31   45.10
  -3   1  -7  948.21   44.70
   3   1   7 1018.30   45.40
  -3   1  -7  868.61   44.80
   3   1   7  891.21   45.00
  -3   1  -7  974.50   45.70
   3   1   7  915.41   45.20
   3   1   7  947.21   45.50
  -3   1  -7  929.41   45.30
  -4  -1  -7   85.19   11.20
  -4  -1  -7   74.19   10.80
  -4  -1  -7   80.79    9.70
   4  -1   7   86.49   12.60
  -4  -1  -7   80.59   10.80
  -4  -1  -7   82.59   10.00
   4  -1   7   81.79    9.70
   4  -1   7   92.39   13.60
   4  -1   7   61.39   10.30
  -4  -1  -7  101.19   12.60
   4  -1   7   86.89   11.10
   4  -1   7   61.49    8.20
  -4   1  -7   83.19   11.10
  -4   1  -7   94.79   13.90
  -4   1  -7   86.89   11.40
   4   1   7   90.69   11.40
  -4   1  -7   68.29    8.70
   4   1   7   72.69   10.80
   4   1   7   63.09    8.30
   4   1   7   67.09    8.90
   4   1   7   87.29   12.50
  -4   1  -7   91.29   10.20
  -4   1  -7   69.39    9.90
   4   1   7   75.29   10.50
   4  -2  -7   88.79   10.50
  -4  -2   7   74.79    8.70
  -4  -2   7   66.79    8.20
  -4  -2   7   68.79    8.40
   4  -2  -7  100.49   10.90
   4  -2  -7   94.69   10.20
   4  -2  -7   79.49   10.40
   4  -2  -7   80.39   10.40
   4  -2  -7   77.49    9.80
  -4   2   7   91.59   11.50
   4   2  -7   61.29    9.30
  -4   2   7   95.09    9.10
   4   2  -7   66.39    8.80
   4   2  -7   72.99    9.90
   4   2  -7   81.49    9.20
  -4   2   7   97.59   10.30
  -4   2   7   79.99    8.40
   4   2  -7   74.29    9.30
   4   2  -7   75.99    9.20
  -4   2   7   77.49   11.60
  -3  -2   7  346.17   17.50
   3  -2  -7  296.27   18.10
  -3  -2   7  340.47   15.70
   3  -2  -7  368.36   18.00
   3  -2  -7  350.76   18.40
  -3  -2   7  344.57   17.60
   3  -2  -7  346.17   18.10
  -3  -2   7  347.67   17.90
  -3  -2   7  344.37   17.90
   3  -2  -7  353.56   18.30
   3  -2  -7  330.47   18.10
   3   2  -7  356.16   17.70
  -3   2   7  378.66   18.50
  -3   2   7  331.47   18.30
   3   2  -7  348.37   17.50
  -3   2   7  354.16   18.70
   3   2  -7  360.96   17.60
  -3   2   7  337.37   17.40
  -3   2   7  339.67   17.30
   3   2  -7  319.57   17.30
  -3   2   7  340.07   18.50
   3   2  -7  322.47   17.50
   3   2  -7  343.47   17.50
  -2  -2   7  386.76   17.30
   2  -2  -7  351.36   17.70
   2  -2  -7  368.66   17.90
  -2  -2   7  346.87   17.30
   2  -2  -7  374.46   18.10
   2  -2  -7  380.56   18.10
   2  -2  -7  349.67   17.60
   2  -2  -7  320.77   17.80
  -2  -2   7  358.76   17.40
  -2  -2   7  359.56   17.20
   2   2  -7  352.66   17.10
  -2   2   7  382.76   18.20
   2   2  -7  359.76   17.10
  -2   2   7  358.66   17.40
  -2   2   7  331.47   18.00
  -2   2   7  361.06   18.00
   2   2  -7  359.16   17.10
   2   2  -7  355.76   17.20
   2   2  -7  365.86   17.20
  -2   2   7  334.67   17.30
  -2   2   7  385.16   18.00
   2   2  -7  350.76   17.10
   1  -2  -7  986.20   40.70
  -1  -2   7 1004.70   39.90
   1  -2  -7  818.72   40.50
   1  -2  -7  800.32   40.30
  -1  -2   7  850.61   39.80
   1  -2  -7  825.32   40.30
   1  -2  -7  889.21   40.60
  -1  -2   7  760.32   39.80
   1  -2  -7  867.11   40.60
  -1   2   7  796.22   40.50
   1   2  -7  901.11   39.80
   1   2  -7  896.91   39.80
   1   2  -7  862.21   39.70
  -1   2   7  914.01   40.70
  -1   2   7  878.71   40.20
   1   2  -7  919.91   39.70
   1   2  -7 1010.70   39.80
   1   2  -7  898.61   39.80
  -1   2   7  920.41   40.70
  -1   2   7  867.91   40.60
  -1   2   7  836.32   40.20
   0  -2  -7  674.53   30.00
   0  -2  -7  618.74   29.60
   0  -2   7  640.74   29.40
   0  -2  -7  665.03   29.90
   0  -2   7  657.13   29.40
   0  -2   7  646.44   29.40
   0  -2  -7  632.34   29.90
   0  -2  -7  600.04   29.90
   0  -2  -7  648.24   29.70
   0  -2   7  556.74   29.30
   0   2  -7  653.13   29.40
   0   2   7  632.04   29.60
   0   2   7  631.94   29.90
   0   2  -7  731.63   29.50
   0   2   7  627.54   29.60
   0   2   7  692.43   30.00
   0   2  -7  639.34   29.20
   0   2   7  663.23   30.00
   0   2  -7  587.04   29.20
   0   2   7  593.44   29.80
   0   2  -7  637.94   29.30
   0   2  -7  675.93   29.40
   1  -2   7    2.50    1.90
   1  -2   7    4.90    2.20
  -1  -2  -7    4.80    2.00
   1  -2   7    1.30    1.70
  -1  -2  -7    4.50    2.10
   1  -2   7    5.40    1.70
   1  -2   7    5.40    2.10
  -1  -2  -7    5.10    1.70
  -1  -2  -7    5.50    2.10
   1  -2   7    4.20    1.40
  -1  -2  -7    5.00    2.00
  -1  -2  -7    4.20    2.00
   1   2   7    3.50    2.00
  -1   2  -7    3.60    1.90
  -1   2  -7    4.20    1.70
   1   2   7    5.50    2.00
  -1   2  -7    2.40    1.70
   1   2   7    2.60    2.10
   1   2   7    3.80    1.90
   1   2   7    1.20    2.10
  -1   2  -7    3.80    1.90
  -1   2  -7    2.10    1.90
   1   2   7    4.90    1.80
  -1   2  -7    0.30    1.40
   2  -2   7  496.55   26.40
  -2  -2  -7  537.55   26.50
  -2  -2  -7  526.35   26.00
   2  -2   7  555.24   25.70
   2  -2   7  536.65   25.90
  -2  -2  -7  571.24   26.10
  -2  -2  -7  529.35   26.60
  -2  -2  -7  484.35   26.10
   2  -2   7  523.15   26.50
  -2  -2  -7  485.05   26.30
   2  -2   7  515.95   26.10
   2  -2   7  570.34   26.60
  -2   2  -7  504.55   26.20
  -2   2  -7  531.05   26.50
   2   2   7  550.94   26.70
  -2   2  -7  541.65   26.40
   2   2   7  523.05   26.40
  -2   2  -7  554.54   26.10
   2   2   7  544.35   26.30
  -2   2  -7  540.05   26.00
   2   2   7  541.95   26.50
   2   2   7  563.04   26.20
  -2   2  -7  603.94   26.70
   2   2   7  540.55   25.90
   3  -2   7  961.60   45.50
   3  -2   7  899.31   44.80
   3  -2   7  974.30   44.60
   3  -2   7  810.92   44.00
  -3  -2  -7  980.30   44.80
   3  -2   7 1014.50   45.60
  -3  -2  -7  932.71   44.90
  -3  -2  -7  957.60   45.30
   3  -2   7  889.51   45.10
  -3  -2  -7  833.02   44.80
  -3  -2  -7 1010.10   45.60
   3   2   7  944.11   45.10
  -3   2  -7  926.01   45.50
   3   2   7  859.31   45.20
   3   2   7  965.80   44.70
  -3   2  -7  974.60   45.40
  -3   2  -7  974.10   45.00
  -3   2  -7  929.71   45.20
   3   2   7  898.71   44.90
  -3   2  -7  953.80   44.80
   3   2   7  932.51   45.20
  -4  -2  -7    0.90    6.50
   4  -2   7    4.70    6.20
   4  -2   7   -5.70    6.30
  -4  -2  -7    4.90    7.40
   4  -2   7  -15.40    7.50
   4  -2   7   -5.20    8.30
  -4  -2  -7   -5.10    7.60
  -4  -2  -7    4.20    8.40
  -4  -2  -7   12.30    6.60
   4  -2   7   -0.60    7.90
  -4  -2  -7    1.00    8.10
   4  -2   7   -0.20    7.80
   4   2   7    0.70    7.80
  -4   2  -7  -12.70    7.80
   4   2   7   -7.20    5.10
  -4   2  -7  -13.80    7.00
   4   2   7   -0.20    6.90
  -4   2  -7    3.30    6.50
  -4   2  -7   -5.90    7.70
  -4   2  -7   -7.50    7.60
   4   2   7   -1.30    6.50
   4   2   7   -4.50    6.90
  -4   2  -7    2.40    7.40
   4   2   7   -8.40    7.20
   4  -3  -7    3.50    6.60
  -4  -3   7    0.10    4.10
   4  -3  -7   -2.70    5.40
   4  -3  -7   -2.40    6.10
  -4  -3   7    6.70    5.40
   4  -3  -7    3.60    5.70
   4  -3  -7   -4.20    5.50
  -4  -3   7    3.50    5.10
   4  -3  -7    5.60    6.30
  -4  -3   7    4.40    5.80
  -4   3   7   -1.80    5.00
   4   3  -7    5.00    4.90
  -4   3   7    5.60    6.40
   4   3  -7   10.60    5.00
  -4   3   7    3.30    5.50
   4   3  -7   -0.30    4.60
   4   3  -7    0.30    5.20
  -4   3   7    7.80    7.20
   4   3  -7    7.70    4.80
  -4   3   7    4.00    6.70
   4   3  -7   12.80    5.70
  -4   3   7    6.00    4.70
   3  -3  -7  103.29    8.00
  -3  -3   7  103.29    7.50
   3  -3  -7  103.29    8.40
   3  -3  -7   80.69    8.30
  -3  -3   7  109.09    7.50
  -3  -3   7   92.49    6.80
   3  -3  -7   90.39    8.50
   3  -3  -7   86.19    8.40
   3  -3  -7   87.49    7.80
  -3  -3   7   86.39    6.90
  -3   3   7   91.79    9.10
   3   3  -7   86.69    6.80
   3   3  -7   98.09    7.20
   3   3  -7   99.89    6.80
  -3   3   7  104.99    8.60
  -3   3   7   86.89    8.20
   3   3  -7   93.29    7.00
   3   3  -7   91.49    6.70
  -3   3   7   90.69    7.20
   3   3  -7  103.79    7.00
   2  -3  -7  168.68    9.90
   2  -3  -7  173.08    9.70
  -2  -3   7  165.78    8.80
  -2  -3   7  165.78    8.80
   2  -3  -7  172.18    9.90
   2  -3  -7  172.68    9.50
   2  -3  -7  178.08    9.90
   2  -3  -7  168.98    9.70
  -2  -3   7  138.19    8.60
  -2  -3   7  179.28    8.60
  -2   3   7  167.88    9.40
   2   3  -7  172.78    8.70
  -2   3   7  161.48   10.00
  -2   3   7  159.18    9.90
  -2   3   7  177.48    9.30
  -2   3   7  165.08    9.90
   2   3  -7  165.78    8.60
   2   3  -7  171.58    8.70
   2   3  -7  166.48    8.50
   2   3  -7  181.88    8.60
  -2   3   7  150.48    9.70
   2   3  -7  167.18    8.70
   1  -3  -7  143.69    8.70
  -1  -3   7  153.58    7.50
   1  -3  -7  149.29    8.70
   1  -3  -7  160.98    8.50
  -1  -3   7  150.58    7.60
   1  -3  -7  153.18    8.60
  -1  -3   7  157.38    7.60
  -1  -3   7  178.48    7.60
   1  -3  -7  141.29    8.70
   1   3  -7  161.18    7.40
   1   3  -7  151.68    7.30
   1   3  -7  155.98    7.40
  -1   3   7  166.78    8.80
  -1   3   7  157.68    8.40
   1   3  -7  163.78    7.40
   1   3  -7  167.18    7.50
  -1   3   7  156.58    8.40
  -1   3   7  165.58    9.00
  -1   3   7  171.08    8.90
  -1   3   7  172.58    9.10
   1   3  -7  144.89    7.30
   0  -3  -7   19.30    3.00
   0  -3  -7   21.50    3.30
   0  -3  -7   21.30    3.10
   0  -3  -7   21.40    2.80
   0  -3   7   21.30    2.20
   0  -3   7   22.50    2.30
   0  -3   7   22.50    2.40
   0  -3   7   22.00    2.20
   0  -3  -7   20.10    2.90
   0  -3  -7   25.80    3.30
   0   3   7   23.40    2.90
   0   3  -7   20.70    1.90
   0   3  -7   24.30    2.30
   0   3  -7   20.80    2.30
   0   3   7   20.70    2.90
   0   3  -7   22.00    2.10
   0   3   7   21.40    3.40
   0   3   7   20.40    2.60
   0   3  -7   21.90    2.10
   0   3  -7   19.20    2.20
   0   3   7   23.80    3.30
  -1  -3  -7  346.87   17.20
  -1  -3  -7  396.46   17.70
  -1  -3  -7  329.97   17.30
   1  -3   7  355.46   16.60
  -1  -3  -7  328.17   17.40
   1  -3   7  377.06   17.40
   1  -3   7  341.67   17.20
   1  -3   7  336.57   17.10
   1  -3   7  335.47   16.50
  -1  -3  -7  351.56   17.20
   1  -3   7  312.17   17.10
  -1  -3  -7  379.26   17.70
   1   3   7  357.36   17.20
   1   3   7  383.86   17.60
   1   3   7  328.67   17.30
  -1   3  -7  342.67   16.80
  -1   3  -7  365.86   17.20
  -1   3  -7  300.97   17.00
   1   3   7  339.67   17.10
  -1   3  -7  341.77   17.10
  -1   3  -7  361.96   17.30
   1   3   7  362.96   17.60
  -1   3  -7  349.17   16.90
   1   3   7  362.76   17.70
   2  -3   7  490.75   24.90
  -2  -3  -7  551.04   25.40
  -2  -3  -7  519.15   25.20
   2  -3   7  495.65   25.20
   2  -3   7  503.15   24.50
  -2  -3  -7  549.25   25.50
  -2  -3  -7  520.95   25.50
  -2  -3  -7  523.35   24.80
   2  -3   7  491.35   25.20
   2  -3   7  525.35   24.40
  -2  -3  -7  498.45   24.80
   2  -3   7  489.45   25.10
   2   3   7  503.05   24.90
  -2   3  -7  479.45   24.70
  -2   3  -7  534.85   25.50
   2   3   7  496.45   25.00
   2   3   7  481.65   25.20
  -2   3  -7  516.65   24.80
   2   3   7  461.05   24.50
  -2   3  -7  500.95   25.10
   2   3   7  507.45   25.40
   2   3   7  546.75   25.30
  -2   3  -7  458.65   24.80
  -2   3  -7  516.55   25.20
  -3  -3  -7   27.90    5.70
  -3  -3  -7   20.20    5.10
   3  -3   7   16.90    5.20
   3  -3   7   10.60    3.80
   3  -3   7   22.10    5.40
  -3  -3  -7   20.20    5.40
   3  -3   7   19.80    4.80
  -3  -3  -7   15.80    5.50
  -3  -3  -7   21.70    5.50
   3  -3   7   20.70    5.40
   3  -3   7    9.30    5.30
   3   3   7   22.70    5.80
  -3   3  -7   11.20    5.70
   3   3   7   15.00    4.80
   3   3   7   18.30    6.10
  -3   3  -7   15.20    5.00
  -3   3  -7   22.20    5.80
   3   3   7   15.30    4.90
  -3   3  -7   13.80    4.50
   3   3   7   13.10    4.60
  -3   3  -7   11.20    5.10
  -3   3  -7   27.00    5.80
  -4  -3  -7   87.29    9.90
  -4  -3  -7  105.09   13.70
  -4  -3  -7  119.39   13.30
   4  -3   7  113.39   12.80
  -4  -3  -7   96.29   12.70
   4  -3   7   97.39   12.40
   4  -3   7  112.09   15.00
  -4  -3  -7   92.69   11.70
   4  -3   7   92.49   14.00
   4  -3   7   99.09   11.80
  -4  -3  -7   93.29   11.50
   4  -3   7  107.99   12.70
  -4   3  -7  106.29   13.70
   4   3   7  104.59   13.20
  -4   3  -7   98.69   14.20
  -4   3  -7  101.69   12.40
  -4   3  -7  127.19   14.20
   4   3   7   99.99   14.60
  -4   3  -7  107.69   14.70
   4   3   7   94.59   11.80
   4   3   7  104.79   13.30
  -4   3  -7  102.79   12.10
   4   3   7   79.89   10.80
   4  -4  -7  219.98   15.40
  -4  -4   7  202.98   14.20
   4  -4  -7  208.38   15.80
  -4  -4   7  197.08   13.90
   4  -4  -7  184.68   15.30
   4  -4  -7  216.38   14.50
   4  -4  -7  206.48   14.60
   4  -4  -7  202.38   15.90
   4   4  -7  206.08   13.00
  -4   4   7  205.88   16.60
   4   4  -7  204.58   14.20
   4   4  -7  206.58   13.10
   4   4  -7  202.78   13.70
   4   4  -7  202.38   13.30
   4   4  -7  196.98   13.20
  -4   4   7  236.78   15.90
  -4   4   7  205.08   15.60
  -4   4   7  203.38   13.70
  -4   4   7  194.98   16.40
  -3  -4   7   27.70    3.60
   3  -4  -7   33.90    4.90
  -3  -4   7   22.80    3.80
   3  -4  -7   37.50    5.40
  -3  -4   7   29.30    4.10
  -3  -4   7   22.00    3.70
   3  -4  -7   31.20    5.60
   3  -4  -7   29.10    5.10
   3  -4  -7   16.90    4.30
   3  -4  -7   38.80    5.60
  -3   4   7   32.60    5.90
   3   4  -7   30.70    4.50
   3   4  -7   28.80    3.90
  -3   4   7   24.90    4.60
  -3   4   7   27.20    4.50
   3   4  -7   27.80    3.70
   3   4  -7   32.50    4.20
  -3   4   7   32.00    4.30
   3   4  -7   21.50    3.50
   3   4  -7   31.20    4.30
  -3   4   7   36.10    5.50
  -2  -4   7  107.39    5.70
  -2  -4   7  106.89    5.90
  -2  -4   7  107.29    5.90
   2  -4  -7  104.09    7.10
   2  -4  -7  104.59    7.40
   2  -4  -7  110.29    7.40
   2  -4  -7  121.39    7.70
   2  -4  -7  103.49    7.20
   2  -4  -7   95.69    7.40
   2   4  -7  104.19    5.50
  -2   4   7  116.49    7.80
   2   4  -7   96.59    5.50
   2   4  -7  110.49    5.80
  -2   4   7   88.19    7.60
   2   4  -7  101.09    5.60
  -2   4   7  105.99    7.00
  -2   4   7   99.99    7.50
   2   4  -7   96.99    5.50
  -2   4   7   96.29    6.90
   2   4  -7  101.89    5.90
  -2   4   7  118.89    7.70
   1  -4  -7 2570.24  113.99
   1  -4  -7 2753.32  113.89
   1  -4  -7 2603.34  113.79
   1  -4  -7 2247.18  113.89
   1  -4  -7 2298.27  113.89
  -1   4   7 2675.13  114.19
  -1   4   7 2262.27  113.79
  -1   4   7 2532.95  113.69
  -1   4   7 2713.63  114.19
  -1   4   7 2523.15  114.09
  -1   4   7 2609.34  113.69
   0  -4   7   80.69    4.60
   0  -4  -7   86.89    5.60
   0  -4   7   77.69    4.60
   0  -4  -7   82.39    5.70
   0  -4  -7   86.69    5.50
   0  -4  -7   77.49    5.70
   0  -4  -7   86.59    5.90
   0  -4  -7   84.79    5.40
   0  -4   7   81.89    4.70
   0   4  -7   80.19    4.50
   0   4   7   76.79    5.80
   0   4  -7   86.59    4.70
   0   4   7   91.49    5.80
   0   4   7   88.99    5.90
   0   4   7   86.19    5.40
   0   4   7   81.99    5.40
   0   4  -7   77.79    4.50
   0   4  -7   83.99    4.40
  -1  -4  -7  621.44   31.70
   1  -4   7  761.12   30.80
  -1  -4  -7  669.23   31.50
  -1  -4  -7  747.43   32.10
   1  -4   7  650.83   31.50
  -1  -4  -7  675.43   31.60
   1  -4   7  751.12   31.60
   1  -4   7  705.83   31.50
  -1  -4  -7  635.64   31.80
   1  -4   7  678.93   30.80
   1  -4   7  664.43   31.40
  -1  -4  -7  594.14   31.60
  -1   4  -7  707.33   31.20
   1   4   7  647.64   31.50
   1   4   7  653.13   31.70
  -1   4  -7  657.93   31.20
  -1   4  -7  692.23   31.40
   1   4   7  630.34   31.80
   1   4   7  670.03   31.80
   1   4   7  649.24   31.90
  -1   4  -7  648.94   31.50
   1   4   7  643.44   31.40
  -1   4  -7  670.13   31.40
  -2  -4  -7   -0.10    2.90
  -2  -4  -7   -0.10    2.50
  -2  -4  -7    1.40    3.20
  -2  -4  -7    1.60    3.10
   2  -4   7   -4.60    3.00
   2  -4   7    0.40    3.10
  -2  -4  -7   -0.70    3.00
  -2  -4  -7   -0.60    2.40
   2  -4   7    1.50    2.90
   2  -4   7    1.20    2.30
   2  -4   7    1.00    2.80
   2  -4   7   -1.80    2.00
  -2   4  -7   -2.40    2.60
   2   4   7    0.30    2.80
   2   4   7   -1.70    3.30
  -2   4  -7   -0.70    3.30
  -2   4  -7    0.60    2.90
  -2   4  -7    3.40    3.30
  -2   4  -7   -5.10    2.60
   2   4   7    0.40    2.90
   2   4   7    5.40    3.70
   2   4   7   -2.60    2.90
  -2   4  -7   -1.50    2.90
   2   4   7    1.20    2.40
   3  -4   7  208.08   14.60
   3  -4   7  199.68   14.30
  -3  -4  -7  214.98   13.60
  -3  -4  -7  217.68   13.80
   3  -4   7  212.18   14.40
  -3  -4  -7  199.88   14.20
  -3  -4  -7  236.18   14.80
   3  -4   7  219.48   13.30
  -3  -4  -7  206.78   13.80
  -3   4  -7  225.08   14.40
   3   4   7  221.78   13.80
  -3   4  -7  186.78   13.60
   3   4   7  227.08   15.00
  -3   4  -7  207.18   13.80
   3   4   7  215.08   13.90
   3   4   7  199.38   13.90
  -3   4  -7  203.18   14.20
   3   4   7  216.18   13.60
  -3   4  -7  230.58   14.90
  -3   4  -7  222.38   13.60
  -4  -4  -7   -3.50    6.20
  -4  -4  -7    9.40    9.00
  -4  -4  -7    2.00    8.30
  -4  -4  -7    7.10    7.90
   4  -4   7    4.70    5.90
   4  -4   7   -6.80    7.20
   4  -4   7   -2.40    7.70
   4  -4   7    0.30    7.20
   4  -4   7  -10.70    6.20
  -4  -4  -7    4.50    6.80
   4  -4   7    8.30    8.80
  -4  -4  -7    6.00    7.90
   4   4   7   15.50    8.60
  -4   4  -7    4.30    8.10
  -4   4  -7   -6.00    7.90
   4   4   7    6.90    7.20
  -4   4  -7   -3.80    7.00
   4   4   7    6.60    7.70
  -4   4  -7   15.60    8.90
   4   4   7   -6.30    8.00
   4  -5  -7  190.98   14.80
   4  -5  -7  202.08   15.90
  -4  -5   7  214.68   14.00
   4  -5  -7  194.48   16.40
   4  -5  -7  198.48   15.00
  -4  -5   7  199.38   13.70
   4  -5  -7  200.58   16.20
   4  -5  -7  201.78   17.00
  -4   5   7  230.08   16.50
  -4   5   7  225.28   14.40
  -4   5   7  207.38   17.10
  -4   5   7  221.78   16.50
  -4   5   7  215.38   16.70
   4   5  -7  204.08   12.60
   4   5  -7  215.08   12.90
   4   5  -7  184.98   12.60
   4   5  -7  199.98   13.50
  -4   5   7  193.78   15.10
   4   5  -7  195.48   13.10
   4   5  -7  215.18   14.10
   3  -5  -7  894.81   45.40
   3  -5  -7  953.50   45.80
   3  -5  -7  978.90   45.10
  -3  -5   7  849.52   43.80
   3  -5  -7  963.90   45.40
  -3  -5   7  958.20   44.00
   3  -5  -7  997.30   45.70
   3  -5  -7  997.30   45.60
  -3  -5   7 1010.50   43.90
   3   5  -7  953.00   43.70
   3   5  -7  969.00   44.10
   3   5  -7 1004.80   43.70
  -3   5   7  983.30   45.50
   3   5  -7  859.51   43.50
  -3   5   7  990.90   44.80
  -3   5   7  867.91   45.70
  -3   5   7  948.01   44.90
   3   5  -7  966.80   44.10
   3   5  -7  962.20   43.80
  -3   5   7  896.21   45.40
   2  -5  -7  296.17   15.80
  -2  -5   7  306.47   13.80
  -2  -5   7  300.37   13.90
  -2  -5   7  302.87   13.70
   2  -5  -7  285.07   15.70
  -2  -5   7  297.47   13.80
   2  -5  -7  286.17   15.20
   2  -5  -7  289.17   15.40
   2  -5  -7  305.27   15.70
   2  -5  -7  240.08   15.30
   2   5  -7  288.07   13.50
   2   5  -7  281.57   13.90
  -2   5   7  296.07   15.80
  -2   5   7  284.67   15.90
  -2   5   7  298.77   15.10
  -2   5   7  286.47   15.20
  -2   5   7  252.07   15.40
  -2   5   7  325.67   15.90
   2   5  -7  324.67   13.40
   2   5  -7  285.77   13.40
   1  -5  -7  194.08   10.50
   1  -5  -7  180.58   10.10
   1  -5  -7  150.58   10.20
   1  -5  -7  172.98   10.20
   1  -5  -7  182.38   10.20
  -1   5   7  215.08   10.80
  -1   5   7  181.68   10.40
  -1   5   7  181.08   10.50
  -1   5   7  184.78   10.00
  -1   5   7  194.18   10.40
  -1   5   7  194.68   10.10
   0  -5   7  130.79    6.80
   0  -5  -7  128.59    8.00
   0  -5  -7  145.99    8.30
   0  -5   7  140.59    6.80
   0  -5  -7  121.99    8.00
   0  -5  -7  120.59    7.80
   0  -5   7  129.69    6.70
   0  -5  -7  131.99    7.70
   0  -5  -7  144.89    7.80
   0   5   7  130.29    8.10
   0   5   7  130.19    8.00
   0   5  -7  134.49    6.50
   0   5  -7  125.99    6.60
   0   5   7  124.89    7.90
   0   5   7  138.99    7.80
   0   5   7  153.08    8.30
   0   5  -7  130.19    6.70
   0   5  -7  133.59    6.60
   0   5   7  127.59    7.70
   0   5  -7  125.79    6.60
   0   5  -7  128.39    6.50
  -1  -5  -7   30.90    4.50
   1  -5   7   19.90    2.50
  -1  -5  -7   27.90    3.90
   1  -5   7   23.40    3.10
  -1  -5  -7   26.20    3.40
  -1  -5  -7   26.80    3.70
   1  -5   7   18.60    3.60
   1  -5   7   24.00    3.50
  -1  -5  -7   20.10    3.40
   1  -5   7   22.80    2.40
   1  -5   7   20.80    3.00
  -1  -5  -7   22.90    3.40
   1   5   7   28.70    3.90
   1   5   7   24.80    3.20
  -1   5  -7   21.50    3.10
   1   5   7   31.30    4.20
   1   5   7   26.10    3.70
  -1   5  -7   23.00    3.10
  -1   5  -7   18.10    2.80
  -1   5  -7   22.10    2.70
   1   5   7   23.10    3.40
   1   5   7   24.00    3.40
  -1   5  -7   25.60    3.80
  -2  -5  -7  148.69    9.80
   2  -5   7  138.59    9.50
  -2  -5  -7  161.48    9.60
  -2  -5  -7  167.48   10.20
  -2  -5  -7  148.49    9.30
  -2  -5  -7  138.89    9.30
   2  -5   7  128.59    9.50
   2  -5   7  154.08    8.70
   2  -5   7  146.69    8.80
   2  -5   7  147.59    9.50
   2  -5   7  126.29    9.60
  -2  -5  -7  154.58   10.20
   2   5   7  156.98   10.00
  -2   5  -7  134.69    9.60
  -2   5  -7  143.89    9.30
   2   5   7  146.79    9.70
  -2   5  -7  130.19    9.60
  -2   5  -7  160.98   10.20
   2   5   7  158.08    9.80
  -2   5  -7  139.69    9.70
   2   5   7  157.78   10.50
   2   5   7  142.89    9.10
   2   5   7  135.79   10.10
  -2   5  -7  136.29    9.30
  -3  -5  -7  217.98   13.60
  -3  -5  -7  198.68   14.40
   3  -5   7  190.08   14.00
  -3  -5  -7  222.48   14.20
  -3  -5  -7  205.48   14.60
   3  -5   7  205.88   14.40
   3  -5   7  205.98   14.30
  -3  -5  -7  207.48   14.30
   3  -5   7  219.88   13.10
   3  -5   7  231.38   14.50
   3   5   7  213.38   14.80
  -3   5  -7  220.68   14.70
  -3   5  -7  190.18   14.00
   3   5   7  223.68   13.70
  -3   5  -7  186.68   14.00
  -3   5  -7  220.88   13.90
  -3   5  -7  205.78   14.40
   3   5   7  203.98   14.40
   3   5   7  198.68   13.60
  -3   5  -7  211.18   13.60
   3   5   7  214.48   14.20
  -4  -5  -7   32.20    9.00
   4  -5   7   13.00    8.50
   4  -5   7   17.50    8.40
  -4  -5  -7   30.20    9.00
  -4  -5  -7   30.10   10.10
  -4  -5  -7   23.80    7.70
   4  -5   7   34.30    9.80
   4  -5   7   17.20    6.30
  -4  -5  -7   30.70    7.80
  -4   5  -7   16.80    9.20
   4   5   7   32.40    9.20
  -4   5  -7   15.10    9.20
  -4   5  -7   26.40    9.50
   4   5   7   21.90    8.00
   4   5   7   28.20    8.90
  -4  -6   7   -1.00    6.80
  -4  -6   7   -4.00    4.00
   4  -6  -7    6.10    6.80
   4  -6  -7   12.40    6.40
  -4  -6   7   12.70    5.80
  -4  -6   7   15.40    5.00
   4  -6  -7    3.80    7.00
   4  -6  -7    7.10    8.20
   4  -6  -7    3.40    7.30
   4   6  -7    8.40    4.40
  -4   6   7    3.50    6.40
  -4   6   7    8.20    8.60
   4   6  -7   14.50    5.60
   4   6  -7   15.00    4.60
  -4   6   7    8.90    7.80
   4   6  -7    6.40    5.70
   4   6  -7    8.50    4.70
  -4   6   7   12.00    8.20
   4   6  -7    5.10    6.70
   3  -6  -7   32.90    5.80
   3  -6  -7   29.80    5.90
   3  -6  -7   21.90    5.70
  -3  -6   7   30.50    3.60
  -3  -6   7   30.80    3.90
   3  -6  -7   31.70    5.80
   3  -6  -7   26.40    6.10
  -3  -6   7   25.90    3.80
   3  -6  -7   21.80    4.70
  -3   6   7   24.60    4.80
   3   6  -7   26.50    3.90
  -3   6   7   33.00    6.10
  -3   6   7   32.00    6.30
   3   6  -7   32.20    4.00
  -3   6   7   31.00    5.50
   3   6  -7   37.70    4.10
   3   6  -7   27.70    3.40
  -3   6   7   25.10    5.30
   3   6  -7   32.20    3.90
   3   6  -7   28.00    3.90
  -2  -6   7   17.40    2.20
   2  -6  -7   22.10    3.90
   2  -6  -7   22.20    3.60
   2  -6  -7   15.30    3.70
   2  -6  -7   17.80    4.00
  -2  -6   7   24.30    2.20
   2  -6  -7   26.10    4.20
  -2  -6   7   19.10    1.80
   2  -6  -7   28.10    4.70
  -2  -6   7   20.90    1.90
  -2   6   7   31.60    5.00
  -2   6   7   22.40    4.10
  -2   6   7   21.30    3.50
   2   6  -7   20.80    2.70
  -2   6   7   31.60    5.10
  -2   6   7   20.50    3.60
   2   6  -7   19.70    2.50
  -2   6   7   25.80    4.60
   1  -6  -7  383.96   19.10
   1  -6  -7  394.06   19.50
   1  -6  -7  362.56   19.40
   1  -6  -7  386.36   19.10
   1  -6  -7  381.26   19.50
  -1   6   7  399.86   19.10
  -1   6   7  375.26   19.30
  -1   6   7  387.96   19.50
  -1   6   7  366.66   19.40
  -1   6   7  367.16   19.00
  -1   6   7  427.96   19.50
   0  -6   7 1148.49   51.49
   0  -6   7 1174.78   51.49
   0  -6  -7 1147.39   52.89
   0  -6  -7 1185.28   52.49
   0  -6  -7 1033.80   52.69
   0  -6   7 1179.58   51.49
   0  -6  -7 1142.39   52.79
   0  -6  -7 1166.48   52.59
   0  -6  -7 1147.89   52.79
   0   6  -7 1152.58   51.39
   0   6   7 1084.49   52.69
   0   6  -7 1143.19   51.29
   0   6  -7 1073.99   51.29
   0   6   7 1169.28   52.89
   0   6  -7 1154.98   51.39
   0   6  -7 1104.59   51.29
   0   6   7 1107.49   52.39
   0   6  -7 1157.98   51.39
   0   6   7 1231.18   52.99
   0   6   7 1151.08   52.89
   0   6   7 1121.29   52.39
   1  -6   7  363.76   17.70
   1  -6   7  340.07   17.60
   1  -6   7  377.26   18.70
   1  -6   7  371.96   18.70
  -1  -6  -7  381.86   19.40
  -1  -6  -7  385.16   18.90
  -1  -6  -7  368.76   18.90
  -1  -6  -7  393.06   19.60
  -1  -6  -7  403.26   19.50
   1  -6   7  381.16   18.80
  -1  -6  -7  368.06   19.40
   1   6   7  412.96   19.70
   1   6   7  372.26   19.00
  -1   6  -7  368.06   18.40
   1   6   7  377.96   18.90
  -1   6  -7  385.36   18.80
  -1   6  -7  377.66   18.60
  -1   6  -7  408.86   18.70
   1   6   7  359.66   19.20
  -1   6  -7  440.26   19.00
  -1   6  -7  372.36   18.50
   1   6   7  391.06   19.50
   1   6   7  371.26   19.30
   2  -6   7  687.33   31.80
  -2  -6  -7  637.84   32.80
  -2  -6  -7  668.63   32.30
   2  -6   7  705.73   32.80
  -2  -6  -7  679.93   32.50
   2  -6   7  740.23   33.00
  -2  -6  -7  624.84   32.50
   2  -6   7  713.83   31.80
   2  -6   7  664.13   32.80
  -2  -6  -7  706.93   33.30
   2  -6   7  640.64   32.60
  -2  -6  -7  671.43   32.90
   2   6   7  642.04   32.90
  -2   6  -7  676.43   32.40
  -2   6  -7  582.54   32.00
   2   6   7  671.73   32.70
   2   6   7  682.23   32.40
   2   6   7  686.43   32.60
  -2   6  -7  717.73   33.00
  -2   6  -7  699.73   32.70
   2   6   7  690.23   33.30
  -2   6  -7  627.44   32.60
   2   6   7  638.04   32.80
  -2   6  -7  696.63   32.80
   3  -6   7   44.90    7.40
   3  -6   7   42.70    5.70
  -3  -6  -7   50.39    7.70
   3  -6   7   24.20    8.50
  -3  -6  -7   36.20    5.90
  -3  -6  -7   40.70    6.60
   3  -6   7   42.90    7.50
  -3  -6  -7   41.40    6.90
  -3  -6  -7   39.30    6.70
   3  -6   7   40.10    7.20
  -3   6  -7   37.70    6.80
  -3   6  -7   41.00    7.40
  -3   6  -7   44.00    7.50
  -3   6  -7   43.40    7.30
   3   6   7   41.50    6.10
   3   6   7   46.00    7.30
   3   6   7   40.50    6.60
   3   6   7   53.59    7.20
   3   6   7   34.50    6.50
   3   6   7   40.50    7.30
  -3   6  -7   43.70    6.80
  -3   6  -7   44.30    6.80
   3  -7  -7  210.08   14.10
  -3  -7   7  187.38   10.60
   3  -7  -7  213.28   13.70
   3  -7  -7  215.88   13.00
   3  -7  -7  205.18   14.30
   3  -7  -7  173.38   13.40
   3  -7  -7  203.78   13.60
   3   7  -7  204.48    9.90
  -3   7   7  197.88   14.50
  -3   7   7  200.48   12.80
   3   7  -7  182.28    9.90
   3   7  -7  194.28   11.10
   3   7  -7  190.98   10.10
  -3   7   7  185.38   13.60
   3   7  -7  177.08    9.90
  -3   7   7  201.28   13.80
  -3   7   7  201.38   14.70
   2  -7  -7    6.20    3.10
   2  -7  -7    7.10    3.40
  -2  -7   7    5.50    1.20
   2  -7  -7    9.10    3.90
  -2  -7   7    7.20    1.20
   2  -7  -7   10.40    4.10
   2  -7  -7    9.00    3.40
   2  -7  -7    0.30    3.50
  -2   7   7    6.60    4.00
   2   7  -7    7.30    1.70
  -2   7   7    5.40    3.70
   2   7  -7    7.80    1.70
  -2   7   7    8.90    3.00
  -2   7   7    5.90    3.40
  -2   7   7    7.90    4.00
  -2   7   7    2.40    3.70
   1  -7  -7  228.38   12.30
   1  -7  -7  190.08   12.20
   1  -7  -7  224.38   12.80
   1  -7  -7  212.18   12.30
   1  -7  -7  223.48   12.20
   1  -7  -7  236.48   12.70
  -1   7   7  249.68   12.90
  -1   7   7  237.98   12.60
  -1   7   7  215.48   12.10
  -1   7   7  212.78   12.60
  -1   7   7  208.48   12.50
  -1   7   7  222.38   12.20
   0  -7  -7  577.14   27.50
   0  -7   7  569.94   25.80
   0  -7  -7  552.94   26.90
   0  -7   7  573.14   25.80
   0  -7  -7  556.04   26.90
   0  -7   7  575.84   25.90
   0  -7  -7  576.34   27.50
   0  -7  -7  569.14   27.30
   0  -7  -7  529.35   27.20
   0   7  -7  622.14   25.60
   0   7  -7  535.75   25.70
   0   7   7  566.04   27.30
   0   7  -7  559.14   25.70
   0   7   7  542.95   27.30
   0   7   7  559.94   26.90
   0   7   7  585.94   27.50
   0   7   7  562.64   26.90
   0   7  -7  541.65   25.70
   0   7  -7  551.64   25.50
   0   7   7  524.25   27.30
   0   7  -7  561.94   25.70
   1  -7   7  244.08   13.50
  -1  -7  -7  258.47   13.90
   1  -7   7  266.47   12.40
  -1  -7  -7  253.77   13.90
  -1  -7  -7  272.17   14.50
  -1  -7  -7  245.98   14.40
   1  -7   7  251.27   13.60
   1  -7   7  269.77   12.40
  -1  -7  -7  273.57   14.50
  -1  -7  -7  256.27   14.40
   1  -7   7  259.67   13.60
   1   7   7  265.27   14.50
  -1   7  -7  259.77   13.40
  -1   7  -7  267.47   13.70
   1   7   7  261.47   14.70
   1   7   7  263.47   14.50
  -1   7  -7  274.87   13.60
   1   7   7  273.37   14.50
   1   7   7  255.27   14.00
  -1   7  -7  252.27   13.30
   1   7   7  266.77   14.00
  -1   7  -7  269.27   13.40
  -1   7  -7  264.97   13.70
   2  -7   7  562.94   32.30
  -2  -7  -7  689.13   32.30
   2  -7   7  664.23   32.50
  -2  -7  -7  687.63   33.10
  -2  -7  -7  640.54   32.60
  -2  -7  -7  612.64   32.60
   2  -7   7  664.93   31.40
   2  -7   7  656.03   31.40
  -2  -7  -7  665.23   32.10
   2  -7   7  676.83   32.60
  -2  -7  -7  701.73   32.80
   2  -7   7  660.03   32.60
  -2   7  -7  699.63   32.60
   2   7   7  691.83   33.00
   2   7   7  661.63   32.70
   2   7   7  663.73   33.10
  -2   7  -7  649.54   32.40
   2   7   7  690.23   32.70
  -2   7  -7  715.03   32.80
  -2   7  -7  646.04   32.40
   2   7   7  673.23   32.30
  -2   7  -7  667.53   32.10
   2   7   7  683.43   32.50
  -3  -7  -7    1.00    5.70
  -3  -7  -7    1.80    5.20
  -3  -7  -7   -0.10    4.70
  -3  -7  -7   11.90    6.30
   3  -7   7   -2.10    5.40
   3  -7   7    2.60    5.70
   3  -7   7   -2.60    4.20
   3  -7   7    3.40    5.90
  -3  -7  -7    9.90    5.00
  -3  -7  -7    1.70    5.90
   3  -7   7   -2.40    4.20
   3  -7   7    3.80    6.80
   3   7   7    3.00    5.00
  -3   7  -7    9.90    6.30
   3   7   7    0.80    5.90
  -3   7  -7   -5.50    5.00
   3   7   7   15.80    5.40
  -3   7  -7    8.50    6.00
  -3   7  -7    4.80    5.30
  -3   7  -7    2.30    6.20
  -3   7  -7   10.60    6.30
   3   7   7    3.10    5.70
   3   7   7    3.30    4.90
   3   7   7    2.30    4.50
   3  -8  -7  225.78   15.10
   3  -8  -7  200.18   15.30
   3  -8  -7  229.48   14.40
   3  -8  -7  238.38   15.80
  -3  -8   7  217.98   11.70
   3  -8  -7  225.08   15.10
   3  -8  -7  230.08   14.60
   3   8  -7  218.48   10.90
   3   8  -7  207.18   11.00
  -3   8   7  200.08   16.10
  -3   8   7  233.88   15.00
   3   8  -7  233.08   12.30
  -3   8   7  220.58   15.50
  -3   8   7  231.78   15.30
  -3   8   7  242.58   15.60
  -3   8   7  225.48   14.50
   3   8  -7  217.38   12.30
   3   8  -7  232.28   10.70
   2  -8  -7 2096.29   93.99
   2  -8  -7 1880.51   94.29
   2  -8  -7 2101.29   94.79
   2  -8  -7 2096.09   94.69
   2  -8  -7 2256.47   94.79
  -2   8   7 2183.78   94.79
   2   8  -7 2057.39   92.19
  -2   8   7 2150.18   93.99
  -2   8   7 2154.18   94.19
   2   8  -7 2048.99   92.19
  -2   8   7 1914.71   94.49
  -2   8   7 1868.31   94.59
  -2   8   7 1951.60   94.39
   1  -8  -7   74.29    6.10
   1  -8  -7   68.99    6.50
   1  -8  -7   57.39    6.50
   1  -8  -7   73.79    6.80
   1  -8  -7   58.69    6.20
   1  -8  -7   67.99    6.70
  -1   8   7   63.59    6.70
  -1   8   7   77.19    6.90
  -1   8   7   57.39    5.90
  -1   8   7   54.19    5.90
  -1   8   7   55.29    6.60
  -1   8   7   69.59    6.70
   0  -8  -7  184.58   11.00
   0  -8   7  183.68    9.10
   0  -8  -7  165.88   10.50
   0  -8   7  180.58    9.10
   0  -8  -7  183.68   10.90
   0  -8  -7  183.28   10.40
   0  -8  -7  185.18   10.50
   0  -8   7  184.28    8.90
   0  -8  -7  169.68   10.60
   0   8  -7  177.58    8.90
   0   8  -7  170.88    8.70
   0   8  -7  179.18    9.00
   0   8  -7  196.68    8.80
   0   8   7  174.98   11.10
   0   8  -7  177.18    8.90
   0   8   7  161.78   10.30
   0   8  -7  180.78    8.90
   0   8   7  188.88   10.60
   0   8   7  179.88   10.70
   0   8   7  170.08   10.90
   0   8   7  172.38   10.90
   1  -8   7 1370.56   62.59
   1  -8   7 1359.36   61.29
  -1  -8  -7 1504.95   63.79
   1  -8   7 1400.76   62.69
   1  -8   7 1363.26   61.29
   1  -8   7 1283.87   62.59
  -1  -8  -7 1370.36   63.49
  -1  -8  -7 1377.66   62.99
  -1  -8  -7 1410.96   63.49
  -1  -8  -7 1380.76   63.59
   1  -8   7 1387.16   62.69
  -1  -8  -7 1181.58   62.69
  -1   8  -7 1382.96   62.69
  -1   8  -7 1353.96   62.39
   1   8   7 1382.36   63.09
  -1   8  -7 1376.06   62.49
   1   8   7 1432.76   63.59
   1   8   7 1365.76   63.49
   1   8   7 1398.86   63.69
  -1   8  -7 1378.56   62.39
   1   8   7 1346.47   63.09
  -1   8  -7 1273.47   62.49
  -1   8  -7 1396.56   62.69
   2  -8   7   76.59    7.80
   2  -8   7   77.89    5.90
  -2  -8  -7   81.39    8.50
   2  -8   7   67.59    7.70
   2  -8   7   69.39    6.00
  -2  -8  -7   78.79    7.60
  -2  -8  -7   79.19    8.20
  -2  -8  -7   65.19    7.00
   2  -8   7   72.99    7.50
   2  -8   7   72.99    7.40
  -2  -8  -7   71.89    8.10
  -2  -8  -7   80.79    7.90
   2   8   7   55.99    7.30
  -2   8  -7   83.99    8.00
   2   8   7   84.79    8.00
  -2   8  -7   71.99    7.30
  -2   8  -7   74.59    7.30
   2   8   7   65.59    7.60
  -2   8  -7   69.79    7.70
   2   8   7   67.99    8.80
  -2   8  -7   76.49    7.80
   2   8   7   70.29    8.00
   2   8   7   78.29    8.40
  -3  -8  -7    1.80    6.10
  -3  -8  -7    2.70    5.50
  -3  -8  -7   -2.60    4.70
   3  -8   7    9.10    5.90
  -3  -8  -7   -7.30    4.80
  -3  -8  -7   -3.10    5.80
   3  -8   7   -3.20    5.70
   3  -8   7   -3.20    4.30
   3  -8   7   -5.50    5.80
   3  -8   7   -7.00    6.10
  -3  -8  -7   -6.10    5.60
  -3   8  -7   -5.20    5.20
   3   8   7    1.80    5.40
  -3   8  -7   -7.70    5.30
  -3   8  -7    0.30    6.20
   3   8   7   -2.20    5.00
   3   8   7   -4.00    4.90
  -3   8  -7   -8.10    5.90
   3   8   7   -3.60    6.10
   3   8   7    7.90    6.30
  -3   8  -7   -8.20    5.50
  -3   8  -7   -1.20    6.10
   3   8   7   -5.00    4.90
  -3  -9   7    0.10    2.70
   3  -9  -7   -0.60    4.90
   3  -9  -7    6.00    6.20
   3  -9  -7    9.30    5.50
   3  -9  -7   -8.90    5.20
  -3  -9   7   -0.30    2.10
   3  -9  -7    3.50    6.30
   3  -9  -7   -0.90    5.20
  -3  -9   7    0.30    2.50
  -3   9   7   -7.00    7.00
  -3   9   7   -2.10    5.60
   3   9  -7    2.30    3.20
  -3   9   7    1.30    5.50
   3   9  -7    0.10    3.30
  -3   9   7   -1.60    5.30
  -3   9   7  -10.10    6.70
  -3   9   7    3.80    6.30
   2  -9  -7   -0.30    4.50
   2  -9  -7    0.80    4.10
   2  -9  -7    1.10    3.90
   2  -9  -7    3.00    4.10
   2  -9  -7    5.20    4.20
  -2   9   7    4.30    3.80
  -2   9   7   -3.40    4.30
  -2   9   7    7.90    4.00
   2   9  -7   -1.20    1.80
  -2   9   7    7.80    4.90
  -2   9   7    8.10    5.10
  -2   9   7    0.60    4.40
   2   9  -7    3.60    1.80
   1  -9  -7    5.90    3.60
   1  -9  -7    9.80    3.40
   1  -9  -7    6.60    3.90
   1  -9  -7    6.20    3.90
   1  -9  -7    2.30    3.00
  -1   9   7    4.10    3.40
  -1   9   7    2.90    3.40
  -1   9   7    0.90    3.40
   1   9  -7    5.10    1.20
  -1   9   7    2.40    3.60
  -1   9   7    6.50    3.90
   1   9  -7    6.10    1.10
  -1   9   7    3.20    3.10
   0  -9  -7   14.80    3.80
   0  -9  -7   12.50    3.10
   0  -9   7   11.90    2.20
   0  -9  -7   10.70    3.60
   0  -9  -7   17.00    3.80
   0  -9   7   12.00    2.20
   0  -9  -7   14.40    3.10
   0  -9   7   14.90    2.00
   0  -9  -7   14.60    3.60
   0   9   7   10.40    3.10
   0   9   7   18.60    4.00
   0   9  -7   13.10    1.90
   0   9  -7   11.90    1.70
   0   9  -7   14.60    2.00
   0   9   7   10.60    3.10
   0   9   7   11.80    3.70
   0   9  -7   12.00    2.10
   0   9  -7   15.60    2.20
   0   9   7   16.80    4.10
   0   9  -7   11.90    1.90
   0   9   7   16.20    4.40
  -1  -9  -7    0.00    2.50
   1  -9   7   -1.00    2.10
   1  -9   7    1.90    2.80
   1  -9   7    0.50    2.50
  -1  -9  -7    4.10    3.20
  -1  -9  -7    3.00    3.70
  -1  -9  -7    3.30    3.60
  -1  -9  -7   -2.80    3.00
   1  -9   7    3.80    2.90
  -1  -9  -7   -2.10    2.80
  -1   9  -7   -0.20    2.40
  -1   9  -7   -3.20    2.60
  -1   9  -7    1.00    2.40
  -1   9  -7    0.60    2.70
   1   9   7    3.00    3.20
   1   9   7   -3.40    3.40
   1   9   7    5.20    3.70
   1   9   7    4.80    3.30
   1   9   7   -1.50    3.30
   1   9   7   -0.60    3.40
  -1   9  -7    0.50    2.30
  -1   9  -7   -0.10    2.50
  -2  -9  -7  249.48   14.60
   2  -9   7  241.28   15.00
  -2  -9  -7  260.77   15.80
  -2  -9  -7  254.97   14.40
  -2  -9  -7  238.58   15.30
   2  -9   7  251.07   14.90
   2  -9   7  267.07   14.90
  -2  -9  -7  258.37   15.40
   2  -9   7  250.17   13.20
   2  -9   7  255.17   13.20
  -2   9  -7  257.77   15.10
  -2   9  -7  257.87   14.90
   2   9   7  232.28   15.50
  -2   9  -7  247.48   14.40
  -2   9  -7  242.68   14.90
   2   9   7  260.87   15.10
  -2   9  -7  244.48   14.80
  -2   9  -7  242.08   14.60
   2   9   7  259.17   15.30
   2   9   7  250.37   15.40
   2   9   7  250.07   14.90
   2   9   7  249.28   15.80
   3  -9   7   56.99    8.70
  -3  -9  -7   54.09    9.00
   3  -9   7   65.09    9.00
  -3  -9  -7   77.29   11.30
  -3  -9  -7   63.49    7.50
  -3  -9  -7   58.99    7.60
   3  -9   7   38.60    7.80
  -3  -9  -7   49.30    8.80
   3  -9   7   61.39    9.40
   3  -9   7   58.89    6.70
  -3  -9  -7   66.99    8.60
   3   9   7   64.59    8.00
   3   9   7   62.19    8.70
  -3   9  -7   47.90    7.70
  -3   9  -7   56.59    8.30
   3   9   7   79.89   10.20
  -3   9  -7   57.19    8.40
   3   9   7   90.59   12.20
  -3   9  -7   60.59    9.10
  -3   9  -7   59.99    8.90
   3   9   7   52.09    8.20
   3   9   7   52.49    8.00
  -3   9  -7   57.09    7.70
   3 -10  -7   24.50    6.40
   3 -10  -7   21.40    6.30
   3 -10  -7   24.20    7.20
   3 -10  -7   25.40    6.40
   3 -10  -7   25.20    7.80
   3 -10  -7   23.90    7.50
  -3  10   7   38.30    9.30
  -3  10   7   18.10    7.20
  -3  10   7   23.10    7.00
   3  10  -7   37.10    4.60
   3  10  -7   29.50    4.40
  -3  10   7   28.20    7.80
  -3  10   7   29.00    8.20
  -3  10   7   23.80    8.50
   2 -10  -7   87.79    8.90
   2 -10  -7   80.89    9.40
   2 -10  -7   75.99    9.80
   2 -10  -7   85.19    9.10
   2 -10  -7   75.49    8.80
   2  10  -7   87.19    5.10
  -2  10   7   84.39    8.70
  -2  10   7   76.69    9.40
  -2  10   7   89.39   10.40
  -2  10   7   63.79    9.40
   2  10  -7   78.69    5.10
  -2  10   7   79.19   10.10
   1 -10  -7   61.49    7.10
   1 -10  -7   66.19    7.80
   1 -10  -7   71.99    7.00
   1 -10  -7   57.79    6.90
   1 -10  -7   61.49    7.40
  -1  10   7   61.09    7.50
  -1  10   7   52.49    7.50
   1  10  -7   65.09    3.90
  -1  10   7   71.49    6.90
  -1  10   7   52.59    7.60
  -1  10   7   58.39    7.70
   1  10  -7   68.99    3.90
   0 -10  -7  572.94   28.20
   0 -10  -7  561.34   28.60
   0 -10  -7  556.14   28.60
   0 -10  -7  592.74   28.30
   0 -10  -7  574.34   28.80
   0 -10   7  594.24   27.00
   0 -10   7  587.04   27.00
   0 -10   7  573.44   26.80
   0 -10  -7  582.64   28.90
   0  10   7  599.04   28.40
   0  10  -7  573.14   26.60
   0  10  -7  555.74   26.80
   0  10  -7  611.84   26.80
   0  10  -7  587.74   26.90
   0  10   7  548.25   28.80
   0  10   7  525.55   28.50
   0  10  -7  559.64   26.80
   0  10   7  586.74   28.40
   0  10  -7  588.54   26.60
   0  10   7  619.24   29.10
   0  10   7  584.54   28.80
   1 -10   7 2039.20   90.89
  -1 -10  -7 2011.10   91.89
  -1 -10  -7 2090.59   91.39
  -1 -10  -7 1826.22   91.69
  -1 -10  -7 2012.30   91.19
  -1 -10  -7 2036.50   92.09
   1 -10   7 2119.89   91.09
  -1 -10  -7 1996.80   91.99
   1 -10   7 2046.20   90.89
   1  10   7 1937.01   91.39
  -1  10  -7 2170.08   91.19
  -1  10  -7 2006.30   90.69
   1  10   7 2003.20   91.89
  -1  10  -7 2009.20   90.59
  -1  10  -7 1950.10   90.69
  -1  10  -7 2011.90   90.79
   1  10   7 1962.80   91.99
   1  10   7 2009.50   91.99
  -1  10  -7 1717.13   90.59
   1  10   7 2027.20   91.49
   2 -10   7   71.79    9.90
   2 -10   7   77.29    8.20
   2 -10   7   80.09    6.30
  -2 -10  -7   86.99    9.30
   2 -10   7   84.09    9.00
  -2 -10  -7   81.39    8.30
   2 -10   7   79.39    6.20
   2 -10   7   85.19    8.60
  -2 -10  -7   76.09    9.20
  -2 -10  -7   79.09    9.00
   2  10   7   80.19    9.30
   2  10   7   67.09    8.40
   2  10   7   87.99    9.80
  -2  10  -7   79.49    8.80
   2  10   7   84.69    9.50
   2  10   7   82.49   10.10
  -2  10  -7   80.29    8.20
  -2  10  -7   88.49    9.40
  -2  10  -7   86.39    8.90
  -2  10  -7   75.29    8.10
  -2  10  -7   80.29    8.80
   2  10   7   84.39    8.70
   3 -10   7   11.00    7.30
   3 -10   7   14.80    7.40
  -3 -10  -7    0.80    5.70
  -3 -10  -7   14.80    6.30
  -3 -10  -7    4.60    5.40
   3 -10   7   11.30    6.40
  -3 -10  -7    8.60    7.00
   3 -10   7   14.80    6.60
  -3 -10  -7   13.30    7.20
   3 -10   7   17.40    5.20
  -3 -10  -7   26.40    8.10
   3  10   7   23.30    7.30
  -3  10  -7    8.70    8.00
  -3  10  -7   -0.30    6.40
   3  10   7    2.30    6.20
   3  10   7    8.70    7.00
   3  10   7   15.60    6.80
  -3  10  -7   23.20    7.40
   3  10   7   17.20    7.70
  -3  10  -7   16.30    6.90
   3  10   7   23.00    7.60
  -3  10  -7    8.20    7.00
  -3  10  -7    8.00    6.30
   3 -11  -7  124.89   13.60
   3 -11  -7  135.39   13.60
   3 -11  -7  103.99   11.80
   3 -11  -7  117.09   14.90
   3 -11  -7  129.39   13.80
   3  11  -7  106.89    9.00
  -3  11   7  134.29   14.30
   3  11  -7  121.59    9.00
  -3  11   7  119.29   14.70
  -3  11   7  117.99   15.90
  -3  11   7  112.19   13.50
  -3  11   7  108.29   13.40
  -3  11   7  108.39   12.60
   2 -11  -7   38.10    7.10
   2 -11  -7   43.60    7.20
   2 -11  -7   30.10    5.80
   2 -11  -7   33.90    6.60
   2 -11  -7   31.80    6.40
   2 -11  -7   37.00    6.00
  -2  11   7   62.09    8.00
  -2  11   7   43.30    7.50
  -2  11   7   41.40    6.20
  -2  11   7   40.00    7.60
  -2  11   7   25.40    7.30
   2  11  -7   33.40    4.00
  -2  11   7   30.90    7.40
   2  11  -7   33.60    4.00
   1 -11  -7  242.28   14.10
   1 -11  -7  234.38   13.60
   1 -11  -7  206.58   14.00
   1 -11  -7  217.58   13.90
  -1  11   7  227.98   14.20
   1  11  -7  215.68   11.00
  -1  11   7  218.88   14.40
  -1  11   7  235.38   14.70
   1  11  -7  225.38   11.00
  -1  11   7  220.28   14.50
  -1  11   7  224.48   13.70
   0 -11   7    6.50    2.10
   0 -11   7    6.70    2.40
   0 -11  -7    4.80    4.20
   0 -11  -7    1.90    4.00
   0 -11  -7   10.10    4.30
   0 -11  -7   11.00    4.70
   0 -11  -7    9.10    3.90
   0 -11  -7    5.50    3.50
   0 -11   7   10.80    2.50
   0  11   7    3.30    4.20
   0  11   7    8.80    3.60
   0  11   7    9.70    4.50
   0  11   7   12.60    3.90
   0  11  -7    3.80    2.00
   0  11  -7    6.80    2.30
   0  11  -7    3.00    1.90
   0  11  -7    8.00    2.00
   0  11  -7    4.20    2.30
   0  11  -7    7.10    2.30
   0  11   7    5.50    3.90
   0  11   7    3.50    3.90
  -1 -11  -7   46.60    6.30
   1 -11   7   42.80    5.40
  -1 -11  -7   48.70    5.60
   1 -11   7   46.20    5.50
   1 -11   7   43.00    5.00
  -1 -11  -7   43.20    6.40
  -1 -11  -7   44.00    5.40
  -1 -11  -7   45.00    6.20
  -1  11  -7   39.10    5.60
   1  11   7   45.90    6.70
  -1  11  -7   45.10    6.10
  -1  11  -7   35.60    5.10
   1  11   7   53.09    7.00
   1  11   7   35.10    5.50
  -1  11  -7   40.80    5.50
   1  11   7   44.60    6.10
   1  11   7   46.20    6.50
  -1  11  -7   40.80    5.60
  -1  11  -7   39.60    5.60
   1  11   7   53.39    7.70
   2 -11   7   35.30    4.90
  -2 -11  -7   40.30    6.50
  -2 -11  -7   39.00    6.50
   2 -11   7   32.40    5.90
  -2 -11  -7   41.80    5.90
  -2 -11  -7   31.10    7.00
   2 -11   7   40.90    6.60
   2 -11   7   36.70    6.50
  -2 -11  -7   30.70    6.60
  -2  11  -7   41.10    6.30
  -2  11  -7   57.09    7.20
  -2  11  -7   40.70    6.60
   2  11   7   38.60    7.00
  -2  11  -7   39.20    5.70
   2  11   7   35.40    6.80
   2  11   7   30.90    5.80
   2  11   7   54.09    7.20
  -2  11  -7   36.00    6.70
   2  11   7   42.20    7.20
  -2  11  -7   39.90    6.30
   2 -12  -7  285.37   17.20
   2 -12  -7  233.78   17.50
   2 -12  -7  259.77   17.60
   2 -12  -7  269.57   17.90
   2 -12  -7  258.97   16.60
   2 -12  -7  272.87   17.10
  -2  12   7  248.28   16.50
  -2  12   7  266.17   17.80
  -2  12   7  229.98   17.40
  -2  12   7  285.97   17.80
  -2  12   7  288.57   19.00
  -2  12   7  263.37   17.70
   2  12  -7  266.37   13.30
   2  12  -7  272.67   13.40
   1 -12  -7  129.29   12.00
  -1 -12   7  154.18    7.70
   1 -12  -7  162.58   12.10
   1 -12  -7  169.38   11.50
   1 -12  -7  156.98   11.60
   1  12  -7  153.38    8.30
  -1  12   7  163.88   12.70
  -1  12   7  160.48   12.00
  -1  12   7  131.89   12.00
  -1  12   7  142.69   12.30
  -1  12   7  164.58   11.50
   1  12  -7  152.38    8.20
   0 -12  -7    3.70    4.30
   0 -12  -7    5.70    5.10
   0 -12   7    0.80    2.70
   0 -12  -7   -0.30    4.40
   0 -12  -7    5.30    3.80
   0 -12  -7    5.70    3.90
   0 -12  -7   -1.30    3.60
   0 -12   7   -0.90    2.50
   0 -12   7    1.80    2.10
   0  12  -7    2.80    2.10
   0  12  -7    7.10    2.60
   0  12   7    2.60    4.50
   0  12   7    4.20    4.40
   0  12  -7    3.40    2.10
   0  12  -7    1.50    2.30
   0  12   7   11.30    4.10
   0  12   7    5.80    4.70
   0  12   7   -6.60    4.40
   0  12  -7    5.80    2.60
   0  12  -7    9.00    2.70
   0  12   7   -3.20    4.80
   1 -12   7    8.50    3.90
   1 -12   7   -0.50    4.10
  -1 -12  -7   10.80    5.10
  -1 -12  -7    0.70    3.80
   1 -12   7    3.80    3.30
  -1 -12  -7    5.60    4.50
   1 -12   7    1.40    2.90
  -1 -12  -7    0.80    4.20
  -1 -12  -7   10.10    4.70
   1  12   7    2.80    4.90
   1  12   7    5.40    4.10
   1  12   7    9.50    5.10
  -1  12  -7    6.50    3.70
   1  12   7    1.40    4.20
   1  12   7    6.60    4.50
  -1  12  -7    7.30    3.80
   1  12   7    4.70    4.90
  -1  12  -7    5.40    3.10
  -1  12  -7    2.40    3.30
  -1  12  -7    2.60    3.30
  -1  12  -7    2.90    3.60
  -2 -12  -7   15.90    6.70
  -2 -12  -7   15.80    5.50
   2 -12   7   18.30    3.40
  -2 -12  -7   18.30    7.40
   2 -12   7   21.30    6.50
   2 -12   7    0.70    4.70
  -2 -12  -7   14.80    6.30
   2 -12   7   16.60    6.20
   2 -12   7   11.50    5.40
  -2 -12  -7   15.10    6.60
  -2 -12  -7   18.10    6.30
  -2  12  -7   12.90    5.70
   2  12   7   13.50    6.40
   2  12   7   10.90    6.50
  -2  12  -7   19.60    5.60
  -2  12  -7   13.00    5.70
  -2  12  -7   18.50    5.50
   2  12   7   18.30    6.50
   2  12   7   25.20    7.60
  -2  12  -7    9.20    6.30
   2  12   7   18.50    5.90
  -2  12  -7   21.80    5.60
   2 -13  -7   -1.80    6.10
   2 -13  -7   10.70    6.70
   2 -13  -7    1.50    6.70
   2 -13  -7    8.80    6.30
   2 -13  -7   -1.10    6.10
  -2  13   7   -1.30    7.50
  -2  13   7   -4.80    7.20
   2  13  -7    3.30    3.00
  -2  13   7    1.50    6.90
  -2  13   7    8.40    6.50
  -2  13   7   -3.20    8.40
   2  13  -7    4.80    3.00
  -2  13   7    4.80    6.50
   1 -13  -7  158.28   13.10
   1 -13  -7  160.98   12.80
   1 -13  -7  172.58   12.00
   1 -13  -7  167.38   13.40
   1 -13  -7  149.79   12.00
   1 -13  -7  147.59   13.00
  -1 -13   7  150.58    8.20
   1  13  -7  152.38    8.90
  -1  13   7  167.18   12.30
  -1  13   7  162.98   12.60
  -1  13   7  131.29   12.80
  -1  13   7  148.39   12.50
  -1  13   7  177.38   13.50
   1  13  -7  167.78    8.90
  -1  13   7  149.99   12.30
   0 -13  -7   48.20    6.80
   0 -13  -7   42.00    5.50
   0 -13   7   38.20    4.50
   0 -13  -7   38.00    6.60
   0 -13   7   42.10    6.00
   0 -13  -7   47.40    7.10
   0 -13  -7   41.20    6.90
   0  13  -7   36.30    4.30
   0  13  -7   39.80    4.80
   0  13   7   40.90    6.90
   0  13  -7   37.40    5.20
   0  13   7   32.20    6.10
   0  13   7   29.50    6.30
   0  13  -7   30.20    4.50
   0  13   7   32.70    5.60
   0  13  -7   54.39    5.30
   0  13   7   43.80    7.00
   0  13  -7   34.70    5.10
   0  13   7   34.60    6.30
   1 -13   7   10.00    4.40
  -1 -13  -7   -0.90    4.50
  -1 -13  -7    5.70    5.30
   1 -13   7    0.20    2.90
  -1 -13  -7    4.80    5.20
  -1 -13  -7   -3.10    4.10
  -1 -13  -7    4.50    5.60
   1 -13   7    7.40    3.80
  -1  13  -7    3.10    3.70
   1  13   7   -8.20    4.70
   1  13   7   13.00    5.80
  -1  13  -7    3.50    3.90
   1  13   7    8.90    6.30
  -1  13  -7    4.40    3.90
   1  13   7   13.40    5.40
  -1  13  -7    3.00    4.00
   1  13   7   -0.40    5.40
   1  13   7    5.00    5.20
  -1  13  -7    9.80    4.30
  -1  13  -7    2.10    3.50
  -2 -13  -7  290.07   19.40
  -2 -13  -7  303.07   17.80
  -2 -13  -7  269.17   18.30
  -2 -13  -7  297.07   17.30
   2 -13   7  283.57   18.10
  -2 -13  -7  304.87   19.90
  -2 -13  -7  294.57   19.10
   2 -13   7  315.27   18.50
   2 -13   7  290.67   19.10
  -2  13  -7  322.57   18.50
  -2  13  -7  311.97   17.90
   2  13   7  284.87   18.60
   2  13   7  240.18   18.10
  -2  13  -7  303.97   18.30
   2  13   7  279.97   19.00
  -2  13  -7  282.77   17.90
  -2  13  -7  325.27   18.20
   2  13   7  315.07   19.50
   2  13   7  287.57   20.00
  -2  13  -7  270.27   17.10
   2  13   7  288.47   18.60
   2 -14  -7   -0.30    6.80
   2 -14  -7    3.00    7.00
   2 -14  -7    0.60    7.20
   2 -14  -7    7.00    6.10
   2 -14  -7    2.30    7.40
   2  14  -7    2.10    3.50
  -2  14   7   11.40    9.40
  -2  14   7    5.10    8.90
   2  14  -7    9.50    3.70
  -2  14   7   -0.50   10.00
  -2  14   7    1.50    8.60
   1 -14  -7  532.85   28.50
   1 -14  -7  479.95   27.50
   1 -14  -7  515.95   28.00
   1 -14  -7  547.25   27.20
   1 -14  -7  515.25   27.30
   1 -14  -7  519.55   28.60
  -1  14   7  509.05   28.60
  -1  14   7  499.35   27.30
  -1  14   7  507.25   28.50
   1  14  -7  536.15   24.80
  -1  14   7  517.15   28.20
  -1  14   7  560.24   28.80
  -1  14   7  504.05   27.70
   1  14  -7  499.45   24.80
   0 -14  -7  122.19   11.00
   0 -14   7  113.29    8.60
   0 -14  -7  100.99   10.30
   0 -14   7  118.59    8.30
   0 -14  -7  108.39   11.60
   0 -14  -7  104.79   11.40
   0 -14  -7  127.59   10.40
   0 -14  -7  114.89   12.00
   0  14   7  119.09   12.30
   0  14   7  118.79   11.60
   0  14   7   94.99   12.10
   0  14   7  111.09   11.80
   0  14  -7  121.49    8.40
   0  14  -7  119.79    7.30
   0  14  -7  111.19    8.30
   0  14  -7  108.89    7.70
   0  14  -7  122.69    8.10
   0  14   7  108.49   10.90
   0  14  -7  122.99    7.60
   0  14   7  108.49   11.30
   1 -14   7    5.20    4.20
  -1 -14  -7   -1.30    5.00
  -1 -14  -7    3.10    5.90
   1 -14   7    4.40    4.80
   1 -14   7   -0.20    3.40
  -1 -14  -7    3.30    6.00
  -1 -14  -7    4.20    4.90
   1 -14   7    1.70    4.80
  -1 -14  -7    7.20    5.40
  -1 -14  -7    4.80    6.30
   1  14   7   12.60    6.20
  -1  14  -7    1.00    4.50
   1  14   7    6.40    6.20
   1  14   7    4.00    5.30
   1  14   7   -0.30    5.30
  -1  14  -7   -1.60    3.80
  -1  14  -7   -1.30    4.00
   1  14   7   13.30    5.90
  -1  14  -7    2.30    4.70
  -1  14  -7   -3.90    4.10
  -1  14  -7   -3.50    4.80
   1  14   7   -4.90    5.40
  -1 -15   7   11.30    2.90
   1 -15  -7   22.00    7.20
   1 -15  -7    4.00    7.70
   1 -15  -7    3.20    7.70
   1 -15  -7   19.20    6.80
   1 -15  -7   15.50    7.90
   1 -15  -7   12.40    6.50
  -1  15   7   21.70   10.00
  -1  15   7    8.70    7.80
   1  15  -7   22.00    4.20
  -1  15   7   14.90    8.60
  -1  15   7   21.20    8.20
   1  15  -7   16.30    4.00
  -1  15   7   -1.50    9.10
   0 -15  -7   32.50    6.60
   0 -15  -7   39.00    7.70
   0 -15  -7   46.50    7.60
   0 -15  -7   55.89    7.30
   0 -15   7   44.70    6.80
   0 -15  -7   59.09    8.80
   0 -15  -7   36.70    7.60
   0  15   7   51.49    8.20
   0  15  -7   55.69    5.90
   0  15   7   32.70    7.00
   0  15  -7   63.49    6.60
   0  15  -7   57.39    7.10
   0  15  -7   56.29    5.40
   0  15  -7   40.00    5.30
   0  15  -7   42.60    6.00
   0  15   7   26.70    7.00
   0  15   7   44.30    8.20
   0  15   7   36.90    6.80
   0  15   7   43.90    8.60
  -1 -15  -7   95.29   11.00
  -1 -15  -7   98.09   12.00
  -1 -15  -7  105.59   13.00
  -1 -15  -7  135.79   13.10
   1 -15   7  100.99   10.90
  -1 -15  -7   80.69   10.60
   1  15   7  107.39   12.90
  -1  15  -7   85.79   10.20
  -1  15  -7  103.49   10.10
  -1  15  -7   89.89    9.20
   1  15   7   88.09   12.70
   1  15   7   91.49   12.50
   1  15   7   98.49   11.30
   4   0  -8  443.36   23.90
  -4   0   8  426.36   24.20
   4   0  -8  445.76   23.60
   4   0  -8  435.06   23.90
   4   0  -8  413.26   23.70
   4   0  -8  444.16   23.50
   4   0  -8  451.35   23.40
  -4   0   8  460.85   23.70
  -4   0   8  450.45   21.40
  -4   0   8  415.36   24.40
   3   0  -8   65.69    6.30
   3   0  -8   59.09    6.60
   3   0  -8   55.29    6.00
   3   0  -8   50.09    6.20
  -3   0   8   58.29    6.20
  -3   0   8   64.99    4.60
  -3   0   8   57.39    6.70
   3   0  -8   67.19    6.50
   3   0  -8   55.29    6.80
  -3   0   8   62.29    4.80
  -2   0   8  610.04   26.80
   2   0  -8  573.04   27.60
  -2   0   8  577.74   26.80
  -2   0   8  563.04   27.60
   2   0  -8  588.94   27.50
  -2   0   8  568.74   27.70
  -2   0   8  616.44   27.80
   2   0  -8  575.04   27.60
  -2   0   8  666.93   27.80
   2   0  -8  575.34   27.50
   2   0  -8  609.24   27.70
   2   0  -8  508.05   27.50
  -1   0   8  571.94   26.00
  -1   0   8  608.94   26.80
  -1   0   8  574.14   26.70
   1   0  -8  572.74   26.70
   1   0  -8  528.95   26.40
   1   0  -8  579.54   26.40
  -1   0   8  581.04   26.00
  -1   0   8  600.84   26.70
  -1   0   8  535.75   26.60
   1   0  -8  572.74   26.60
   0   0  -8  296.67   14.40
   0   0  -8  265.47   14.30
   0   0   8  303.47   14.50
   0   0  -8  304.87   14.60
   0   0   8  293.77   14.10
   0   0   8  291.97   14.00
   0   0  -8  283.17   14.50
   0   0   8  309.87   14.70
   0   0   8  322.87   14.60
   0   0  -8  293.67   14.30
   0   0  -8  293.37   14.30
   0   0   8  275.97   14.40
  -1   0  -8 2259.47   94.89
  -1   0  -8 2114.29   94.49
  -1   0  -8 1975.40   94.79
  -1   0  -8 1835.62   94.49
   1   0   8 2153.58   94.39
   1   0   8 2162.68   94.79
   1   0   8 2319.67   94.99
   1   0   8 1932.31   94.19
  -1   0  -8 2191.68   94.59
   1   0   8 2065.19   94.89
  -1   0  -8 2191.38   94.79
   1   0   8 1916.41   94.59
  -2   0  -8  957.10   42.00
   2   0   8  952.40   42.10
   2   0   8  794.62   41.50
  -2   0  -8  912.21   42.10
  -2   0  -8  808.02   41.30
  -2   0  -8  895.91   41.90
   2   0   8  897.21   41.90
  -2   0  -8  868.91   41.40
  -2   0  -8  847.52   41.60
   2   0   8  859.51   42.00
   2   0   8  906.71   41.20
  -3   0  -8  274.87   16.60
  -3   0  -8  275.67   16.40
   3   0   8  252.57   16.60
  -3   0  -8  262.47   16.40
   3   0   8  265.97   16.00
   3   0   8  289.27   17.30
  -3   0  -8  272.37   16.90
  -3   0  -8  273.47   16.20
   3   0   8  272.47   16.70
   3   0   8  281.27   16.60
   4   0   8  113.39   15.40
  -4   0  -8   90.69   12.40
   4   0   8  108.39   14.60
  -4   0  -8   94.89   11.80
   4   0   8   88.89   11.40
  -4   0  -8  121.09   14.50
  -4   0  -8  114.29   15.60
   4   0   8  121.19   14.40
  -4   0  -8  110.99   15.20
   4   0   8  114.19   14.70
  -4   0  -8  114.69   12.50
   4   0   8   96.19   12.90
   4  -1  -8  139.59   11.80
   4  -1  -8  146.69   13.00
  -4  -1   8  162.18   13.30
   4  -1  -8  177.38   12.50
   4  -1  -8  179.68   13.00
   4  -1  -8  163.48   13.20
  -4  -1   8  143.39   13.30
  -4  -1   8  176.48   12.60
   4  -1  -8  160.78   12.80
  -4   1   8  169.78   10.40
  -4   1   8  136.89   13.40
   4   1  -8  169.28   12.30
   4   1  -8  147.99   11.70
   4   1  -8  170.18   13.20
   4   1  -8  149.19   12.00
  -4   1   8  190.18   13.60
   4   1  -8  170.48   12.90
  -4   1   8  156.18   14.10
   4   1  -8  167.88   12.90
  -3  -1   8   -1.70    3.40
  -3  -1   8    3.10    2.80
  -3  -1   8    1.00    1.60
  -3  -1   8    0.30    1.50
   3  -1  -8   -0.30    3.10
   3  -1  -8   -3.60    3.20
   3  -1  -8   -6.60    3.60
   3  -1  -8    4.80    3.10
  -3  -1   8   -2.10    2.90
   3  -1  -8    3.00    3.10
   3  -1  -8    0.40    3.10
   3   1  -8   -1.70    2.80
   3   1  -8   -0.20    2.90
  -3   1   8   -1.20    3.80
   3   1  -8   -1.40    2.80
   3   1  -8   -2.60    3.20
  -3   1   8    0.70    3.30
  -3   1   8   -3.70    2.40
  -3   1   8   -1.80    2.30
   3   1  -8   -3.50    2.70
  -3   1   8    3.40    3.60
   3   1  -8   -0.20    2.80
  -2  -1   8    8.10    2.20
  -2  -1   8    5.20    2.20
  -2  -1   8    4.90    2.10
   2  -1  -8    6.10    2.30
   2  -1  -8    7.10    2.30
   2  -1  -8    7.70    2.40
  -2  -1   8    7.90    2.00
   2  -1  -8    8.90    2.40
   2  -1  -8    3.90    2.10
   2  -1  -8    2.60    2.30
  -2   1   8    6.70    1.80
   2   1  -8    5.60    1.90
   2   1  -8    6.80    2.10
  -2   1   8    6.30    2.50
  -2   1   8    7.50    2.70
  -2   1   8    4.00    2.40
   2   1  -8    5.50    2.00
   2   1  -8    6.00    1.90
   2   1  -8    6.50    2.00
   2   1  -8    6.00    2.00
   1  -1  -8   14.60    2.30
   1  -1  -8   12.30    2.10
   1  -1  -8   18.20    2.50
  -1  -1   8   14.20    1.90
  -1  -1   8   14.90    1.90
   1  -1  -8   14.80    2.20
  -1  -1   8   14.80    2.00
   1  -1  -8   18.90    2.30
   1  -1  -8   16.70    2.40
  -1  -1   8   14.40    2.10
   1   1  -8   17.40    2.10
  -1   1   8   16.20    2.50
  -1   1   8   16.90    2.50
   1   1  -8   10.70    1.80
  -1   1   8   15.10    2.10
   1   1  -8   17.30    2.20
   1   1  -8   16.00    2.10
  -1   1   8   13.60    2.30
   1   1  -8   13.70    2.10
   1   1  -8   14.40    1.90
   0  -1   8  266.27   12.80
   0  -1  -8  261.97   13.00
   0  -1   8  222.38   13.30
   0  -1   8  277.57   12.30
   0  -1   8  280.27   12.90
   0  -1  -8  282.27   13.20
   0  -1  -8  272.47   13.20
   0  -1  -8  251.17   13.00
   0  -1  -8  268.57   12.90
   0  -1   8  263.57   12.80
   0  -1   8  264.67   12.30
   0  -1  -8  291.37   13.00
   0   1  -8  260.37   12.80
   0   1   8  277.17   12.80
   0   1  -8  258.97   12.60
   0   1   8  239.58   13.00
   0   1  -8  230.48   12.70
   0   1   8  255.57   12.70
   0   1  -8  246.38   12.60
   0   1   8  245.08   13.10
   0   1   8  267.07   13.20
   0   1  -8  266.17   12.80
   0   1   8  261.07   13.10
   1  -1   8   83.89    5.80
  -1  -1  -8   67.99    5.70
  -1  -1  -8   80.89    5.90
  -1  -1  -8   96.49    5.90
   1  -1   8   86.49    5.30
  -1  -1  -8   78.49    5.60
  -1  -1  -8   87.69    6.30
   1  -1   8   80.29    5.90
   1  -1   8   81.59    6.10
   1  -1   8   86.39    6.10
  -1  -1  -8   93.39    6.20
   1   1   8   88.19    6.30
  -1   1  -8   87.59    6.10
   1   1   8   83.49    6.20
   1   1   8   90.79    5.70
   1   1   8   83.59    6.00
  -1   1  -8   88.09    5.60
  -1   1  -8   91.29    5.80
   1   1   8   85.59    5.80
  -1   1  -8   94.19    5.90
  -1   1  -8   81.59    5.60
  -1   1  -8   86.79    5.80
   1   1   8   79.29    6.00
  -2  -1  -8  154.18    9.90
   2  -1   8  127.79   10.00
   2  -1   8  172.28   10.20
   2  -1   8  164.18    9.60
   2  -1   8  166.28   10.20
   2  -1   8  161.58    9.20
  -2  -1  -8  156.58   10.40
   2  -1   8  142.59    9.60
  -2  -1  -8  124.99    9.40
  -2  -1  -8  183.18   10.20
  -2  -1  -8  170.08   10.30
  -2  -1  -8  142.19    9.40
   2   1   8  156.58   10.30
  -2   1  -8  161.18   10.30
   2   1   8  159.98    9.40
   2   1   8  167.18   10.30
   2   1   8  146.39    9.80
   2   1   8  167.78    9.70
  -2   1  -8  154.58    9.60
  -2   1  -8  154.38    9.90
  -2   1  -8  130.79    9.60
  -2   1  -8  154.58    9.60
   2   1   8  157.78   10.40
  -2   1  -8  151.28   10.10
  -3  -1  -8  363.66   20.60
  -3  -1  -8  371.66   21.00
  -3  -1  -8  375.96   20.30
   3  -1   8  368.56   20.70
  -3  -1  -8  378.76   21.30
   3  -1   8  335.67   20.90
   3  -1   8  349.77   20.90
  -3  -1  -8  399.76   21.00
   3  -1   8  347.67   20.70
   3  -1   8  382.36   20.20
   3   1   8  371.56   20.30
  -3   1  -8  369.96   20.80
   3   1   8  405.06   20.80
  -3   1  -8  377.36   20.80
  -3   1  -8  335.57   20.10
   3   1   8  367.26   20.80
   3   1   8  400.26   21.40
  -3   1  -8  368.96   20.90
  -3   1  -8  382.46   21.30
  -4  -1  -8   68.39    9.90
   4  -1   8   71.49   10.70
   4  -1   8   79.09   11.60
   4  -1   8   71.69   10.40
   4  -1   8   70.49   10.00
  -4  -1  -8   71.89   10.10
  -4  -1  -8   57.69    9.40
  -4  -1  -8   86.69   12.60
  -4  -1  -8   82.89    9.90
   4  -1   8   80.99    9.70
   4  -1   8   47.30   10.10
  -4  -1  -8   93.69   11.80
   4   1   8   75.79   11.00
  -4   1  -8   66.39    9.80
   4   1   8   60.49    8.70
  -4   1  -8   73.99   11.50
  -4   1  -8   57.99    9.80
  -4   1  -8   56.49    9.40
   4   1   8   68.29   10.20
   4   1   8   79.19   11.80
  -4   1  -8   88.19   11.60
   4   1   8   73.39   10.10
   4   1   8   69.69   10.40
   4  -2  -8   16.50    6.60
  -4  -2   8    2.30    5.90
  -4  -2   8   14.80    5.90
   4  -2  -8   12.90    6.00
   4  -2  -8    5.50    5.80
   4  -2  -8    5.20    5.30
   4  -2  -8   10.90    5.70
  -4  -2   8   17.10    5.60
  -4  -2   8   -3.80    4.30
   4  -2  -8    3.60    5.70
  -4   2   8   10.20    6.50
  -4   2   8    7.40    4.10
   4   2  -8   13.00    6.00
   4   2  -8    9.80    5.40
  -4   2   8   -0.20    5.70
  -4   2   8    8.00    4.70
  -4   2   8    9.70    7.20
   4   2  -8   11.90    5.30
   4   2  -8   11.10    5.60
   4   2  -8    0.00    4.90
  -4   2   8    4.90    6.30
   4   2  -8    8.40    4.70
   3  -2  -8   46.10    5.60
   3  -2  -8   33.50    4.90
   3  -2  -8   38.90    5.10
  -3  -2   8   57.59    5.50
   3  -2  -8   47.00    6.80
  -3  -2   8   37.60    5.80
  -3  -2   8   43.60    5.30
   3  -2  -8   46.00    6.70
  -3  -2   8   43.50    5.20
   3  -2  -8   48.70    6.40
   3   2  -8   56.69    5.80
  -3   2   8   51.29    5.70
  -3   2   8   51.29    5.10
   3   2  -8   46.70    5.30
   3   2  -8   45.70    5.80
  -3   2   8   47.00    6.80
   3   2  -8   44.80    5.70
   3   2  -8   41.50    5.10
  -3   2   8   51.09    6.50
  -3   2   8   42.50    6.10
   3   2  -8   56.09    5.70
  -2  -2   8 1362.66   62.59
   2  -2  -8 1414.16   62.99
   2  -2  -8 1505.85   63.39
   2  -2  -8 1343.47   63.19
  -2  -2   8 1311.97   62.39
   2  -2  -8 1355.66   62.99
  -2  -2   8 1392.16   62.59
   2  -2  -8 1304.67   63.19
  -2  -2   8 1181.98   62.29
   2  -2  -8 1377.46   63.19
  -2   2   8 1393.16   62.59
   2   2  -8 1383.96   62.39
  -2   2   8 1425.86   63.39
   2   2  -8 1377.96   62.39
  -2   2   8 1373.56   63.39
  -2   2   8 1542.05   63.39
   2   2  -8 1376.36   62.39
  -2   2   8 1435.56   63.29
  -2   2   8 1359.66   62.49
   2   2  -8 1502.95   62.59
   2   2  -8 1206.58   62.19
   2   2  -8 1413.86   62.39
  -1  -2   8 2303.07  100.29
  -1  -2   8 2199.38  100.29
   1  -2  -8 2285.47  100.89
   1  -2  -8 2238.68  100.79
   1  -2  -8 2466.55  101.29
  -1  -2   8 2304.97  100.39
   1  -2  -8 2313.07  101.09
   1  -2  -8 2179.48  100.99
   1   2  -8 2196.88  100.29
   1   2  -8 2175.18  100.19
  -1   2   8 2132.19  100.59
  -1   2   8 2227.28  101.09
  -1   2   8 2193.08  101.09
   1   2  -8 2187.28  100.29
   1   2  -8 2267.97  100.19
   1   2  -8 2411.26  100.29
  -1   2   8 1968.40  100.89
  -1   2   8 2116.69  100.59
  -1   2   8 2236.08  101.09
   1   2  -8 2387.46  100.29
   0  -2  -8   31.50    3.30
   0  -2  -8   35.40    3.60
   0  -2   8   34.90    3.00
   0  -2   8   38.00    3.10
   0  -2   8   37.10    3.10
   0  -2  -8   41.00    3.80
   0  -2  -8   32.40    3.30
   0  -2  -8   35.40    3.50
   0  -2  -8   36.10    3.60
   0  -2   8   35.60    3.00
   0   2  -8   30.80    2.80
   0   2   8   36.50    3.80
   0   2   8   36.40    3.20
   0   2  -8   35.40    2.80
   0   2  -8   38.10    2.70
   0   2   8   34.80    3.30
   0   2  -8   42.10    3.00
   0   2   8   29.80    3.40
   0   2  -8   31.80    2.90
   0   2   8   36.60    3.90
   0   2  -8   32.90    3.00
  -1  -2  -8  512.35   26.50
  -1  -2  -8  564.64   26.60
  -1  -2  -8  542.05   26.50
   1  -2   8  503.55   26.20
   1  -2   8  556.74   26.50
  -1  -2  -8  552.54   26.30
   1  -2   8  552.34   26.30
  -1  -2  -8  540.85   26.20
  -1  -2  -8  582.34   26.60
   1  -2   8  529.25   25.70
   1  -2   8  550.24   25.80
   1  -2   8  571.94   26.40
   1   2   8  549.25   26.70
  -1   2  -8  538.05   26.00
   1   2   8  567.74   26.60
  -1   2  -8  571.94   26.50
  -1   2  -8  548.15   26.10
   1   2   8  592.64   26.70
  -1   2  -8  602.04   26.40
   1   2   8  558.84   26.30
  -1   2  -8  552.84   26.30
  -1   2  -8  552.04   26.20
   1   2   8  565.74   26.20
   1   2   8  518.55   26.50
   2  -2   8 1155.28   53.29
   2  -2   8 1213.78   54.19
   2  -2   8 1214.28   53.89
  -2  -2  -8 1219.28   54.19
  -2  -2  -8 1183.98   53.49
  -2  -2  -8 1149.89   53.89
   2  -2   8 1138.99   53.89
  -2  -2  -8 1135.79   53.99
  -2  -2  -8 1184.08   53.69
   2  -2   8 1200.48   54.09
   2  -2   8 1172.58   53.19
  -2  -2  -8 1196.48   54.29
   2   2   8 1185.48   53.69
  -2   2  -8 1177.58   53.49
  -2   2  -8 1207.88   53.99
   2   2   8 1039.60   53.59
  -2   2  -8 1242.08   54.29
   2   2   8 1082.99   53.89
   2   2   8 1093.59   53.89
  -2   2  -8 1264.97   54.19
   2   2   8 1019.20   53.89
  -2   2  -8 1102.79   53.69
  -2   2  -8 1079.29   53.39
   2   2   8 1047.30   53.19
  -3  -2  -8   49.60    7.20
  -3  -2  -8   43.70    6.30
  -3  -2  -8   59.39    8.60
   3  -2   8   58.09    7.70
   3  -2   8   39.70    6.90
  -3  -2  -8   40.10    7.00
   3  -2   8   32.00    6.70
   3  -2   8   41.60    6.00
  -3  -2  -8   39.70    6.80
   3  -2   8   45.90    7.10
   3   2   8   62.39    8.20
   3   2   8   54.59    6.90
  -3   2  -8   49.70    6.70
  -3   2  -8   42.20    6.80
  -3   2  -8   38.60    6.80
   3   2   8   41.40    6.60
   3   2   8   58.49    7.50
  -3   2  -8   47.40    7.20
  -3   2  -8   43.30    6.40
   3   2   8   53.69    7.60
  -3   2  -8   34.50    6.30
   4  -2   8   13.40    8.20
   4  -2   8    8.70    9.10
  -4  -2  -8   21.40    8.70
  -4  -2  -8   -4.00    7.00
   4  -2   8   -1.40    7.20
  -4  -2  -8    3.60    6.20
   4  -2   8   10.90    7.90
   4  -2   8   -0.20    5.50
  -4  -2  -8    8.50    9.20
  -4  -2  -8    0.90    7.10
  -4  -2  -8   14.90    7.80
   4  -2   8   17.50    8.00
  -4   2  -8  -10.60    9.00
   4   2   8   14.00    8.00
  -4   2  -8   -2.50    8.10
   4   2   8   -7.10    7.70
   4   2   8    0.70    8.10
   4   2   8    5.10    8.00
  -4   2  -8   19.50    9.00
   4   2   8    1.70    7.30
  -4   2  -8   24.80    9.00
   4  -3  -8  137.59   12.90
   4  -3  -8  122.69   12.80
  -4  -3   8  115.19   11.20
   4  -3  -8  140.59   12.00
  -4  -3   8  131.09   11.70
   4  -3  -8  126.39   11.70
   4  -3  -8  111.69   12.60
   4  -3  -8  132.19   13.00
  -4   3   8  116.79   13.50
  -4   3   8  138.29   13.00
   4   3  -8  142.69   10.50
  -4   3   8  129.09   11.10
  -4   3   8  131.09   10.40
   4   3  -8  129.19   10.90
  -4   3   8  123.39   13.70
   4   3  -8  142.09   11.80
   4   3  -8  121.79   10.50
   4   3  -8  132.29   10.90
   4   3  -8  124.59   10.60
   3  -3  -8  294.47   16.80
   3  -3  -8  297.67   16.10
   3  -3  -8  292.67   16.40
  -3  -3   8  291.57   15.20
  -3  -3   8  296.47   15.60
   3  -3  -8  303.27   16.60
  -3  -3   8  308.37   15.40
   3  -3  -8  275.47   16.60
   3  -3  -8  309.17   16.60
   3   3  -8  305.47   15.60
   3   3  -8  300.37   15.20
  -3   3   8  319.57   16.70
   3   3  -8  268.97   14.90
   3   3  -8  306.87   15.50
   3   3  -8  304.77   15.20
  -3   3   8  283.07   15.50
  -3   3   8  281.07   17.00
   3   3  -8  286.07   15.20
  -3   3   8  326.67   16.90
   2  -3  -8  192.18   11.10
   2  -3  -8  196.08   11.20
  -2  -3   8  206.38   10.00
   2  -3  -8  198.18   11.00
   2  -3  -8  198.48   11.20
   2  -3  -8  203.18   11.30
  -2  -3   8  199.08   10.20
  -2  -3   8  200.88   10.20
   2   3  -8  197.08    9.90
  -2   3   8  215.58   11.70
   2   3  -8  192.08    9.90
   2   3  -8  197.38   10.00
   2   3  -8  194.48   10.00
  -2   3   8  197.88   11.30
   2   3  -8  202.68   10.10
   2   3  -8  208.78    9.90
  -2   3   8  183.58   11.40
  -2   3   8  195.38   10.60
  -2   3   8  199.78   11.40
  -2   3   8  200.58   10.70
  -1  -3   8  200.68    9.10
  -1  -3   8  194.48    9.10
   1  -3  -8  198.18   10.40
   1  -3  -8  184.78   10.10
  -1  -3   8  184.88    9.10
   1  -3  -8  202.18   10.30
   1  -3  -8  192.98   10.40
   1  -3  -8  172.68   10.20
  -1  -3   8  198.38    9.20
   1   3  -8  187.58    9.00
  -1   3   8  183.28    9.90
   1   3  -8  181.08    8.90
   1   3  -8  191.58    8.90
   1   3  -8  189.18    9.00
  -1   3   8  187.88   10.00
   1   3  -8  189.18    9.00
  -1   3   8  189.58   10.50
  -1   3   8  210.78   10.60
  -1   3   8  226.88   10.80
   1   3  -8  177.88    9.00
  -1   3   8  172.88   10.20
   0  -3  -8  272.77   14.10
   0  -3   8  273.57   13.30
   0  -3  -8  259.87   13.80
   0  -3  -8  275.17   13.90
   0  -3   8  281.57   13.40
   0  -3  -8  239.28   13.90
   0  -3   8  304.27   13.40
   0  -3  -8  307.17   14.30
   0  -3  -8  294.27   14.20
   0  -3   8  270.07   13.30
   0   3  -8  268.77   13.10
   0   3  -8  266.97   13.30
   0   3  -8  269.97   13.10
   0   3   8  294.47   13.80
   0   3  -8  257.37   13.20
   0   3   8  265.27   14.00
   0   3  -8  293.27   13.30
   0   3  -8  271.17   13.30
   0   3   8  281.17   14.10
   0   3   8  306.47   13.90
   0   3   8  278.37   14.30
   1  -3   8  651.23   29.60
  -1  -3  -8  600.24   29.60
  -1  -3  -8  600.44   30.00
  -1  -3  -8  644.14   29.70
   1  -3   8  621.64   29.80
  -1  -3  -8  685.23   30.20
   1  -3   8  636.44   29.70
   1  -3   8  617.14   29.00
  -1  -3  -8  618.54   30.00
   1  -3   8  644.24   29.00
  -1  -3  -8  531.55   29.70
   1  -3   8  632.74   29.70
   1   3   8  641.74   29.60
   1   3   8  657.53   30.30
   1   3   8  593.74   29.60
  -1   3  -8  599.94   29.60
  -1   3  -8  596.64   29.70
  -1   3  -8  705.83   29.70
  -1   3  -8  611.54   29.30
   1   3   8  589.34   29.80
   1   3   8  678.93   30.20
  -1   3  -8  643.34   29.70
  -1   3  -8  611.04   29.40
   1   3   8  667.33   30.20
   2  -3   8  949.51   43.00
  -2  -3  -8  959.30   43.80
   2  -3   8  921.21   43.60
   2  -3   8  983.80   44.00
  -2  -3  -8  960.10   43.40
  -2  -3  -8  943.91   43.30
   2  -3   8  933.41   42.80
   2  -3   8  979.20   43.80
  -2  -3  -8  952.40   43.80
  -2  -3  -8  976.20   44.10
   2  -3   8  923.11   43.50
   2   3   8  860.61   43.40
   2   3   8  924.41   43.90
   2   3   8  899.41   43.10
   2   3   8  921.91   43.90
  -2   3  -8  982.50   43.70
  -2   3  -8  891.01   43.70
  -2   3  -8  802.72   43.00
  -2   3  -8  897.51   43.60
  -2   3  -8  816.72   43.30
   2   3   8  935.91   43.40
  -2   3  -8  930.71   43.20
   2   3   8  852.81   43.60
  -3  -3  -8  227.18   15.10
   3  -3   8  243.18   15.40
   3  -3   8  225.88   15.60
  -3  -3  -8  237.58   15.00
  -3  -3  -8  234.38   15.50
   3  -3   8  247.68   14.60
  -3  -3  -8  236.68   15.90
  -3  -3  -8  234.48   15.00
   3  -3   8  240.38   15.70
   3  -3   8  253.97   15.90
   3   3   8  262.87   16.30
   3   3   8  240.48   15.10
  -3   3  -8  244.38   15.60
  -3   3  -8  249.58   16.20
  -3   3  -8  244.38   15.10
   3   3   8  251.37   15.60
   3   3   8  254.87   16.00
  -3   3  -8  215.88   14.60
   3   3   8  241.18   15.50
  -3   3  -8  236.68   14.90
  -3   3  -8  233.18   15.30
  -4  -3  -8   28.40   10.00
  -4  -3  -8   21.40    8.70
   4  -3   8   40.70    9.60
  -4  -3  -8   31.10    7.70
   4  -3   8   34.20    9.50
  -4  -3  -8   39.00    8.70
  -4  -3  -8   35.40    9.10
   4  -3   8   49.30    9.90
   4  -3   8   16.90    6.20
   4  -3   8   33.80    7.90
   4  -3   8   40.20   10.40
  -4  -3  -8   45.40   10.00
   4   3   8   47.70    9.90
   4   3   8   35.90    9.40
   4   3   8   41.00    9.30
  -4   3  -8    4.50   11.60
  -4   3  -8   25.70    9.80
  -4   3  -8   32.10    9.90
  -4   3  -8   26.60    8.70
   4   3   8   24.20   12.70
  -4  -4   8   -3.70    4.80
   4  -4  -8    4.40    6.60
   4  -4  -8   13.10    7.50
   4  -4  -8   -0.30    7.00
  -4  -4   8    1.70    4.50
  -4  -4   8    8.80    5.60
   4  -4  -8   12.30    6.00
   4  -4  -8   -2.20    5.60
  -4  -4   8   -0.50    5.20
   4  -4  -8   11.60    6.50
   4   4  -8    3.40    4.60
  -4   4   8    8.50    5.20
  -4   4   8   15.40    7.00
  -4   4   8   21.50    7.50
   4   4  -8   -4.00    4.40
   4   4  -8   10.80    4.70
   4   4  -8    9.70    5.80
  -4   4   8   10.10    7.60
  -4   4   8    0.40    6.50
   4   4  -8   13.80    5.10
   4   4  -8    2.30    4.50
   3  -4  -8   81.39    8.90
   3  -4  -8   88.99    8.90
   3  -4  -8   99.59    8.70
  -3  -4   8   88.69    7.00
   3  -4  -8   77.79    8.40
   3  -4  -8   95.59    8.20
  -3  -4   8  105.49    6.60
  -3  -4   8   96.79    6.80
   3  -4  -8  111.29    9.00
   3   4  -8   89.69    7.00
   3   4  -8   88.59    6.50
  -3   4   8   83.79    8.50
   3   4  -8   92.59    6.50
  -3   4   8   93.59    9.50
   3   4  -8   79.09    6.20
   3   4  -8   85.99    7.00
  -3   4   8   90.69    7.90
  -3   4   8   94.39    7.70
   3   4  -8  100.09    6.70
  -3   4   8   95.69    8.60
   2  -4  -8   55.19    5.80
   2  -4  -8   50.59    5.60
  -2  -4   8   56.99    4.00
   2  -4  -8   64.59    5.70
  -2  -4   8   53.69    3.70
   2  -4  -8   51.89    5.60
   2  -4  -8   55.19    5.90
  -2  -4   8   52.89    4.00
   2  -4  -8   59.89    5.40
  -2  -4   8   55.39    3.70
   2   4  -8   60.69    3.50
  -2   4   8   61.19    5.30
   2   4  -8   55.29    3.80
  -2   4   8   64.19    6.20
  -2   4   8   53.49    6.20
  -2   4   8   55.79    5.30
   2   4  -8   56.29    4.00
  -2   4   8   50.39    5.90
   2   4  -8   55.59    3.60
  -2   4   8   58.89    5.80
   2   4  -8   54.19    3.50
   1  -4  -8    0.10    2.10
  -1  -4   8    0.90    0.80
   1  -4  -8   -2.40    1.90
   1  -4  -8   -1.10    1.90
   1  -4  -8    1.90    2.00
   1  -4  -8   -0.30    2.00
  -1  -4   8    1.30    0.70
  -1   4   8    1.30    1.80
  -1   4   8    2.90    2.20
  -1   4   8    0.00    2.10
  -1   4   8    1.40    1.80
  -1   4   8    0.10    2.10
  -1   4   8   -2.50    2.10
   1   4  -8    1.10    0.70
   0  -4  -8 1163.08   51.29
   0  -4  -8 1068.79   50.79
   0  -4   8 1078.49   50.09
   0  -4  -8 1152.38   50.89
   0  -4   8 1125.99   50.19
   0  -4   8 1101.29   50.19
   0  -4  -8 1053.59   51.09
   0  -4  -8 1063.79   50.99
   0  -4  -8 1196.78   51.19
   0  -4   8 1120.79   50.09
   0   4  -8 1103.79   49.99
   0   4  -8 1142.09   50.09
   0   4   8 1148.79   50.79
   0   4   8 1075.89   50.99
   0   4  -8 1089.79   49.99
   0   4  -8 1093.89   49.99
   0   4   8  968.30   50.99
   0   4   8 1064.89   51.09
   0   4  -8 1222.18   49.99
   0   4   8 1127.49   50.79
   0   4  -8 1096.79   49.90
  -1  -4  -8  107.79    7.80
   1  -4   8  112.79    6.00
  -1  -4  -8  123.69    7.70
   1  -4   8  118.99    7.20
   1  -4   8  114.09    7.10
  -1  -4  -8   95.79    7.50
   1  -4   8  118.29    7.10
  -1  -4  -8  109.09    7.20
  -1  -4  -8  112.39    7.20
  -1  -4  -8  116.49    7.70
   1  -4   8  124.99    7.40
   1  -4   8  108.89    6.10
   1   4   8   97.59    7.20
   1   4   8  109.19    7.70
   1   4   8  106.69    7.50
  -1   4  -8  111.49    7.00
  -1   4  -8   95.99    6.90
  -1   4  -8  123.39    6.80
  -1   4  -8  112.99    6.80
   1   4   8  102.59    7.60
  -1   4  -8  111.39    7.20
  -1   4  -8  109.29    6.80
   1   4   8  124.29    8.10
   1   4   8  106.19    7.10
   2  -4   8   30.20    3.90
  -2  -4  -8   20.30    3.60
  -2  -4  -8   27.70    4.80
   2  -4   8   22.60    4.20
   2  -4   8   21.30    4.10
  -2  -4  -8   22.70    3.90
   2  -4   8   26.00    4.60
  -2  -4  -8   20.20    4.30
   2  -4   8   21.30    4.30
   2  -4   8   13.30    2.80
  -2  -4  -8   22.80    4.30
  -2  -4  -8   23.00    4.40
  -2   4  -8   18.90    4.00
   2   4   8   25.20    4.90
  -2   4  -8   17.70    4.10
   2   4   8   21.90    4.00
   2   4   8   21.20    4.40
   2   4   8   15.40    4.30
  -2   4  -8   23.20    4.10
  -2   4  -8   18.70    4.20
   2   4   8   20.40    4.20
   2   4   8   27.90    4.50
  -2   4  -8   25.20    4.70
  -2   4  -8   21.90    4.10
  -3  -4  -8   -1.80    5.50
   3  -4   8    8.80    4.10
   3  -4   8   -2.20    5.30
   3  -4   8   -7.40    4.70
  -3  -4  -8    6.30    5.10
   3  -4   8    1.00    4.60
  -3  -4  -8   -6.10    4.30
  -3  -4  -8   -6.00    5.10
  -3  -4  -8    6.50    5.60
  -3  -4  -8    2.50    4.60
   3  -4   8    9.90    5.70
  -3   4  -8    6.90    5.30
  -3   4  -8    0.50    5.30
  -3   4  -8   -4.40    5.10
   3   4   8   -3.50    5.00
   3   4   8   -9.40    4.30
  -3   4  -8    1.90    4.20
   3   4   8    0.90    5.00
   3   4   8   -3.10    4.20
  -3   4  -8   -3.10    5.30
   3   4   8   -0.90    4.80
  -3   4  -8   -2.70    4.20
   4  -5  -8   17.40    9.60
   4  -5  -8   24.40    6.60
   4  -5  -8   33.60    8.50
  -4  -5   8   34.90    6.50
   4  -5  -8   50.99    9.80
   4  -5  -8   21.80    6.70
  -4  -5   8    3.20    7.90
  -4  -5   8   26.20    5.50
   4  -5  -8   36.70    8.40
   4   5  -8   39.50    6.40
   4   5  -8   30.30    6.30
  -4   5   8   44.80    6.70
   4   5  -8   35.30    5.30
  -4   5   8   31.80    7.40
  -4   5   8   23.80    8.20
   4   5  -8   32.30    5.20
  -4   5   8   26.40    8.40
   4   5  -8   22.50    4.90
  -4   5   8   36.10    8.40
   3  -5  -8   19.50    5.30
  -3  -5   8   11.90    3.20
   3  -5  -8   23.20    5.50
   3  -5  -8   16.10    4.50
   3  -5  -8   19.60    5.10
  -3  -5   8   16.90    3.30
   3  -5  -8   15.90    4.90
  -3  -5   8    4.80    4.30
   3  -5  -8   15.10    4.70
  -3  -5   8   17.70    3.00
  -3   5   8    7.40    4.50
   3   5  -8   13.20    2.70
   3   5  -8   18.50    2.90
   3   5  -8   15.70    3.40
   3   5  -8   18.00    3.50
  -3   5   8   19.70    4.10
   3   5  -8   17.40    2.80
  -3   5   8   17.30    4.60
  -3   5   8   13.40    5.80
  -3   5   8   15.00    4.60
   3   5  -8   16.60    2.90
   2  -5  -8  122.99    8.60
  -2  -5   8  121.89    5.90
   2  -5  -8  128.09    8.50
   2  -5  -8  104.89    8.30
   2  -5  -8  128.69    8.10
   2  -5  -8  101.09    8.40
  -2  -5   8  108.19    5.80
   2  -5  -8  107.39    8.00
  -2  -5   8  116.59    6.00
  -2  -5   8  114.09    6.10
  -2   5   8  111.19    8.50
  -2   5   8  122.19    8.00
  -2   5   8  126.99    8.70
  -2   5   8  118.99    8.60
  -2   5   8  120.79    7.90
   2   5  -8  116.89    6.20
  -2   5   8  114.29    8.80
   2   5  -8  112.69    6.30
   1  -5  -8   69.39    5.50
   1  -5  -8   75.39    5.90
   1  -5  -8   65.99    5.80
   1  -5  -8   68.59    5.70
   1  -5  -8   72.79    5.60
  -1   5   8   64.19    5.90
  -1   5   8   64.19    5.80
  -1   5   8   56.09    5.70
  -1   5   8   72.59    5.40
  -1   5   8   60.09    5.90
  -1   5   8   63.89    5.30
   0  -5   8  256.97   13.00
   0  -5  -8  269.57   14.00
   0  -5  -8  253.07   14.20
   0  -5  -8  297.17   14.50
   0  -5   8  276.67   13.10
   0  -5  -8  262.47   14.30
   0  -5  -8  273.17   14.30
   0  -5  -8  267.57   14.00
   0   5   8  280.67   14.00
   0   5   8  247.78   14.20
   0   5   8  277.37   14.40
   0   5  -8  282.07   12.90
   0   5  -8  272.77   12.80
   0   5  -8  271.97   12.80
   0   5   8  272.57   14.50
   0   5  -8  274.07   13.00
   0   5   8  283.97   14.00
   0   5  -8  274.97   12.80
   1  -5   8   26.80    3.80
  -1  -5  -8   26.80    3.90
   1  -5   8   30.40    4.00
  -1  -5  -8   34.20    5.00
   1  -5   8   27.90    3.50
   1  -5   8   23.20    2.60
  -1  -5  -8   24.70    3.90
   1  -5   8   22.90    2.40
  -1  -5  -8   24.60    3.90
  -1  -5  -8   34.90    4.00
  -1  -5  -8   22.30    3.30
   1   5   8   25.60    3.90
   1   5   8   35.50    4.60
   1   5   8   30.80    4.30
  -1   5  -8   23.80    3.40
  -1   5  -8   25.60    3.90
   1   5   8   28.50    3.60
   1   5   8   20.70    3.50
   1   5   8   34.60    4.50
  -1   5  -8   26.50    3.50
  -1   5  -8   23.60    3.50
  -1   5  -8   30.70    4.20
  -1   5  -8   26.60    3.30
  -2  -5  -8  160.18   10.90
   2  -5   8  147.79    9.10
  -2  -5  -8  158.08   10.30
   2  -5   8  145.79   10.40
  -2  -5  -8  164.38   10.10
   2  -5   8  151.98   10.60
   2  -5   8  170.78   10.50
  -2  -5  -8  162.08   10.90
   2  -5   8  137.89   10.40
  -2  -5  -8  171.58   11.10
  -2  -5  -8  165.08   10.30
   2  -5   8  150.18    9.30
  -2   5  -8  164.98   10.40
  -2   5  -8  139.09    9.90
   2   5   8  178.38   11.30
  -2   5  -8  141.79   10.30
  -2   5  -8  173.28   10.20
  -2   5  -8  154.08   10.50
   2   5   8  161.68   10.60
   2   5   8  174.18   10.60
   2   5   8  143.69   10.50
   2   5   8  153.78   10.60
   2   5   8  156.38   10.20
  -2   5  -8  170.48   10.90
   3  -5   8  127.79    9.80
  -3  -5  -8  108.49   11.10
   3  -5   8  118.09   11.50
   3  -5   8  109.69   11.20
  -3  -5  -8   99.89   11.50
  -3  -5  -8  120.19   10.70
   3  -5   8  131.59   10.90
  -3  -5  -8  120.79   11.00
  -3  -5  -8  115.09   10.30
  -3  -5  -8  121.79   11.40
   3   5   8  117.49   10.70
  -3   5  -8  114.69   10.50
  -3   5  -8  121.19   11.30
   3   5   8  124.59   11.20
  -3   5  -8  103.09   11.70
  -3   5  -8  115.39   11.30
   3   5   8  141.99   11.30
   3   5   8  127.99   11.60
   3   5   8  103.99   11.40
  -3   5  -8  130.39   10.90
  -3   5  -8  113.09   11.40
  -4  -6   8  155.68   11.20
   4  -6  -8  150.48   14.70
  -4  -6   8  140.39   12.00
   4   6  -8  154.28   10.60
   4   6  -8  173.48   10.50
  -4   6   8  155.38   15.50
  -4   6   8  157.38   15.90
   3  -6  -8  380.66   19.50
   3  -6  -8  346.77   19.50
  -3  -6   8  354.96   17.00
   3  -6  -8  351.26   19.80
   3  -6  -8  364.46   19.40
  -3  -6   8  315.67   16.60
   3  -6  -8  375.56   20.10
   3  -6  -8  345.47   18.80
   3   6  -8  324.67   16.20
   3   6  -8  354.16   17.30
  -3   6   8  293.87   18.40
  -3   6   8  306.97   18.20
   3   6  -8  331.67   16.30
  -3   6   8  363.36   19.60
  -3   6   8  381.76   19.40
   3   6  -8  337.27   17.30
  -3   6   8  299.97   19.90
   3   6  -8  347.07   16.30
   3   6  -8  346.27   16.40
   2  -6  -8   34.20    4.30
   2  -6  -8   41.10    5.80
  -2  -6   8   32.70    2.30
   2  -6  -8   41.20    6.10
   2  -6  -8   26.50    4.80
   2  -6  -8   42.10    6.20
   2  -6  -8   35.80    5.30
  -2  -6   8   31.80    2.30
  -2   6   8   35.40    5.10
  -2   6   8   38.10    5.30
   2   6  -8   34.00    3.00
  -2   6   8   34.60    5.20
  -2   6   8   40.00    5.70
  -2   6   8   34.50    5.20
  -2   6   8   40.80    5.40
   1  -6  -8   25.50    3.50
   1  -6  -8   22.20    3.70
   1  -6  -8   23.50    3.70
   1  -6  -8   16.60    3.40
   1  -6  -8   22.00    3.80
  -1   6   8   29.00    4.30
  -1   6   8   23.80    3.50
  -1   6   8   22.50    3.40
  -1   6   8   26.80    4.30
  -1   6   8   27.70    4.30
  -1   6   8   23.10    3.90
   0  -6  -8 3244.18  141.49
   0  -6  -8 3148.89  141.09
   0  -6   8 2936.61  139.99
   0  -6  -8 2825.12  141.29
   0  -6  -8 3029.20  141.49
   0  -6  -8 2972.10  141.29
   0  -6   8 3105.59  140.09
   0  -6  -8 3193.68  141.09
   0  -6   8 3182.88  139.99
   0   6  -8 2848.42  139.89
   0   6  -8 2896.01  139.79
   0   6   8 3303.97  141.09
   0   6   8 3126.39  141.09
   0   6  -8 3046.20  139.79
   0   6   8 3499.15  141.69
   0   6  -8 3067.09  139.89
   0   6   8 3095.99  141.49
   0   6  -8 3138.89  139.99
   0   6   8 3400.56  141.69
   0   6   8 3604.54  141.79
   0   6  -8 3147.59  139.89
  -1  -6  -8   56.39    5.90
   1  -6   8   55.19    4.80
  -1  -6  -8   53.29    5.20
  -1  -6  -8   53.29    5.50
   1  -6   8   48.30    4.60
  -1  -6  -8   51.89    6.00
  -1  -6  -8   52.59    5.30
   1  -6   8   45.90    3.30
   1  -6   8   48.00    3.20
  -1  -6  -8   51.49    5.30
   1  -6   8   58.19    5.00
   1   6   8   52.79    5.40
   1   6   8   39.60    5.40
   1   6   8   52.49    5.90
   1   6   8   63.69    5.50
  -1   6  -8   51.69    4.60
  -1   6  -8   55.29    4.90
  -1   6  -8   51.79    4.90
  -1   6  -8   53.99    5.00
  -1   6  -8   50.09    4.60
   1   6   8   47.30    5.40
   1   6   8   50.79    6.10
   2  -6   8    0.60    3.50
   2  -6   8   -6.70    3.30
  -2  -6  -8    2.10    3.00
   2  -6   8   -0.40    2.60
  -2  -6  -8   -2.50    4.20
  -2  -6  -8    3.50    3.20
   2  -6   8   -0.60    3.50
  -2  -6  -8   -1.60    3.70
   2  -6   8   -2.60    3.50
  -2  -6  -8    1.70    3.70
   2  -6   8   -2.20    2.20
  -2  -6  -8    0.20    3.50
   2   6   8   -0.10    3.10
   2   6   8    1.80    3.60
  -2   6  -8    0.20    3.00
  -2   6  -8   -0.20    3.20
   2   6   8   -1.40    3.70
  -2   6  -8    1.30    3.40
  -2   6  -8    3.00    3.80
  -2   6  -8   -4.70    3.10
  -2   6  -8   -5.00    3.60
   2   6   8   -1.40    3.20
   2   6   8    2.30    3.90
   3  -6   8  248.08   16.20
   3  -6   8  266.77   16.50
  -3  -6  -8  228.58   16.30
   3  -6   8  244.28   14.40
  -3  -6  -8  216.28   16.30
   3  -6   8  214.78   15.30
  -3  -6  -8  261.77   15.70
   3  -6   8  225.68   17.30
  -3  -6  -8  219.78   15.60
  -3  -6  -8  241.48   15.10
  -3  -6  -8  241.48   16.40
   3   6   8  237.08   15.20
   3   6   8  239.38   15.50
  -3   6  -8  226.48   15.50
  -3   6  -8  236.08   16.50
  -3   6  -8  254.77   16.10
  -3   6  -8  245.88   16.10
   3   6   8  223.88   16.10
   3   6   8  238.28   16.00
  -3   6  -8  242.98   16.40
  -3   6  -8  231.98   15.60
   3   6   8  263.37   16.70
   3   6   8  240.88   15.80
  -3  -7   8   -0.60    2.30
  -3  -7   8    6.80    2.30
   3  -7  -8   14.50    5.00
   3  -7  -8    7.20    5.50
   3  -7  -8    4.00    4.90
   3  -7  -8   10.60    5.00
   3  -7  -8    6.70    5.60
  -3  -7   8    1.20    2.70
   3  -7  -8    3.30    4.90
  -3   7   8   21.70    6.10
   3   7  -8    6.70    3.10
  -3   7   8    3.00    5.90
   3   7  -8    3.30    1.80
   3   7  -8    7.50    1.80
  -3   7   8    2.80    5.20
   3   7  -8    6.90    3.10
  -3   7   8    2.50    5.20
  -3   7   8    3.30    4.30
   2  -7  -8   20.10    4.10
   2  -7  -8   22.60    4.70
   2  -7  -8   22.40    4.60
   2  -7  -8   24.50    4.90
   2  -7  -8   30.90    4.50
   2  -7  -8   23.60    4.70
   2   7  -8   22.10    2.70
  -2   7   8   23.30    5.00
  -2   7   8   21.80    4.60
   2   7  -8   21.70    2.60
  -2   7   8   19.90    3.90
  -2   7   8   19.60    4.50
  -2   7   8   22.20    4.80
  -2   7   8   18.70    3.90
   1  -7  -8   12.00    3.00
   1  -7  -8   15.10    3.50
   1  -7  -8   12.90    3.70
   1  -7  -8   11.50    3.40
   1  -7  -8   12.40    3.60
  -1   7   8   23.50    4.30
  -1   7   8   13.80    3.60
  -1   7   8   17.80    3.50
  -1   7   8   15.00    3.10
  -1   7   8   20.10    4.10
  -1   7   8   13.50    3.70
   0  -7   8   -0.40    1.40
   0  -7  -8    3.30    3.00
   0  -7   8    0.50    1.40
   0  -7   8    0.20    1.20
   0  -7  -8    3.50    2.30
   0  -7  -8    4.40    2.80
   0  -7   8    2.90    1.40
   0  -7  -8    4.20    2.70
   0  -7  -8    4.00    2.90
   0  -7  -8    0.90    2.30
   0   7  -8    1.80    1.20
   0   7  -8    1.10    1.30
   0   7   8    2.10    2.80
   0   7  -8    0.30    1.20
   0   7  -8    2.50    1.40
   0   7   8    1.00    2.70
   0   7   8    3.20    2.80
   0   7   8    0.80    2.30
   0   7  -8    1.40    1.10
   0   7  -8    1.30    1.10
   0   7   8    1.80    2.90
   0   7   8    2.20    2.30
   1  -7   8  911.31   41.30
  -1  -7  -8  934.91   42.30
   1  -7   8  925.81   41.40
  -1  -7  -8  889.81   42.20
   1  -7   8  893.81   41.30
  -1  -7  -8  869.31   42.00
  -1  -7  -8  879.61   41.60
  -1  -7  -8  830.32   41.50
   1  -7   8  883.41   39.90
   1  -7   8  920.91   41.40
   1  -7   8  898.21   39.90
  -1  -7  -8  758.42   41.90
  -1   7  -8  809.92   41.00
  -1   7  -8  897.71   41.30
  -1   7  -8  866.61   41.00
   1   7   8  939.61   42.50
   1   7   8  892.81   42.30
   1   7   8  878.21   42.20
   1   7   8  905.21   42.10
  -1   7  -8  895.21   41.10
   1   7   8  920.91   41.80
  -1   7  -8  887.71   41.10
   1   7   8  890.61   41.70
  -1   7  -8  894.21   41.30
   2  -7   8   59.99    7.00
  -2  -7  -8   63.19    6.90
   2  -7   8   52.49    7.00
   2  -7   8   57.79    7.00
   2  -7   8   50.79    6.80
  -2  -7  -8   54.89    7.30
  -2  -7  -8   61.59    7.40
  -2  -7  -8   41.90    5.40
   2  -7   8   51.19    5.40
  -2  -7  -8   59.39    8.00
   2  -7   8   56.19    5.10
  -2  -7  -8   50.99    7.60
  -2   7  -8   51.09    6.90
   2   7   8   64.89    7.50
   2   7   8   65.29    7.30
  -2   7  -8   63.89    7.40
  -2   7  -8   60.29    6.80
  -2   7  -8   61.49    6.60
   2   7   8   53.89    6.90
   2   7   8   55.99    7.50
   2   7   8   67.09    8.40
  -2   7  -8   45.70    6.70
  -2   7  -8   48.10    6.80
   3  -7   8  115.79   12.50
   3  -7   8  109.49   10.30
  -3  -7  -8  145.49   12.40
   3  -7   8  111.59   11.60
  -3  -7  -8  133.99   13.10
  -3  -7  -8  144.19   11.20
  -3  -7  -8  158.08   13.20
   3  -7   8  143.99   12.50
  -3  -7  -8  140.39   12.60
   3  -7   8  137.89   12.50
  -3  -7  -8  138.69   11.80
   3   7   8  116.39   11.70
   3   7   8  130.89   11.60
   3   7   8  157.78   13.30
  -3   7  -8   93.09   11.90
  -3   7  -8  141.89   12.90
  -3   7  -8  121.89   13.00
  -3   7  -8  125.39   11.40
   3   7   8  128.69   12.20
  -3   7  -8  116.79   11.80
  -3   7  -8  126.99   12.20
   3   7   8  120.09   11.70
   3   7   8  143.29   12.40
  -3  -8   8   26.30    3.90
   3  -8  -8   16.20    5.70
   3  -8  -8   26.50    5.90
   3  -8  -8   22.20    6.30
   3  -8  -8   37.50    6.90
   3  -8  -8   13.00    6.40
   3  -8  -8   29.80    7.10
  -3  -8   8   23.30    2.60
  -3   8   8   30.00    7.90
  -3   8   8   27.80    6.00
  -3   8   8   34.70    7.10
  -3   8   8   26.60    6.30
  -3   8   8   23.40    7.50
  -3   8   8   29.20    6.40
   3   8  -8   19.80    3.90
   2  -8  -8  134.69   10.40
   2  -8  -8  120.19    9.40
   2  -8  -8  135.89   10.50
   2  -8  -8  131.39   10.20
   2  -8  -8  131.09    9.70
  -2   8   8  128.59    9.90
  -2   8   8  127.89    9.50
  -2   8   8  120.19   10.50
  -2   8   8  122.59    9.80
   2   8  -8  122.09    6.60
  -2   8   8  127.49   10.30
  -2   8   8  133.59   10.20
   2   8  -8  120.99    6.60
   1  -8  -8    5.00    2.90
   1  -8  -8    2.00    3.60
   1  -8  -8    8.30    3.40
   1  -8  -8    5.00    3.20
   1  -8  -8    2.40    3.00
  -1   8   8   -1.30    3.00
  -1   8   8    6.40    3.60
  -1   8   8    3.40    3.30
  -1   8   8    3.70    2.80
  -1   8   8    5.40    2.90
  -1   8   8    4.70    3.20
   0  -8   8  140.29    7.10
   0  -8  -8  120.49    9.10
   0  -8   8  133.49    7.00
   0  -8   8  135.09    6.90
   0  -8  -8  132.59    8.80
   0  -8  -8  127.89    9.10
   0  -8  -8  123.29    8.50
   0  -8  -8  140.89    9.00
   0  -8   8  127.99    6.80
   0  -8  -8  140.79    9.50
   0   8  -8  130.79    6.80
   0   8   8  120.59    9.20
   0   8   8  133.09    9.30
   0   8   8  131.39    8.70
   0   8   8  124.09    8.70
   0   8  -8  129.49    6.50
   0   8   8  140.99    9.00
   0   8  -8  132.09    6.50
   0   8   8  129.89    9.40
   0   8  -8  135.49    7.00
   0   8  -8  133.69    6.80
   0   8  -8  125.49    6.90
  -1  -8  -8  210.48   12.70
  -1  -8  -8  209.38   11.90
  -1  -8  -8  204.38   12.70
  -1  -8  -8  197.38   11.90
  -1  -8  -8  201.38   12.50
   1  -8   8  203.28   11.50
   1  -8   8  198.08   11.20
   1  -8   8  203.48   11.40
  -1  -8  -8  215.28   12.60
   1  -8   8  194.28   11.30
  -1   8  -8  215.38   11.30
  -1   8  -8  215.38   11.40
   1   8   8  197.48   12.80
   1   8   8  190.98   11.90
  -1   8  -8  200.78   11.40
   1   8   8  217.48   12.80
  -1   8  -8  210.68   11.20
   1   8   8  201.88   12.10
  -1   8  -8  194.28   11.20
  -1   8  -8  209.78   11.20
   1   8   8  204.78   12.60
   2  -8   8   14.80    3.10
  -2  -8  -8   21.40    5.40
   2  -8   8   11.00    4.40
   2  -8   8   11.60    2.80
  -2  -8  -8    6.80    3.60
  -2  -8  -8   15.20    4.90
   2  -8   8    9.90    4.30
  -2  -8  -8    3.80    4.40
  -2  -8  -8   12.50    5.10
   2  -8   8   14.50    4.50
  -2  -8  -8   12.80    4.00
   2   8   8   12.10    4.40
   2   8   8   10.40    4.60
  -2   8  -8   21.30    4.40
  -2   8  -8   18.80    4.80
   2   8   8   21.40    5.50
   2   8   8   21.40    5.30
  -2   8  -8    5.60    3.70
  -2   8  -8   18.40    4.80
   2   8   8   11.90    5.50
  -2   8  -8   13.50    4.30
   3  -8   8  158.88   12.80
  -3  -8  -8  152.88   12.40
  -3  -8  -8  144.09   13.80
  -3  -8  -8  144.59   14.20
   3  -8   8  163.68   13.90
  -3  -8  -8  143.39   13.30
  -3  -8  -8  126.29   12.50
   3  -8   8  137.79   13.70
   3  -8   8  162.58   13.90
   3  -8   8  134.49   11.10
  -3  -8  -8  173.78   13.80
   3   8   8  154.08   12.50
   3   8   8  158.48   13.00
  -3   8  -8  154.98   12.90
  -3   8  -8  164.68   14.20
   3   8   8  166.18   14.90
  -3   8  -8  148.99   13.30
  -3   8  -8  149.29   13.90
  -3   8  -8  171.38   13.20
   3   8   8  155.38   14.10
  -3   8  -8  160.98   13.30
   3   8   8  158.38   13.00
   3   8   8  155.38   13.60
   3  -9  -8    1.70    6.30
  -3  -9   8   -0.10    2.20
   3  -9  -8    2.40    5.60
   3  -9  -8    1.00    6.30
   3  -9  -8    7.60    5.80
   3  -9  -8    1.00    5.20
   3  -9  -8   11.20    7.10
  -3  -9   8    3.30    2.20
   3   9  -8    2.90    3.50
  -3   9   8   14.60    5.50
  -3   9   8   -3.80    5.90
  -3   9   8    6.70    6.30
   3   9  -8   -2.50    3.40
  -3   9   8   15.70    7.40
  -3   9   8    4.40    7.00
  -3   9   8    0.80    6.60
   2  -9  -8  237.48   15.30
   2  -9  -8  261.07   15.40
   2  -9  -8  251.97   15.60
   2  -9  -8  246.98   14.70
   2  -9  -8  263.57   15.70
  -2   9   8  227.68   15.30
  -2   9   8  246.58   15.40
  -2   9   8  225.58   14.40
  -2   9   8  248.78   15.90
  -2   9   8  244.38   15.80
   2   9  -8  249.08   11.80
   2   9  -8  243.78   11.80
   1  -9  -8   28.80    4.80
   1  -9  -8   24.40    4.70
   1  -9  -8   25.90    5.20
   1  -9  -8   26.60    4.60
  -1   9   8   22.00    4.40
  -1   9   8   27.30    4.60
  -1   9   8   18.10    4.60
  -1   9   8   24.20    5.00
  -1   9   8   16.60    4.20
  -1   9   8   26.10    4.90
   0  -9   8  147.49    7.60
   0  -9   8  145.99    7.50
   0  -9  -8  123.29    9.80
   0  -9  -8  141.29    9.70
   0  -9  -8  151.08    9.80
   0  -9   8  146.59    7.80
   0  -9  -8  137.59    9.30
   0  -9   8  128.39    7.60
   0  -9  -8  154.28    9.60
   0  -9  -8  146.89   10.40
   0   9   8  142.49   10.20
   0   9  -8  142.79    7.20
   0   9  -8  147.29    7.50
   0   9   8  147.39    9.60
   0   9  -8  145.09    7.60
   0   9   8  124.49    9.80
   0   9   8  154.28   10.40
   0   9  -8  147.89    7.40
   0   9   8  161.38   10.40
   0   9  -8  137.29    7.10
   0   9   8  137.99    9.50
   0   9  -8  154.88    7.80
   1  -9   8    4.50    3.10
   1  -9   8    2.60    2.50
  -1  -9  -8    4.30    4.00
   1  -9   8   -1.90    2.80
   1  -9   8    2.40    2.90
  -1  -9  -8    5.80    3.50
  -1  -9  -8    7.10    4.20
  -1  -9  -8    7.10    3.80
  -1  -9  -8    3.30    3.20
  -1  -9  -8    4.60    3.20
  -1   9  -8    0.60    2.70
   1   9   8    6.50    4.10
   1   9   8    1.80    4.10
  -1   9  -8   -1.20    2.80
  -1   9  -8    2.50    2.70
   1   9   8    2.90    4.80
   1   9   8    9.40    3.50
   1   9   8    7.30    3.70
   1   9   8    8.90    4.40
  -1   9  -8    2.50    2.80
  -1   9  -8    4.50    2.90
  -1   9  -8    1.40    2.90
  -2  -9  -8  291.37   17.40
   2  -9   8  243.88   16.10
  -2  -9  -8  277.77   16.90
   2  -9   8  272.07   16.30
   2  -9   8  281.57   16.20
  -2  -9  -8  271.47   16.80
   2  -9   8  288.77   14.30
  -2  -9  -8  290.67   16.30
  -2  -9  -8  256.87   16.70
   2  -9   8  263.27   14.20
   2   9   8  280.37   17.20
  -2   9  -8  298.27   15.90
   2   9   8  264.97   17.40
  -2   9  -8  277.97   15.80
   2   9   8  286.57   16.90
  -2   9  -8  288.37   16.30
   2   9   8  283.87   16.30
   2   9   8  275.57   17.00
  -2   9  -8  300.87   16.50
  -2   9  -8  276.67   16.00
   2   9   8  296.87   16.60
  -3  -9  -8   83.49   10.90
   3  -9   8   67.09    8.70
   3  -9   8   59.49    8.90
   3  -9   8   83.19   12.00
   3  -9   8   67.59    9.40
  -3  -9  -8   92.89   12.50
  -3  -9  -8   76.39   10.40
  -3  -9  -8   67.39    9.60
  -3  -9  -8   91.99   12.80
   3  -9   8   75.69   11.40
  -3  -9  -8   94.99   12.10
  -3   9  -8   85.19   10.00
  -3   9  -8   85.99   10.30
  -3   9  -8   82.49   10.00
   3   9   8  115.49   13.40
   3   9   8   77.49    9.80
  -3   9  -8   96.49   11.30
  -3   9  -8   80.89   10.70
   3   9   8   63.89    8.30
   3   9   8   87.19   11.80
   3   9   8   69.09   10.30
   3   9   8   79.59    9.90
  -3   9  -8   89.39   11.90
   3 -10  -8   39.00    8.70
   3 -10  -8   43.10    9.20
   3 -10  -8   28.50    7.00
   3 -10  -8   60.69    8.80
   3 -10  -8   42.70    7.10
   3 -10  -8   22.00    7.50
  -3  10   8   36.20    8.20
  -3  10   8   43.10    8.90
   3  10  -8   40.60    4.80
  -3  10   8   40.90    7.50
   3  10  -8   43.00    4.80
  -3  10   8   43.80    9.60
  -3  10   8   30.40    7.70
  -3  10   8   33.90    9.40
   2 -10  -8   15.70    5.10
   2 -10  -8   13.40    5.60
   2 -10  -8   20.80    5.80
   2 -10  -8   13.70    5.20
   2 -10  -8   21.10    6.40
  -2  10   8   12.50    4.80
  -2  10   8   20.70    5.90
  -2  10   8   15.80    5.90
  -2  10   8   13.10    5.70
   2  10  -8   20.30    2.30
  -2  10   8   24.90    6.20
   2  10  -8   17.50    2.30
  -2  10   8   15.60    5.80
   1 -10  -8   63.69    7.70
   1 -10  -8   51.89    7.60
   1 -10  -8   50.29    6.40
   1 -10  -8   39.20    5.40
   1  10  -8   49.40    3.20
  -1  10   8   47.30    6.30
  -1  10   8   52.19    6.70
  -1  10   8   46.70    6.70
  -1  10   8   56.49    7.60
   1  10  -8   52.09    3.30
  -1  10   8   46.00    6.70
   0 -10  -8  355.46   19.10
   0 -10  -8  378.56   19.50
   0 -10  -8  369.66   19.60
   0 -10   8  354.86   16.90
   0 -10   8  335.77   17.00
   0 -10   8  353.16   17.00
   0 -10  -8  360.46   18.70
   0 -10   8  333.47   16.80
   0 -10  -8  362.36   18.70
   0 -10  -8  393.56   19.60
   0  10   8  353.06   18.80
   0  10   8  343.57   19.30
   0  10  -8  345.17   17.10
   0  10   8  390.36   19.40
   0  10  -8  314.67   16.40
   0  10   8  324.17   19.20
   0  10  -8  346.47   16.80
   0  10  -8  371.66   16.50
   0  10  -8  353.16   17.00
   0  10   8  369.66   19.40
   0  10  -8  363.66   16.80
  -1 -10  -8  101.59    8.20
  -1 -10  -8   79.09    8.00
  -1 -10  -8  100.49    9.00
   1 -10   8   85.49    6.60
   1 -10   8   83.99    7.40
  -1 -10  -8   89.89    8.70
  -1 -10  -8   84.29    8.70
   1 -10   8   86.79    6.80
  -1 -10  -8   96.79    8.00
  -1  10  -8   89.29    6.90
   1  10   8   90.29    9.40
  -1  10  -8   82.69    6.80
  -1  10  -8   80.19    7.10
  -1  10  -8   83.29    6.90
  -1  10  -8   86.79    7.00
   1  10   8  100.89    8.50
   1  10   8   86.99    8.80
  -1  10  -8   85.69    6.50
   1  10   8   71.39    7.90
   2 -10   8   17.10    4.70
   2 -10   8   20.70    3.40
  -2 -10  -8   37.00    6.40
   2 -10   8   35.30    6.10
  -2 -10  -8   24.10    6.00
   2 -10   8   29.00    5.70
   2 -10   8   29.40    5.50
  -2 -10  -8   30.00    5.20
   2 -10   8   29.50    3.60
  -2 -10  -8   20.30    5.60
  -2 -10  -8   46.40    7.50
  -2  10  -8   26.50    6.00
  -2  10  -8   25.80    5.10
   2  10   8   34.90    7.10
   2  10   8   22.60    6.00
   2  10   8   38.60    7.00
  -2  10  -8   26.80    5.50
  -2  10  -8   28.90    5.30
   2  10   8   17.40    5.50
   2  10   8   35.60    6.00
   2  10   8   27.20    6.50
  -2  10  -8   27.80    5.70
  -2  10  -8   39.90    6.10
  -3 -10  -8    9.90    7.70
   3 -10   8   26.80    7.90
   3 -10   8    7.90    6.20
  -3 -10  -8   20.70    8.00
   3 -10   8   36.40    8.40
  -3 -10  -8   15.90    8.50
   3 -10   8   27.40    5.60
  -3 -10  -8   12.60    6.20
  -3 -10  -8   31.50    7.10
   3  10   8   16.80    8.10
   3  10   8   21.90    8.60
  -3  10  -8   17.20    8.50
  -3  10  -8   17.00    8.70
  -3  10  -8   21.60    7.20
   3  10   8    8.50    9.70
   3  10   8   23.60    7.50
  -3  10  -8   19.40    6.90
   3 -11  -8   24.90    9.60
   3 -11  -8    4.90    8.20
   3 -11  -8   15.30    8.10
   3 -11  -8   17.60   11.40
  -3  11   8   31.80   10.20
  -3  11   8    4.40    8.50
   3  11  -8   27.30    4.60
   3  11  -8   22.00    4.30
  -3  11   8   16.30    7.70
  -3  11   8   16.00    7.80
  -3  11   8   26.60    8.70
  -3  11   8   32.00    8.00
   2 -11  -8   19.90    5.50
   2 -11  -8    9.70    5.50
   2 -11  -8    2.20    5.60
   2 -11  -8    6.50    6.60
   2 -11  -8    5.90    6.20
   2  11  -8    8.70    2.20
   2  11  -8   10.40    2.20
  -2  11   8    5.50    5.70
  -2  11   8   11.70    6.60
  -2  11   8    6.30    5.10
  -2  11   8    0.50    5.80
  -2  11   8    6.00    5.60
  -2  11   8   17.60    7.30
   1 -11  -8   97.09    9.60
   1 -11  -8  109.19   10.10
   1 -11  -8  115.69   10.20
   1 -11  -8  113.09    9.30
   1 -11  -8  112.89    9.90
  -1  11   8  100.29   10.40
  -1  11   8  101.09   10.20
  -1  11   8   95.29    9.00
  -1  11   8   82.29   10.00
   1  11  -8   96.99    5.60
   1  11  -8   99.89    5.70
  -1  11   8   99.69    9.30
   0 -11  -8   28.70    4.50
   0 -11  -8   25.50    5.10
   0 -11   8   21.40    3.00
   0 -11  -8   19.70    4.80
   0 -11   8   23.10    3.10
   0 -11  -8   24.10    5.70
   0 -11  -8   31.40    5.70
   0 -11   8   24.20    3.20
   0 -11   8   22.30    2.90
   0 -11  -8    7.30    4.40
   0  11   8   20.60    5.20
   0  11  -8   19.40    2.90
   0  11   8   22.60    5.40
   0  11  -8   24.50    3.40
   0  11   8   31.70    5.80
   0  11  -8   20.30    2.70
   0  11  -8   19.60    2.90
   0  11   8   15.70    4.90
   0  11  -8   27.00    2.80
   0  11  -8   23.80    3.10
   0  11   8   25.60    4.90
   1 -11   8  500.45   24.90
  -1 -11  -8  524.25   26.40
  -1 -11  -8  494.25   26.50
  -1 -11  -8  547.35   26.50
  -1 -11  -8  513.05   26.70
   1 -11   8  523.05   25.20
  -1 -11  -8  511.85   25.80
  -1  11  -8  507.65   24.60
   1  11   8  507.35   26.00
   1  11   8  487.95   26.40
   1  11   8  507.55   26.10
  -1  11  -8  512.55   24.90
  -1  11  -8  510.45   24.80
   1  11   8  500.45   26.80
  -1  11  -8  522.95   25.10
   1  11   8  495.65   26.50
   1  11   8  494.65   26.20
  -1  11  -8  471.55   24.80
  -1  11  -8  516.45   24.90
   2 -11   8  132.99   11.10
  -2 -11  -8  146.39   12.50
  -2 -11  -8  126.39   10.70
   2 -11   8  141.79   12.00
  -2 -11  -8  139.99   11.20
  -2 -11  -8  116.99   12.30
  -2 -11  -8  142.19   12.40
   2 -11   8  129.89    8.10
  -2 -11  -8  147.09   13.20
   2 -11   8  121.99   11.60
   2  11   8  134.69   13.30
  -2  11  -8  123.79   11.30
   2  11   8  144.59   12.50
  -2  11  -8  151.48   11.20
  -2  11  -8  136.79   11.00
   2  11   8  123.49   12.30
   2  11   8  132.09   12.00
   2  11   8  119.89   11.50
  -2  11  -8  133.99   10.80
  -2  11  -8  150.48   11.90
  -2  11  -8  148.99   11.90
   2 -12  -8  101.79   10.90
   2 -12  -8   83.19    9.70
   2 -12  -8  104.69   11.50
   2 -12  -8   70.19    9.50
   2 -12  -8   71.99    9.80
   2  12  -8   69.19    5.60
  -2  12   8   77.49    9.90
  -2  12   8   84.19   10.90
   2  12  -8   79.39    5.60
  -2  12   8   77.89    9.40
  -2  12   8   94.79   10.80
  -2  12   8   88.79   12.00
  -2  12   8   59.89    7.60
   1 -12  -8   -2.10    4.70
   1 -12  -8    2.30    4.70
   1 -12  -8   -7.60    4.60
   1 -12  -8    9.10    4.60
   1 -12  -8    4.60    4.90
   1 -12  -8   -2.20    5.00
  -1  12   8    2.50    5.70
  -1  12   8    2.90    5.60
   1  12  -8    1.00    2.10
  -1  12   8    6.30    5.50
  -1  12   8    1.70    5.50
   1  12  -8    0.50    2.00
  -1  12   8   -0.10    4.40
   0 -12  -8  895.41   41.80
   0 -12  -8  853.41   41.90
   0 -12   8  764.12   39.30
   0 -12  -8  868.01   41.00
   0 -12  -8  889.01   42.00
   0 -12  -8  862.81   41.60
   0 -12   8  756.02   39.10
   0  12   8  928.81   42.20
   0  12  -8  835.62   38.70
   0  12  -8  839.72   39.00
   0  12   8  838.42   41.10
   0  12   8  851.91   41.90
   0  12   8  822.02   41.70
   0  12   8  956.30   42.30
   0  12  -8  852.41   39.40
   0  12  -8  818.82   38.60
   0  12  -8  891.31   39.10
   0  12  -8  854.01   39.50
  -1 -12  -8    2.40    5.10
   1 -12   8   -0.70    2.90
  -1 -12  -8    5.00    4.30
  -1 -12  -8   20.80    5.40
   1 -12   8    1.60    3.80
  -1 -12  -8   -1.10    4.90
   1 -12   8    3.20    3.50
  -1 -12  -8    6.50    4.80
  -1  12  -8    4.40    3.70
   1  12   8   -6.40    5.00
  -1  12  -8   13.00    3.80
   1  12   8   -0.30    4.70
   1  12   8   -5.70    4.90
  -1  12  -8    3.90    3.90
  -1  12  -8    5.80    3.60
  -1  12  -8    3.20    3.10
   1  12   8    3.60    5.40
   1  12   8   -0.90    4.90
  -1  12  -8    2.70    3.40
   1  12   8   -0.60    4.90
   2 -12   8   29.30    6.10
   2 -12   8   34.60    7.00
  -2 -12  -8   34.00    6.40
  -2 -12  -8   30.90    7.40
  -2 -12  -8   21.40    6.70
  -2 -12  -8   39.10    8.50
  -2 -12  -8   24.40    7.80
   2 -12   8   26.70    6.30
  -2 -12  -8   25.20    5.90
  -2  12  -8   14.30    6.70
  -2  12  -8   31.40    6.30
   2  12   8   44.80    8.20
   2  12   8   20.10    6.60
  -2  12  -8   21.70    5.90
   2  12   8   31.90    8.20
  -2  12  -8   28.90    6.80
   2  12   8   35.50    7.70
  -2  12  -8   35.20    6.00
  -2  12  -8   34.50    6.60
   2  12   8   23.40    7.20
   2 -13  -8   52.99    9.30
   2 -13  -8   56.59    8.20
   2 -13  -8   42.50    8.10
   2 -13  -8   51.69    8.40
   2 -13  -8   52.79    9.10
  -2  13   8   31.10    7.00
  -2  13   8   43.60    9.60
  -2  13   8   52.29    8.80
  -2  13   8   37.70    8.10
  -2  13   8   40.80    9.90
  -2  13   8   44.90    8.40
   2  13  -8   50.39    5.20
   2  13  -8   44.00    5.10
   1 -13  -8   48.30    6.80
   1 -13  -8   46.30    7.10
   1 -13  -8   47.70    7.10
   1 -13  -8   40.80    8.00
   1 -13  -8   46.90    8.20
   1 -13  -8   42.80    8.10
   1  13  -8   32.30    4.60
   1  13  -8   40.50    4.50
  -1  13   8   44.30    7.30
  -1  13   8   44.50    8.40
  -1  13   8   30.90    6.80
  -1  13   8   60.39    7.70
  -1  13   8   47.30    7.00
  -1  13   8   47.50    8.10
   0 -13  -8   45.60    7.20
   0 -13   8   54.59    5.60
   0 -13  -8   41.90    7.10
   0 -13  -8   36.50    6.00
   0 -13  -8   65.99    8.50
   0 -13   8   44.50    5.40
   0 -13  -8   61.49    8.10
   0 -13  -8   54.19    8.00
   0  13   8   51.69    7.90
   0  13   8   70.29    9.80
   0  13   8   41.30    6.30
   0  13  -8   47.70    4.80
   0  13   8   67.89    9.40
   0  13  -8   48.80    4.90
   0  13  -8   54.09    5.90
   0  13   8   55.59    7.50
   0  13   8   36.90    6.90
   0  13  -8   58.89    5.70
   0  13  -8   54.49    4.10
   0  13  -8   48.90    4.20
  -1 -13  -8   33.70    7.00
  -1 -13  -8   20.70    5.60
   1 -13   8   35.80    5.70
   1 -13   8   34.50    6.00
  -1 -13  -8   22.50    5.50
  -1 -13  -8   22.40    6.20
  -1 -13  -8   48.70    7.30
  -1 -13  -8   38.50    7.40
  -1  13  -8   30.80    5.10
  -1  13  -8   38.50    4.80
  -1  13  -8   38.30    5.80
   1  13   8   30.40    7.10
  -1  13  -8   40.50    5.30
   1  13   8   22.30    6.00
  -1  13  -8   39.20    5.60
   1  13   8   40.60    7.90
   1  13   8   41.20    6.50
   1  13   8   43.30    7.90
  -1  13  -8   40.50    5.40
   1  13   8   38.30    6.70
  -2 -13  -8   63.39   10.50
  -2 -13  -8   39.80    7.00
  -2 -13  -8   49.40    7.40
  -2 -13  -8   51.39    9.20
   2 -13   8   51.69    8.10
  -2 -13  -8   42.50    8.10
   2 -13   8   40.80    7.80
  -2  13  -8   24.70    7.70
  -2  13  -8   52.69    7.00
   2  13   8   32.30    7.40
   2  13   8   51.49    8.40
   2  13   8   38.40    8.20
   2  13   8   62.59   10.30
  -2  13  -8   49.00    8.30
  -2  13  -8   42.10    7.40
   1 -14  -8   80.39   11.60
   1 -14  -8   87.99   10.80
   1 -14  -8  110.69   13.30
   1 -14  -8   94.09   12.40
   1 -14  -8  112.49   11.30
  -1  14   8   87.59   12.00
  -1  14   8  102.99   11.80
  -1  14   8   98.59   13.20
   1  14  -8   94.49    7.10
  -1  14   8   81.69   12.60
   1  14  -8   97.99    7.10
  -1  14   8  119.29   11.70
  -1  14   8  105.19   13.10
   0 -14  -8  300.17   18.20
   0 -14  -8  287.67   18.80
   0 -14  -8  275.87   19.00
   0 -14   8  300.47   15.60
   0 -14  -8  308.27   17.90
   0 -14  -8  299.37   19.20
   0 -14  -8  299.17   19.00
   0 -14   8  313.37   15.60
   0  14   8  295.87   18.50
   0  14   8  303.47   19.20
   0  14  -8  297.47   15.90
   0  14  -8  293.27   14.90
   0  14   8  262.37   19.20
   0  14  -8  295.97   15.70
   0  14   8  280.87   17.90
   0  14  -8  290.67   14.20
   0  14   8  335.57   19.80
   0  14  -8  300.47   14.40
   0  14  -8  303.87   15.00
   0  14   8  295.37   18.70
  -1 -14  -8   34.80    7.80
  -1 -14  -8   36.80    7.40
  -1 -14  -8   21.80    7.50
  -1 -14  -8   33.10    6.90
  -1 -14  -8   26.30    6.10
   1 -14   8   33.20    6.20
   1 -14   8   33.80    6.00
  -1 -14  -8   38.50    7.00
  -1  14  -8   15.70    5.60
   1  14   8   17.20    6.60
   1  14   8   34.40    7.80
  -1  14  -8   24.10    5.40
  -1  14  -8   24.80    4.90
   1  14   8   31.50    6.70
  -1  14  -8   27.00    5.00
  -1  14  -8   23.80    5.90
   1  14   8   44.20    8.20
  -1  14  -8   30.70    5.10
   1  14   8   30.10    8.00
   1  14   8   23.30    7.60
   0 -15  -8    4.10    7.50
   0 -15  -8    4.70    7.20
   0 -15  -8  -10.30    6.10
   0 -15   8    1.60    3.40
   0 -15  -8    7.10    6.10
   0 -15  -8   -9.80    5.70
   0 -15   8    2.90    3.90
   0  15   8    0.30    8.20
   0  15  -8   -1.30    2.40
   0  15  -8    0.50    3.30
   0  15  -8    2.00    4.50
   0  15   8   -1.40    7.30
   0  15  -8    0.70    3.00
   0  15   8   -9.70    6.60
   0  15   8    3.70    7.80
   0  15  -8   -0.50    2.40
   0  15  -8    3.20    4.00
   4   0  -9    8.00    5.40
   4   0  -9   -7.10    4.60
  -4   0   9   -3.10    6.20
   4   0  -9    1.20    6.00
   4   0  -9   -6.60    5.00
   4   0  -9    4.30    5.90
  -4   0   9   -2.90    2.90
  -4   0   9    2.50    5.80
  -4   0   9   -4.90    6.70
  -4   0   9   -3.10    3.10
   4   0  -9    7.40    6.40
  -3   0   9    6.20    4.10
  -3   0   9   -1.80    2.00
  -3   0   9    3.10    3.00
   3   0  -9   -0.30    3.00
  -3   0   9    0.80    1.90
   3   0  -9   -0.40    3.10
   3   0  -9    2.70    3.10
  -3   0   9    2.20    3.20
   3   0  -9    4.90    3.50
   3   0  -9    1.00    3.20
   3   0  -9    2.10    3.10
   2   0  -9    1.10    2.10
  -2   0   9   -0.20    2.10
   2   0  -9   -2.40    2.10
   2   0  -9    1.70    2.10
  -2   0   9    0.20    1.20
  -2   0   9   -0.60    1.20
  -2   0   9    0.40    2.30
   2   0  -9    0.90    2.00
  -2   0   9   -0.20    2.20
  -2   0   9    3.10    2.00
   2   0  -9    1.30    2.00
   2   0  -9   -0.40    1.80
   1   0  -9   -1.10    1.50
  -1   0   9    0.10    1.10
  -1   0   9    0.50    0.90
  -1   0   9    0.30    1.60
  -1   0   9    0.70    1.60
   1   0  -9    2.10    1.50
   1   0  -9    0.10    1.30
   1   0  -9    0.10    1.50
   1   0  -9   -1.20    1.50
   1   0  -9    1.10    1.40
  -1   0   9   -2.20    1.60
  -1   0   9   -2.20    1.40
   0   0  -9   -1.30    1.40
   0   0   9   -0.20    1.70
   0   0   9    0.80    1.40
   0   0  -9    0.30    1.40
   0   0   9    1.00    1.30
   0   0   9    0.00    1.60
   0   0  -9   -0.70    1.40
   0   0   9    0.90    1.50
   0   0  -9   -0.40    1.50
   0   0  -9    0.00    1.50
   0   0   9    1.20    1.80
   0   0  -9    0.90    1.50
   1   0   9   -0.60    1.70
  -1   0  -9   -1.70    2.10
  -1   0  -9    2.30    1.80
  -1   0  -9   -0.60    2.30
  -1   0  -9   -1.70    1.90
   1   0   9    1.40    1.90
  -1   0  -9   -1.20    2.00
  -1   0  -9   -3.40    2.00
   1   0   9   -1.40    2.40
   1   0   9   -0.10    2.10
   1   0   9    0.60    2.20
   1   0   9   -0.70    2.10
   2   0   9    0.90    2.40
  -2   0  -9   -1.40    3.40
  -2   0  -9   -3.90    3.20
   2   0   9    1.40    3.20
  -2   0  -9   -1.10    2.70
   2   0   9    0.50    3.80
   2   0   9    0.20    3.20
   2   0   9   -2.90    3.60
  -2   0  -9   -1.30    3.00
  -2   0  -9   -1.30    3.50
  -2   0  -9   -2.00    2.80
  -3   0  -9   -0.50    4.70
  -3   0  -9   -0.40    4.80
   3   0   9   -0.30    4.60
  -3   0  -9   -5.50    4.90
   3   0   9    2.10    5.10
  -3   0  -9    4.40    5.30
  -3   0  -9   -0.30    5.40
   3   0   9   -4.60    5.00
   3   0   9    0.60    5.20
   3   0   9    1.10    5.30
  -4  -1   9  107.69   12.10
   4  -1  -9  123.99   11.40
   4  -1  -9  107.99   12.60
   4  -1  -9  161.08   13.40
  -4  -1   9  131.89   12.30
   4  -1  -9  157.68   11.90
   4  -1  -9  128.29   12.10
   4  -1  -9  130.29   11.50
  -4  -1   9  129.89   11.90
   4   1  -9  121.79   10.80
  -4   1   9  129.79    9.00
   4   1  -9  131.59   11.60
  -4   1   9  140.79   12.80
   4   1  -9  155.58   11.90
   4   1  -9  120.99   12.30
   4   1  -9  132.19   10.80
  -4   1   9  134.89   13.70
   4   1  -9  131.59   12.00
  -4   1   9  148.39   12.30
   3  -1  -9  276.07   15.10
  -3  -1   9  287.57   14.80
   3  -1  -9  297.17   15.40
   3  -1  -9  281.77   15.10
   3  -1  -9  298.67   15.90
   3  -1  -9  282.77   15.30
   3  -1  -9  268.47   15.50
  -3  -1   9  306.07   15.50
  -3  -1   9  293.17   14.90
   3   1  -9  233.68   14.50
  -3   1   9  271.77   15.20
  -3   1   9  258.97   15.30
   3   1  -9  238.68   14.70
   3   1  -9  263.37   14.90
  -3   1   9  284.07   14.10
   3   1  -9  267.37   14.70
   3   1  -9  279.17   14.70
  -3   1   9  289.07   13.90
   3   1  -9  271.77   14.80
  -2  -1   9   67.39    5.20
  -2  -1   9   53.19    4.90
   2  -1  -9   70.29    5.50
   2  -1  -9   65.39    5.40
  -2  -1   9   60.59    5.10
   2  -1  -9   64.59    5.40
  -2  -1   9   58.89    4.80
   2  -1  -9   72.29    5.30
   2  -1  -9   68.99    5.50
   2  -1  -9   68.39    5.60
   2   1  -9   69.39    5.00
  -2   1   9   64.29    5.40
   2   1  -9   67.99    4.90
  -2   1   9   68.09    5.80
   2   1  -9   63.79    4.80
  -2   1   9   64.99    5.70
   2   1  -9   62.59    4.90
   2   1  -9   64.19    5.10
  -2   1   9   62.69    4.40
  -1  -1   9  127.29    6.90
   1  -1  -9  130.79    7.10
  -1  -1   9  112.69    6.80
   1  -1  -9   99.49    7.10
   1  -1  -9  128.69    7.10
  -1  -1   9  119.99    6.70
   1  -1  -9  129.39    7.10
   1  -1  -9  123.19    7.20
   1  -1  -9  121.59    6.90
  -1  -1   9  140.19    7.00
  -1   1   9  122.69    7.40
   1   1  -9  107.69    6.60
   1   1  -9  129.79    6.60
  -1   1   9  117.39    7.30
  -1   1   9  121.19    6.50
  -1   1   9  115.39    6.50
   1   1  -9  137.29    6.80
   1   1  -9  119.59    6.60
   1   1  -9  110.99    6.60
   1   1  -9  133.49    6.70
  -1   1   9  126.39    7.30
   0  -1  -9  126.49    7.40
   0  -1  -9  134.59    7.60
   0  -1   9  139.39    7.30
   0  -1   9  125.89    7.20
   0  -1   9  128.29    7.20
   0  -1   9  131.49    6.40
   0  -1  -9  120.89    7.20
   0  -1  -9  121.49    7.30
   0  -1  -9  111.39    7.30
   0  -1  -9  117.89    7.20
   0   1   9  130.39    7.50
   0   1  -9  124.89    7.20
   0   1   9  130.79    7.60
   0   1  -9  126.19    7.10
   0   1  -9  136.19    7.20
   0   1  -9  123.19    6.90
   0   1  -9  136.19    7.30
   0   1  -9  132.39    7.00
   0   1   9  132.79    7.60
   0   1   9  127.39    7.60
   0   1   9  130.69    7.10
   0   1   9  129.99    7.00
   1  -1   9  664.23   31.60
   1  -1   9  652.23   31.00
  -1  -1  -9  665.53   31.70
  -1  -1  -9  666.93   31.80
  -1  -1  -9  693.13   31.90
   1  -1   9  697.73   31.80
  -1  -1  -9  699.33   32.00
   1  -1   9  671.93   31.80
  -1  -1  -9  678.13   31.50
   1  -1   9  695.53   31.70
  -1  -1  -9  675.13   31.50
   1   1   9  640.14   31.80
  -1   1  -9  668.43   31.40
   1   1   9  677.43   31.90
  -1   1  -9  596.64   31.40
   1   1   9  663.83   31.30
  -1   1  -9  610.34   31.40
   1   1   9  648.54   31.90
  -1   1  -9  659.93   31.70
  -1   1  -9  680.93   31.80
   1   1   9  751.92   32.00
  -1   1  -9  681.83   31.40
   1   1   9  668.03   31.40
   2  -1   9   78.79    6.10
   2  -1   9   67.19    6.40
  -2  -1  -9   56.49    7.10
  -2  -1  -9   76.69    6.70
  -2  -1  -9   68.89    7.10
   2  -1   9   73.19    7.50
  -2  -1  -9   70.29    6.60
  -2  -1  -9   70.19    7.20
   2  -1   9   72.29    6.90
  -2  -1  -9   61.89    6.50
   2  -1   9   73.79    7.30
   2  -1   9   57.19    6.80
  -2   1  -9   70.09    6.50
   2   1   9   72.19    7.20
  -2   1  -9   65.29    6.50
  -2   1  -9   61.59    7.00
   2   1   9   63.39    6.60
   2   1   9   71.59    7.40
  -2   1  -9   75.99    7.00
   2   1   9   70.29    6.10
   2   1   9   72.29    6.90
  -2   1  -9   72.89    6.90
  -2   1  -9   59.69    7.10
   2   1   9   76.09    7.60
  -3  -1  -9  147.09   11.40
  -3  -1  -9  112.09   11.90
   3  -1   9  125.69   11.70
  -3  -1  -9  134.19   11.90
   3  -1   9  158.48   12.40
  -3  -1  -9  136.39   11.60
   3  -1   9  141.09   11.20
   3  -1   9  139.09   11.80
  -3  -1  -9  139.39   11.40
   3  -1   9  146.99   10.80
   3   1   9  116.59   11.00
   3   1   9  146.79   11.90
  -3   1  -9  140.19   12.20
   3   1   9  116.69   11.30
   3   1   9  131.49   12.10
  -3   1  -9  139.39   11.70
   3   1   9  118.39   11.10
  -3   1  -9  115.89   10.70
  -3   1  -9  139.19   11.40
  -3   1  -9  144.99   11.30
  -3   1  -9  122.99   11.40
   4  -2  -9   12.30    5.80
   4  -2  -9    5.20    6.80
  -4  -2   9   11.50    5.80
   4  -2  -9    6.90    5.30
  -4  -2   9    0.40    4.50
   4  -2  -9    9.70    5.50
   4  -2  -9   14.70    5.90
  -4  -2   9   -3.50    5.30
  -4  -2   9   10.80    6.20
   4  -2  -9   -4.60    6.30
  -4   2   9   -2.50    4.10
   4   2  -9   -2.80    5.90
  -4   2   9   -0.90    4.40
   4   2  -9   14.20    5.40
  -4   2   9    5.60    6.10
   4   2  -9    6.10    5.10
  -4   2   9    8.80    6.60
   4   2  -9    3.90    5.30
  -4   2   9    5.40    6.40
   4   2  -9    2.10    5.20
   4   2  -9   12.40    4.90
  -4   2   9   11.90    7.50
  -3  -2   9  276.07   14.20
  -3  -2   9  260.07   14.00
   3  -2  -9  277.87   15.40
   3  -2  -9  257.07   15.30
  -3  -2   9  286.77   14.60
   3  -2  -9  267.97   14.80
   3  -2  -9  241.88   14.90
   3  -2  -9  286.87   15.20
   3  -2  -9  261.27   14.70
  -3   2   9  277.57   13.80
   3   2  -9  227.58   13.80
  -3   2   9  252.37   14.90
   3   2  -9  253.07   14.20
   3   2  -9  271.17   14.20
   3   2  -9  280.07   14.00
   3   2  -9  246.68   13.90
  -3   2   9  270.67   14.00
   3   2  -9  271.17   14.20
  -3   2   9  256.67   15.10
  -2  -2   9  394.06   19.10
   2  -2  -9  384.46   19.70
  -2  -2   9  374.06   18.90
  -2  -2   9  441.16   19.10
   2  -2  -9  379.06   19.70
   2  -2  -9  370.86   19.70
   2  -2  -9  396.16   19.70
   2  -2  -9  382.46   19.50
  -2  -2   9  396.66   19.10
   2  -2  -9  381.06   19.60
  -2   2   9  390.86   20.00
   2   2  -9  401.26   19.00
  -2   2   9  399.66   19.10
  -2   2   9  404.16   20.00
  -2   2   9  410.06   19.10
  -2   2   9  466.35   20.20
   2   2  -9  404.46   18.90
   2   2  -9  375.26   18.90
   2   2  -9  405.66   18.90
  -2   2   9  390.66   19.80
   2   2  -9  379.56   18.90
   1  -2  -9  876.31   41.80
   1  -2  -9  783.82   41.50
  -1  -2   9  972.90   41.10
   1  -2  -9  852.61   41.70
  -1  -2   9  916.01   41.00
   1  -2  -9  837.32   41.60
  -1  -2   9  966.10   41.10
   1  -2  -9  857.11   41.50
   1  -2  -9  940.71   41.60
  -1  -2   9  768.32   40.90
  -1   2   9  942.21   41.90
   1   2  -9  878.21   40.90
   1   2  -9  900.51   40.90
  -1   2   9  865.91   41.20
  -1   2   9  897.31   41.20
   1   2  -9 1013.40   40.90
   1   2  -9  925.61   40.90
  -1   2   9  947.81   41.90
   1   2  -9  893.01   40.90
  -1   2   9  902.71   41.80
  -1   2   9  951.70   41.90
   1   2  -9  948.21   41.00
   0  -2  -9  116.99    7.00
   0  -2   9  136.39    6.60
   0  -2  -9  118.39    7.00
   0  -2  -9  119.99    6.80
   0  -2   9  114.79    6.40
   0  -2   9  113.39    6.50
   0  -2  -9  120.19    7.10
   0  -2  -9  122.89    7.20
   0  -2  -9  113.89    6.80
   0   2  -9  106.19    6.10
   0   2   9  119.19    6.70
   0   2  -9  107.49    6.40
   0   2  -9  111.59    6.40
   0   2   9  106.99    7.10
   0   2   9   98.99    7.00
   0   2  -9  103.99    6.30
   0   2   9  122.19    6.60
   0   2  -9   93.99    6.20
   0   2  -9  109.29    6.20
  -1  -2  -9   14.10    2.90
   1  -2   9   16.80    2.40
  -1  -2  -9   22.00    3.30
  -1  -2  -9   13.90    2.90
   1  -2   9   15.40    3.00
   1  -2   9   13.30    2.70
   1  -2   9   14.60    3.00
  -1  -2  -9   14.70    3.10
  -1  -2  -9   15.20    2.80
   1  -2   9   14.80    3.00
  -1  -2  -9   20.30    3.60
   1  -2   9   17.00    2.50
   1   2   9   18.10    2.90
  -1   2  -9   14.10    3.00
   1   2   9   16.10    3.10
  -1   2  -9   12.70    2.60
   1   2   9   10.60    2.70
  -1   2  -9   17.40    2.80
  -1   2  -9   16.00    2.50
   1   2   9   16.30    3.50
   1   2   9   14.50    2.80
  -1   2  -9   14.60    2.70
   1   2   9   24.60    3.80
  -1   2  -9   20.10    3.20
  -2  -2  -9   59.19    6.10
  -2  -2  -9   50.49    7.00
  -2  -2  -9   49.80    5.90
  -2  -2  -9   68.49    6.90
   2  -2   9   54.89    5.70
   2  -2   9   53.99    6.80
   2  -2   9   43.80    5.80
   2  -2   9   45.90    5.70
   2  -2   9   45.80    6.30
  -2  -2  -9   46.90    6.50
   2  -2   9   45.50    5.10
  -2  -2  -9   63.69    6.50
  -2   2  -9   56.09    6.00
   2   2   9   53.19    6.40
   2   2   9   44.00    6.10
   2   2   9   45.20    6.20
   2   2   9   52.29    6.40
  -2   2  -9   46.20    6.70
  -2   2  -9   43.40    6.20
   2   2   9   54.29    6.80
  -2   2  -9   45.50    5.80
  -2   2  -9   43.60    6.30
   2   2   9   56.49    5.70
  -2   2  -9   52.39    5.70
   3  -2   9   26.10    6.30
   3  -2   9   37.20    6.70
  -3  -2  -9   11.90    5.10
   3  -2   9   30.60    6.60
  -3  -2  -9   22.10    6.70
  -3  -2  -9   24.50    6.90
   3  -2   9   25.50    5.70
  -3  -2  -9   27.80    6.70
  -3  -2  -9   29.80    6.20
   3  -2   9   31.10    6.70
   3   2   9   31.60    7.30
  -3   2  -9   28.00    6.10
   3   2   9   14.40    5.60
   3   2   9   24.20    5.40
  -3   2  -9   19.70    5.50
   3   2   9   30.50    5.90
   3   2   9   17.80    6.00
  -3   2  -9   26.00    6.40
  -3   2  -9   30.60    5.50
  -3   2  -9   14.20    6.20
   3   2   9   10.40    5.50
  -3   2  -9   19.30    5.80
   4  -3  -9   16.80    6.40
   4  -3  -9    4.10    6.00
   4  -3  -9   10.00    5.60
  -4  -3   9   21.00    6.20
   4  -3  -9   12.30    7.10
   4  -3  -9    9.70    7.20
  -4  -3   9    0.20    4.80
   4  -3  -9    5.00    5.60
  -4  -3   9    4.90    5.10
  -4  -3   9    0.00    4.20
   4   3  -9    8.10    6.20
   4   3  -9   18.30    5.20
  -4   3   9   10.70    7.30
  -4   3   9   11.90    7.40
  -4   3   9   19.50    7.20
   4   3  -9   12.40    5.00
  -4   3   9   -3.20    5.00
   4   3  -9   14.20    5.70
   4   3  -9   14.40    4.80
   4   3  -9    8.60    4.90
  -4   3   9    6.10    4.90
  -4   3   9    1.20    5.90
  -3  -3   9   18.50    3.40
  -3  -3   9   23.00    3.90
   3  -3  -9   20.90    4.70
   3  -3  -9   26.10    4.50
  -3  -3   9   20.80    4.10
   3  -3  -9   23.10    4.60
   3  -3  -9   22.30    5.40
   3  -3  -9   25.70    4.60
   3  -3  -9   18.90    4.50
   3   3  -9   30.50    4.50
  -3   3   9   20.30    3.60
   3   3  -9   25.50    3.50
  -3   3   9   23.50    4.80
  -3   3   9   16.40    4.90
   3   3  -9   22.90    3.80
  -3   3   9   19.80    5.20
   3   3  -9   22.80    3.50
   3   3  -9   19.20    3.70
   2  -3  -9    4.90    2.80
   2  -3  -9    1.90    2.80
  -2  -3   9    2.10    1.60
  -2  -3   9    0.20    1.70
  -2  -3   9    3.40    2.00
   2  -3  -9    8.80    3.10
   2  -3  -9   -0.50    2.50
   2  -3  -9    1.90    2.20
   2  -3  -9    5.10    2.30
  -2   3   9    4.90    2.90
  -2   3   9    1.70    2.80
  -2   3   9    7.30    2.30
   2   3  -9    3.10    1.70
   2   3  -9    3.10    1.50
   2   3  -9    2.50    1.60
  -2   3   9    0.60    2.70
   2   3  -9    2.30    1.70
  -2   3   9    5.20    2.90
  -2   3   9    0.70    2.20
   2   3  -9    0.30    1.60
   1  -3  -9  355.56   20.30
   1  -3  -9  410.36   20.70
   1  -3  -9  462.35   20.70
   1  -3  -9  406.86   20.30
   1  -3  -9  462.75   20.70
  -1  -3   9  405.66   19.30
  -1  -3   9  410.06   19.40
  -1  -3   9  410.06   19.40
   1  -3  -9  435.16   20.40
  -1   3   9  427.06   20.70
   1   3  -9  425.06   19.30
  -1   3   9  446.56   20.80
  -1   3   9  404.76   20.00
   1   3  -9  413.06   19.30
  -1   3   9  387.26   20.60
   1   3  -9  411.76   19.30
  -1   3   9  444.36   20.80
   1   3  -9  442.46   19.20
   1   3  -9  450.95   19.20
  -1   3   9  417.86   20.10
   1   3  -9  381.66   19.20
   0  -3  -9   46.00    4.60
   0  -3   9   49.50    3.80
   0  -3  -9   53.19    4.50
   0  -3  -9   54.19    4.90
   0  -3  -9   48.00    4.80
   0  -3   9   55.79    4.10
   0  -3  -9   55.69    4.70
   0  -3   9   55.09    3.80
   0  -3  -9   49.99    4.50
   0  -3   9   45.70    3.70
   0   3   9   56.79    5.00
   0   3   9   53.79    5.10
   0   3  -9   58.09    3.70
   0   3  -9   49.99    3.60
   0   3  -9   55.09    3.90
   0   3  -9   50.29    3.60
   0   3   9   51.99    4.90
   0   3  -9   55.49    3.80
   0   3  -9   51.79    3.80
   0   3   9   54.49    4.50
   0   3   9   51.99    4.30
   1  -3   9   19.30    3.20
   1  -3   9   17.20    3.20
  -1  -3  -9   20.70    3.30
   1  -3   9   15.60    2.90
  -1  -3  -9   12.20    3.00
   1  -3   9   17.30    2.40
  -1  -3  -9   27.40    4.00
   1  -3   9   19.70    2.70
  -1  -3  -9   22.70    3.40
   1  -3   9   19.30    3.20
  -1  -3  -9   19.40    3.40
  -1  -3  -9   19.70    3.70
  -1   3  -9   19.90    3.30
  -1   3  -9   17.20    2.70
   1   3   9   20.20    3.20
   1   3   9   17.90    3.00
   1   3   9   21.70    3.50
   1   3   9   17.70    3.40
  -1   3  -9   16.50    2.80
  -1   3  -9   15.30    2.80
   1   3   9   17.20    3.20
  -1   3  -9   16.20    2.80
  -1   3  -9   14.80    3.00
   1   3   9   15.50    3.40
   2  -3   9  453.15   23.60
  -2  -3  -9  472.05   23.80
   2  -3   9  477.15   23.00
  -2  -3  -9  498.75   24.40
  -2  -3  -9  474.35   23.60
  -2  -3  -9  412.26   23.20
   2  -3   9  488.45   22.80
  -2  -3  -9  431.16   23.70
   2  -3   9  470.55   23.70
   2  -3   9  439.96   23.60
  -2  -3  -9  480.55   24.10
   2  -3   9  473.15   24.00
  -2   3  -9  457.35   23.70
   2   3   9  436.46   23.90
   2   3   9  477.25   23.40
  -2   3  -9  544.35   24.40
   2   3   9  507.25   24.40
   2   3   9  466.65   23.60
  -2   3  -9  450.35   23.70
  -2   3  -9  451.05   23.30
   2   3   9  450.55   23.80
  -2   3  -9  462.05   23.30
   2   3   9  486.65   24.00
  -3  -3  -9  220.68   15.80
   3  -3   9  209.28   15.00
   3  -3   9  231.68   14.20
   3  -3   9  215.48   14.80
  -3  -3  -9  255.67   16.60
  -3  -3  -9  234.18   14.90
   3  -3   9  220.58   15.50
  -3  -3  -9  232.18   15.70
   3  -3   9  208.68   15.40
  -3  -3  -9  240.18   15.50
  -3  -3  -9  210.18   15.60
   3   3   9  218.28   15.90
  -3   3  -9  222.08   15.80
  -3   3  -9  235.08   15.40
   3   3   9  243.68   16.20
  -3   3  -9  223.18   15.40
   3   3   9  217.58   15.20
   3   3   9  231.08   14.60
   3   3   9  248.08   15.10
   3   3   9  245.68   15.50
  -3   3  -9  206.48   15.20
  -3   3  -9  231.88   14.90
  -3   3  -9  237.58   14.90
  -4  -4   9    2.30    5.10
   4  -4  -9    7.80    6.40
   4  -4  -9    0.50    6.70
   4  -4  -9    4.40    7.00
   4  -4  -9   -2.60    7.90
   4  -4  -9  -11.10    8.70
   4  -4  -9    2.10    8.00
  -4  -4   9    1.80    5.80
  -4  -4   9    3.00    5.30
   4   4  -9   -2.80    4.00
  -4   4   9   10.20    5.00
   4   4  -9   -2.70    5.70
  -4   4   9   10.80    7.50
   4   4  -9   -1.90    4.40
  -4   4   9    4.00    8.80
   4   4  -9    1.60    4.40
   4   4  -9    0.50    5.20
  -4   4   9    7.60    8.70
   3  -4  -9   95.49    8.70
   3  -4  -9   98.69    9.40
   3  -4  -9  105.39    8.60
  -3  -4   9  102.99    7.50
   3  -4  -9  100.29    9.60
   3  -4  -9   89.49    9.00
   3  -4  -9  103.89    9.70
  -3  -4   9   99.09    7.20
   3   4  -9  101.29    6.60
   3   4  -9  100.99    7.30
  -3   4   9   89.79    8.20
   3   4  -9   97.29    6.80
  -3   4   9   83.19    9.70
   3   4  -9  118.09    6.80
  -3   4   9   85.59    7.80
  -3   4   9  109.49    9.50
  -3   4   9  114.49    9.50
   3   4  -9  102.19    7.50
   3   4  -9  100.19    6.70
   2  -4  -9  494.15   24.50
   2  -4  -9  462.85   24.30
  -2  -4   9  498.65   22.70
   2  -4  -9  494.55   24.20
  -2  -4   9  482.25   22.60
   2  -4  -9  489.85   24.00
  -2  -4   9  474.15   22.70
  -2  -4   9  479.25   22.80
   2  -4  -9  514.65   24.50
   2  -4  -9  507.35   24.40
  -2   4   9  497.15   24.70
   2   4  -9  474.85   22.40
   2   4  -9  489.15   22.40
   2   4  -9  495.25   22.80
  -2   4   9  513.15   24.60
  -2   4   9  481.95   24.50
  -2   4   9  482.75   23.70
  -2   4   9  500.05   23.80
   2   4  -9  497.95   22.80
   2   4  -9  489.55   22.20
   2   4  -9  476.75   22.20
  -2   4   9  494.05   24.40
   1  -4  -9  178.48   10.10
  -1  -4   9  181.98    8.60
   1  -4  -9  163.78   10.20
  -1  -4   9  181.28    8.50
   1  -4  -9  199.48   10.80
  -1  -4   9  177.78    8.50
   1  -4  -9  191.58   10.20
   1  -4  -9  187.28   10.40
   1  -4  -9  166.08   10.30
  -1   4   9  166.58   10.30
  -1   4   9  190.58   10.60
   1   4  -9  188.78    8.60
  -1   4   9  165.98   10.50
  -1   4   9  194.98   10.50
   1   4  -9  188.28    8.60
  -1   4   9  176.68    9.90
  -1   4   9  172.68    9.90
   0  -4  -9 1294.17   58.39
   0  -4   9 1074.69   57.39
   0  -4  -9 1393.96   58.89
   0  -4  -9 1308.47   58.69
   0  -4   9 1162.58   57.59
   0  -4   9 1227.48   57.49
   0  -4  -9 1265.27   58.59
   0  -4  -9 1392.36   58.89
   0  -4  -9 1287.27   58.39
   0  -4   9 1234.68   57.59
   0   4  -9 1414.96   57.59
   0   4   9 1252.47   58.19
   0   4  -9 1217.68   57.39
   0   4   9 1324.97   58.69
   0   4  -9 1264.87   57.39
   0   4  -9 1261.57   57.49
   0   4   9 1348.37   58.89
   0   4   9 1222.38   58.19
   0   4   9 1257.87   58.69
   0   4  -9 1275.77   57.59
   1  -4   9 2362.86  104.79
   1  -4   9 2299.87  104.79
   1  -4   9 2290.87  105.99
  -1  -4  -9 2219.68  106.29
  -1  -4  -9 2424.66  106.29
  -1  -4  -9 2522.95  106.49
   1  -4   9 2132.19  105.59
  -1  -4  -9 2262.77  105.89
   1  -4   9 2309.07  105.79
   1  -4   9 2286.67  105.59
  -1  -4  -9 2281.97  105.79
  -1  -4  -9 2327.77  106.29
   1   4   9 2267.77  106.39
   1   4   9 2393.26  106.29
  -1   4  -9 2416.56  105.59
   1   4   9 2240.38  106.09
   1   4   9 2377.16  105.89
  -1   4  -9 2342.97  105.49
   1   4   9 2338.67  105.79
  -1   4  -9 2700.23  105.99
  -1   4  -9 2235.98  105.69
  -1   4  -9 2534.15  105.79
  -1   4  -9 2261.67  105.39
   1   4   9 2287.67  106.19
  -2  -4  -9   73.39    6.80
   2  -4   9   52.89    5.30
  -2  -4  -9   58.79    7.40
   2  -4   9   61.79    7.00
  -2  -4  -9   54.29    7.30
  -2  -4  -9   61.39    7.00
   2  -4   9   49.80    6.90
  -2  -4  -9   57.89    7.40
   2  -4   9   54.39    6.90
   2  -4   9   54.19    5.60
   2  -4   9   64.49    6.70
  -2   4  -9   56.89    6.80
   2   4   9   63.49    6.50
  -2   4  -9   56.29    6.40
  -2   4  -9   57.89    6.40
   2   4   9   55.09    6.50
  -2   4  -9   50.19    6.70
  -2   4  -9   53.79    7.20
   2   4   9   55.79    7.60
  -2   4  -9   45.80    6.70
   2   4   9   68.19    7.20
   2   4   9   43.50    5.60
   2   4   9   66.99    7.60
  -3  -4  -9  123.49   10.80
  -3  -4  -9  120.19   11.70
   3  -4   9  106.29   11.60
  -3  -4  -9  133.49   11.50
  -3  -4  -9  125.39   12.30
   3  -4   9  118.19   12.00
   3  -4   9  113.49   10.50
  -3  -4  -9  125.39   11.10
   3  -4   9  114.79   11.50
   3  -4   9  121.69   10.00
  -3  -4  -9  133.09   11.80
  -3   4  -9  114.49   10.90
  -3   4  -9  127.29   11.50
   3   4   9  125.59   11.30
   3   4   9  138.99   12.80
   3   4   9  117.99   12.00
   3   4   9  118.59   11.10
  -3   4  -9  113.39   12.30
   3   4   9  118.59   10.70
  -3   4  -9  108.39   11.10
  -3   4  -9   98.19   11.20
   3   4   9  125.89   11.40
  -3   4  -9  142.09   11.80
  -3  -5   9   12.80    3.30
   3  -5  -9   19.40    5.00
   3  -5  -9   10.70    4.60
   3  -5  -9   22.50    5.50
   3  -5  -9   20.90    5.00
   3  -5  -9   20.10    5.80
  -3  -5   9   10.70    2.80
   3  -5  -9   15.00    4.90
   3   5  -9   13.40    3.30
  -3   5   9   14.70    4.00
  -3   5   9   19.70    5.50
  -3   5   9   11.10    4.90
   3   5  -9   13.90    2.60
   3   5  -9   16.30    3.60
  -3   5   9   15.20    4.70
  -3   5   9   17.90    5.50
   3   5  -9   14.70    2.60
   3   5  -9   17.90    2.60
   3   5  -9   17.40    2.70
  -2  -5   9  415.26   18.80
  -2  -5   9  435.16   18.80
   2  -5  -9  366.96   20.90
   2  -5  -9  416.36   20.90
   2  -5  -9  390.26   20.80
   2  -5  -9  398.26   20.60
   2  -5  -9  407.46   21.20
  -2   5   9  421.36   21.20
   2   5  -9  387.66   19.00
  -2   5   9  388.16   22.00
  -2   5   9  406.76   21.40
  -2   5   9  422.86   20.60
  -2   5   9  425.06   20.50
   2   5  -9  406.36   19.10
  -2   5   9  438.06   21.10
   1  -5  -9  362.46   18.50
   1  -5  -9  345.87   18.10
   1  -5  -9  330.77   18.40
   1  -5  -9  375.46   18.20
   1  -5  -9  384.46   18.50
   1  -5  -9  398.56   18.60
  -1   5   9  322.57   18.40
  -1   5   9  365.26   17.90
  -1   5   9  359.96   18.60
  -1   5   9  328.07   18.20
  -1   5   9  388.16   18.50
  -1   5   9  351.56   17.90
   0  -5   9  303.17   15.20
   0  -5  -9  347.47   16.80
   0  -5   9  312.17   15.10
   0  -5  -9  322.57   16.10
   0  -5  -9  313.97   16.60
   0  -5  -9  358.26   16.80
   0  -5   9  303.17   15.10
   0  -5  -9  310.77   16.20
   0   5   9  321.47   16.70
   0   5   9  325.47   16.70
   0   5  -9  322.87   15.10
   0   5  -9  276.97   14.90
   0   5   9  329.17   16.10
   0   5  -9  307.17   14.90
   0   5  -9  316.17   15.00
   0   5   9  324.97   16.60
   0   5   9  319.07   16.10
   0   5  -9  324.17   15.00
   0   5  -9  307.37   15.00
   1  -5   9   13.60    1.70
   1  -5   9   11.50    2.90
  -1  -5  -9   11.90    3.10
  -1  -5  -9   13.70    3.90
   1  -5   9    9.00    2.90
  -1  -5  -9   13.90    3.30
  -1  -5  -9   11.10    3.20
   1  -5   9    9.60    2.70
  -1  -5  -9   13.10    3.60
   1  -5   9   10.90    1.80
  -1  -5  -9   14.20    3.80
   1   5   9   11.70    3.20
   1   5   9   11.80    3.20
   1   5   9   12.70    3.70
  -1   5  -9   14.60    2.70
  -1   5  -9   10.70    2.90
  -1   5  -9   13.70    2.70
   1   5   9   11.30    3.10
  -1   5  -9   10.00    2.90
  -1   5  -9    9.10    2.40
   1   5   9    9.10    3.30
  -1   5  -9    9.70    2.80
   1   5   9    6.70    3.00
   2  -5   9    4.60    2.60
  -2  -5  -9    8.80    4.00
  -2  -5  -9    1.30    3.80
   2  -5   9    2.20    4.00
  -2  -5  -9    3.80    4.00
  -2  -5  -9    5.40    3.70
   2  -5   9   -0.60    3.70
  -2  -5  -9    2.20    3.70
   2  -5   9   -3.70    3.50
   2  -5   9   -3.40    3.40
   2  -5   9    2.40    2.80
  -2   5  -9   -1.40    3.50
   2   5   9    0.70    3.40
   2   5   9    3.60    3.80
   2   5   9    5.40    3.70
  -2   5  -9    7.70    3.90
  -2   5  -9   -1.50    3.60
  -2   5  -9    3.70    3.30
   2   5   9    2.30    3.80
  -2   5  -9   -0.60    3.10
   2   5   9    5.60    4.10
  -2   5  -9   -4.40    3.80
  -3  -5  -9  754.92   38.10
  -3  -5  -9  802.72   39.60
   3  -5   9  781.72   37.60
   3  -5   9  797.02   39.30
  -3  -5  -9  801.62   39.50
  -3  -5  -9  804.02   39.20
   3  -5   9  773.82   39.00
  -3  -5  -9  845.12   38.90
   3  -5   9  754.22   38.90
   3  -5   9  730.83   38.60
  -3  -5  -9  766.32   38.40
   3   5   9  788.92   39.20
   3   5   9  716.73   38.70
  -3   5  -9  766.92   38.90
  -3   5  -9  764.52   38.30
   3   5   9  800.12   38.60
  -3   5  -9  757.32   38.90
  -3   5  -9  744.83   38.30
   3   5   9  777.72   39.40
  -3   5  -9  829.32   38.80
   3   5   9  850.01   39.30
   3   5   9  787.52   38.60
  -3   5  -9  658.23   38.80
   3  -6  -9  678.53   33.90
   3  -6  -9  641.14   33.60
   3  -6  -9  652.33   33.40
   3  -6  -9  690.23   33.10
   3  -6  -9  649.14   33.70
   3  -6  -9  555.44   33.50
  -3  -6   9  706.93   31.20
   3   6  -9  655.53   31.60
   3   6  -9  670.23   30.40
  -3   6   9  681.13   33.80
  -3   6   9  683.23   34.40
   3   6  -9  655.13   30.40
  -3   6   9  759.12   34.10
   3   6  -9  684.13   31.60
  -3   6   9  676.03   32.70
   2  -6  -9  121.29    8.80
   2  -6  -9  123.29    9.00
   2  -6  -9  116.29    9.00
   2  -6  -9  120.19    9.20
   2  -6  -9  112.29    8.80
   2  -6  -9  114.49    8.60
  -2   6   9   92.99    8.10
  -2   6   9  116.49    9.50
  -2   6   9  128.39    9.40
   2   6  -9  104.19    6.00
  -2   6   9  115.39    9.10
   2   6  -9  109.19    6.10
  -2   6   9  114.19    8.40
   1  -6  -9  265.77   14.60
   1  -6  -9  252.87   14.00
   1  -6  -9  249.18   14.10
   1  -6  -9  239.88   14.20
   1  -6  -9  283.27   14.20
   1  -6  -9  242.08   14.30
  -1   6   9  251.17   14.50
  -1   6   9  276.17   13.90
  -1   6   9  275.07   13.90
  -1   6   9  253.97   14.50
   0  -6  -9  353.46   20.30
   0  -6  -9  439.86   20.50
   0  -6   9  396.86   18.80
   0  -6  -9  396.86   20.00
   0  -6  -9  398.56   20.40
   0  -6   9  395.56   18.80
   0  -6   9  425.76   18.80
   0  -6  -9  354.76   20.30
   0  -6  -9  419.56   20.20
   0   6   9  385.56   20.40
   0   6   9  408.56   20.60
   0   6   9  394.46   20.50
   0   6  -9  394.56   18.60
   0   6  -9  408.06   18.70
   0   6  -9  398.56   18.50
   0   6  -9  388.16   18.70
   0   6   9  375.96   20.40
   0   6   9  418.66   20.10
   0   6  -9  451.15   18.60
   0   6   9  411.16   20.10
   1  -6   9   18.90    2.00
  -1  -6  -9   17.50    4.00
   1  -6   9   20.80    3.40
   1  -6   9   16.00    3.00
   1  -6   9   20.10    3.50
   1  -6   9   15.30    3.20
  -1  -6  -9   18.70    3.60
  -1  -6  -9   20.20    3.90
  -1  -6  -9   18.00    3.70
  -1  -6  -9   19.80    4.00
  -1  -6  -9   20.00    4.00
   1  -6   9   14.90    2.00
   1   6   9   15.30    4.00
  -1   6  -9   25.10    3.40
  -1   6  -9   18.00    3.30
   1   6   9   23.60    4.00
   1   6   9   20.30    4.00
   1   6   9   22.00    3.60
  -1   6  -9   17.10    3.20
  -1   6  -9   12.80    2.90
  -1   6  -9   21.70    3.20
  -1   6  -9   25.90    3.60
   1   6   9   18.40    3.90
   1   6   9   18.40    4.20
  -2  -6  -9    8.80    4.60
   2  -6   9    8.20    3.90
   2  -6   9    9.00    3.00
  -2  -6  -9    5.20    3.60
  -2  -6  -9   11.90    5.30
   2  -6   9    7.30    4.00
  -2  -6  -9    9.60    4.70
   2  -6   9   10.80    4.30
  -2  -6  -9    7.70    4.60
   2  -6   9    4.70    3.80
   2  -6   9    4.90    2.60
  -2  -6  -9    3.60    3.80
  -2   6  -9    8.20    3.70
   2   6   9    6.50    4.00
   2   6   9   13.00    4.50
  -2   6  -9    6.10    3.70
  -2   6  -9    2.70    3.70
   2   6   9   10.60    4.50
   2   6   9    4.00    4.40
   2   6   9    2.70    4.10
  -2   6  -9    5.90    3.90
  -2   6  -9    4.60    3.80
  -2   6  -9    7.60    4.20
  -3  -6  -9  319.17   18.00
   3  -6   9  291.57   18.80
   3  -6   9  302.07   16.90
  -3  -6  -9  299.57   19.30
   3  -6   9  284.27   18.70
  -3  -6  -9  281.97   17.90
  -3  -6  -9  309.57   19.30
  -3  -6  -9  320.67   18.30
  -3  -6  -9  330.47   19.80
   3  -6   9  308.37   18.70
   3  -6   9  300.17   18.90
   3   6   9  299.07   18.00
  -3   6  -9  284.87   18.80
   3   6   9  288.27   18.30
  -3   6  -9  300.37   19.30
   3   6   9  299.17   18.70
  -3   6  -9  290.27   18.50
   3   6   9  298.67   18.00
   3   6   9  288.97   18.50
  -3   6  -9  256.77   18.00
  -3   6  -9  288.77   18.30
  -3   6  -9  274.27   17.90
   3   6   9  264.07   19.00
   3  -7  -9   43.70    7.50
   3  -7  -9   82.89    9.80
   3  -7  -9   58.49    8.00
   3  -7  -9   55.29    6.90
  -3  -7   9   64.29    4.90
   3  -7  -9   57.29    7.80
   3  -7  -9   66.99    8.10
  -3  -7   9   44.80    4.00
  -3   7   9   66.19    9.10
  -3   7   9   59.89    8.20
  -3   7   9   56.79    8.60
   3   7  -9   60.09    6.00
  -3   7   9   58.29    8.10
   3   7  -9   51.29    6.10
  -3   7   9   59.09    8.30
   2  -7  -9   89.99    8.20
   2  -7  -9   76.49    8.40
   2  -7  -9   85.99    8.40
   2  -7  -9   71.29    7.60
   2  -7  -9   74.49    8.20
   2  -7  -9   74.09    8.30
  -2   7   9   83.19    8.90
  -2   7   9   64.19    8.20
  -2   7   9   77.89    7.70
  -2   7   9   79.49    8.40
  -2   7   9   85.79    7.70
   2   7  -9   78.79    4.60
   1  -7  -9   29.00    4.40
   1  -7  -9   16.20    3.70
   1  -7  -9   24.60    4.10
   1  -7  -9   19.20    4.20
   1  -7  -9   16.10    3.60
   1  -7  -9   23.00    4.30
  -1   7   9   13.80    3.40
  -1   7   9   21.90    4.10
  -1   7   9   22.00    4.20
  -1   7   9   18.30    4.40
  -1   7   9   23.00    3.70
  -1   7   9   21.80    4.50
   0  -7   9    0.60    1.50
   0  -7   9    0.00    1.50
   0  -7   9    0.20    1.30
   0  -7  -9    2.70    2.60
   0  -7  -9    0.90    3.00
   0  -7  -9    1.40    3.10
   0  -7  -9    1.30    2.50
   0  -7  -9    2.20    2.60
   0  -7  -9    1.50    3.20
   0  -7   9    1.80    1.40
   0   7   9   -0.10    2.90
   0   7   9    1.50    3.10
   0   7  -9    1.80    1.50
   0   7   9   -3.60    2.80
   0   7  -9    1.00    1.30
   0   7   9    1.50    2.60
   0   7   9    1.80    3.40
   0   7  -9   -0.10    1.10
   0   7  -9   -1.50    1.30
   0   7  -9    0.60    1.10
   0   7  -9   -0.10    1.40
   0   7   9    0.00    2.70
  -1  -7  -9  924.81   44.90
  -1  -7  -9  941.41   45.50
  -1  -7  -9  941.01   45.40
   1  -7   9  967.10   44.50
   1  -7   9 1036.30   44.70
  -1  -7  -9  963.40   45.00
   1  -7   9  887.51   44.30
   1  -7   9  912.81   44.40
  -1  -7  -9  973.50   45.70
  -1  -7  -9  999.90   45.60
   1   7   9  987.20   45.80
   1   7   9  919.71   44.90
  -1   7  -9  947.41   44.50
  -1   7  -9  958.30   44.30
   1   7   9  926.71   45.50
  -1   7  -9 1065.69   44.40
  -1   7  -9  932.41   44.40
   1   7   9  899.91   45.40
   1   7   9  946.71   45.00
  -1   7  -9  955.80   44.30
   1   7   9 1006.10   45.60
   2  -7   9  218.98   12.00
  -2  -7  -9  209.18   14.40
   2  -7   9  217.18   13.80
  -2  -7  -9  235.98   14.30
  -2  -7  -9  218.48   14.80
  -2  -7  -9  209.88   13.70
  -2  -7  -9  253.97   15.10
   2  -7   9  238.08   12.20
   2  -7   9  242.08   14.20
   2  -7   9  228.88   13.80
  -2   7  -9  244.78   13.90
  -2   7  -9  218.48   13.90
  -2   7  -9  220.58   13.40
  -2   7  -9  205.18   13.50
   2   7   9  233.08   15.10
   2   7   9  229.98   14.20
   2   7   9  239.58   14.10
   2   7   9  219.88   14.40
   2   7   9  229.18   14.40
  -2   7  -9  223.48   13.40
  -2   7  -9  225.88   13.60
   3  -7   9   15.20    7.30
  -3  -7  -9   24.20    6.10
   3  -7   9   10.10    6.70
   3  -7   9   14.30    6.80
   3  -7   9    8.80    6.50
  -3  -7  -9   13.20    6.50
  -3  -7  -9   30.40    7.70
   3  -7   9   23.40    5.30
  -3  -7  -9   25.10    7.50
  -3  -7  -9    7.90    7.00
  -3  -7  -9   22.90    7.80
  -3   7  -9    5.60    6.90
   3   7   9    3.50    6.00
  -3   7  -9   14.80    6.00
  -3   7  -9   12.20    6.70
   3   7   9   22.90    7.60
   3   7   9   14.30    7.50
   3   7   9    9.70    6.00
  -3   7  -9   10.80    6.20
  -3   7  -9   14.90    6.30
  -3   7  -9    0.60    6.40
   3   7   9   26.00    7.50
   3   7   9   24.20    6.90
   3  -8  -9   30.70    6.30
   3  -8  -9   24.90    6.10
   3  -8  -9   26.00    7.30
   3  -8  -9   22.60    6.20
   3  -8  -9   18.40    6.60
   3  -8  -9   47.60    8.20
  -3   8   9   35.10    8.40
   3   8  -9   32.30    4.30
   3   8  -9   35.90    4.40
  -3   8   9   39.10    7.30
  -3   8   9   31.50    7.90
  -3   8   9   29.00    5.80
  -3   8   9   32.10    7.20
  -3   8   9   32.90    6.90
   2  -8  -9   66.79    8.40
   2  -8  -9   82.79    8.50
   2  -8  -9   56.39    7.90
   2  -8  -9   51.49    7.60
   2  -8  -9   61.79    8.30
   2  -8  -9   77.19    7.80
   2   8  -9   65.49    4.00
  -2   8   9   56.09    7.50
   2   8  -9   63.69    3.90
  -2   8   9   60.39    8.20
  -2   8   9   61.59    7.90
  -2   8   9   57.69    7.40
  -2   8   9   61.69    9.00
  -2   8   9   48.50    6.20
   1  -8  -9 2560.34  122.59
   1  -8  -9 2922.21  122.79
   1  -8  -9 2637.14  122.19
   1  -8  -9 2706.63  122.79
   1  -8  -9 2606.34  122.09
   1  -8  -9 2824.42  122.69
  -1   8   9 2776.32  122.89
  -1   8   9 2507.75  122.49
  -1   8   9 2702.23  121.99
  -1   8   9 2645.74  122.59
  -1   8   9 2645.14  122.09
  -1   8   9 2781.52  122.79
   0  -8  -9  102.39    7.50
   0  -8   9   98.19    5.40
   0  -8   9   97.19    5.40
   0  -8  -9   79.99    7.20
   0  -8  -9   92.39    7.70
   0  -8  -9  102.19    8.20
   0  -8  -9   86.09    7.90
   0  -8   9   96.19    5.30
   0  -8  -9   90.59    7.40
   0  -8   9   94.19    5.40
   0   8   9   82.59    8.00
   0   8   9   94.49    8.00
   0   8  -9   89.29    4.70
   0   8  -9   87.59    5.50
   0   8  -9   95.99    5.50
   0   8   9   87.49    7.50
   0   8  -9   91.09    5.10
   0   8   9   94.59    8.20
   0   8  -9   85.19    4.70
   0   8  -9   94.79    5.10
   0   8   9  101.59    8.30
   0   8   9   88.69    7.40
  -1  -8  -9  458.15   22.50
  -1  -8  -9  421.76   23.00
   1  -8   9  461.75   21.90
   1  -8   9  454.75   21.90
  -1  -8  -9  464.95   22.70
  -1  -8  -9  404.96   23.00
  -1  -8  -9  439.06   23.10
  -1  -8  -9  455.55   23.20
   1  -8   9  441.36   21.90
   1  -8   9  448.66   22.00
  -1   8  -9  435.56   21.80
  -1   8  -9  455.55   21.70
   1   8   9  453.05   23.40
   1   8   9  450.85   23.00
   1   8   9  456.55   22.60
  -1   8  -9  448.96   21.70
   1   8   9  465.75   23.10
  -1   8  -9  457.95   21.90
  -1   8  -9  394.06   21.40
  -1   8  -9  405.26   21.50
  -2  -8  -9  502.95   27.90
   2  -8   9  563.54   27.60
  -2  -8  -9  527.45   28.30
   2  -8   9  546.55   27.50
   2  -8   9  535.05   25.60
  -2  -8  -9  522.05   27.30
  -2  -8  -9  573.54   28.50
   2  -8   9  544.15   25.60
  -2  -8  -9  575.14   28.20
   2   8   9  534.15   28.60
  -2   8  -9  581.64   27.40
   2   8   9  524.05   28.00
  -2   8  -9  525.15   27.10
   2   8   9  538.25   27.60
  -2   8  -9  539.65   27.00
   2   8   9  581.14   28.50
  -2   8  -9  539.25   27.50
  -2   8  -9  513.25   27.10
   2   8   9  505.45   27.90
  -2   8  -9  530.75   26.90
  -3  -8  -9   89.99   10.80
  -3  -8  -9   92.89   12.40
  -3  -8  -9  105.59   13.00
   3  -8   9   99.79   12.80
   3  -8   9  108.59   12.50
   3  -8   9   88.89    9.40
   3  -8   9   77.99   11.70
  -3  -8  -9  100.09   11.20
  -3  -8  -9   90.19   12.70
  -3  -8  -9  104.99   11.90
   3  -8   9   85.19   12.20
   3   8   9   94.29   11.80
  -3   8  -9   98.19   11.30
   3   8   9  100.59   13.70
   3   8   9   89.19   12.00
  -3   8  -9   95.39   11.40
  -3   8  -9   77.59   11.60
  -3   8  -9  112.49   12.30
   3   8   9   98.79   12.20
   3   8   9   84.89   12.00
  -3   8  -9   86.79   12.50
   3   8   9   96.89   11.90
  -3   8  -9   99.99   12.60
   3  -9  -9    8.30    6.10
   3  -9  -9   17.30    7.10
   3  -9  -9   12.80    7.20
   3  -9  -9   18.70    7.10
   3  -9  -9    4.40    7.20
   3  -9  -9    4.00    6.70
   3   9  -9    8.10    3.80
  -3   9   9   -3.10    7.30
  -3   9   9   10.70    6.70
  -3   9   9   15.80    6.20
  -3   9   9    8.30    6.70
  -3   9   9   19.40    8.70
  -3   9   9    2.30    8.20
   2  -9  -9   -3.20    4.50
   2  -9  -9    1.40    5.20
   2  -9  -9    2.80    4.40
   2  -9  -9   -2.00    4.10
  -2   9   9   -2.60    5.20
  -2   9   9   -0.40    4.00
   2   9  -9   -0.80    1.50
  -2   9   9    1.80    5.10
  -2   9   9    0.30    4.70
  -2   9   9    1.00    5.10
   1  -9  -9   99.69    9.40
   1  -9  -9  103.49    8.60
   1  -9  -9  111.39    9.40
   1  -9  -9  113.29    8.70
   1  -9  -9  106.39    9.30
  -1   9   9   96.89    9.00
  -1   9   9  104.69    9.60
  -1   9   9  107.69    8.80
  -1   9   9  100.39    8.80
  -1   9   9  115.69    8.70
  -1   9   9  103.69    9.60
   0  -9   9   -2.60    1.40
   0  -9  -9    6.30    4.00
   0  -9  -9   -6.00    3.10
   0  -9   9    0.10    1.60
   0  -9   9    0.10    1.80
   0  -9  -9    1.50    3.30
   0  -9   9    0.00    1.70
   0  -9  -9   -3.50    3.40
   0  -9  -9   -0.20    4.40
   0  -9  -9    1.20    3.10
   0   9  -9   -0.20    1.40
   0   9   9    0.10    3.90
   0   9  -9    1.50    1.90
   0   9   9    1.10    3.60
   0   9  -9   -1.00    1.40
   0   9  -9   -2.20    1.00
   0   9  -9   -2.20    1.90
   0   9   9   -7.90    3.10
   0   9   9   -3.50    3.20
   0   9   9    1.80    3.70
  -1  -9  -9  101.19    9.00
  -1  -9  -9   95.99    9.10
   1  -9   9   92.59    6.80
  -1  -9  -9   89.59    9.10
  -1  -9  -9   99.29    8.20
  -1  -9  -9   90.49    8.00
   1  -9   9   92.79    7.20
   1  -9   9   86.89    7.00
  -1  -9  -9   83.89    8.50
  -1   9  -9   92.79    7.20
   1   9   9   96.39    9.00
  -1   9  -9   75.19    6.80
   1   9   9   95.09    8.30
  -1   9  -9   97.09    6.80
   1   9   9   86.29    8.30
   1   9   9   97.99    9.40
  -1   9  -9   84.29    7.10
   1   9   9  100.09    9.20
  -1   9  -9   93.99    6.90
  -1   9  -9   90.79    7.00
   2  -9   9   11.20    4.90
  -2  -9  -9   10.20    5.50
  -2  -9  -9   15.70    5.90
  -2  -9  -9   14.10    5.20
   2  -9   9    9.80    4.80
   2  -9   9    6.90    4.40
   2  -9   9    4.30    4.10
  -2  -9  -9   13.20    5.70
  -2  -9  -9    4.80    5.10
  -2  -9  -9   10.30    4.80
   2  -9   9    6.80    2.80
   2  -9   9    9.30    2.80
   2   9   9   18.40    5.80
  -2   9  -9   16.40    4.80
   2   9   9    6.50    5.70
  -2   9  -9    7.30    4.10
  -2   9  -9   14.50    4.50
   2   9   9    8.20    5.60
   2   9   9    4.70    6.00
   2   9   9    7.70    5.10
  -2   9  -9   12.50    4.90
  -2   9  -9    7.80    4.80
   2   9   9    7.50    5.00
  -2   9  -9    7.80    4.70
  -3  -9  -9    1.80    7.80
  -3  -9  -9    4.40    7.80
  -3  -9  -9   -2.40    9.20
   3  -9   9    6.30    6.20
   3  -9   9   15.90    7.80
   3  -9   9    6.00    4.80
  -3  -9  -9   -6.70    5.70
  -3  -9  -9    0.50    8.10
  -3  -9  -9    3.70    6.40
   3  -9   9    4.90    7.00
   3   9   9    0.90    9.90
   3   9   9    1.10    7.50
  -3   9  -9    9.80    7.70
  -3   9  -9    2.50    7.10
   3   9   9    3.50    7.50
  -3   9  -9    3.50    7.20
  -3   9  -9   12.90    6.70
  -3   9  -9   -2.30    7.10
  -3   9  -9   -1.80    6.40
   3   9   9   17.60    8.40
   3 -10  -9   52.09    9.90
   3 -10  -9   34.80    8.60
   3 -10  -9   27.60    7.90
   3 -10  -9   33.70    7.80
  -3  10   9   47.70   10.50
  -3  10   9   34.60    9.10
  -3  10   9   43.20    9.60
  -3  10   9   32.40    8.10
   3  10  -9   38.00    4.70
  -3  10   9   33.30    7.20
  -3  10   9   41.90    9.20
   2 -10  -9   77.99    9.80
   2 -10  -9   69.09    9.00
   2 -10  -9   75.49   10.10
   2 -10  -9   74.69    9.40
  -2  10   9   97.99   10.40
  -2  10   9   66.09    8.60
  -2  10   9   87.19   11.00
  -2  10   9   55.59    7.00
  -2  10   9   69.99    9.80
  -2  10   9   75.59   10.80
   2  10  -9   68.29    4.40
   2  10  -9   72.09    4.60
   1 -10  -9  703.13   33.90
   1 -10  -9  677.73   34.50
   1 -10  -9  687.23   34.70
   1 -10  -9  728.13   34.80
   1 -10  -9  667.43   34.30
  -1  10   9  679.23   34.60
  -1  10   9  673.23   33.80
  -1  10   9  696.03   34.70
  -1  10   9  718.43   34.70
  -1  10   9  689.33   34.60
   1  10  -9  691.43   31.20
   0 -10   9   14.50    2.10
   0 -10   9   12.00    2.20
   0 -10  -9   15.00    4.80
   0 -10  -9    8.80    4.30
   0 -10  -9    3.60    3.60
   0 -10   9   14.70    2.40
   0 -10  -9   10.90    3.90
   0 -10  -9    8.60    4.80
   0 -10   9   12.00    2.40
   0 -10  -9   12.00    4.20
   0  10   9    9.80    4.30
   0  10   9   22.00    4.70
   0  10   9   15.50    4.80
   0  10  -9   15.00    1.90
   0  10   9    2.10    4.40
   0  10  -9   13.50    2.60
   0  10  -9   11.60    2.60
   0  10  -9   15.10    2.00
   0  10   9   13.80    4.80
  -1 -10  -9   53.19    7.10
   1 -10   9   56.29    6.20
  -1 -10  -9   68.59    7.90
  -1 -10  -9   62.79    7.80
  -1 -10  -9   67.29    8.50
  -1 -10  -9   64.29    8.60
   1 -10   9   58.59    6.70
   1  10   9   76.89    8.10
   1  10   9   68.29    8.60
   1  10   9   70.09    8.20
  -1  10  -9   61.59    6.40
  -1  10  -9   67.39    6.60
   1  10   9   64.19    7.90
  -1  10  -9   66.99    6.50
  -1  10  -9   67.09    6.30
  -1  10  -9   59.59    5.80
  -1  10  -9   67.29    6.10
  -2 -10  -9  261.47   17.40
  -2 -10  -9  279.67   18.60
  -2 -10  -9  294.47   18.50
  -2 -10  -9  286.07   18.00
   2 -10   9  304.47   17.60
  -2 -10  -9  292.77   17.20
  -2 -10  -9  299.37   18.30
   2 -10   9  282.97   17.60
   2 -10   9  301.57   17.20
   2 -10   9  285.77   14.60
  -2  10  -9  296.27   17.40
  -2  10  -9  283.37   17.00
   2  10   9  283.37   18.60
  -2  10  -9  311.07   16.90
   2  10   9  280.37   18.60
   2  10   9  308.67   18.70
   2  10   9  309.77   18.20
  -2  10  -9  291.47   17.00
  -2  10  -9  326.87   17.70
   2  10   9  293.87   17.90
   2  10   9  299.67   19.10
   2 -11  -9   -0.90    6.20
   2 -11  -9   -5.00    6.20
   2 -11  -9   -5.80    6.30
   2 -11  -9   -0.30    5.80
   2 -11  -9   -1.00    5.30
  -2  11   9   -1.10    5.90
  -2  11   9    1.50    6.60
  -2  11   9    2.00    5.90
   2  11  -9    2.40    1.90
  -2  11   9    3.30    6.40
  -2  11   9   -7.50    5.60
  -2  11   9   -3.10    4.90
   2  11  -9    1.50    2.00
   1 -11  -9   71.39    8.50
   1 -11  -9   55.49    7.10
   1 -11  -9   43.30    6.80
   1 -11  -9   60.99    7.80
   1 -11  -9   49.70    7.40
   1 -11  -9   45.70    6.70
  -1  11   9   51.19    7.60
  -1  11   9   45.30    7.50
  -1  11   9   40.50    7.10
  -1  11   9   42.90    6.70
  -1  11   9   53.69    6.90
   1  11  -9   46.80    3.40
   1  11  -9   43.20    3.50
   0 -11   9   15.10    2.30
   0 -11  -9   16.10    4.30
   0 -11  -9   16.70    5.60
   0 -11   9   14.70    2.80
   0 -11  -9   12.30    5.10
   0 -11  -9   18.50    5.60
   0 -11   9   13.00    2.50
   0 -11  -9   13.10    5.30
   0  11  -9   14.00    2.90
   0  11   9   15.60    5.10
   0  11  -9   12.00    2.10
   0  11  -9   11.40    2.70
   0  11   9   20.60    5.60
   0  11   9   17.60    5.00
   0  11   9   23.30    5.80
   0  11  -9   13.80    2.10
   0  11   9   11.00    4.50
  -1 -11  -9    1.30    4.90
  -1 -11  -9    3.40    4.50
  -1 -11  -9   -4.70    5.00
  -1 -11  -9   -0.10    5.10
  -1 -11  -9   -2.70    4.20
   1 -11   9   -3.90    3.40
   1 -11   9   -0.10    3.40
   1 -11   9   -0.50    2.80
   1 -11   9    2.60    3.20
  -1 -11  -9   -5.60    4.80
   1  11   9    1.70    5.20
   1  11   9    1.90    4.80
  -1  11  -9    2.30    2.90
  -1  11  -9   -0.30    3.40
   1  11   9    2.60    4.30
  -1  11  -9   -3.20    3.40
   1  11   9    0.50    4.60
  -1  11  -9   -0.50    3.00
   1  11   9   -2.30    5.20
  -1  11  -9    1.40    3.40
   1  11   9   -0.80    5.50
  -1  11  -9   -2.90    3.10
  -2 -11  -9   37.00    7.10
   2 -11   9   37.90    6.40
  -2 -11  -9   34.80    6.70
  -2 -11  -9   25.00    5.90
  -2 -11  -9   33.40    7.80
   2 -11   9   45.20    7.30
  -2 -11  -9   30.10    7.70
  -2 -11  -9   28.10    7.80
   2 -11   9   27.90    6.40
   2  11   9   35.50    7.20
  -2  11  -9   28.30    5.90
  -2  11  -9   51.49    6.90
   2  11   9   26.30    7.10
   2  11   9   35.70    7.80
  -2  11  -9   15.70    6.00
   2  11   9   34.20    8.50
   2  11   9   30.90    7.40
  -2  11  -9   39.70    6.80
  -2  11  -9   27.80    5.80
   2 -12  -9  117.99   12.30
   2 -12  -9  110.49   11.90
   2 -12  -9  105.59   13.40
   2 -12  -9   90.79   12.40
   2 -12  -9  103.69   13.70
   2 -12  -9  107.49   12.50
  -2  12   9   89.79   13.10
  -2  12   9  102.89   13.10
  -2  12   9  117.29   12.80
  -2  12   9  135.09   11.90
  -2  12   9  103.69   12.90
   2  12  -9  101.89    6.40
  -2  12   9   94.79   14.00
   2  12  -9   94.89    6.30
   1 -12  -9  241.58   15.20
   1 -12  -9  245.78   15.00
   1 -12  -9  233.98   16.20
   1 -12  -9  224.68   15.80
   1 -12  -9  267.17   16.40
   1 -12  -9  227.68   15.80
  -1  12   9  240.68   15.30
   1  12  -9  206.08   11.30
  -1  12   9  208.58   16.00
  -1  12   9  242.48   15.20
  -1  12   9  228.18   16.20
  -1  12   9  233.08   16.10
  -1  12   9  225.48   15.40
   1  12  -9  217.08   11.30
   0 -12   9  499.85   26.20
   0 -12  -9  567.74   28.60
   0 -12  -9  593.24   29.60
   0 -12  -9  568.04   29.10
   0 -12  -9  485.65   28.90
   0 -12  -9  611.14   29.60
   0 -12  -9  579.94   28.50
   0  12   9  557.04   29.50
   0  12   9  572.24   28.70
   0  12  -9  573.14   25.80
   0  12  -9  569.94   26.60
   0  12   9  537.95   28.90
   0  12   9  592.54   29.70
   0  12  -9  583.54   25.90
   0  12  -9  574.84   26.60
   0  12   9  512.55   29.20
  -1 -12  -9   73.39    9.20
  -1 -12  -9   61.29    8.80
  -1 -12  -9   57.99    8.20
   1 -12   9   74.99    7.80
  -1 -12  -9   85.99    9.30
  -1 -12  -9   70.49   10.00
  -1 -12  -9   90.19    9.80
  -1  12  -9   81.09    7.30
   1  12   9   61.19    8.20
   1  12   9   46.90    6.90
  -1  12  -9   71.59    7.60
   1  12   9   60.19    8.40
   1  12   9   77.49    9.90
  -1  12  -9   76.69    7.50
  -1  12  -9   81.69    8.00
  -1  12  -9   71.19    6.60
   1  12   9   66.79    8.70
   1  12   9   73.09   10.70
  -1  12  -9   78.39    7.10
  -2 -12  -9  207.18   17.40
  -2 -12  -9  240.48   16.10
  -2 -12  -9  240.28   17.20
  -2 -12  -9  202.38   16.20
   2 -12   9  239.28   15.30
  -2 -12  -9  237.08   15.60
  -2 -12  -9  250.77   18.50
   2 -12   9  197.18   16.30
   2 -12   9  237.98   15.80
   2  12   9  239.48   18.20
   2  12   9  215.38   15.90
   2  12   9  241.28   17.50
  -2  12  -9  182.18   15.20
  -2  12  -9  245.78   15.90
   2  12   9  244.38   18.30
  -2  12  -9  227.28   16.20
  -2  12  -9  233.08   14.70
  -2  12  -9  242.28   15.50
  -2  12  -9  238.98   15.90
   2 -13  -9   22.40    7.90
   2 -13  -9   27.20    7.90
   2 -13  -9   29.30    9.40
   2 -13  -9   25.30    8.10
  -2  13   9   10.70    8.80
  -2  13   9   18.90    8.70
  -2  13   9   23.00    9.00
   2  13  -9   23.30    3.30
  -2  13   9   45.30   10.10
   1 -13  -9   17.30    7.40
   1 -13  -9    4.90    6.40
   1 -13  -9    0.70    5.50
   1 -13  -9   -5.30    6.40
   1 -13  -9   19.60    6.00
   1 -13  -9   14.60    7.00
  -1  13   9   12.70    5.60
  -1  13   9    4.00    6.20
  -1  13   9   16.80    7.60
   1  13  -9   13.90    2.80
  -1  13   9    4.40    6.50
   1  13  -9    6.30    2.60
  -1  13   9    2.10    6.20
  -1  13   9   -5.30    6.40
   0 -13  -9  380.86   22.10
   0 -13  -9  366.36   22.10
   0 -13   9  393.86   18.70
   0 -13   9  391.36   18.50
   0 -13  -9  369.56   21.20
   0 -13  -9  383.16   21.10
   0 -13  -9  380.86   22.50
   0 -13  -9  355.56   21.80
   0  13   9  378.76   22.30
   0  13   9  386.26   22.60
   0  13   9  379.56   21.30
   0  13   9  370.76   21.70
   0  13   9  384.76   22.10
   0  13  -9  374.66   17.90
   0  13  -9  381.46   17.90
   0  13   9  377.86   21.60
   0  13  -9  388.86   18.90
   0  13  -9  357.86   18.80
  -1 -13  -9   -2.90    6.30
  -1 -13  -9    1.90    5.80
   1 -13   9    0.30    3.40
  -1 -13  -9    3.10    5.60
  -1 -13  -9   -1.90    5.70
  -1 -13  -9   -0.10    5.50
   1 -13   9   -0.20    4.40
  -1 -13  -9   11.40    7.10
   1 -13   9    1.60    3.90
   1 -13   9    5.00    4.70
   1  13   9    8.30    5.90
   1  13   9    3.90    6.40
  -1  13  -9   -0.10    4.20
  -1  13  -9    3.50    4.30
  -1  13  -9   -7.00    3.40
  -1  13  -9   -4.20    3.80
   1  13   9   -8.40    5.10
  -1  13  -9   -5.60    3.90
   1  13   9   -9.90    6.00
   1  13   9    0.60    5.80
   1  13   9   -0.60    6.70
  -1  13  -9    3.30    4.70
   1 -14  -9  170.68   14.80
   1 -14  -9  206.68   16.30
   1 -14  -9  170.68   15.10
   1 -14  -9  239.18   17.20
   1 -14  -9  182.38   15.20
   1 -14  -9  199.68   16.80
   1  14  -9  194.88   10.80
   1  14  -9  207.28   10.90
  -1  14   9  211.58   21.50
  -1  14   9  217.38   16.00
  -1  14   9  182.88   16.00
  -1  14   9  200.38   16.70
  -1  14   9  195.48   17.20
   0 -14  -9   80.09   11.70
   0 -14  -9   71.49   10.70
   0 -14  -9   91.19   12.50
   0 -14   9   73.79    6.90
   0 -14  -9   59.29    7.90
   0 -14  -9   89.39   10.60
   0 -14  -9   90.09   11.70
   0 -14   9   85.59    6.60
   0  14  -9   85.39    7.30
   0  14   9   59.39    8.10
   0  14  -9   75.49    5.40
   0  14   9   74.79    9.80
   0  14  -9   77.29    5.40
   0  14   9   72.59    9.90
   0  14   9   58.69    8.10
   0  14   9   71.59   10.20
   0  14   9   77.79    9.70
   0  14  -9   76.19    7.50
  -1 -14  -9  179.98   15.90
  -1 -14  -9  218.48   16.80
   1 -14   9  202.28   13.60
  -1 -14  -9  227.28   16.50
  -1 -14  -9  185.98   14.80
   1 -14   9  194.08   13.30
  -1 -14  -9  202.98   14.90
  -1  14  -9  184.78   12.10
   1  14   9  207.08   16.30
  -1  14  -9  175.58   13.00
  -1  14  -9  184.18   13.50
  -1  14  -9  216.08   12.90
  -1  14  -9  169.48   11.80
   1  14   9  191.08   16.70
   1  14   9  210.88   16.80
   4   0 -10  394.46   22.30
  -4   0  10  411.46   22.50
   4   0 -10  418.96   21.80
  -4   0  10  381.56   23.00
   4   0 -10  387.66   22.20
   4   0 -10  402.46   23.00
  -3   0  10  895.91   43.10
   3   0 -10  930.51   44.80
   3   0 -10  971.00   44.90
   3   0 -10 1013.40   45.20
   3   0 -10  961.70   45.00
  -3   0  10  963.60   44.90
   3   0 -10  963.60   44.90
   3   0 -10  958.50   45.00
  -2   0  10    5.30    2.30
   2   0 -10    8.40    2.50
  -2   0  10    4.80    2.50
   2   0 -10    3.40    2.40
  -2   0  10    7.30    1.20
  -2   0  10    5.30    2.70
   2   0 -10    6.10    2.40
  -2   0  10    3.10    2.70
   2   0 -10    3.10    2.10
   2   0 -10    7.10    2.60
   2   0 -10    8.10    2.40
   1   0 -10  235.08   12.10
  -1   0  10  215.88   12.00
   1   0 -10  222.18   11.90
  -1   0  10  232.48   11.10
  -1   0  10  266.97   12.30
   1   0 -10  231.58   11.90
  -1   0  10  236.58   12.20
  -1   0  10  269.57   12.20
   1   0 -10  218.28   11.80
  -1   0  10  245.88   11.10
   1   0 -10  233.28   12.10
   1   0 -10  228.88   11.90
   0   0 -10  553.64   26.00
   0   0  10  573.34   26.20
   0   0 -10  539.65   25.80
   0   0 -10  518.45   25.80
   0   0  10  557.64   25.40
   0   0  10  555.14   25.50
   0   0  10  568.24   26.20
   0   0 -10  513.75   26.00
   0   0 -10  539.25   26.00
   0   0  10  588.14   26.20
   0   0 -10  535.95   26.00
   1   0  10  122.29    8.30
  -1   0 -10  124.19    8.60
   1   0  10  142.39    8.10
   1   0  10  151.98    8.90
  -1   0 -10  154.68    8.70
  -1   0 -10  115.39    8.30
  -1   0 -10  139.49    8.20
   1   0  10  119.09    8.40
   1   0  10  112.09    8.40
   1   0  10  123.69    7.70
  -1   0 -10  140.59    8.30
  -1   0 -10  156.88    8.50
  -2   0 -10    1.10    3.00
  -2   0 -10   -1.30    3.40
   2   0  10    0.20    3.50
  -2   0 -10   -2.40    3.10
  -2   0 -10   -1.00    3.60
  -2   0 -10   -0.90    3.20
   2   0  10    1.80    3.40
   2   0  10   -1.60    2.70
  -2   0 -10    0.40    3.70
   2   0  10    1.20    3.40
   2   0  10   -4.20    3.20
   3   0  10  138.29   12.60
   3   0  10  142.59   12.60
   3   0  10  134.49   11.90
   3   0  10  144.79   12.20
   3   0  10  146.39   12.10
  -3   0 -10  164.38   12.90
  -3   0 -10  128.89   12.20
  -3   0 -10  153.08   12.20
   3   0  10  144.79   11.10
  -3   0 -10  141.99   11.80
  -3   0 -10  149.59   13.10
  -3   0 -10  138.49   11.90
   4  -1 -10  179.68   13.20
   4  -1 -10  166.18   14.80
   4  -1 -10  179.38   13.60
   4  -1 -10  170.18   14.30
  -4  -1  10  154.38   14.10
  -4   1  10  152.88   14.10
  -4   1  10  177.68   14.30
   4   1 -10  165.68   13.20
   4   1 -10  166.28   12.30
   4   1 -10  180.28   13.60
   4   1 -10  191.68   14.20
  -3  -1  10   80.69    7.70
   3  -1 -10   66.89    7.70
   3  -1 -10   84.69    7.60
   3  -1 -10   81.39    8.20
  -3  -1  10   87.69    7.20
   3  -1 -10   89.39    7.50
  -3  -1  10   89.09   11.60
   3  -1 -10   90.19    8.70
   3  -1 -10   84.59    7.50
   3   1 -10   78.99    6.80
   3   1 -10   76.29    7.10
  -3   1  10   78.19    7.40
  -3   1  10   81.79    6.00
   3   1 -10   83.09    7.40
   3   1 -10   81.79    7.40
  -3   1  10   81.09    5.70
   3   1 -10   76.59    6.90
   3   1 -10   79.89    7.00
   2  -1 -10    1.00    2.50
  -2  -1  10    1.80    2.40
  -2  -1  10    3.20    2.10
  -2  -1  10   -0.70    2.10
   2  -1 -10    3.30    2.70
   2  -1 -10    0.30    2.20
   2  -1 -10   -2.10    2.30
   2  -1 -10    2.60    2.40
  -2  -1  10   -0.20    2.30
   2   1 -10    0.70    2.00
  -2   1  10    3.30    2.80
   2   1 -10   -0.80    2.00
  -2   1  10   -0.40    2.50
   2   1 -10    0.40    2.10
  -2   1  10    2.50    1.70
  -2   1  10    1.40    2.60
   2   1 -10    1.90    2.00
   2   1 -10   -0.90    2.00
   1  -1 -10    1.60    1.70
   1  -1 -10    0.00    1.90
   1  -1 -10    2.00    2.10
  -1  -1  10    1.20    1.40
  -1  -1  10   -1.70    1.60
   1  -1 -10    2.60    1.90
   1  -1 -10    0.20    1.80
   1  -1 -10   -0.30    1.80
  -1  -1  10   -1.10    1.60
  -1  -1  10    1.70    1.80
   1   1 -10   -1.20    1.40
  -1   1  10    1.00    2.10
  -1   1  10    1.80    1.30
   1   1 -10    0.00    1.50
   1   1 -10   -0.20    1.50
  -1   1  10    0.20    2.00
   1   1 -10    1.30    1.60
   1   1 -10    1.40    1.60
   1   1 -10   -1.10    1.40
  -1   1  10    0.20    1.80
  -1   1  10    0.90    1.50
   0  -1 -10    0.20    1.90
   0  -1 -10    2.80    2.00
   0  -1  10    0.60    1.90
   0  -1  10    3.00    2.10
   0  -1 -10    2.50    2.00
   0  -1  10    1.60    1.90
   0  -1 -10    1.20    1.80
   0  -1 -10    1.00    1.70
   0  -1  10    1.60    1.70
   0  -1 -10    1.50    1.80
   0  -1  10    2.00    1.10
   0   1  10    2.10    2.30
   0   1  10   -0.30    2.10
   0   1 -10    1.80    1.80
   0   1 -10    3.70    1.60
   0   1 -10    0.50    1.70
   0   1  10    0.30    1.60
   0   1 -10    2.50    1.80
   0   1  10    0.00    2.10
   0   1  10    2.10    1.90
   0   1 -10    3.60    1.70
   0   1  10    1.20    1.70
   0   1 -10    2.50    1.60
   1  -1  10   91.99    7.20
  -1  -1 -10   98.49    6.70
  -1  -1 -10   98.09    7.10
  -1  -1 -10  103.49    7.40
   1  -1  10   99.39    7.10
   1  -1  10  102.29    6.30
   1  -1  10  106.19    7.00
  -1  -1 -10   93.79    6.80
   1  -1  10   95.09    7.10
  -1  -1 -10  100.19    7.20
  -1  -1 -10   89.19    7.00
   1   1  10  105.29    7.40
   1   1  10  101.09    7.30
  -1   1 -10  111.79    7.40
  -1   1 -10  103.19    6.70
   1   1  10   94.19    7.00
   1   1  10  102.19    6.80
  -1   1 -10  117.09    7.00
  -1   1 -10   96.59    7.00
  -1   1 -10  104.89    6.70
   1   1  10  101.49    6.70
   1   1  10   98.79    7.10
  -1   1 -10   90.09    6.70
  -2  -1 -10   55.49    6.40
   2  -1  10   48.30    6.70
  -2  -1 -10   51.29    6.10
  -2  -1 -10   43.70    5.90
   2  -1  10   34.40    5.40
   2  -1  10   48.30    6.30
  -2  -1 -10   39.10    4.90
   2  -1  10   34.50    4.70
  -2  -1 -10   36.50    5.40
  -2  -1 -10   51.49    6.60
   2  -1  10   41.40    5.30
  -2   1 -10   55.39    6.60
   2   1  10   30.20    5.20
  -2   1 -10   47.70    6.10
  -2   1 -10   41.70    5.60
  -2   1 -10   43.80    6.20
  -2   1 -10   43.70    5.70
  -2   1 -10   38.70    5.80
   2   1  10   48.80    5.70
   2   1  10   42.90    6.40
   2   1  10   51.29    6.40
   2   1  10   43.10    5.00
   2   1  10   51.29    6.80
  -3  -1 -10   47.70    7.60
   3  -1  10   58.89    8.20
  -3  -1 -10   54.99    7.80
  -3  -1 -10   52.89    7.90
   3  -1  10   57.39    7.80
   3  -1  10   52.89    8.00
  -3  -1 -10   52.19    8.60
   3  -1  10   63.89    8.30
  -3  -1 -10   49.40    7.70
   3  -1  10   55.49    8.30
  -3  -1 -10   61.09    7.50
   3  -1  10   62.59    8.80
   3   1  10   52.59    7.90
  -3   1 -10   47.40    7.20
  -3   1 -10   78.69   10.50
  -3   1 -10   50.89    6.80
  -3   1 -10   66.69    9.50
   3   1  10   65.79    8.40
   3   1  10   44.10    7.60
   3   1  10   61.79    8.40
  -3   1 -10   55.39    7.40
  -3   1 -10   56.69    7.50
   3   1  10   55.89    7.30
   4  -2 -10   33.30    6.80
   4  -2 -10   50.69    8.60
  -4  -2  10   51.49    7.90
   4  -2 -10   61.89    7.90
   4  -2 -10   53.79    8.50
  -4   2  10   54.39    7.40
   4   2 -10   51.29    6.50
  -4   2  10   45.00    8.40
   4   2 -10   49.20    7.20
   4   2 -10   43.20    7.70
  -4   2  10   43.80    8.30
   3  -2 -10   55.29    6.90
  -3  -2  10   58.39    6.10
   3  -2 -10   58.69    7.60
   3  -2 -10   64.49    7.20
   3  -2 -10   52.79    7.40
  -3  -2  10   52.79    7.00
   3  -2 -10   54.69    7.50
   3  -2 -10   54.59    7.20
   3   2 -10   42.90    6.20
   3   2 -10   62.79    6.10
  -3   2  10   66.09    7.50
   3   2 -10   61.79    6.50
  -3   2  10   67.59    6.10
  -3   2  10   50.09    5.50
   3   2 -10   57.69    5.80
   3   2 -10   55.79    5.70
   3   2 -10   60.99    6.10
  -3   2  10   68.39    7.50
   2  -2 -10    6.30    2.90
   2  -2 -10    1.30    2.50
   2  -2 -10    5.80    2.90
   2  -2 -10    5.10    2.40
  -2  -2  10    4.30    2.40
  -2  -2  10    5.90    2.20
  -2  -2  10    5.30    2.00
  -2  -2  10    3.20    2.10
   2  -2 -10    1.20    2.70
  -2   2  10    2.60    2.10
   2   2 -10    2.40    2.00
   2   2 -10    7.40    2.00
  -2   2  10    3.10    3.00
  -2   2  10    6.00    2.30
   2   2 -10    4.90    2.00
  -2   2  10    7.50    3.00
   2   2 -10    2.60    2.20
   2   2 -10    2.10    2.10
  -2   2  10    6.40    3.10
  -2   2  10    4.70    3.10
   1  -2 -10  912.61   42.50
  -1  -2  10  943.91   42.00
   1  -2 -10  953.90   42.70
  -1  -2  10 1005.70   42.00
  -1  -2  10  870.81   41.90
   1  -2 -10  914.81   42.40
   1  -2 -10  966.50   42.80
  -1  -2  10  892.71   41.90
   1  -2 -10  917.51   42.70
   1  -2 -10  917.81   42.60
  -1   2  10  890.11   42.00
   1   2 -10  910.11   41.70
  -1   2  10  872.41   42.70
   1   2 -10  915.31   41.80
  -1   2  10  935.01   42.80
   1   2 -10  920.91   41.80
  -1   2  10  946.71   42.10
  -1   2  10  932.31   42.80
  -1   2  10  890.81   42.70
   1   2 -10  893.71   41.80
   1   2 -10  894.21   41.80
   0  -2 -10 1725.93   79.09
   0  -2 -10 1962.50   79.69
   0  -2  10 1816.92   78.89
   0  -2  10 1621.64   78.69
   0  -2 -10 1641.44   79.09
   0  -2  10 1765.62   78.89
   0  -2  10 1701.23   78.89
   0  -2 -10 1766.62   79.39
   0  -2 -10 1992.20   79.69
   0  -2 -10 1660.83   79.29
   0   2 -10 1497.35   78.59
   0   2 -10 1796.02   78.89
   0   2  10 1886.91   79.59
   0   2 -10 1763.12   78.69
   0   2  10 1806.92   78.99
   0   2 -10 1817.42   78.69
   0   2 -10 1628.64   78.69
   0   2  10 1780.02   79.49
   0   2 -10 1584.04   78.69
   0   2  10 1711.43   79.39
   0   2  10 1711.63   78.79
   1  -2  10  172.58   10.40
  -1  -2 -10  179.28   10.80
   1  -2  10  194.48   10.30
  -1  -2 -10  161.48   10.60
  -1  -2 -10  162.88   10.50
  -1  -2 -10  168.18   10.20
  -1  -2 -10  188.88   10.50
   1  -2  10  176.18    9.50
   1  -2  10  177.98   10.40
  -1  -2 -10  191.48   10.40
   1  -2  10  175.88   10.50
   1  -2  10  184.58    9.50
  -1   2 -10  176.98   10.10
  -1   2 -10  178.88   10.20
   1   2  10  167.28   10.50
   1   2  10  201.18   10.90
   1   2  10  160.48   10.70
  -1   2 -10  189.88   10.60
   1   2  10  189.98   10.80
   1   2  10  191.78   10.20
  -1   2 -10  179.08   10.00
  -1   2 -10  177.38   10.30
  -1   2 -10  191.78   10.30
   1   2  10  179.78   10.30
  -2  -2 -10  327.47   17.60
   2  -2  10  314.67   16.20
   2  -2  10  303.27   17.10
   2  -2  10  283.87   17.00
  -2  -2 -10  335.47   17.40
  -2  -2 -10  295.97   17.10
  -2  -2 -10  296.27   16.70
   2  -2  10  309.37   17.10
  -2  -2 -10  255.97   16.70
   2  -2  10  294.07   15.90
  -2  -2 -10  302.37   16.60
   2   2  10  289.27   17.10
  -2   2 -10  307.57   16.50
  -2   2 -10  332.77   16.70
  -2   2 -10  328.97   17.20
   2   2  10  307.47   17.50
   2   2  10  272.47   16.90
  -2   2 -10  317.17   16.60
   2   2  10  304.47   16.70
   2   2  10  321.67   16.50
   2   2  10  315.97   16.90
  -2   2 -10  299.47   16.90
  -2   2 -10  324.77   17.40
  -3  -2 -10  211.58   15.50
   3  -2  10  237.48   14.70
   3  -2  10  197.48   15.20
  -3  -2 -10  249.48   16.60
   3  -2  10  207.98   15.80
  -3  -2 -10  225.68   20.20
  -3  -2 -10  227.48   15.20
   3  -2  10  255.47   16.20
   3  -2  10  238.78   16.20
  -3  -2 -10  226.38   15.30
   3  -2  10  236.38   16.40
  -3  -2 -10  208.58   15.80
  -3   2 -10  223.98   16.10
  -3   2 -10  243.08   16.70
  -3   2 -10  258.07   15.60
  -3   2 -10  230.68   15.80
   3   2  10  269.87   16.90
   3   2  10  235.48   15.70
   3   2  10  237.38   16.10
   3   2  10  246.08   15.10
  -3   2 -10  258.17   16.20
  -3   2 -10  221.08   15.20
   3   2  10  221.08   16.40
   3  -3 -10  149.39   10.90
  -3  -3  10  160.18    9.40
   3  -3 -10  157.28   10.90
   3  -3 -10  170.38   11.30
  -3  -3  10  152.28    9.80
   3  -3 -10  171.58   11.10
   3  -3 -10  135.39   10.90
   3  -3 -10  171.28   10.60
   3   3 -10  139.89    9.50
  -3   3  10  146.69   11.70
   3   3 -10  140.29    8.80
  -3   3  10  140.89   10.80
  -3   3  10  143.19   12.00
   3   3 -10  153.78    9.40
  -3   3  10  152.38    9.40
   3   3 -10  156.28    9.10
   3   3 -10  143.09    9.10
  -3   3  10  144.99   11.00
   3   3 -10  127.19    8.80
  -2  -3  10   55.79    4.60
   2  -3 -10   63.99    5.90
   2  -3 -10   54.79    6.20
   2  -3 -10   60.79    6.10
  -2  -3  10   60.49    4.80
   2  -3 -10   66.29    6.40
   2  -3 -10   73.29    6.50
  -2  -3  10   68.69    4.50
  -2   3  10   63.89    6.40
   2   3 -10   53.39    4.20
  -2   3  10   55.09    6.60
  -2   3  10   60.69    5.50
   2   3 -10   65.99    4.70
  -2   3  10   59.69    6.50
   2   3 -10   61.59    4.30
  -2   3  10   55.69    5.40
   2   3 -10   67.09    4.40
   2   3 -10   68.19    4.10
  -2   3  10   65.89    6.50
   2   3 -10   62.19    4.60
  -1  -3  10   67.39    4.30
  -1  -3  10   70.79    4.40
   1  -3 -10   69.29    5.70
   1  -3 -10   72.79    5.70
  -1  -3  10   75.79    4.30
   1  -3 -10   73.49    5.90
   1  -3 -10   79.69    5.90
   1  -3 -10   71.49    5.60
   1  -3 -10   75.99    5.70
   1   3 -10   60.79    4.00
  -1   3  10   71.99    6.00
  -1   3  10   71.19    6.00
  -1   3  10   63.49    6.10
  -1   3  10   77.39    5.30
   1   3 -10   72.99    4.20
   1   3 -10   67.09    4.30
   1   3 -10   68.59    4.30
  -1   3  10   78.79    6.10
   1   3 -10   71.59    4.20
   1   3 -10   77.29    4.10
  -1   3  10   71.99    5.30
   0  -3  10  315.47   14.80
   0  -3 -10  322.97   15.50
   0  -3 -10  274.37   15.50
   0  -3 -10  285.97   15.30
   0  -3  10  302.57   14.70
   0  -3  10  325.07   14.90
   0  -3 -10  293.07   15.60
   0  -3  10  340.37   15.00
   0  -3 -10  313.67   15.70
   0  -3 -10  283.47   15.70
   0   3 -10  345.87   14.80
   0   3  10  334.77   16.00
   0   3 -10  296.57   14.70
   0   3  10  273.47   15.50
   0   3  10  289.17   15.10
   0   3 -10  286.77   14.60
   0   3 -10  304.37   14.80
   0   3  10  298.27   15.20
   0   3 -10  287.27   14.70
   0   3 -10  281.67   14.60
   0   3  10  300.07   15.70
   0   3  10  305.17   15.80
  -1  -3 -10   29.90    4.40
  -1  -3 -10   31.60    4.40
   1  -3  10   22.60    3.50
  -1  -3 -10   37.60    4.80
  -1  -3 -10   34.20    4.60
   1  -3  10   26.70    3.10
  -1  -3 -10   30.00    4.50
  -1  -3 -10   34.10    4.10
   1  -3  10   28.30    3.40
   1  -3  10   29.60    4.40
   1  -3  10   26.90    3.90
   1  -3  10   35.30    5.00
   1   3  10   27.80    4.40
  -1   3 -10   32.20    3.90
   1   3  10   24.70    3.80
  -1   3 -10   28.60    3.60
   1   3  10   37.90    5.20
  -1   3 -10   37.30    4.40
  -1   3 -10   31.50    3.70
  -1   3 -10   35.00    4.30
   1   3  10   31.50    3.90
   1   3  10   43.30    5.00
  -1   3 -10   29.10    3.90
   1   3  10   29.30    4.50
   2  -3  10 1657.83   77.09
  -2  -3 -10 1639.74   76.99
  -2  -3 -10 1522.05   77.19
  -2  -3 -10 1478.05   76.89
   2  -3  10 1663.73   76.09
   2  -3  10 1593.94   76.99
   2  -3  10 1703.73   75.99
  -2  -3 -10 1650.93   77.19
   2  -3  10 1627.64   76.89
  -2   3 -10 1661.83   77.19
   2   3  10 1695.23   76.79
   2   3  10 1821.82   77.39
   2   3  10 1631.94   76.49
  -2   3 -10 1651.63   76.49
  -2   3 -10 1651.83   76.49
   2   3  10 1755.12   77.59
   2   3  10 1847.62   77.69
  -2   3 -10 1737.13   77.09
  -2   3 -10 1801.12   77.09
   2   3  10 1544.75   76.99
  -2   3 -10 1663.63   76.79
   3  -3  10  167.28   13.00
  -3  -3 -10  123.29   11.70
  -3  -3 -10  155.08   12.50
   3  -3  10  158.48   12.40
   3  -3  10  158.78   11.60
   3  -3  10  144.39   13.30
   3  -3  10  138.09   12.60
  -3  -3 -10  183.68   13.90
  -3  -3 -10  139.89   13.60
  -3  -3 -10  148.39   12.20
  -3  -3 -10  186.38   13.30
   3   3  10  124.89   12.70
   3   3  10  148.89   12.70
  -3   3 -10  148.29   13.70
  -3   3 -10  161.08   12.30
  -3   3 -10  135.79   12.10
  -3   3 -10  153.88   13.10
   3   3  10  134.49   11.90
   3   3  10  137.79   12.70
   3   3  10  161.38   13.90
   3   3  10  161.08   12.60
  -3   3 -10  137.29   11.90
  -3   3 -10  143.89   12.50
   3  -4 -10   65.99    8.60
   3  -4 -10   58.59    7.80
   3  -4 -10   76.59    8.90
   3  -4 -10   57.09    7.70
  -3  -4  10   61.29    6.20
   3  -4 -10   43.90    6.50
   3  -4 -10   63.49    8.20
  -3   4  10   59.09    7.10
  -3   4  10   49.80    7.20
  -3   4  10   62.09    6.70
   3   4 -10   52.69    6.30
   3   4 -10   60.09    5.30
   3   4 -10   64.29    5.10
   3   4 -10   63.39    6.20
  -3   4  10   56.89    8.40
  -3   4  10   69.59    8.50
  -3   4  10   59.79    7.80
   3   4 -10   65.29    5.20
   2  -4 -10  830.42   39.10
   2  -4 -10  868.61   39.50
   2  -4 -10  887.91   39.10
   2  -4 -10  728.33   39.10
  -2  -4  10  706.03   37.40
  -2  -4  10  817.92   37.40
  -2  -4  10  764.02   37.50
  -2  -4  10  850.01   37.70
   2  -4 -10  719.33   39.00
   2   4 -10  858.51   37.10
  -2   4  10  879.91   39.60
  -2   4  10  939.51   39.70
   2   4 -10  840.52   37.70
  -2   4  10  811.62   38.50
   2   4 -10  784.72   37.60
  -2   4  10  872.41   39.70
   2   4 -10  816.02   37.10
  -2   4  10  866.21   39.50
  -2   4  10  843.72   38.60
   1  -4 -10  486.75   24.60
   1  -4 -10  468.45   24.70
   1  -4 -10  472.95   24.50
   1  -4 -10  521.05   25.10
   1  -4 -10  532.45   25.00
  -1  -4  10  516.45   23.20
  -1  -4  10  489.65   23.10
  -1  -4  10  499.25   23.20
   1  -4 -10  507.55   24.90
  -1  -4  10  520.15   23.10
  -1   4  10  542.25   25.10
  -1   4  10  541.25   25.20
  -1   4  10  515.25   25.00
   1   4 -10  500.15   23.20
  -1   4  10  504.05   24.30
  -1   4  10  449.95   24.70
   1   4 -10  511.55   23.20
  -1   4  10  554.94   24.40
   0  -4  10  273.37   13.80
   0  -4  10  325.17   13.90
   0  -4 -10  260.87   14.80
   0  -4 -10  283.57   14.60
   0  -4  10  313.07   14.00
   0  -4 -10  296.97   14.70
   0  -4  10  268.67   13.70
   0  -4 -10  240.98   14.70
   0  -4 -10  265.37   14.90
   0  -4 -10  277.27   15.00
   0   4  10  283.97   14.50
   0   4  10  277.47   15.10
   0   4 -10  301.07   13.70
   0   4 -10  250.87   13.60
   0   4  10  288.17   14.50
   0   4 -10  313.17   13.70
   0   4  10  292.07   15.10
   0   4  10  245.88   14.80
   0   4 -10  273.07   13.50
   0   4 -10  274.37   13.60
   0   4 -10  288.47   13.80
  -1  -4 -10  347.67   18.00
  -1  -4 -10  319.77   17.50
  -1  -4 -10  356.96   18.30
   1  -4  10  365.06   16.30
   1  -4  10  323.97   17.30
  -1  -4 -10  348.37   18.30
  -1  -4 -10  340.37   17.70
   1  -4  10  354.96   17.50
  -1  -4 -10  318.67   18.00
   1  -4  10  332.97   16.20
   1  -4  10  339.87   17.50
   1   4  10  347.27   18.40
  -1   4 -10  362.86   17.10
   1   4  10  343.37   17.60
  -1   4 -10  344.87   17.20
  -1   4 -10  359.66   17.60
   1   4  10  344.87   17.90
   1   4  10  341.27   17.60
  -1   4 -10  359.06   17.40
   1   4  10  317.27   17.90
   1   4  10  347.77   18.10
  -1   4 -10  332.77   17.10
  -2  -4 -10  163.98   12.00
  -2  -4 -10  164.78   12.50
   2  -4  10  180.68   12.20
   2  -4  10  194.78   12.30
  -2  -4 -10  204.68   12.10
   2  -4  10  181.98   10.80
   2  -4  10  186.18   12.20
   2  -4  10  192.98   10.70
  -2  -4 -10  203.98   12.90
  -2  -4 -10  177.08   11.80
   2  -4  10  186.48   13.40
  -2   4 -10  190.18   11.60
  -2   4 -10  185.18   12.00
   2   4  10  189.28   12.40
   2   4  10  166.38   12.10
  -2   4 -10  180.08   11.80
  -2   4 -10  168.18   11.60
   2   4  10  199.38   13.00
  -2   4 -10  188.38   12.40
   2   4  10  189.58   11.90
  -2   4 -10  187.88   11.70
   2   4  10  201.48   13.20
   2   4  10  206.98   12.20
  -3  -4 -10   71.39    9.50
  -3  -4 -10   58.99    8.20
  -3  -4 -10   61.49    8.30
  -3  -4 -10   64.79    7.90
   3  -4  10   48.70    8.20
  -3  -4 -10   69.39    8.50
   3  -4  10   59.29    8.60
  -3  -4 -10   41.60    7.90
   3  -4  10   56.49    8.60
   3  -4  10   51.29    6.70
   3  -4  10   49.80    8.30
   3   4  10   45.00    8.00
   3   4  10   69.19    8.40
  -3   4 -10   79.09   10.40
  -3   4 -10   73.59    9.30
   3   4  10   55.89    7.40
  -3   4 -10   62.09    8.40
   3   4  10   60.59    9.10
  -3   4 -10   52.19    7.60
   3   4  10   72.59   10.40
  -3   4 -10   54.99    7.90
   3   4  10   71.99    9.50
  -3   4 -10   49.40    7.70
   3  -5 -10   -0.40    4.50
   3  -5 -10    0.50    5.00
  -3  -5  10   -1.70    2.90
   3  -5 -10    8.70    4.20
  -3  -5  10   -1.10    2.20
   3  -5 -10    2.90    4.80
   3  -5 -10   -2.90    5.20
   3  -5 -10   -1.10    4.90
  -3  -5  10   -3.00    2.40
  -3   5  10   -4.20    5.00
  -3   5  10    5.30    3.90
  -3   5  10    8.10    5.10
   3   5 -10    0.00    2.00
  -3   5  10    3.50    4.20
   3   5 -10   -0.70    3.20
   3   5 -10   -3.50    1.60
  -3   5  10    2.70    5.90
   3   5 -10    0.10    2.90
  -3   5  10    2.90    5.70
   2  -5 -10   -1.20    3.30
   2  -5 -10    4.20    3.80
   2  -5 -10   -1.10    3.50
   2  -5 -10    4.30    3.30
   2  -5 -10    4.50    3.70
  -2  -5  10    1.60    1.30
  -2  -5  10    2.10    1.30
   2   5 -10   -0.40    1.70
  -2   5  10    4.60    3.00
  -2   5  10    0.80    2.80
  -2   5  10    3.00    3.60
  -2   5  10    6.80    3.60
  -2   5  10   -0.30    3.60
   2   5 -10    0.10    1.70
   1  -5 -10    4.00    2.80
   1  -5 -10   -0.20    3.00
   1  -5 -10    1.20    2.60
   1  -5 -10    1.30    2.70
   1  -5 -10    6.70    3.20
   1  -5 -10    1.60    2.70
  -1   5  10    4.30    2.90
  -1   5  10    2.50    2.80
  -1   5  10    0.30    2.30
  -1   5  10    6.50    2.90
   1   5 -10    3.00    1.00
  -1   5  10    2.30    2.50
   1   5 -10    5.00    1.20
  -1   5  10    2.80    3.20
   0  -5 -10  475.95   22.50
   0  -5  10  524.15   21.50
   0  -5 -10  435.16   22.50
   0  -5  10  490.55   21.50
   0  -5  10  404.66   22.30
   0  -5 -10  474.25   23.00
   0  -5  10  457.15   21.50
   0  -5 -10  493.35   23.10
   0  -5 -10  428.46   22.80
   0  -5 -10  445.66   22.70
   0   5  10  405.66   22.80
   0   5 -10  448.36   21.30
   0   5  10  423.36   22.90
   0   5 -10  405.56   21.20
   0   5 -10  491.55   21.30
   0   5  10  472.85   22.40
   0   5  10  448.06   22.30
   0   5  10  452.85   22.80
   0   5 -10  482.65   21.50
   0   5 -10  468.65   21.30
   0   5 -10  452.25   21.30
  -1  -5 -10 1014.20   43.40
  -1  -5 -10  928.01   43.20
   1  -5  10  871.81   42.20
   1  -5  10  902.51   41.00
   1  -5  10  938.51   42.40
  -1  -5 -10  953.90   42.80
   1  -5  10  907.91   42.30
  -1  -5 -10  919.31   42.60
  -1  -5 -10  844.42   42.90
  -1  -5 -10  977.00   43.40
   1  -5  10  971.60   41.00
  -1   5 -10  926.01   42.40
   1   5  10  944.71   43.20
  -1   5 -10  817.82   41.90
  -1   5 -10  890.31   42.10
   1   5  10  882.71   43.00
  -1   5 -10  915.61   42.00
   1   5  10  848.82   42.50
   1   5  10  898.51   43.30
  -1   5 -10  897.41   42.00
   1   5  10  928.71   42.60
   1   5  10  902.71   43.10
  -1   5 -10  762.22   42.00
   2  -5  10  209.68   13.10
  -2  -5 -10  204.88   13.00
  -2  -5 -10  227.18   13.10
  -2  -5 -10  241.58   13.80
   2  -5  10  191.68   13.00
   2  -5  10  212.48   11.40
  -2  -5 -10  225.28   13.80
   2  -5  10  207.88   11.50
  -2  -5 -10  174.58   13.50
   2  -5  10  204.18   13.00
  -2   5 -10  211.08   12.60
  -2   5 -10  195.28   12.70
   2   5  10  222.28   13.50
   2   5  10  209.18   13.10
   2   5  10  219.68   13.60
   2   5  10  206.88   13.00
  -2   5 -10  180.08   12.50
  -2   5 -10  187.28   13.10
   2   5  10  220.58   14.10
  -2   5 -10  210.18   12.60
  -2   5 -10  169.38   12.50
   3  -5  10  204.78   14.80
  -3  -5 -10  206.58   14.90
   3  -5  10  227.58   16.10
  -3  -5 -10  212.68   15.10
   3  -5  10  235.18   16.30
  -3  -5 -10  212.08   16.60
  -3  -5 -10  202.18   14.80
  -3  -5 -10  214.18   16.20
   3  -5  10  226.98   16.20
  -3  -5 -10  236.58   16.80
   3  -5  10  206.58   13.70
  -3   5 -10  208.48   15.50
   3   5  10  223.08   15.50
   3   5  10  209.58   15.10
   3   5  10  221.88   15.90
  -3   5 -10  200.88   15.60
  -3   5 -10  199.98   15.10
  -3   5 -10  174.38   15.40
   3   5  10  210.68   16.60
  -3   5 -10  223.28   16.50
  -3   5 -10  238.48   15.40
   3   5  10  214.48   15.80
   3   5  10  216.38   16.30
   3  -6 -10   14.20    5.50
   3  -6 -10   23.10    5.10
   3  -6 -10    8.30    5.80
  -3  -6  10   11.40    3.00
  -3  -6  10   12.40    2.40
   3  -6 -10   21.90    5.90
   3  -6 -10   10.50    5.70
   3  -6 -10   14.20    5.50
  -3   6  10    6.80    5.70
  -3   6  10   12.90    6.80
  -3   6  10    0.00    5.40
  -3   6  10   14.10    6.20
   3   6 -10   13.90    3.40
  -3   6  10   21.40    6.50
  -3   6  10   15.70    4.50
   3   6 -10   15.40    3.60
   2  -6 -10  839.12   40.40
   2  -6 -10  804.62   41.00
   2  -6 -10  843.92   40.70
   2  -6 -10  876.41   41.10
   2  -6 -10  860.51   41.00
  -2   6  10  790.62   40.80
  -2   6  10  867.41   41.30
   2   6 -10  847.72   38.50
  -2   6  10  972.10   41.30
  -2   6  10  842.02   40.20
  -2   6  10  840.52   40.10
   2   6 -10  816.02   38.50
   1  -6 -10   56.09    6.30
   1  -6 -10   43.10    6.30
   1  -6 -10   56.89    6.10
   1  -6 -10   49.99    5.70
   1  -6 -10   50.49    6.30
   1  -6 -10   47.20    5.80
  -1   6  10   46.90    5.40
  -1   6  10   49.30    6.30
  -1   6  10   43.70    6.30
  -1   6  10   57.89    5.80
  -1   6  10   41.50    6.40
  -1   6  10   59.19    6.70
   0  -6 -10  318.97   16.20
   0  -6 -10  258.57   15.60
   0  -6 -10  259.37   15.60
   0  -6  10  314.27   14.00
   0  -6 -10  306.27   15.90
   0  -6  10  295.57   13.90
   0  -6 -10  300.37   15.50
   0  -6 -10  292.37   15.40
   0  -6  10  291.77   14.00
   0   6  10  305.27   15.40
   0   6 -10  295.97   13.90
   0   6  10  301.47   16.00
   0   6 -10  278.27   13.90
   0   6 -10  284.67   13.60
   0   6  10  279.07   15.60
   0   6  10  296.97   15.90
   0   6  10  271.87   15.10
   0   6  10  264.07   15.80
   0   6 -10  265.87   13.70
   0   6 -10  292.27   13.70
   0   6 -10  291.37   13.90
  -1  -6 -10  338.17   18.20
   1  -6  10  332.17   16.80
  -1  -6 -10  297.57   17.20
  -1  -6 -10  338.77   18.00
  -1  -6 -10  279.97   17.60
  -1  -6 -10  351.96   17.50
   1  -6  10  306.57   16.70
   1  -6  10  364.06   16.90
  -1  -6 -10  307.27   17.70
   1  -6  10  312.97   16.80
   1   6  10  342.27   17.40
  -1   6 -10  342.67   16.90
   1   6  10  342.17   18.20
  -1   6 -10  340.17   16.50
  -1   6 -10  337.17   16.70
  -1   6 -10  272.07   16.20
  -1   6 -10  330.57   16.60
   1   6  10  345.67   17.70
   1   6  10  333.77   17.30
   1   6  10  321.17   17.90
   1   6  10  312.07   17.70
  -1   6 -10  348.37   16.80
   2  -6  10   96.09    9.10
  -2  -6 -10   85.29    9.30
   2  -6  10  106.09    7.10
  -2  -6 -10  102.19    9.40
  -2  -6 -10  104.59   10.20
   2  -6  10  103.19    6.90
   2  -6  10  107.39    9.10
  -2  -6 -10  108.29    9.20
   2  -6  10  100.49    8.90
  -2  -6 -10   88.39    9.60
   2   6  10   88.29    9.50
  -2   6 -10   94.39    8.80
   2   6  10   94.99    9.40
   2   6  10   94.09    9.70
   2   6  10   89.69   10.10
  -2   6 -10   92.29    8.50
  -2   6 -10   90.59    9.10
  -2   6 -10   89.39    8.30
  -2   6 -10   91.09    8.60
   2   6  10   94.59    9.20
  -2   6 -10  108.69    8.80
   3  -6  10   55.49    9.20
   3  -6  10   35.90    8.10
  -3  -6 -10   50.69    9.30
  -3  -6 -10   41.40    8.20
   3  -6  10   48.40    6.60
  -3  -6 -10   56.79    7.50
   3  -6  10   50.79    8.50
  -3  -6 -10   57.29    8.30
  -3  -6 -10   56.49    7.90
  -3  -6 -10   79.79   10.50
   3  -6  10   45.20    8.60
  -3   6 -10   36.70    7.00
   3   6  10   46.80    8.30
   3   6  10   64.89    9.20
   3   6  10   48.50    8.40
   3   6  10   58.19    9.00
   3   6  10   57.69    8.50
  -3   6 -10   55.39    8.60
  -3   6 -10   45.70    7.10
  -3   6 -10   48.20    8.00
  -3   6 -10   75.29    9.30
   3   6  10   48.50    7.80
  -3   6 -10   60.09    8.60
   3  -7 -10   95.09   10.40
   3  -7 -10  102.79   12.10
   3  -7 -10  112.39   11.90
   3  -7 -10  114.39   11.90
   3  -7 -10  127.19   11.50
   3  -7 -10   92.89   12.00
  -3   7  10  112.79   11.70
  -3   7  10   97.19   11.80
  -3   7  10   92.89   12.40
  -3   7  10  102.79    9.90
  -3   7  10   94.09   12.90
   3   7 -10  113.89    7.70
   3   7 -10  111.89    8.00
  -3   7  10  100.59   10.80
   2  -7 -10    2.30    4.40
   2  -7 -10    0.40    3.60
   2  -7 -10   -2.50    4.30
   2  -7 -10    0.00    4.10
   2  -7 -10   -4.40    3.90
  -2   7  10   -1.10    4.40
  -2   7  10    1.20    4.10
  -2   7  10    3.30    3.70
  -2   7  10   11.00    4.90
   2   7 -10   -0.10    1.50
   2   7 -10   -2.90    1.50
  -2   7  10    3.10    3.50
   1  -7 -10    4.60    3.60
   1  -7 -10    3.40    3.30
   1  -7 -10    6.20    3.40
   1  -7 -10   10.10    4.30
   1  -7 -10    4.70    3.60
   1  -7 -10    7.10    3.40
  -1   7  10    2.10    3.60
  -1   7  10    7.10    4.10
  -1   7  10    7.50    3.80
  -1   7  10    4.80    4.00
  -1   7  10    3.40    3.50
  -1   7  10    3.30    3.20
   0  -7 -10  113.29    8.60
   0  -7 -10  124.29    8.70
   0  -7 -10  135.59    9.60
   0  -7  10  121.69    6.70
   0  -7  10  124.49    6.60
   0  -7  10  117.69    6.60
   0  -7 -10  108.09    8.90
   0  -7 -10  122.29    8.50
   0  -7 -10  118.99    9.00
   0  -7  10  121.49    6.60
   0   7 -10  120.89    6.40
   0   7 -10  128.39    6.50
   0   7 -10  119.69    6.10
   0   7  10  114.59    8.80
   0   7  10  100.59    9.00
   0   7  10  115.99    9.30
   0   7 -10  131.99    6.20
   0   7  10  118.69    9.20
   0   7 -10  128.69    6.70
   0   7  10  110.99    8.40
   0   7  10  118.39    8.60
  -1  -7 -10   85.09    7.60
   1  -7  10   91.99    6.90
   1  -7  10   93.69    6.80
   1  -7  10   85.89    6.80
  -1  -7 -10   91.29    8.40
  -1  -7 -10   95.39    8.60
   1  -7  10   84.89    6.90
  -1  -7 -10   83.99    8.10
  -1  -7 -10   85.79    8.20
  -1   7 -10   82.39    6.60
  -1   7 -10   87.69    6.40
  -1   7 -10   86.39    6.60
   1   7  10   96.89    8.60
   1   7  10   91.59    7.80
   1   7  10   74.39    7.70
  -1   7 -10   78.79    6.80
   1   7  10   86.49    7.60
  -1   7 -10   82.39    6.60
  -1   7 -10   78.89    6.30
   2  -7  10  568.84   28.50
  -2  -7 -10  610.24   31.00
  -2  -7 -10  624.74   31.10
  -2  -7 -10  614.44   31.10
  -2  -7 -10  614.74   31.10
   2  -7  10  584.24   28.50
  -2  -7 -10  614.84   30.40
   2  -7  10  613.24   30.40
  -2  -7 -10  531.35   30.90
   2  -7  10  578.04   30.30
   2  -7  10  591.94   30.40
  -2   7 -10  579.64   29.90
  -2   7 -10  618.24   30.00
  -2   7 -10  602.24   30.10
   2   7  10  610.54   31.00
   2   7  10  644.14   31.30
   2   7  10  623.94   30.60
   2   7  10  672.63   31.80
  -2   7 -10  624.64   30.10
   2   7  10  643.04   30.90
  -2   7 -10  602.64   30.40
  -2   7 -10  554.64   29.90
   3  -7  10    1.20    6.90
  -3  -7 -10   -6.20    6.90
  -3  -7 -10   14.40    6.90
  -3  -7 -10    8.60    7.40
   3  -7  10   -0.30    6.50
  -3  -7 -10   -6.70    7.40
   3  -7  10    8.60    6.90
  -3  -7 -10    1.10    6.40
  -3  -7 -10    2.90    7.70
   3  -7  10    5.40    4.80
   3  -7  10  -11.70    6.90
   3   7  10   -3.90    6.50
   3   7  10    6.70    6.70
  -3   7 -10    5.60    6.10
   3   7  10    3.40    7.60
   3   7  10    4.40    6.50
  -3   7 -10    0.20    6.60
  -3   7 -10   -1.70    6.70
   3   7  10    9.20    7.60
  -3   7 -10    2.50    6.60
  -3   7 -10    2.30    6.40
  -3   7 -10   -2.50    5.80
   3   7  10   -5.80    6.40
   3  -8 -10    2.60    6.60
   3  -8 -10    0.70    6.50
   3  -8 -10    5.50    7.30
   3  -8 -10    4.00    5.60
   3  -8 -10   -5.00    6.20
   3  -8 -10   -1.90    6.60
  -3   8  10    0.10    5.10
  -3   8  10   -1.60    6.60
  -3   8  10   -2.60    7.80
   3   8 -10   -4.30    3.30
  -3   8  10    9.70    7.20
   3   8 -10    0.90    3.40
  -3   8  10   -2.50    7.70
  -3   8  10    0.10    5.90
   2  -8 -10  110.09    9.70
   2  -8 -10   77.69   10.00
   2  -8 -10  116.09   10.10
   2  -8 -10  101.59    9.40
   2  -8 -10   91.79   10.00
  -2   8  10  109.59   10.20
  -2   8  10  118.29   11.10
  -2   8  10  109.39    9.30
  -2   8  10  114.19   10.40
   2   8 -10  113.09    5.60
  -2   8  10  110.59   10.90
   1  -8 -10   51.99    6.50
   1  -8 -10   54.19    6.80
   1  -8 -10   55.19    6.90
   1  -8 -10   65.59    7.90
   1  -8 -10   59.89    7.20
   1  -8 -10   57.09    7.30
  -1   8  10   65.09    7.90
  -1   8  10   50.99    6.80
  -1   8  10   52.69    7.80
  -1   8  10   38.40    5.80
  -1   8  10   54.19    6.90
  -1   8  10   57.39    7.70
   0  -8  10   63.79    4.60
   0  -8  10   67.09    4.50
   0  -8 -10   70.09    7.90
   0  -8 -10   63.69    7.50
   0  -8  10   73.79    4.60
   0  -8 -10   77.99    7.10
   0  -8  10   76.29    4.70
   0  -8 -10   86.99    7.20
   0  -8 -10   66.39    7.60
   0   8 -10   69.89    4.30
   0   8  10   74.99    7.70
   0   8 -10   80.99    3.90
   0   8 -10   69.69    3.70
   0   8 -10   70.09    4.80
   0   8 -10   67.49    4.90
   0   8  10   75.29    7.30
   0   8  10   82.49    8.20
   0   8  10   74.19    7.20
   0   8 -10   60.89    4.20
   0   8  10   85.69    8.00
   0   8  10   71.39    7.00
  -1  -8 -10   62.09    7.20
   1  -8  10   55.59    5.70
  -1  -8 -10   65.89    7.90
   1  -8  10   64.09    6.20
  -1  -8 -10   69.29    7.30
  -1  -8 -10   69.89    7.70
  -1  -8 -10   54.89    8.00
   1  -8  10   56.89    6.00
   1   8  10   68.89    8.20
   1   8  10   85.09    8.90
  -1   8 -10   68.59    5.70
  -1   8 -10   58.89    5.70
  -1   8 -10   63.99    6.00
   1   8  10   73.69    7.80
  -1   8 -10   54.59    5.90
  -1   8 -10   62.49    5.90
   1   8  10   56.29    8.00
   2  -8  10    2.70    2.60
  -2  -8 -10   -1.30    4.40
  -2  -8 -10    5.10    4.80
   2  -8  10    0.10    2.60
   2  -8  10   10.80    4.80
  -2  -8 -10   -8.30    5.30
   2  -8  10    1.90    4.70
  -2  -8 -10    1.70    4.30
   2  -8  10    5.60    4.50
   2  -8  10    8.40    4.30
  -2  -8 -10    4.20    4.90
  -2  -8 -10    8.80    5.80
  -2   8 -10    5.60    4.20
   2   8  10    1.90    5.20
   2   8  10    4.90    5.10
  -2   8 -10   -7.00    4.30
   2   8  10   -6.40    5.60
  -2   8 -10    5.00    4.10
   2   8  10    2.00    5.20
  -2   8 -10   -4.10    4.10
   2   8  10    5.00    5.50
  -2   8 -10    5.60    4.40
  -2   8 -10   -1.30    4.50
   3  -8  10   -2.90    6.60
   3  -8  10    1.10    7.80
  -3  -8 -10   -1.90    7.10
   3  -8  10   -2.60    6.60
  -3  -8 -10   -5.50    6.40
  -3  -8 -10   -2.80    7.40
  -3  -8 -10    8.80    8.00
  -3  -8 -10   -7.10    7.90
   3  -8  10   -5.40    4.80
  -3  -8 -10    4.80    6.10
  -3   8 -10    2.00    7.20
   3   8  10   11.30    8.10
   3   8  10   -7.40    7.70
   3   8  10   -0.60    7.50
  -3   8 -10   -9.40    6.70
   3   8  10   -1.60    7.80
  -3   8 -10   13.10    7.30
  -3   8 -10   -0.80    9.50
  -3   8 -10   -1.80    6.50
  -3   8 -10   -2.00    7.00
   3  -9 -10  145.29   14.20
   3  -9 -10  147.39   15.20
   3  -9 -10  141.69   13.80
   3  -9 -10  158.28   14.50
   3  -9 -10  149.79   13.40
   3  -9 -10  136.49   14.10
  -3   9  10  153.88   14.20
  -3   9  10  152.38   13.00
  -3   9  10  158.78   15.40
   3   9 -10  167.28    9.80
   3   9 -10  148.39    9.50
  -3   9  10  184.88   14.30
  -3   9  10  149.09   16.50
  -3   9  10  170.88   14.30
   2  -9 -10   12.90    5.30
   2  -9 -10    3.70    4.80
   2  -9 -10   16.30    5.50
   2  -9 -10   10.00    5.80
   2  -9 -10    7.70    5.10
   2  -9 -10   13.30    5.30
  -2   9  10   10.80    4.50
  -2   9  10   13.70    6.60
  -2   9  10   13.60    5.40
  -2   9  10   10.90    6.40
   2   9 -10   14.00    1.90
  -2   9  10   20.50    6.20
  -2   9  10    6.80    5.70
   1  -9 -10   79.09    9.00
   1  -9 -10   71.49    8.00
   1  -9 -10   71.69    7.80
   1  -9 -10   80.69    8.20
   1  -9 -10   80.09    8.90
  -1   9  10   71.59    8.80
  -1   9  10   82.49    8.20
  -1   9  10   72.69    8.20
  -1   9  10   92.99    9.10
  -1   9  10   81.69    8.70
   0  -9  10   52.19    3.70
   0  -9  10   48.20    3.90
   0  -9 -10   47.10    6.60
   0  -9 -10   50.49    6.70
   0  -9 -10   49.10    6.20
   0  -9 -10   40.50    6.00
   0  -9 -10   46.50    6.60
   0  -9  10   49.80    3.70
   0  -9  10   40.90    4.00
   0   9  10   49.30    6.60
   0   9  10   50.49    6.80
   0   9 -10   49.80    3.30
   0   9 -10   47.00    4.30
   0   9  10   45.00    6.30
   0   9  10   61.29    7.90
   0   9 -10   49.30    4.30
   0   9  10   42.20    5.50
   0   9 -10   47.40    3.30
   1  -9  10    3.60    3.20
  -1  -9 -10    7.40    4.30
   1  -9  10    5.30    3.40
  -1  -9 -10   10.60    4.70
  -1  -9 -10    4.10    4.20
  -1  -9 -10   11.30    5.00
   1  -9  10    5.00    3.10
  -1  -9 -10    8.00    4.30
  -1   9 -10    6.40    3.40
   1   9  10    4.10    4.90
  -1   9 -10    6.80    3.20
   1   9  10    1.40    4.20
   1   9  10    2.60    5.10
   1   9  10    4.20    4.60
  -1   9 -10    2.70    2.80
  -1   9 -10    5.90    3.30
  -1   9 -10    5.20    3.10
  -2  -9 -10  288.67   16.70
   2  -9  10  258.57   16.60
  -2  -9 -10  294.27   17.10
   2  -9  10  266.47   16.40
  -2  -9 -10  263.37   17.80
  -2  -9 -10  231.88   17.10
  -2  -9 -10  278.87   17.20
   2  -9  10  266.37   16.30
  -2  -9 -10  300.07   17.70
   2  -9  10  281.67   13.80
   2   9  10  293.47   17.30
  -2   9 -10  285.87   16.20
   2   9  10  226.58   17.60
   2   9  10  280.67   17.10
  -2   9 -10  278.87   16.20
  -2   9 -10  263.87   16.40
   2   9  10  299.17   18.40
  -2   9 -10  273.77   16.10
  -2   9 -10  281.27   16.60
   2   9  10  280.67   17.30
   2   9  10  257.77   18.00
  -2   9 -10  276.97   16.10
   2 -10 -10  124.29   11.50
   2 -10 -10  129.79   11.20
   2 -10 -10  131.29   12.40
   2 -10 -10  112.19   12.00
   2 -10 -10   98.49   10.40
   2 -10 -10  115.19   11.30
  -2  10  10  121.79   13.00
  -2  10  10   97.59   11.80
  -2  10  10  124.69   11.10
   2  10 -10  103.79    6.10
  -2  10  10  118.49   11.70
  -2  10  10  113.59   12.70
   1 -10 -10   10.40    4.50
   1 -10 -10   11.90    5.20
   1 -10 -10   20.90    5.60
   1 -10 -10    6.30    4.80
   1 -10 -10   10.50    5.70
  -1  10  10    3.20    5.50
  -1  10  10    5.80    4.90
  -1  10  10   17.10    5.10
  -1  10  10   19.70    7.70
  -1  10  10   16.70    5.40
  -1  10  10    5.00    5.40
   0 -10 -10    4.50    4.90
   0 -10  10    9.20    1.90
   0 -10 -10   -3.90    4.40
   0 -10  10    8.20    2.10
   0 -10 -10    8.20    4.40
   0 -10  10    9.90    2.20
   0 -10 -10    4.10    4.40
   0 -10 -10    0.70    3.60
   0 -10  10    5.90    1.90
   0  10 -10    8.70    1.60
   0  10 -10    6.00    2.30
   0  10  10    8.40    4.60
   0  10  10   10.90    4.30
   0  10 -10    9.60    2.60
   0  10  10    9.30    5.20
   0  10  10    8.70    5.10
   0  10 -10   10.20    1.70
   0  10  10    1.30    4.40
  -1 -10 -10    5.60    5.30
  -1 -10 -10    3.20    4.50
   1 -10  10   -0.70    3.50
   1 -10  10    0.30    2.70
  -1 -10 -10    3.30    4.20
   1 -10  10    0.40    3.00
  -1 -10 -10    0.60    4.50
  -1 -10 -10    2.00    4.30
   1 -10  10   -0.40    3.50
  -1 -10 -10    1.40    5.40
  -1  10 -10    0.10    3.10
  -1  10 -10    2.80    3.60
  -1  10 -10    0.20    3.10
  -1  10 -10   -2.20    3.10
   1  10  10    3.50    4.90
  -1  10 -10   -5.60    2.90
  -1  10 -10    4.40    3.00
   1  10  10    5.40    4.80
   1  10  10    5.30    5.10
   1  10  10    0.70    4.90
   2 -10  10   15.10    5.70
  -2 -10 -10    8.50    5.60
  -2 -10 -10   11.90    6.40
   2 -10  10    5.50    2.40
   2 -10  10   -0.10    4.40
   2 -10  10   18.30    5.60
  -2 -10 -10   16.80    6.50
   2 -10  10    6.00    5.60
  -2 -10 -10   22.50    7.60
  -2 -10 -10   16.40    5.50
  -2 -10 -10    6.50    6.60
  -2  10 -10   10.30    5.50
   2  10  10    9.60    7.30
  -2  10 -10   14.40    5.40
  -2  10 -10   18.10    5.80
  -2  10 -10    8.50    5.00
   2  10  10    9.20    6.30
   2  10  10   12.30    6.20
  -2  10 -10    4.00    5.00
   2  10  10   10.40    6.60
  -2  10 -10   15.80    5.50
   2  10  10   12.10    7.00
   2 -11 -10   11.20    7.00
   2 -11 -10    5.40    6.50
   2 -11 -10    2.90    7.00
   2 -11 -10    6.10    6.40
   2 -11 -10   -2.80    6.10
  -2  11  10   10.10    6.50
  -2  11  10    5.30    7.20
   2  11 -10    9.50    1.80
  -2  11  10    4.80    7.10
  -2  11  10    5.90    5.50
   2  11 -10    6.60    2.10
  -2  11  10    4.70    6.70
  -2  11  10    2.70    7.50
   1 -11 -10   20.50    5.60
   1 -11 -10   27.50    6.00
   1 -11 -10   31.40    6.00
   1 -11 -10   24.10    6.40
   1 -11 -10   21.90    6.00
   1 -11 -10   25.30    6.60
   1  11 -10   27.00    2.90
  -1  11  10   21.70    6.00
  -1  11  10   22.30    5.70
  -1  11  10   34.60    6.50
  -1  11  10   15.40    6.30
   1  11 -10   26.40    2.70
  -1  11  10   19.20    5.90
  -1  11  10   20.30    6.00
   0 -11 -10  139.79   12.30
   0 -11 -10  153.18   11.70
   0 -11  10  150.78    8.20
   0 -11 -10  158.98   11.40
   0 -11 -10  182.68   12.80
   0 -11  10  161.88    8.50
   0 -11 -10  133.69   11.60
   0 -11 -10  132.89   12.10
   0  11 -10  166.98    9.00
   0  11  10  176.48   12.80
   0  11 -10  153.88    8.90
   0  11  10  133.69   11.50
   0  11  10  170.78   12.70
   0  11  10  167.68   13.00
   0  11 -10  149.69    7.60
  -1 -11 -10    4.20    5.10
   1 -11  10    2.80    3.90
   1 -11  10    2.00    3.30
  -1 -11 -10    4.40    5.80
  -1 -11 -10    0.90    4.70
  -1 -11 -10   -3.00    5.20
  -1 -11 -10    5.70    5.70
   1 -11  10    0.80    3.10
  -1 -11 -10   -0.10    4.60
   1  11  10    7.10    5.90
  -1  11 -10    5.20    3.10
   1  11  10    1.80    5.80
  -1  11 -10    0.90    3.50
  -1  11 -10    4.10    3.30
   1  11  10   -0.10    5.00
  -1  11 -10    0.50    3.90
  -1  11 -10   -0.40    3.60
  -1  11 -10    1.70    3.30
   1  11  10    4.40    5.60
   1  11  10    2.40    5.60
   1  11  10   -5.50    4.90
  -2 -11 -10  199.38   16.10
  -2 -11 -10  228.38   16.80
   2 -11  10  234.08   15.20
   2 -11  10  207.68   15.00
  -2 -11 -10  217.08   17.20
   2 -11  10  220.88   15.00
  -2 -11 -10  220.48   17.40
  -2 -11 -10  219.58   15.30
  -2 -11 -10  234.78   16.00
   2  11  10  191.88   15.50
  -2  11 -10  234.78   14.60
   2  11  10  223.48   17.00
  -2  11 -10  202.28   15.20
  -2  11 -10  236.98   15.00
  -2  11 -10  223.88   15.10
   2  11  10  221.98   17.70
   2  11  10  188.28   16.70
   2  11  10  237.18   15.80
  -2  11 -10  256.67   15.30
   2 -12 -10  667.03   35.60
   2 -12 -10  652.83   36.20
   2 -12 -10  602.44   36.60
   2 -12 -10  790.62   37.70
   2 -12 -10  788.02   38.30
  -2  12  10  739.23   37.60
  -2  12  10  669.63   35.70
  -2  12  10  693.83   36.20
  -2  12  10  732.33   37.10
  -2  12  10  699.63   35.50
   2  12 -10  632.34   31.70
  -2  12  10  720.63   36.80
   2  12 -10  680.93   31.70
   1 -12 -10   -3.00    5.40
   1 -12 -10   -4.40    6.00
   1 -12 -10    3.40    5.70
   1 -12 -10    1.60    5.90
   1 -12 -10    4.80    6.60
   1 -12 -10    0.50    5.30
  -1  12  10    0.60    5.70
   1  12 -10    0.40    1.90
  -1  12  10   -4.40    5.60
  -1  12  10   -3.30    5.40
  -1  12  10   -6.90    6.00
  -1  12  10   -8.20    6.30
   1  12 -10    1.90    2.00
  -1  12  10   -4.50    5.30
   0 -12 -10   97.09   10.70
   0 -12 -10   73.99   10.90
   0 -12 -10   93.49   10.30
   0 -12 -10   87.49   10.00
   0 -12 -10   99.99   11.20
   0 -12 -10   96.99   10.30
   0  12  10   78.79   10.30
   0  12  10   95.69   10.60
   0  12 -10  101.29    6.90
   0  12  10   96.29   11.40
   0  12  10  101.59   11.70
   0  12 -10   91.49    7.20
   0  12  10   88.79   11.00
   0  12  10   96.79   10.20
  -1 -12 -10  241.28   17.30
  -1 -12 -10  239.18   16.90
   1 -12  10  274.47   15.30
  -1 -12 -10  243.98   16.00
  -1 -12 -10  235.38   17.20
  -1 -12 -10  249.58   16.20
   1 -12  10  241.18   14.60
  -1 -12 -10  246.18   17.50
   1  12  10  239.98   17.30
  -1  12 -10  269.27   13.70
   1  12  10  229.18   16.30
  -1  12 -10  250.07   14.30
  -1  12 -10  229.38   14.30
   1  12  10  260.17   17.50
  -1  12 -10  262.17   13.70
   1  12  10  250.37   17.20
   1  12  10  246.08   16.30
   1  12  10  256.07   17.80
  -1  12 -10  249.88   14.70
  -1  12 -10  269.47   14.20
   1 -13 -10   17.80    7.20
   1 -13 -10   24.10    7.20
   1 -13 -10   20.10    6.40
   1 -13 -10   17.30    6.70
   1 -13 -10   25.20    7.10
   1 -13 -10   27.40    7.40
   1  13 -10   22.90    3.10
   1  13 -10   18.90    3.00
  -1  13  10   15.00    6.90
  -1  13  10   22.20    8.60
  -1  13  10   17.10    7.40
  -1  13  10   22.40    6.70
  -1  13  10   23.20    7.30
  -1  13  10   20.60    7.70
   0 -13 -10    5.70    5.60
   0 -13 -10   23.00    6.10
   0 -13 -10   16.10    7.30
   0 -13 -10   18.40    7.40
   0 -13  10   17.40    3.10
   0 -13 -10   26.10    7.60
   0 -13 -10   26.60    7.30
   0  13  10   22.00    7.40
   0  13  10   25.20    7.40
   0  13  10   28.00    7.00
   0  13  10   16.10    5.70
   0  13  10   20.30    7.90
   0  13  10   25.70    7.10
   0  13 -10   24.60    4.20
   0  13 -10   15.20    3.80
  -1 -13 -10   62.19    9.50
  -1 -13 -10   60.79    8.10
  -1 -13 -10   77.49   10.10
  -1 -13 -10   45.60    7.90
  -1 -13 -10   65.39    9.50
  -1 -13 -10   66.09    8.30
   1 -13  10   49.10    6.40
   1 -13  10   52.89    6.80
   1  13  10   60.29    9.30
  -1  13 -10   50.29    6.70
   1  13  10   61.79   10.20
  -1  13 -10   53.49    7.00
  -1  13 -10   68.69    8.10
  -1  13 -10   56.49    7.80
  -1  13 -10   62.39    7.50
   1  13  10   55.29    8.60
   1  13  10   67.69    9.00
   1  13  10   85.09   12.50
   1  13  10   51.99    8.30
  -1  13 -10   51.39    6.80
   0 -14 -10   19.40    8.40
   0 -14 -10   36.80    8.00
   0 -14 -10   31.60    7.40
   0 -14  10   33.60    4.90
   0 -14 -10   45.60    7.70
   0 -14 -10   23.80    7.90
   0 -14 -10   25.40    8.20
   0  14 -10   39.40    5.20
   0  14  10   29.60    8.90
   0  14  10   27.10    8.80
   0  14  10   19.90    8.40
   0  14 -10   53.09    6.60
   3   0 -11    1.90    3.90
   3   0 -11    4.90    3.70
  -3   0  11    4.40    4.20
   3   0 -11    3.50    4.00
   3   0 -11    3.60    3.50
   3   0 -11    2.40    4.10
  -3   0  11   -1.80    3.40
   3   0 -11    0.10    3.40
  -3   0  11   -3.10    3.70
   2   0 -11    2.00    2.60
   2   0 -11    1.10    2.20
  -2   0  11    0.40    2.60
   2   0 -11    1.70    2.30
  -2   0  11    1.80    2.90
  -2   0  11    2.20    2.70
   2   0 -11    1.80    2.40
   2   0 -11   -1.30    2.40
  -2   0  11   -2.10    2.20
  -1   0  11    2.30    2.30
   1   0 -11    1.50    1.90
   1   0 -11    2.00    1.90
  -1   0  11    1.00    1.20
   1   0 -11   -0.40    1.80
   1   0 -11    1.30    2.00
  -1   0  11    2.80    2.00
   1   0 -11    2.00    1.90
  -1   0  11   -1.10    0.90
  -1   0  11    1.70    2.00
  -1   0  11    1.60    2.20
   1   0 -11    0.40    1.90
   0   0  11   -0.50    1.70
   0   0 -11    1.40    2.00
   0   0 -11    2.00    2.20
   0   0  11    1.30    2.20
   0   0 -11   -2.50    2.00
   0   0  11    2.40    2.30
   0   0  11    1.40    2.30
   0   0 -11    1.90    1.80
   0   0 -11    1.60    2.20
   0   0  11    2.20    1.50
   0   0  11    2.10    2.20
   0   0 -11    1.60    1.90
   1   0  11    0.40    2.90
  -1   0 -11   -0.70    2.40
   1   0  11   -1.40    2.40
  -1   0 -11    0.70    2.90
  -1   0 -11    0.90    2.80
   1   0  11    4.50    3.20
   1   0  11   -1.90    2.50
   1   0  11    5.70    3.00
  -1   0 -11    4.90    2.60
   1   0  11   -1.50    2.10
  -1   0 -11   -1.60    2.50
  -1   0 -11    0.70    2.40
  -2   0 -11   -3.40    3.00
  -2   0 -11   -2.20    3.50
  -2   0 -11   -4.10    3.70
  -2   0 -11   -2.30    4.30
  -2   0 -11    0.90    3.70
  -2   0 -11    3.00    4.00
   2   0  11    3.30    3.70
   2   0  11   -2.00    3.00
   2   0  11   -1.00    4.10
   2   0  11    1.60    4.30
  -3   0 -11   -2.40    6.30
   3   0  11   -5.60    5.40
   3   0  11    1.30    6.10
   3   0  11   -7.90    5.60
  -3   0 -11    5.40    5.40
   3   0  11   -0.90    4.50
  -3   0 -11    4.30    5.80
   3   0  11    5.10    6.90
  -3   0 -11    9.90    6.20
   3   0  11   -8.30    5.20
  -3   0 -11    6.20    6.30
  -3   0 -11    9.90    6.00
  -3  -1  11   33.80    5.20
   3  -1 -11   30.20    5.40
   3  -1 -11   29.70    4.70
  -3  -1  11   34.90    4.80
   3  -1 -11   36.50    5.30
   3  -1 -11   16.20    5.00
   3  -1 -11   35.90    5.00
   3  -1 -11   30.70    5.30
   3   1 -11   17.80    4.40
   3   1 -11   38.20    5.50
   3   1 -11   26.10    4.50
   3   1 -11   47.60    6.30
   3   1 -11   30.60    4.50
  -3   1  11   31.70    5.20
   3   1 -11   33.30    4.50
  -3   1  11   31.70    3.80
  -2  -1  11   16.10    2.80
  -2  -1  11   15.40    3.20
   2  -1 -11   14.20    3.10
  -2  -1  11   14.20    3.10
   2  -1 -11   17.80    3.60
   2  -1 -11   21.00    3.70
   2  -1 -11   23.60    3.50
  -2  -1  11   20.40    3.40
   2  -1 -11   16.30    3.30
  -2   1  11   20.10    3.60
   2   1 -11   14.20    2.80
   2   1 -11   19.80    3.10
  -2   1  11   11.80    3.00
   2   1 -11   19.00    3.10
  -2   1  11   20.30    2.30
   2   1 -11   15.40    2.90
  -2   1  11   16.30    3.50
   2   1 -11   21.20    3.00
   2   1 -11   16.90    2.80
   1  -1 -11  192.48   10.50
  -1  -1  11  207.28   10.20
   1  -1 -11  206.78   10.50
  -1  -1  11  190.58   10.20
   1  -1 -11  180.68   10.50
  -1  -1  11  171.88   10.10
   1  -1 -11  215.88   10.60
  -1  -1  11  197.98   10.30
   1  -1 -11  205.08   10.80
   1  -1 -11  183.58   10.40
   1   1 -11  177.38   10.00
   1   1 -11  191.48   10.10
  -1   1  11  174.08   10.50
   1   1 -11  223.78   10.10
   1   1 -11  191.88   10.00
   1   1 -11  207.08   10.10
  -1   1  11  196.78    9.60
  -1   1  11  185.28    9.70
  -1   1  11  157.28   10.40
   1   1 -11  187.68   10.00
  -1   1  11  179.58   10.70
   0  -1  11  208.58   12.00
   0  -1  11  232.98   12.10
   0  -1  11  240.08   11.00
   0  -1 -11  245.58   12.40
   0  -1 -11  220.58   12.00
   0  -1 -11  238.08   12.40
   0  -1 -11  249.48   12.50
   0  -1 -11  219.28   12.40
   0  -1  11  205.38   12.00
   0  -1 -11  219.38   12.00
   0   1 -11  222.58   12.00
   0   1 -11  240.08   11.80
   0   1  11  241.98   11.80
   0   1  11  239.18   11.70
   0   1  11  219.08   12.40
   0   1 -11  242.78   12.20
   0   1  11  227.68   12.40
   0   1 -11  221.78   12.00
   0   1 -11  227.08   11.80
   0   1  11  222.78   12.40
   0   1 -11  239.18   12.00
   1  -1  11  457.75   21.60
   1  -1  11  423.86   22.30
  -1  -1 -11  468.75   22.60
  -1  -1 -11  460.65   22.30
  -1  -1 -11  468.15   22.30
   1  -1  11  463.65   22.70
   1  -1  11  430.36   22.40
   1  -1  11  411.26   22.20
  -1  -1 -11  415.06   22.60
  -1  -1 -11  456.75   22.60
  -1   1 -11  464.15   22.30
   1   1  11  532.95   23.00
   1   1  11  395.16   22.40
  -1   1 -11  473.05   22.10
  -1   1 -11  395.86   22.10
  -1   1 -11  444.86   22.10
   1   1  11  460.65   22.10
   1   1  11  485.25   22.70
   1   1  11  465.55   22.00
   1   1  11  472.55   22.90
  -1   1 -11  457.75   22.60
  -1   1 -11  429.16   22.30
  -2  -1 -11  262.17   14.60
  -2  -1 -11  217.38   14.20
   2  -1  11  209.68   13.50
  -2  -1 -11  234.68   14.20
   2  -1  11  265.27   14.90
  -2  -1 -11  239.68   14.00
   2  -1  11  262.27   14.70
   2  -1  11  244.38   13.20
   2  -1  11  252.07   14.90
  -2  -1 -11  227.38   13.90
  -2  -1 -11  247.28   14.90
  -2   1 -11  230.28   14.40
  -2   1 -11  220.28   14.20
  -2   1 -11  239.08   14.20
   2   1  11  253.07   14.60
   2   1  11  252.67   13.70
   2   1  11  208.68   14.30
  -2   1 -11  235.18   14.60
   2   1  11  215.08   14.20
   2   1  11  238.78   14.00
  -2   1 -11  247.28   13.90
  -2   1 -11  222.58   13.80
   3  -1  11  307.37   20.10
  -3  -1 -11  299.87   19.10
  -3  -1 -11  277.17   19.60
  -3  -1 -11  291.57   18.70
  -3  -1 -11  317.87   19.10
   3  -1  11  334.37   18.50
  -3  -1 -11  317.47   18.70
  -3  -1 -11  292.57   19.60
   3  -1  11  337.17   20.00
   3  -1  11  329.87   19.30
   3  -1  11  301.57   18.00
   3  -1  11  318.47   19.70
  -3   1 -11  328.87   19.50
  -3   1 -11  297.97   18.90
   3   1  11  291.87   19.80
   3   1  11  344.17   18.60
   3   1  11  326.67   20.00
  -3   1 -11  299.77   18.70
   3   1  11  321.27   18.60
  -3   1 -11  312.37   18.80
  -3   1 -11  287.57   19.20
   3   1  11  321.27   19.70
  -3   1 -11  315.17   20.20
   3   1  11  332.97   19.20
   3  -2 -11   29.10    5.20
  -3  -2  11   23.40    4.40
   3  -2 -11   32.50    5.40
   3  -2 -11   35.40    5.50
  -3  -2  11   33.60    4.90
  -3  -2  11   26.20    5.00
   3  -2 -11   37.50    5.90
   3  -2 -11   30.00    5.00
   3  -2 -11   42.80    6.10
   3   2 -11   39.90    4.70
   3   2 -11   30.30    4.30
  -3   2  11   29.40    5.60
  -3   2  11   31.00    6.10
   3   2 -11   32.30    4.60
   3   2 -11   32.00    4.30
  -3   2  11   34.40    3.90
   3   2 -11   32.40    4.20
   2  -2 -11    8.40    3.10
   2  -2 -11   12.80    3.50
   2  -2 -11    7.40    3.40
  -2  -2  11    6.60    2.30
  -2  -2  11   10.70    2.60
   2  -2 -11    5.40    3.00
   2  -2 -11   11.40    3.20
  -2  -2  11    5.10    2.60
  -2  -2  11    8.10    2.60
   2   2 -11    7.90    2.20
   2   2 -11   10.50    2.70
  -2   2  11   10.50    3.50
   2   2 -11    6.50    2.40
   2   2 -11    9.40    2.30
  -2   2  11   10.80    2.50
   2   2 -11   10.90    2.60
  -2   2  11    9.00    2.50
  -2   2  11    8.90    3.50
  -2   2  11    6.80    3.30
   2   2 -11   10.40    2.50
  -1  -2  11  422.06   19.00
   1  -2 -11  415.46   19.70
  -1  -2  11  420.16   19.00
   1  -2 -11  417.26   19.90
  -1  -2  11  388.56   18.80
   1  -2 -11  394.16   19.50
   1  -2 -11  424.66   19.80
   1  -2 -11  382.06   19.50
   1  -2 -11  419.06   19.80
   1   2 -11  371.36   18.60
   1   2 -11  387.46   18.80
  -1   2  11  422.16   19.00
  -1   2  11  399.86   19.80
   1   2 -11  364.46   18.70
   1   2 -11  423.46   18.80
  -1   2  11  333.27   19.60
   1   2 -11  398.66   18.80
  -1   2  11  421.36   19.90
  -1   2  11  408.56   19.00
   1   2 -11  335.57   18.50
  -1   2  11  362.96   19.60
   0  -2  11    1.30    1.90
   0  -2 -11    3.70    2.10
   0  -2  11    4.60    2.20
   0  -2 -11    4.80    2.60
   0  -2 -11    2.70    2.30
   0  -2  11    1.00    1.90
   0  -2 -11    6.00    2.60
   0  -2  11    2.30    1.90
   0  -2 -11    3.20    2.30
   0  -2 -11    1.80    2.20
   0   2  11   -1.00    2.00
   0   2  11    3.30    2.10
   0   2 -11    0.40    1.90
   0   2 -11    1.80    1.70
   0   2 -11    2.60    1.70
   0   2 -11    3.10    1.80
   0   2 -11   -0.30    1.60
   0   2  11    1.30    2.50
   0   2  11   -0.60    2.70
   0   2  11    0.30    2.50
   0   2 -11    3.40    2.00
  -1  -2 -11    4.60    3.30
  -1  -2 -11    4.00    2.40
   1  -2  11    3.00    2.70
  -1  -2 -11   -0.70    3.00
  -1  -2 -11    4.30    3.20
   1  -2  11   -0.80    1.90
  -1  -2 -11    0.30    2.40
   1  -2  11    0.90    2.00
   1  -2  11    1.40    2.60
   1  -2  11    0.00    2.70
   1  -2  11   -0.20    2.50
  -1  -2 -11    2.80    2.80
   1   2  11    0.50    3.00
   1   2  11    2.10    2.60
  -1   2 -11    4.40    2.90
  -1   2 -11    1.80    2.90
  -1   2 -11    2.10    2.50
   1   2  11    3.50    3.40
   1   2  11   -0.90    2.50
  -1   2 -11   -4.40    2.20
   1   2  11   -1.30    2.80
   1   2  11    1.40    2.80
  -1   2 -11   -1.40    2.30
  -1   2 -11   -1.10    2.20
   2  -2  11  111.19    9.50
  -2  -2 -11   93.59    9.50
  -2  -2 -11   82.79    8.30
   2  -2  11   95.99    7.90
  -2  -2 -11   94.29    9.30
   2  -2  11  102.79    9.00
   2  -2  11  104.59    7.50
   2  -2  11   97.89    9.20
  -2  -2 -11  108.69    9.30
  -2  -2 -11  107.89    8.80
  -2  -2 -11   93.89    8.60
  -2   2 -11  100.49    9.20
  -2   2 -11   87.29    8.10
  -2   2 -11  103.09    8.80
   2   2  11  103.99    9.60
   2   2  11  107.99    9.30
   2   2  11   92.29    9.10
   2   2  11  109.69    8.80
  -2   2 -11   98.49    8.40
  -2   2 -11   98.89    8.60
  -2   2 -11   90.99    8.50
   2   2  11   99.69    8.50
   2   2  11   84.79    9.30
   3  -2  11   -0.20    6.20
  -3  -2 -11   -4.80    5.10
   3  -2  11    0.20    6.20
  -3  -2 -11   -1.30    5.90
  -3  -2 -11    2.30    6.30
  -3  -2 -11    5.70    5.80
   3  -2  11   -2.00    4.60
  -3  -2 -11   10.70    6.60
  -3  -2 -11   -4.00    6.00
   3  -2  11    4.30    5.20
   3  -2  11    4.00    6.10
   3  -2  11   -4.80    5.80
   3   2  11   12.40    6.40
  -3   2 -11    3.70    5.60
   3   2  11   -4.20    5.60
  -3   2 -11   -2.10    5.30
  -3   2 -11   -1.90    6.70
  -3   2 -11    0.90    5.90
   3   2  11    0.70    5.50
   3   2  11   -0.60    5.10
  -3   2 -11   -1.30    5.50
  -3   2 -11    8.40    5.60
   3   2  11   -5.80    6.90
   3  -3 -11   84.79    9.40
   3  -3 -11   78.89    8.80
  -3  -3  11   74.39    7.30
  -3  -3  11   78.89    7.50
   3  -3 -11   81.09    8.90
   3  -3 -11   72.79    9.20
   3  -3 -11  102.19    9.30
   3  -3 -11   81.79    8.40
   3   3 -11   83.89    7.40
  -3   3  11   66.29    9.60
  -3   3  11   83.99    7.20
   3   3 -11   81.39    6.60
   3   3 -11   85.29    6.80
   3   3 -11   81.09    6.40
  -3   3  11   72.49    9.70
   3   3 -11   90.29    7.30
  -3   3  11   91.19    9.50
   2  -3 -11  245.98   14.20
  -2  -3  11  236.48   12.50
  -2  -3  11  246.08   12.70
  -2  -3  11  257.57   12.80
   2  -3 -11  235.98   14.00
   2  -3 -11  255.87   13.90
   2  -3 -11  250.97   14.00
   2  -3 -11  255.07   14.20
  -2   3  11  269.57   14.40
   2   3 -11  251.57   12.70
  -2   3  11  269.57   14.40
   2   3 -11  248.98   12.20
  -2   3  11  255.27   13.20
  -2   3  11  260.97   14.50
   2   3 -11  251.17   12.50
  -2   3  11  259.67   13.20
   2   3 -11  234.98   12.70
   2   3 -11  253.57   12.30
   2   3 -11  281.97   12.40
   1  -3 -11    8.80    3.10
   1  -3 -11    9.20    3.10
   1  -3 -11   11.40    3.00
   1  -3 -11   10.00    3.10
  -1  -3  11    8.30    2.00
   1  -3 -11   11.60    2.70
  -1  -3  11   13.00    2.00
  -1  -3  11    8.20    1.90
   1  -3 -11   11.80    2.90
   1   3 -11   11.70    1.80
   1   3 -11   11.30    1.90
   1   3 -11   11.80    1.80
  -1   3  11   13.80    2.70
   1   3 -11   14.10    2.00
   1   3 -11    9.30    1.70
  -1   3  11   14.30    3.40
  -1   3  11   10.10    3.20
  -1   3  11    7.10    3.10
  -1   3  11   10.60    2.40
   1   3 -11   12.20    1.80
  -1   3  11    6.60    2.90
   0  -3 -11   32.00    4.40
   0  -3  11   28.70    3.60
   0  -3 -11   31.50    4.70
   0  -3  11   34.50    4.10
   0  -3  11   33.20    3.60
   0  -3 -11   36.60    4.60
   0  -3  11   39.20    3.80
   0  -3 -11   39.10    5.10
   0  -3 -11   31.50    4.50
   0  -3 -11   36.90    4.60
   0   3 -11   28.00    3.50
   0   3 -11   34.30    3.40
   0   3  11   26.70    4.00
   0   3  11   26.60    4.00
   0   3  11   30.60    4.10
   0   3  11   36.60    5.10
   0   3 -11   32.70    3.50
   0   3  11   35.20    4.50
   0   3  11   42.60    5.10
   0   3 -11   31.70    3.70
   0   3 -11   34.80    3.80
   0   3 -11   29.30    3.40
  -1  -3 -11   66.39    6.70
   1  -3  11   68.89    4.80
   1  -3  11   75.59    6.60
  -1  -3 -11   70.89    7.00
   1  -3  11   67.89    6.00
  -1  -3 -11   77.09    6.70
   1  -3  11   74.79    6.20
  -1  -3 -11   76.39    6.50
  -1  -3 -11   76.79    6.90
   1  -3  11   68.79    6.60
  -1  -3 -11   75.99    6.40
   1  -3  11   73.59    5.00
   1   3  11   73.09    6.60
   1   3  11   94.39    7.40
  -1   3 -11   70.69    6.00
  -1   3 -11   64.59    6.40
   1   3  11   72.49    7.10
   1   3  11   74.49    6.30
  -1   3 -11   77.69    6.10
  -1   3 -11   65.89    5.60
   1   3  11   72.39    6.90
   1   3  11   66.89    6.30
  -1   3 -11   61.19    6.20
  -1   3 -11   68.29    5.90
  -2  -3 -11  208.68   13.50
  -2  -3 -11  223.28   14.10
   2  -3  11  223.18   12.30
  -2  -3 -11  217.48   14.30
   2  -3  11  199.88   13.50
   2  -3  11  182.38   13.40
   2  -3  11  231.48   13.80
  -2  -3 -11  203.28   13.20
   2  -3  11  214.88   12.00
  -2  -3 -11  219.78   14.00
  -2   3 -11  220.78   13.90
   2   3  11  233.08   14.00
   2   3  11  201.48   13.30
   2   3  11  212.08   13.80
  -2   3 -11  223.58   13.20
  -2   3 -11  214.68   13.20
  -2   3 -11  233.28   13.00
   2   3  11  194.78   12.90
   2   3  11  215.68   13.30
  -2   3 -11  208.08   13.20
  -2   3 -11  208.58   13.00
   2   3  11  245.18   14.50
   3  -3  11  166.78   12.30
  -3  -3 -11  174.78   14.60
  -3  -3 -11  206.78   15.20
   3  -3  11  177.38   14.90
   3  -3  11  156.38   13.60
   3  -3  11  164.98   14.50
  -3  -3 -11  182.68   14.80
   3  -3  11  194.28   13.10
  -3  -3 -11  179.58   13.80
  -3  -3 -11  174.88   13.90
  -3  -3 -11  195.58   15.50
   3  -3  11  190.98   14.90
  -3   3 -11  167.98   14.40
  -3   3 -11  186.88   14.20
  -3   3 -11  194.58   15.70
  -3   3 -11  179.48   14.40
  -3   3 -11  195.48   14.10
   3   3  11  172.08   14.00
   3   3  11  189.28   15.60
   3   3  11  173.08   13.70
   3   3  11  170.58   15.40
   3   3  11  162.88   14.30
   3   3  11  185.98   13.80
  -3   3 -11  146.19   13.90
   3  -4 -11   49.30    6.90
  -3  -4  11   49.70    5.80
   3  -4 -11   58.89    8.50
   3  -4 -11   68.99    8.90
   3  -4 -11   66.39    8.00
  -3  -4  11   52.99    6.30
   3  -4 -11   56.29    8.10
   3  -4 -11   48.60    6.70
   3   4 -11   53.69    4.70
  -3   4  11   46.30    5.50
   3   4 -11   53.39    4.80
   3   4 -11   61.69    6.50
   3   4 -11   51.99    6.20
   3   4 -11   52.19    4.90
  -3   4  11   55.39    7.10
  -3   4  11   63.99    8.20
  -3   4  11   55.09    8.00
  -3   4  11   60.59    8.70
  -2  -4  11  459.45   20.80
   2  -4 -11  432.76   22.30
   2  -4 -11  382.46   22.40
  -2  -4  11  421.86   20.80
  -2  -4  11  439.56   20.50
  -2  -4  11  436.66   20.60
   2  -4 -11  474.75   23.10
   2  -4 -11  469.25   23.00
   2  -4 -11  404.26   22.40
  -2   4  11  396.56   22.80
  -2   4  11  480.95   23.00
   2   4 -11  435.96   20.90
  -2   4  11  454.65   22.00
  -2   4  11  492.15   23.00
   2   4 -11  467.05   21.00
  -2   4  11  455.25   23.20
  -2   4  11  457.45   21.90
  -1  -4  11 1067.39   47.20
   1  -4 -11 1054.49   48.80
   1  -4 -11  920.81   48.40
   1  -4 -11 1115.79   49.10
   1  -4 -11 1060.19   48.90
  -1  -4  11 1210.28   47.40
  -1  -4  11 1035.00   47.20
   1  -4 -11 1010.90   48.90
   1  -4 -11 1033.50   48.60
  -1  -4  11 1082.09   47.30
  -1   4  11 1005.70   48.20
   1   4 -11 1086.49   47.00
  -1   4  11 1058.19   48.20
  -1   4  11  990.00   48.90
  -1   4  11  951.60   48.80
   1   4 -11 1041.30   47.00
  -1   4  11  999.70   48.90
   1   4 -11 1064.29   47.30
   1   4 -11 1062.39   47.30
   0  -4 -11  336.77   18.50
   0  -4 -11  368.66   19.00
   0  -4 -11  372.36   19.10
   0  -4 -11  309.67   18.60
   0  -4 -11  375.96   18.80
   0  -4  11  389.96   17.90
   0  -4  11  318.97   17.60
   0  -4 -11  339.87   18.40
   0  -4  11  325.57   17.50
   0   4 -11  352.36   17.50
   0   4 -11  376.46   17.60
   0   4  11  396.86   19.20
   0   4 -11  365.86   17.60
   0   4  11  416.46   19.30
   0   4 -11  378.16   17.50
   0   4 -11  383.46   17.80
   0   4  11  373.06   18.40
   0   4  11  379.36   18.40
   0   4 -11  361.06   17.50
   0   4  11  417.36   19.20
   1  -4  11  277.37   13.90
   1  -4  11  264.57   12.50
  -1  -4 -11  290.97   15.10
  -1  -4 -11  251.87   14.20
   1  -4  11  227.78   13.80
  -1  -4 -11  231.68   14.80
  -1  -4 -11  251.27   14.20
  -1  -4 -11  287.77   14.80
   1  -4  11  246.98   12.40
   1  -4  11  288.57   14.20
  -1  -4 -11  290.37   14.90
  -1   4 -11  265.27   13.80
   1   4  11  247.98   15.00
  -1   4 -11  260.17   14.10
  -1   4 -11  241.98   13.60
   1   4  11  262.77   14.60
  -1   4 -11  252.97   13.50
   1   4  11  257.87   14.00
  -1   4 -11  236.68   13.50
   1   4  11  232.48   14.50
   1   4  11  280.37   14.80
  -1   4 -11  254.87   13.90
   1   4  11  229.58   14.10
   2  -4  11  827.72   40.00
  -2  -4 -11  829.32   40.20
  -2  -4 -11  829.32   40.50
  -2  -4 -11  813.22   40.60
  -2  -4 -11  809.92   40.30
   2  -4  11  819.12   40.00
  -2  -4 -11  810.22   39.80
   2  -4  11  835.92   38.60
   2  -4  11  813.42   40.10
   2  -4  11  852.31   38.70
  -2   4 -11  813.42   39.40
   2   4  11  819.92   39.80
   2   4  11  747.03   40.00
   2   4  11  865.21   40.70
  -2   4 -11  816.12   39.90
  -2   4 -11  797.82   39.70
   2   4  11  879.31   40.80
   2   4  11  863.51   40.40
  -2   4 -11  838.42   40.20
  -2   4 -11  811.92   39.60
  -2   4 -11  809.12   39.40
   3  -4  11   -1.40    6.30
   3  -4  11   -2.10    6.30
  -3  -4 -11   -0.30    5.90
   3  -4  11    9.00    7.00
  -3  -4 -11    0.20    6.60
   3  -4  11   -2.70    4.60
  -3  -4 -11   10.30    6.40
  -3  -4 -11    4.50    7.30
   3  -4  11    7.70    5.00
  -3  -4 -11   -1.40    6.80
  -3  -4 -11    2.70    6.70
   3  -4  11   -3.20    5.90
  -3   4 -11   -4.70    6.00
  -3   4 -11    7.60    6.70
   3   4  11    4.90    6.40
   3   4  11  -10.30    5.80
   3   4  11    1.70    6.30
  -3   4 -11   -5.60    5.40
  -3   4 -11   -6.50    6.50
   3   4  11   15.60    6.50
   3   4  11    4.60    6.60
  -3   4 -11   -3.20    6.30
  -3   4 -11    6.10    7.10
   3   4  11    2.10    7.30
   3  -5 -11   24.90    6.30
   3  -5 -11   16.30    5.90
   3  -5 -11    7.80    5.40
  -3  -5  11   19.80    3.60
   3  -5 -11   26.10    5.30
   3  -5 -11   32.90    6.60
   3  -5 -11   29.40    6.10
  -3  -5  11   17.90    3.70
  -3   5  11   19.40    5.20
  -3   5  11   13.20    7.10
  -3   5  11   25.60    4.80
  -3   5  11   28.10    6.10
   3   5 -11   20.40    3.80
  -3   5  11   18.10    6.10
   3   5 -11   17.40    3.90
  -3   5  11   22.20    6.40
   2  -5 -11  172.98   11.20
   2  -5 -11  167.08   11.10
   2  -5 -11  168.38   10.60
   2  -5 -11  166.68   11.20
  -2  -5  11  159.98    7.80
   2  -5 -11  145.29   10.60
   2  -5 -11  129.69   10.70
  -2  -5  11  145.49    7.70
  -2   5  11  171.08   11.20
  -2   5  11  146.39   10.00
  -2   5  11  188.68   11.40
  -2   5  11  173.28   11.70
  -2   5  11  169.28   10.20
   2   5 -11  165.18    8.40
   2   5 -11  160.38    8.40
  -1  -5  11  455.15   21.00
   1  -5 -11  463.25   23.00
  -1  -5  11  432.86   20.90
   1  -5 -11  433.56   23.30
   1  -5 -11  447.46   23.20
   1  -5 -11  508.45   23.60
   1  -5 -11  456.45   23.00
   1  -5 -11  466.15   23.20
  -1   5  11  485.85   23.60
  -1   5  11  476.05   22.70
   1   5 -11  442.16   21.20
  -1   5  11  433.46   23.30
  -1   5  11  470.55   22.70
  -1   5  11  516.05   23.70
  -1   5  11  471.95   23.60
   1   5 -11  433.56   21.20
   0  -5 -11  226.68   12.20
   0  -5  11  219.98   11.10
   0  -5 -11  200.98   12.50
   0  -5 -11  224.08   12.70
   0  -5  11  205.28   10.80
   0  -5  11  235.78   11.00
   0  -5 -11  184.98   12.40
   0  -5 -11  224.48   12.70
   0  -5 -11  243.28   12.40
   0  -5  11  226.08   10.80
   0   5 -11  208.38   10.80
   0   5  11  221.18   12.10
   0   5  11  202.98   12.50
   0   5  11  212.48   12.80
   0   5 -11  177.48   10.50
   0   5 -11  200.28   10.70
   0   5 -11  228.58   10.70
   0   5  11  205.98   11.80
   0   5 -11  214.78   10.70
   0   5 -11  196.18   10.80
   0   5  11  231.98   12.80
   0   5  11  175.58   12.40
  -1  -5 -11 1188.18   64.09
   1  -5  11 1448.56   63.49
  -1  -5 -11 1469.15   64.39
  -1  -5 -11 1492.15   64.59
  -1  -5 -11 1450.15   63.89
   1  -5  11 1395.26   61.79
  -1  -5 -11 1384.46   64.29
  -1  -5 -11 1406.56   63.89
   1  -5  11 1396.96   61.89
  -1   5 -11 1366.46   63.09
   1   5  11 1274.97   64.39
   1   5  11 1436.86   63.89
   1   5  11 1218.08   63.99
   1   5  11 1487.05   64.59
  -1   5 -11 1400.66   63.49
  -1   5 -11 1292.57   62.99
   1   5  11 1470.75   64.39
  -1   5 -11 1414.36   63.29
  -1   5 -11 1378.36   63.19
   1   5  11 1401.06   63.69
  -1   5 -11 1193.08   63.09
  -2  -5 -11  103.79   10.00
   2  -5  11  115.69    9.60
  -2  -5 -11  115.69   10.50
  -2  -5 -11  113.59   10.70
   2  -5  11  108.29    7.60
   2  -5  11  107.59    9.60
   2  -5  11  119.89    9.70
  -2  -5 -11  102.69    9.70
  -2  -5 -11  100.29   10.20
   2  -5  11  114.09    7.70
   2   5  11   90.49   10.70
   2   5  11  123.19   10.00
  -2   5 -11   98.29    9.00
  -2   5 -11  114.99    9.10
  -2   5 -11  109.59    9.10
  -2   5 -11  110.19   10.10
   2   5  11  100.39   10.30
  -2   5 -11  100.49    9.10
  -2   5 -11  111.79    9.30
   2   5  11  130.29   10.50
   2   5  11   98.39    9.90
  -3  -5 -11   40.10    8.20
  -3  -5 -11   36.50    7.10
   3  -5  11   36.50    7.60
  -3  -5 -11   24.50    8.00
   3  -5  11   38.30    8.10
   3  -5  11   36.00    6.00
   3  -5  11   24.10    8.20
   3  -5  11   32.40    8.20
  -3  -5 -11   35.30    7.70
   3  -5  11   22.20    8.00
  -3  -5 -11   35.10    8.90
  -3  -5 -11   49.70    9.50
   3   5  11   41.20    8.50
   3   5  11   18.20    7.20
   3   5  11   26.70    8.10
  -3   5 -11   35.40    7.30
  -3   5 -11   27.10    7.40
   3   5  11   30.20    7.80
   3   5  11   33.70    7.40
  -3   5 -11   38.60    7.70
  -3   5 -11   26.90    7.50
  -3   5 -11   48.50    8.60
  -3   5 -11   33.00    7.80
   3   5  11   44.90    9.30
   3  -6 -11   88.69   10.00
   3  -6 -11   78.79   10.70
   3  -6 -11   68.69    9.90
   3  -6 -11   66.29   10.20
   3  -6 -11   78.09    9.50
   3  -6 -11  109.19   11.60
  -3   6  11   87.89   12.00
  -3   6  11   87.09   10.70
  -3   6  11   77.19    8.60
   3   6 -11   88.39    7.00
  -3   6  11   83.49   12.00
  -3   6  11   72.79   10.80
   3   6 -11   72.79    7.30
   2  -6 -11  367.06   19.30
   2  -6 -11  384.06   19.50
   2  -6 -11  310.17   18.90
   2  -6 -11  365.86   18.90
   2  -6 -11  372.86   19.70
  -2   6  11  377.56   18.60
  -2   6  11  348.47   18.60
  -2   6  11  357.66   20.00
   2   6 -11  341.47   16.60
  -2   6  11  376.86   19.50
   2   6 -11  346.47   16.60
  -2   6  11  290.97   18.80
   1  -6 -11  642.74   32.20
   1  -6 -11  646.64   32.70
   1  -6 -11  765.52   32.90
   1  -6 -11  667.43   32.50
   1  -6 -11  693.33   32.40
   1  -6 -11  587.04   32.50
  -1   6  11  692.93   32.90
  -1   6  11  678.73   32.00
   1   6 -11  636.54   30.20
  -1   6  11  681.63   32.00
   1   6 -11  684.13   30.30
  -1   6  11  642.34   32.50
  -1   6  11  664.63   32.80
   0  -6 -11 1784.12   78.29
   0  -6  11 1676.23   76.49
   0  -6 -11 1536.45   78.09
   0  -6 -11 1888.91   78.69
   0  -6 -11 1643.84   77.79
   0  -6 -11 1679.13   77.79
   0  -6  11 1620.94   76.49
   0  -6 -11 1781.32   78.39
   0  -6  11 1599.74   76.39
   0   6 -11 1732.03   76.39
   0   6  11 1858.91   78.59
   0   6 -11 1690.93   76.49
   0   6  11 1662.13   77.59
   0   6  11 1661.23   78.19
   0   6  11 1831.72   78.49
   0   6  11 1733.63   78.39
   0   6 -11 1685.63   76.49
   0   6 -11 1622.24   76.19
   0   6  11 1691.63   77.69
   0   6 -11 1578.34   76.29
  -1  -6 -11  421.86   21.60
  -1  -6 -11  410.56   20.80
   1  -6  11  389.26   20.10
   1  -6  11  352.66   19.80
  -1  -6 -11  368.36   20.90
  -1  -6 -11  402.36   21.30
  -1  -6 -11  394.56   21.00
   1  -6  11  413.96   20.20
  -1   6 -11  375.46   19.60
  -1   6 -11  422.66   20.20
   1   6  11  394.26   21.00
  -1   6 -11  403.46   19.80
   1   6  11  437.96   21.40
   1   6  11  362.56   20.40
  -1   6 -11  403.46   19.80
   1   6  11  404.96   20.70
   1   6  11  414.96   21.70
   1   6  11  390.96   21.30
  -1   6 -11  408.26   20.00
  -1   6 -11  390.06   19.80
   2  -6  11  107.69    7.40
  -2  -6 -11  118.99   10.10
   2  -6  11   97.49    7.20
  -2  -6 -11  119.89   11.10
  -2  -6 -11  112.89   10.80
   2  -6  11  124.79   10.20
   2  -6  11  104.49    9.90
  -2  -6 -11  109.89   10.60
   2  -6  11  109.39    9.80
  -2  -6 -11  108.79   11.10
   2  -6  11  105.09    9.70
  -2   6 -11  113.09    9.40
   2   6  11  126.99   10.90
  -2   6 -11  121.79    9.30
  -2   6 -11  105.09    9.20
   2   6  11  104.09    9.80
  -2   6 -11  110.59    9.70
   2   6  11  110.79   10.20
   2   6  11  106.39    9.80
   2   6  11   93.09   10.90
   2   6  11   92.69   11.10
  -2   6 -11   89.59    9.10
  -2   6 -11  103.59    9.90
  -3  -6 -11   11.90    7.50
   3  -6  11   18.70    7.90
  -3  -6 -11   28.30    8.80
   3  -6  11   23.00    7.80
  -3  -6 -11   21.00    6.00
   3  -6  11   16.40    7.10
   3  -6  11   24.40    8.20
  -3  -6 -11   37.00    9.70
  -3  -6 -11   30.40    7.20
  -3  -6 -11   20.20    7.60
   3  -6  11   17.30    5.50
  -3   6 -11   21.50    7.20
  -3   6 -11   24.00    7.20
   3   6  11   26.70    8.70
   3   6  11   15.70    7.40
   3   6  11   29.40    8.90
  -3   6 -11   18.30    7.40
  -3   6 -11   21.30    7.00
   3   6  11   21.50    7.40
   3   6  11   26.00    7.40
  -3   6 -11   14.90    6.70
   3   6  11   24.10    7.70
  -3   6 -11   14.80    7.20
   3  -7 -11   35.10    7.10
   3  -7 -11   32.60    6.90
   3  -7 -11   14.50    7.60
   3  -7 -11   27.00    8.10
   3  -7 -11   29.40    6.80
   3  -7 -11   27.10    7.40
   3   7 -11   30.50    4.10
   3   7 -11   29.30    4.40
  -3   7  11   34.20    6.70
  -3   7  11   19.80    7.50
  -3   7  11   25.20    7.70
  -3   7  11   20.50    5.50
  -3   7  11   40.50    9.00
  -3   7  11   31.00    7.70
   2  -7 -11   22.50    5.40
   2  -7 -11   12.70    5.60
   2  -7 -11   22.60    5.90
   2  -7 -11   13.00    5.00
   2  -7 -11   18.70    5.40
   2   7 -11   19.90    2.80
  -2   7  11   14.80    4.40
  -2   7  11   19.20    5.70
  -2   7  11   16.80    5.00
  -2   7  11   22.20    5.80
   2   7 -11   23.50    2.60
  -2   7  11   16.30    4.40
   1  -7 -11    2.30    3.90
   1  -7 -11   -0.20    3.60
   1  -7 -11    4.30    3.50
   1  -7 -11    2.00    3.80
   1  -7 -11    0.70    3.30
   1  -7 -11    3.30    3.70
  -1   7  11    0.80    3.50
  -1   7  11    4.90    4.00
  -1   7  11    2.50    3.70
  -1   7  11    5.10    4.00
   1   7 -11    2.80    1.20
  -1   7  11    2.10    3.90
  -1   7  11   10.40    3.60
   0  -7  11    1.40    1.60
   0  -7 -11   -0.50    3.50
   0  -7  11    1.30    1.80
   0  -7  11    3.10    1.80
   0  -7 -11   -0.80    3.80
   0  -7 -11   -1.90    3.90
   0  -7 -11   -2.70    3.70
   0  -7 -11    2.30    3.00
   0  -7  11    0.30    1.80
   0  -7 -11    3.00    3.30
   0   7  11    0.60    3.80
   0   7  11   -1.70    3.70
   0   7 -11    1.80    1.50
   0   7 -11    2.60    2.10
   0   7  11   -0.10    3.40
   0   7  11    1.70    3.70
   0   7 -11    1.80    2.00
   0   7 -11    4.60    1.50
   0   7 -11    1.00    1.30
   0   7  11   -3.80    3.90
   0   7 -11   -0.80    1.60
   0   7  11    3.60    3.40
  -1  -7 -11  124.59   10.20
   1  -7  11  111.09    8.50
   1  -7  11  133.69    8.70
  -1  -7 -11  134.19   10.30
   1  -7  11  143.89    8.80
  -1  -7 -11  132.29    9.80
  -1  -7 -11  121.69   10.60
  -1  -7 -11  137.09    9.90
   1   7  11  113.19    9.80
   1   7  11  143.39    9.90
  -1   7 -11  130.89    8.50
  -1   7 -11  135.89    8.30
  -1   7 -11  140.39    8.50
  -1   7 -11  129.99    8.60
  -1   7 -11  127.89    8.50
  -1   7 -11  123.09    8.30
   1   7  11  104.59   10.40
   1   7  11  140.89   10.80
   2  -7  11   -3.20    2.70
  -2  -7 -11    0.30    6.00
   2  -7  11    5.60    4.80
   2  -7  11    9.50    4.90
  -2  -7 -11    4.10    4.70
   2  -7  11    6.90    4.80
  -2  -7 -11    3.50    5.00
  -2  -7 -11   -4.80    5.20
   2  -7  11    3.60    2.70
   2  -7  11   -5.90    4.30
  -2  -7 -11   -3.20    5.10
  -2  -7 -11    5.10    5.70
  -2   7 -11    7.20    4.70
  -2   7 -11    0.80    4.50
  -2   7 -11    6.40    4.70
   2   7  11   -1.00    5.50
   2   7  11    1.10    4.80
  -2   7 -11    7.60    4.30
   2   7  11    8.00    5.00
   2   7  11    6.40    5.70
  -2   7 -11    6.90    4.40
   2   7  11    5.10    5.60
   2   7  11    8.80    6.10
  -2   7 -11   -2.00    4.40
  -3  -7 -11   38.60    9.40
   3  -7  11   55.79   10.00
   3  -7  11   59.09    6.90
  -3  -7 -11   57.69    8.80
   3  -7  11   41.90    9.30
  -3  -7 -11   62.79   10.50
  -3  -7 -11   53.59    9.00
  -3  -7 -11   49.50    8.70
  -3  -7 -11   46.40    8.90
  -3   7 -11   46.60    8.00
  -3   7 -11   46.50    8.30
   3   7  11   60.49   10.00
   3   7  11   32.80    8.60
  -3   7 -11   62.89    8.70
  -3   7 -11   31.30    8.70
   3   7  11   65.59   10.20
  -3   7 -11   63.89    9.70
   3   7  11   54.79   10.10
   3  -8 -11  334.97   20.50
   3  -8 -11  283.87   20.40
   3  -8 -11  303.27   20.70
   3  -8 -11  342.77   20.20
   3  -8 -11  284.27   18.90
  -3   8  11  331.97   22.00
   3   8 -11  309.27   16.00
  -3   8  11  289.77   19.10
  -3   8  11  305.77   18.70
   3   8 -11  321.57   16.00
  -3   8  11  321.87   20.90
  -3   8  11  293.97   20.40
  -3   8  11  326.67   22.70
   2  -8 -11   42.00    6.90
   2  -8 -11   35.80    6.50
   2  -8 -11   54.69    7.70
   2  -8 -11   40.10    6.20
   2  -8 -11   52.89    7.60
  -2   8  11   58.79    8.20
   2   8 -11   45.90    3.20
  -2   8  11   39.30    5.80
  -2   8  11   52.99    7.70
  -2   8  11   37.40    7.20
   2   8 -11   48.80    3.40
  -2   8  11   55.39    7.60
   1  -8 -11  161.28   10.90
   1  -8 -11  114.79    9.90
   1  -8 -11  151.58   11.30
   1  -8 -11  148.89   10.40
   1  -8 -11  133.89   10.80
   1  -8 -11  146.69   11.00
  -1   8  11  130.39   11.20
  -1   8  11  157.18   10.40
  -1   8  11  133.29   11.00
  -1   8  11  139.49   11.10
  -1   8  11  165.88   10.50
  -1   8  11  151.28   10.90
   0  -8 -11   45.70    6.30
   0  -8 -11   51.09    7.30
   0  -8 -11   43.20    6.50
   0  -8  11   42.30    3.80
   0  -8 -11   36.70    6.00
   0  -8  11   43.00    3.70
   0  -8  11   49.00    3.90
   0  -8  11   45.60    3.80
   0  -8 -11   48.00    6.60
   0   8  11   53.89    7.50
   0   8 -11   41.50    4.20
   0   8  11   45.60    6.90
   0   8 -11   44.90    4.20
   0   8  11   51.39    6.60
   0   8  11   53.39    6.90
   0   8  11   49.60    7.00
   0   8  11   52.69    6.80
   0   8 -11   44.80    3.30
   0   8 -11   43.10    3.30
  -1  -8 -11   24.80    5.70
   1  -8  11   14.40    3.90
  -1  -8 -11   23.50    5.00
   1  -8  11   15.30    3.60
  -1  -8 -11   20.10    5.50
  -1  -8 -11   21.60    5.00
  -1  -8 -11   15.90    5.30
   1  -8  11   20.40    4.00
  -1   8 -11   22.00    3.70
  -1   8 -11   14.50    3.60
  -1   8 -11   23.70    4.10
   1   8  11   19.80    4.70
   1   8  11   23.90    5.90
   1   8  11   22.80    5.90
  -1   8 -11   21.30    3.30
   1   8  11   21.90    5.30
  -1   8 -11   23.70    3.90
  -1   8 -11   22.50    4.00
  -2  -8 -11   61.89    8.80
  -2  -8 -11   82.09    9.90
  -2  -8 -11   58.49    8.40
  -2  -8 -11   68.99   10.20
   2  -8  11   71.39    9.40
  -2  -8 -11   66.89    9.50
  -2  -8 -11   74.19    9.10
   2  -8  11   74.49    8.90
   2  -8  11   73.99    9.30
   2  -8  11   70.69    5.70
  -2   8 -11   68.59    8.90
  -2   8 -11   83.99    9.10
   2   8  11   82.29   10.50
  -2   8 -11   72.79    9.40
   2   8  11   88.19   11.80
  -2   8 -11   97.49    8.80
   2   8  11   78.59   11.20
  -2   8 -11   66.89    8.90
   2   8  11   79.49    9.50
   2   8  11   76.09   10.80
  -2   8 -11   76.69    9.00
   2   8  11   92.29   10.30
   2  -9 -11   78.19   11.00
   2  -9 -11   88.39   10.50
   2  -9 -11   93.49   11.30
   2  -9 -11  106.49   10.10
  -2   9  11   79.79   11.60
  -2   9  11   96.39    9.90
  -2   9  11   92.19   10.50
  -2   9  11   97.79   11.10
  -2   9  11   92.29   11.60
  -2   9  11   77.39   10.90
   1  -9 -11   27.80    5.10
   1  -9 -11   19.30    5.40
   1  -9 -11   12.80    4.90
   1  -9 -11   35.50    6.40
   1  -9 -11   22.70    5.20
  -1   9  11   25.90    6.30
  -1   9  11   18.40    5.30
  -1   9  11   26.50    6.10
  -1   9  11   28.10    6.40
  -1   9  11   22.40    4.70
   0  -9 -11   25.40    5.70
   0  -9 -11   28.40    5.10
   0  -9 -11   22.50    5.00
   0  -9  11   25.80    3.10
   0  -9  11   22.00    2.60
   0  -9 -11   22.30    5.50
   0  -9  11   22.80    3.00
   0  -9 -11   26.00    5.60
   0  -9  11   25.20    2.70
   0   9  11   23.70    5.70
   0   9 -11   24.80    2.40
   0   9  11   25.80    6.10
   0   9  11   32.00    5.40
   0   9 -11   25.00    3.20
   0   9  11   38.50    6.20
   0   9 -11   24.80    2.50
   0   9  11   21.30    5.60
   1  -9  11   93.89    7.60
  -1  -9 -11   81.39    9.90
  -1  -9 -11   77.79    9.80
   1  -9  11   88.79    7.40
   1  -9  11   87.09    7.60
  -1  -9 -11   87.19   10.00
  -1  -9 -11   85.39    8.90
  -1  -9 -11   71.99    8.80
  -1  -9 -11   77.99    9.30
   1   9  11   80.89    9.80
  -1   9 -11   88.59    6.90
  -1   9 -11   72.09    7.30
  -1   9 -11   90.59    7.20
  -1   9 -11   86.29    7.20
   1   9  11   80.69    9.40
  -1   9 -11   70.19    6.40
  -1   9 -11   90.49    7.00
   1   9  11  101.39   10.70
   1   9  11   90.39   10.10
   1   9  11   76.89    9.90
  -2  -9 -11   37.20    7.20
   2  -9  11   32.50    6.50
   2  -9  11   37.60    6.70
  -2  -9 -11   39.30    7.30
  -2  -9 -11   41.70    8.50
   2  -9  11   24.60    6.50
  -2  -9 -11   22.70    6.80
  -2  -9 -11   30.10    7.40
  -2  -9 -11   30.70    7.90
   2   9  11   28.60    7.10
   2   9  11   33.00    8.20
  -2   9 -11   35.60    6.00
   2   9  11   36.60    8.20
  -2   9 -11   21.80    6.00
   2   9  11   30.80    7.30
  -2   9 -11   29.10    5.90
  -2   9 -11   36.20    6.10
  -2   9 -11   26.60    5.90
   2   9  11   21.80    7.80
  -2   9 -11   31.70    5.80
   2   9  11   35.50    6.80
   2 -10 -11   98.39   11.40
   2 -10 -11   86.99   11.70
   2 -10 -11  108.69   11.40
   2 -10 -11   87.29   12.20
   2 -10 -11  105.49   12.60
  -2  10  11   86.09   10.80
  -2  10  11   88.69   10.80
  -2  10  11   97.09   13.00
  -2  10  11   79.69   11.50
  -2  10  11   95.59   12.10
  -2  10  11   84.39   12.60
   1 -10 -11   11.50    5.90
   1 -10 -11   17.00    5.80
   1 -10 -11   14.60    5.70
   1 -10 -11    9.40    5.90
   1 -10 -11   18.70    5.20
  -1  10  11   15.80    6.20
  -1  10  11   14.90    5.30
  -1  10  11   14.50    5.60
  -1  10  11   18.40    5.80
  -1  10  11   10.50    5.10
  -1  10  11    3.30    4.80
   0 -10  11 1117.69   50.99
   0 -10  11 1239.98   51.09
   0 -10 -11 1147.49   54.19
   0 -10 -11 1051.09   53.99
   0 -10 -11 1129.09   53.89
   0 -10 -11 1157.28   54.19
   0 -10 -11 1120.49   53.39
   0 -10  11 1121.99   51.09
   0  10  11 1085.39   54.19
   0  10  11 1135.79   53.49
   0  10  11 1084.99   53.89
   0  10 -11 1178.18   51.59
   0  10  11 1035.50   53.99
   0  10  11 1162.48   54.19
   0  10  11 1133.69   53.49
   0  10 -11 1152.48   51.59
  -1 -10 -11  185.88   14.70
  -1 -10 -11  197.58   14.60
   1 -10  11  217.98   12.50
  -1 -10 -11  212.88   14.90
  -1 -10 -11  204.88   13.80
  -1 -10 -11  203.28   14.90
  -1 -10 -11  192.28   13.90
  -1  10 -11  189.48   11.50
   1  10  11  175.08   13.90
  -1  10 -11  213.78   12.20
   1  10  11  208.38   14.00
   1  10  11  210.18   14.30
  -1  10 -11  232.68   11.60
   1  10  11  217.18   15.40
   1  10  11  214.28   15.10
   1  10  11  183.88   14.20
  -1  10 -11  209.88   12.00
  -1  10 -11  204.38   12.00
  -2 -10 -11    1.60    5.80
   2 -10  11    3.90    5.60
  -2 -10 -11   -1.80    6.40
  -2 -10 -11   -0.20    6.20
   2 -10  11   -1.10    5.00
   2 -10  11   -8.10    5.40
  -2 -10 -11    4.20    7.20
  -2 -10 -11    5.60    6.90
  -2 -10 -11    4.30    7.60
   2 -10  11   -6.40    5.70
  -2  10 -11    4.60    5.40
   2  10  11   -3.60    7.50
  -2  10 -11   -6.10    5.20
  -2  10 -11   -2.90    5.30
  -2  10 -11   -1.80    5.10
  -2  10 -11   -1.10    5.70
   2  10  11    3.30    6.80
   2  10  11   -7.90    6.10
   2  10  11    6.70    6.60
  -2  10 -11    3.50    5.50
   2  10  11  -10.00    7.20
   2 -11 -11  114.39   12.70
   2 -11 -11   89.79   11.60
   2 -11 -11  100.49   12.10
   2 -11 -11  104.69   11.70
   2 -11 -11  112.89   12.10
  -2  11  11   98.09   11.20
  -2  11  11   99.19   14.40
  -2  11  11   98.79   13.20
  -2  11  11  108.89   14.10
  -2  11  11   98.89   12.90
  -2  11  11   80.09   11.80
   1 -11 -11   53.49    6.80
   1 -11 -11   56.99    7.90
   1 -11 -11   42.40    7.40
   1 -11 -11   41.90    6.90
   1 -11 -11   30.90    7.20
   1 -11 -11   63.89    8.70
  -1  11  11   61.59    8.70
   1  11 -11   47.10    3.60
  -1  11  11   51.59    7.00
  -1  11  11   55.59    7.90
  -1  11  11   46.30    7.60
  -1  11  11   43.10    8.10
  -1  11  11   39.10    8.40
   0 -11 -11   -4.60    4.60
   0 -11 -11    1.20    5.70
   0 -11  11   -1.90    1.90
   0 -11 -11    5.60    5.50
   0 -11 -11   -0.60    5.20
   0 -11  11   -3.00    2.10
   0 -11  11    0.30    1.80
   0 -11 -11   -7.00    5.40
   0 -11 -11    6.90    5.00
   0  11  11   -6.30    5.10
   0  11 -11    3.60    2.80
   0  11  11   18.00    6.10
   0  11  11    0.80    4.80
   0  11  11    3.50    6.00
   0  11  11    3.00    5.90
   0  11 -11   -3.70    2.90
   0  11  11    8.80    5.30
  -1 -11 -11  162.08   12.50
  -1 -11 -11  127.49   13.30
  -1 -11 -11  141.99   13.00
  -1 -11 -11  141.29   12.10
  -1 -11 -11  149.79   13.40
  -1 -11 -11  147.29   12.50
   1 -11  11  143.09   10.30
  -1  11 -11  144.09    9.60
  -1  11 -11  134.69    9.80
   1  11  11  137.99   12.20
  -1  11 -11  123.69    9.00
  -1  11 -11  145.09   10.10
   1  11  11  146.99   13.70
   1  11  11  124.89   12.00
   1  11  11  133.99   12.40
   1  11  11  145.59   13.90
   1  11  11  156.78   12.50
  -1  11 -11  142.49    9.10
  -2 -11 -11   18.80    6.20
  -2 -11 -11   13.70   10.50
   2 -11  11   13.20    6.40
  -2 -11 -11   19.10    9.10
  -2 -11 -11    5.10    7.70
  -2 -11 -11   11.40    6.90
   2 -11  11   12.00    6.50
  -2 -11 -11   33.40    8.60
  -2  11 -11   17.30    6.60
   2  11  11   22.60    9.10
   2  11  11   23.50    9.30
  -2  11 -11   14.90    6.20
  -2  11 -11   11.20    6.40
  -2  11 -11   22.90    6.20
   1 -12 -11  113.19   12.90
   1 -12 -11   98.29   11.90
   1 -12 -11   82.99   11.20
   1 -12 -11   74.99   10.20
   1 -12 -11   80.89   12.20
   1 -12 -11   90.39   11.60
  -1  12  11   82.79   12.20
  -1  12  11   69.29    9.80
  -1  12  11  106.39   11.80
  -1  12  11   83.99   12.60
   1  12 -11   88.19    5.50
  -1  12  11   88.29   12.60
  -1  12  11   99.19   11.10
   1  12 -11   94.69    5.60
   0 -12 -11  176.98   12.90
   0 -12 -11  156.38   14.20
   0 -12 -11  181.78   13.60
   0 -12 -11  158.78   13.70
   0 -12 -11  157.58   14.10
   0 -12 -11  143.79   12.90
   0  12  11  169.78   13.40
   0  12  11  162.28   14.50
   0  12  11  182.78   13.70
   0  12 -11  153.18    9.90
   0  12 -11  161.58    9.80
   0  12  11  149.79   14.20
   0  12  11  154.88   14.70
   0  12  11  163.98   14.20
  -1 -12 -11  115.59   12.90
  -1 -12 -11  125.69   14.20
   1 -12  11  129.09   10.20
  -1 -12 -11  130.59   13.70
  -1 -12 -11  125.19   12.70
  -1 -12 -11  123.59   12.30
  -1 -12 -11  140.69   12.80
   1 -12  11  129.29   10.30
   1  12  11  130.19   13.50
  -1  12 -11  146.49    9.30
  -1  12 -11  133.39    9.60
   1  12  11  105.29   14.00
  -1  12 -11  119.59    9.80
   1  12  11  129.79   12.40
   1  12  11  150.18   13.00
   1  12  11  146.69   14.90
  -1  12 -11  135.99   10.30
   1  12  11  147.89   13.10
  -1  12 -11  160.98    9.20
  -1  12 -11  146.89   10.80
   1 -13 -11  118.09   14.00
   1 -13 -11  147.69   15.10
   1 -13 -11  152.18   15.20
   1 -13 -11  115.29   12.70
   1 -13 -11  122.69   14.70
   1  13 -11  127.89    7.40
  -1  13  11  132.29   14.60
  -1  13  11  124.59   15.50
  -1  13  11  104.29   15.10
  -1  13  11  131.69   15.30
  -1  13  11  118.49   15.30
   0 -13 -11    2.00    5.90
   0 -13 -11    7.60    7.70
   0 -13 -11   -0.30    6.40
   0 -13 -11   -3.40    6.40
   0 -13  11   -2.60    2.50
   0 -13  11   -0.80    2.20
   0 -13 -11    2.60    7.70
   0 -13 -11   13.10    7.40
   0  13  11   -4.20    7.40
   0  13  11    2.90    6.50
   0  13  11    2.80    6.90
   0  13  11    3.80    5.80
   0  13 -11    3.70    3.70
   0  13 -11    4.80    3.90
   0  13  11    4.50    7.00
   0  13  11   10.20    8.20
  -3   0  12   41.10    6.20
  -3   0  12   34.80    5.40
   3   0 -12   36.70    5.10
  -3   0  12   40.50    6.00
   3   0 -12   34.60    5.60
   3   0 -12   38.80    5.30
   3   0 -12   43.50    5.60
   3   0 -12   44.80    5.80
  -2   0  12 1152.68   56.89
   2   0 -12 1230.18   56.69
  -2   0  12 1289.97   56.99
  -2   0  12 1275.07   56.89
   2   0 -12 1273.77   56.89
   2   0 -12 1267.07   56.79
   2   0 -12 1289.47   56.79
   2   0 -12 1129.19   56.49
   2   0 -12 1201.98   56.79
  -1   0  12  155.78    9.70
   1   0 -12  177.18    9.70
   1   0 -12  163.98    9.50
  -1   0  12  171.58    9.90
   1   0 -12  164.78    9.70
  -1   0  12  161.28    9.70
   1   0 -12  162.78    9.60
   1   0 -12  205.28   10.00
  -1   0  12  173.78    9.90
   1   0 -12  181.68    9.60
   0   0 -12  685.73   30.70
   0   0  12  534.95   30.20
   0   0 -12  645.34   30.50
   0   0  12  621.04   30.50
   0   0  12  613.64   29.60
   0   0 -12  674.53   30.30
   0   0 -12  637.24   30.20
   0   0 -12  608.44   30.30
   0   0 -12  662.63   30.50
   0   0  12  689.63   29.60
   0   0  12  672.03   30.80
  -1   0 -12  146.19    9.90
   1   0  12  146.59    9.90
  -1   0 -12  166.98   10.40
   1   0  12  157.78    9.20
   1   0  12  164.48   10.40
  -1   0 -12  169.18   10.00
  -1   0 -12  168.18   10.00
  -1   0 -12  167.68    9.80
  -1   0 -12  137.09    9.60
   1   0  12  140.69   10.10
   1   0  12  162.08   10.50
   1   0  12  160.38    9.40
  -2   0 -12   22.00    4.90
  -2   0 -12   19.20    5.60
  -2   0 -12   18.90    5.20
   2   0  12   25.20    5.70
   2   0  12   19.10    4.30
  -2   0 -12   24.80    5.30
   2   0  12   16.80    5.50
  -2   0 -12   25.30    4.90
   2   0  12   20.70    5.20
  -2   0 -12   21.20    5.10
  -3   0 -12   -6.50    5.70
   3   0  12    2.90    6.60
   3   0  12    7.00    6.30
  -3   0 -12   -9.80    6.60
  -3   0 -12    4.20    7.30
   3   0  12   -1.10    5.70
   3   0  12    4.90    6.40
  -3   0 -12    4.40    6.90
  -3   0 -12   -1.90    6.10
  -3   0 -12    3.00    6.00
   3   0  12    3.10    6.90
   3   0  12    9.90    5.80
   3  -1 -12    5.00    4.10
  -3  -1  12    5.70    4.00
   3  -1 -12    6.30    4.70
  -3  -1  12    1.30    4.10
   3  -1 -12    3.90    4.60
   3  -1 -12    0.20    4.70
   3  -1 -12    3.00    4.00
  -3  -1  12   -1.00    3.30
  -3   1  12    6.00    5.10
  -3   1  12    3.20    4.80
   3   1 -12   10.40    3.90
   3   1 -12    3.00    4.00
  -3   1  12    6.50    4.50
  -3   1  12    1.00    3.90
   3   1 -12   -0.90    3.70
   3   1 -12    7.20    3.50
   3   1 -12    6.70    3.70
   3   1 -12    6.70    3.70
   2  -1 -12  170.18   10.00
   2  -1 -12  165.18   10.00
   2  -1 -12  178.68   10.00
  -2  -1  12  179.28    9.70
  -2  -1  12  169.68    9.40
  -2  -1  12  160.78    9.60
   2  -1 -12  158.38    9.90
   2  -1 -12  161.78    9.90
   2  -1 -12  154.98    9.60
  -2  -1  12  162.78    9.60
  -2   1  12  165.78    8.10
  -2   1  12  134.99    9.70
   2   1 -12  153.48    9.20
   2   1 -12  173.28    9.60
   2   1 -12  130.99    8.90
   2   1 -12  153.28    9.20
  -2   1  12  151.68   10.00
   2   1 -12  162.58    9.20
  -2   1  12  147.19    9.90
   2   1 -12  162.98    9.30
   1  -1 -12  130.79    8.10
  -1  -1  12  115.09    7.50
   1  -1 -12  111.79    7.70
   1  -1 -12  128.19    7.80
  -1  -1  12  119.69    7.70
  -1  -1  12  125.89    7.60
   1  -1 -12  130.09    8.10
  -1  -1  12  126.49    7.40
   1  -1 -12  113.29    7.70
   1  -1 -12  108.09    7.70
   1   1 -12  122.79    7.30
   1   1 -12  125.99    7.40
  -1   1  12  126.59    8.10
   1   1 -12  129.29    7.30
  -1   1  12  119.39    6.70
  -1   1  12  133.09    8.20
  -1   1  12  134.79    8.20
   1   1 -12  117.29    7.40
   1   1 -12  123.59    7.40
  -1   1  12  109.99    6.70
   1   1 -12  126.79    7.40
   0  -1  12  268.07   12.60
   0  -1 -12  250.47   12.80
   0  -1 -12  237.98   12.40
   0  -1 -12  215.78   12.60
   0  -1 -12  251.77   12.80
   0  -1  12  245.48   12.60
   0  -1  12  220.48   11.10
   0  -1 -12  240.58   12.50
   0  -1 -12  207.98   12.70
   0  -1  12  237.98   12.60
   0   1  12  210.38   12.70
   0   1 -12  236.38   12.40
   0   1  12  199.68   12.60
   0   1  12  244.08   12.10
   0   1  12  239.48   11.90
   0   1 -12  239.98   12.50
   0   1 -12  221.88   12.20
   0   1 -12  251.37   12.60
   0   1 -12  224.88   12.20
   0   1  12  224.88   12.70
   0   1 -12  217.18   12.10
  -1  -1 -12   24.80    4.40
  -1  -1 -12   25.10    3.80
   1  -1  12   29.00    4.30
  -1  -1 -12   32.30    4.80
   1  -1  12   26.60    4.60
  -1  -1 -12   26.70    4.20
  -1  -1 -12   29.70    4.00
   1  -1  12   28.70    3.60
   1  -1  12   27.60    4.20
   1  -1  12   32.10    4.10
  -1  -1 -12   38.10    5.60
   1  -1  12   32.80    4.70
   1   1  12   21.80    4.30
  -1   1 -12   22.70    3.50
   1   1  12   38.80    5.70
  -1   1 -12   24.70    3.80
  -1   1 -12   27.00    4.40
  -1   1 -12   33.20    4.90
  -1   1 -12   32.00    4.40
   1   1  12   34.30    4.60
  -1   1 -12   26.40    3.80
   1   1  12   26.10    4.50
   1   1  12   26.70    3.90
   1   1  12   33.40    4.90
   2  -1  12   30.60    5.80
  -2  -1 -12   45.40    6.30
  -2  -1 -12   34.30    6.00
   2  -1  12   45.70    6.20
   2  -1  12   40.40    5.10
  -2  -1 -12   48.00    6.10
   2  -1  12   34.70    5.10
   2  -1  12   43.20    6.50
  -2  -1 -12   37.80    6.50
  -2  -1 -12   44.50    6.40
  -2  -1 -12   29.80    4.90
   2   1  12   46.00    6.40
   2   1  12   50.59    7.10
  -2   1 -12   43.10    6.10
  -2   1 -12   41.70    5.80
   2   1  12   25.60    5.30
   2   1  12   32.50    6.00
  -2   1 -12   36.60    6.30
  -2   1 -12   31.80    5.10
  -2   1 -12   30.70    5.30
   2   1  12   41.00    5.40
  -2   1 -12   38.80    6.20
  -3  -1 -12   37.70    8.10
  -3  -1 -12   42.80    7.80
   3  -1  12   41.80    8.60
   3  -1  12   36.30    8.00
   3  -1  12   52.19    8.80
   3  -1  12   44.60    7.30
  -3  -1 -12   22.80    6.70
   3  -1  12   40.60    7.90
  -3  -1 -12   50.49    8.40
  -3  -1 -12   36.70    7.20
  -3  -1 -12   37.40    8.60
   3  -1  12   27.50    6.30
  -3   1 -12   35.00    7.90
   3   1  12   51.99    9.20
   3   1  12   43.30    8.10
  -3   1 -12   37.30    7.50
  -3   1 -12   50.69    8.60
  -3   1 -12   38.30    7.70
   3   1  12   35.20    8.20
   3   1  12   52.19    7.70
  -3   1 -12   46.20    8.40
  -3   1 -12   25.00    7.90
   3   1  12   58.99    9.00
   3   1  12   52.79    7.60
   3  -2 -12  209.28   14.20
   3  -2 -12  216.18   14.80
   3  -2 -12  225.58   13.90
  -3  -2  12  220.48   13.20
   3  -2 -12  224.58   14.30
   3  -2 -12  240.88   13.70
  -3   2  12  218.78   14.10
  -3   2  12  217.88   11.60
   3   2 -12  221.18   12.50
   3   2 -12  226.98   12.50
   3   2 -12  229.08   12.90
  -3   2  12  220.18   14.60
  -3   2  12  219.28   14.70
   3   2 -12  225.88   12.20
   3   2 -12  204.78   13.00
   2  -2 -12  471.15   25.10
   2  -2 -12  467.75   25.30
   2  -2 -12  509.75   25.10
   2  -2 -12  519.45   25.30
  -2  -2  12  436.06   24.30
  -2  -2  12  533.65   24.50
   2  -2 -12  531.45   25.50
  -2  -2  12  574.94   24.70
  -2  -2  12  464.35   24.20
   2  -2 -12  548.85   25.60
   2   2 -12  546.55   24.10
  -2   2  12  490.75   24.00
  -2   2  12  529.35   25.50
  -2   2  12  555.44   26.70
   2   2 -12  530.85   24.40
   2   2 -12  491.05   24.20
  -2   2  12  521.15   25.60
   2   2 -12  483.85   24.10
  -2   2  12  514.75   24.10
   2   2 -12  539.45   24.60
   2   2 -12  503.45   24.30
   1  -2 -12    0.20    2.60
   1  -2 -12    1.10    2.60
  -1  -2  12    2.10    2.20
  -1  -2  12   -2.00    1.90
   1  -2 -12    2.80    2.60
   1  -2 -12    0.20    2.30
   1  -2 -12   -1.50    2.50
  -1  -2  12   -1.20    2.00
  -1  -2  12   -1.80    1.80
   1  -2 -12    2.80    2.50
  -1   2  12   -0.40    2.80
   1   2 -12   -0.60    1.80
  -1   2  12    3.40    2.90
   1   2 -12    0.20    1.90
   1   2 -12    4.50    1.90
   1   2 -12   -2.50    1.80
   1   2 -12   -0.10    1.70
  -1   2  12    2.80    2.80
   1   2 -12    0.50    1.90
  -1   2  12   -0.10    2.10
  -1   2  12   -0.10    1.90
  -1   2  12    1.90    2.70
   0  -2 -12  190.18   10.80
   0  -2  12  170.88   10.30
   0  -2 -12  193.38   10.80
   0  -2 -12  195.98   11.00
   0  -2  12  221.68   10.70
   0  -2  12  172.28   10.40
   0  -2  12  168.78   10.40
   0  -2 -12  193.08   11.30
   0  -2 -12  221.88   11.30
   0  -2 -12  199.28   11.10
   0   2  12  181.78   11.20
   0   2 -12  188.58   10.50
   0   2 -12  191.58   10.20
   0   2  12  163.08   11.00
   0   2 -12  188.18   10.40
   0   2  12  199.38   11.30
   0   2  12  185.58   10.30
   0   2 -12  194.58   10.30
   0   2  12  198.68   10.50
   0   2 -12  197.28   10.50
   0   2 -12  176.68   10.20
   1  -2  12  235.98   13.80
  -1  -2 -12  254.37   14.10
  -1  -2 -12  241.38   14.50
   1  -2  12  250.17   14.10
  -1  -2 -12  256.17   14.40
  -1  -2 -12  255.77   14.40
   1  -2  12  254.37   14.00
  -1  -2 -12  235.18   13.80
  -1  -2 -12  243.88   13.80
   1  -2  12  245.28   12.70
   1  -2  12  254.07   12.80
  -1   2 -12  239.58   13.50
  -1   2 -12  265.07   14.20
  -1   2 -12  258.27   13.50
  -1   2 -12  232.58   13.60
   1   2  12  255.27   14.40
  -1   2 -12  275.07   13.70
  -1   2 -12  241.88   13.70
   1   2  12  249.48   13.50
   1   2  12  243.28   14.50
   1   2  12  257.07   13.80
   1   2  12  260.57   14.70
   2  -2  12  106.89    8.50
   2  -2  12  105.89    8.10
  -2  -2 -12  109.69   10.30
  -2  -2 -12  111.59    9.50
   2  -2  12  113.79   10.00
   2  -2  12  114.59    9.50
   2  -2  12  118.59   10.00
  -2  -2 -12  116.99   10.60
  -2  -2 -12  109.79    9.50
  -2  -2 -12  105.69    9.40
  -2  -2 -12  107.89    9.00
   2   2  12  119.49   10.40
  -2   2 -12  108.39    9.30
  -2   2 -12  111.19    9.60
  -2   2 -12  102.39    9.50
  -2   2 -12   95.89    9.20
   2   2  12  113.99    9.30
   2   2  12   81.59    8.90
   2   2  12  111.79   10.50
  -2   2 -12   94.69    9.00
   2   2  12  128.59   10.30
  -2   2 -12  100.49   10.00
  -3  -2 -12   47.20    8.40
  -3  -2 -12   53.29    8.30
  -3  -2 -12   51.99    8.80
   3  -2  12   25.40    7.80
   3  -2  12   47.60    8.10
   3  -2  12   55.09    8.90
   3  -2  12   63.29    9.40
   3  -2  12   39.50    6.50
  -3  -2 -12   51.49    8.30
  -3  -2 -12   29.60    8.60
  -3  -2 -12   48.00    8.30
   3  -2  12   44.70    6.80
   3   2  12   45.20    8.90
   3   2  12   51.79    9.40
  -3   2 -12   37.60    7.20
  -3   2 -12   49.60    9.30
  -3   2 -12   40.90    7.70
   3   2  12   49.50    7.70
  -3   2 -12   46.60    8.40
  -3   2 -12   56.89    8.30
   3   2  12   53.09    9.50
  -3   2 -12   51.19    8.10
   3   2  12   59.49    9.00
   3  -3 -12  103.49   10.10
   3  -3 -12   99.19   10.30
  -3  -3  12  104.39    8.20
   3  -3 -12   90.49    9.60
   3  -3 -12   90.59    9.30
   3  -3 -12  111.39   10.60
   3   3 -12   99.39    7.20
  -3   3  12  118.69   11.10
  -3   3  12  101.19   10.90
   3   3 -12   90.49    6.80
   3   3 -12  120.49    8.50
   3   3 -12   93.89    7.30
   3   3 -12  109.69    8.20
  -3   3  12   98.19    9.90
  -3   3  12   96.59    7.60
  -2  -3  12  391.56   18.60
   2  -3 -12  392.56   19.70
   2  -3 -12  414.26   20.10
   2  -3 -12  393.96   19.90
  -2  -3  12  347.57   18.20
   2  -3 -12  385.96   20.10
  -2  -3  12  377.56   18.50
   2  -3 -12  329.47   19.90
   2   3 -12  370.46   18.50
   2   3 -12  404.76   18.70
  -2   3  12  378.26   18.90
   2   3 -12  373.36   18.00
   2   3 -12  385.26   18.30
  -2   3  12  409.16   20.30
   2   3 -12  396.66   18.20
  -2   3  12  376.46   20.20
  -2   3  12  383.26   18.80
   2   3 -12  404.56   18.00
   1  -3 -12  162.08   10.60
  -1  -3  12  166.08    9.20
   1  -3 -12  155.78   10.40
   1  -3 -12  167.08   10.50
   1  -3 -12  175.68   10.50
   1  -3 -12  181.78   10.50
   1  -3 -12  181.78   10.60
  -1  -3  12  178.48    9.20
  -1  -3  12  188.58    9.30
   1   3 -12  183.98    9.20
   1   3 -12  179.08    9.00
   1   3 -12  183.48    9.30
   1   3 -12  174.08    8.90
  -1   3  12  138.89   10.50
  -1   3  12  177.88    9.90
  -1   3  12  179.48   10.80
   1   3 -12  182.18    9.10
   1   3 -12  169.68    8.90
  -1   3  12  183.98    9.80
  -1   3  12  176.88   10.90
  -1   3  12  178.28   10.90
   0  -3  12  162.18    8.90
   0  -3 -12  167.28   10.10
   0  -3 -12  143.09    9.70
   0  -3 -12  166.08    9.60
   0  -3 -12  148.79    9.40
   0  -3 -12  151.98    9.70
   0  -3  12  151.38    8.80
   0  -3  12  158.88    9.00
   0  -3 -12  150.88    9.50
   0  -3  12  164.08    8.90
   0   3  12  141.09    9.90
   0   3  12  167.18    9.40
   0   3  12  167.48    9.20
   0   3 -12  145.29    8.60
   0   3 -12  145.29    8.60
   0   3 -12  153.38    8.80
   0   3  12  149.59   10.00
   0   3 -12  151.18    8.60
   0   3  12  175.28   10.20
   0   3 -12  140.89    8.50
   0   3 -12  147.89    8.70
   1  -3  12  437.66   21.50
  -1  -3 -12  459.55   21.90
   1  -3  12  382.66   21.60
   1  -3  12  408.06   20.20
  -1  -3 -12  413.26   21.70
   1  -3  12  475.85   21.90
   1  -3  12  426.06   20.30
  -1  -3 -12  423.66   22.10
  -1  -3 -12  379.06   21.90
  -1  -3 -12  465.05   22.50
  -1  -3 -12  430.66   22.20
   1   3  12  425.66   22.20
   1   3  12  420.46   21.40
   1   3  12  426.26   22.30
   1   3  12  441.36   21.70
  -1   3 -12  420.86   21.30
  -1   3 -12  424.76   21.60
  -1   3 -12  446.86   21.50
  -1   3 -12  425.56   21.20
  -1   3 -12  416.66   21.70
  -1   3 -12  441.36   21.20
   1   3  12  425.06   22.50
  -2  -3 -12  861.91   43.40
   2  -3  12  909.61   43.50
   2  -3  12  967.70   43.90
   2  -3  12  876.81   42.10
   2  -3  12  863.91   43.50
  -2  -3 -12  916.21   43.80
  -2  -3 -12  866.51   43.70
  -2  -3 -12  888.81   43.20
  -2  -3 -12  913.71   43.30
   2  -3  12  890.21   43.60
  -2  -3 -12  898.41   44.10
  -2   3 -12  924.61   43.00
   2   3  12  903.81   44.00
   2   3  12  893.91   43.10
  -2   3 -12  875.31   43.20
   2   3  12  842.62   43.50
  -2   3 -12  875.01   43.00
   2   3  12  973.00   44.10
   2   3  12  904.51   43.80
  -2   3 -12  907.11   43.30
  -2   3 -12  888.61   42.90
  -2   3 -12  934.51   43.70
   3  -3  12   15.30    7.80
   3  -3  12   14.00    8.20
  -3  -3 -12   33.30    8.50
   3  -3  12   19.00    5.80
   3  -3  12   19.60    6.70
  -3  -3 -12    6.90    7.60
  -3  -3 -12   24.80    7.00
  -3  -3 -12   13.90    6.50
  -3  -3 -12    5.80    7.70
   3  -3  12   17.80    7.60
  -3  -3 -12   16.50    6.80
   3  -3  12   17.20    5.80
   3   3  12   16.30    7.30
  -3   3 -12    8.10    6.50
  -3   3 -12   25.50    7.20
   3   3  12   30.10    8.40
   3   3  12   22.70    7.20
  -3   3 -12   29.80    7.70
  -3   3 -12   17.00    6.50
   3   3  12   20.00    7.90
  -3   3 -12   26.20    7.90
   3   3  12   21.20    8.60
  -3   3 -12   22.10    7.50
   3   3  12   23.60    6.70
   3  -4 -12   77.09   10.60
  -3  -4  12   99.09    7.90
   3  -4 -12   99.19    9.80
   3  -4 -12  111.09   10.70
   3  -4 -12   99.49   10.10
  -3  -4  12   92.69    7.30
   3  -4 -12   85.19   10.20
  -3   4  12   91.29   10.30
  -3   4  12   96.19   11.40
  -3   4  12   96.39    8.40
   3   4 -12   96.89    6.10
   3   4 -12   86.89    7.80
  -3   4  12  109.69   11.50
   3   4 -12   90.19    5.80
   3   4 -12   96.59    8.00
   3   4 -12  106.99    5.70
   3   4 -12   90.69    6.10
  -2  -4  12   10.60    1.90
   2  -4 -12   16.00    4.10
  -2  -4  12    9.40    2.10
  -2  -4  12   15.20    2.20
   2  -4 -12    7.80    4.40
   2  -4 -12   18.90    4.60
  -2  -4  12   14.50    2.50
   2  -4 -12   11.50    4.20
   2  -4 -12   12.80    4.10
  -2   4  12    9.10    3.40
   2   4 -12   12.60    2.60
  -2   4  12   12.90    4.50
  -2   4  12    5.20    3.80
  -2   4  12    7.70    4.40
  -2   4  12   11.20    3.30
   2   4 -12   14.30    2.50
   1  -4 -12  780.42   37.00
  -1  -4  12  780.82   35.30
   1  -4 -12  732.03   36.70
   1  -4 -12  828.22   37.30
  -1  -4  12  737.73   35.30
   1  -4 -12  765.02   36.90
  -1  -4  12  807.52   35.30
  -1  -4  12  784.12   35.30
   1  -4 -12  772.52   36.70
   1  -4 -12  821.52   37.20
   1   4 -12  782.62   35.10
  -1   4  12  775.42   36.30
  -1   4  12  801.82   37.30
  -1   4  12  734.93   37.00
   1   4 -12  718.93   35.00
   1   4 -12  773.22   35.40
  -1   4  12  767.32   37.10
   1   4 -12  763.62   35.40
  -1   4  12  762.02   36.20
  -1   4  12  776.62   37.20
   0  -4 -12  581.94   29.80
   0  -4 -12  580.84   29.50
   0  -4 -12  589.24   29.90
   0  -4 -12  622.44   29.60
   0  -4 -12  651.73   30.20
   0  -4  12  624.14   28.80
   0  -4  12  653.63   28.70
   0  -4  12  607.14   28.70
   0  -4  12  646.34   28.90
   0  -4 -12  578.54   29.80
   0   4  12  660.83   30.30
   0   4 -12  645.74   28.50
   0   4  12  627.64   29.30
   0   4  12  562.84   29.10
   0   4 -12  645.04   28.60
   0   4  12  584.14   29.90
   0   4 -12  592.44   28.70
   0   4  12  633.94   30.20
   0   4 -12  635.04   28.60
   0   4 -12  516.15   28.40
   0   4 -12  595.94   28.50
   1  -4  12  927.11   40.10
  -1  -4 -12  808.62   42.20
  -1  -4 -12  932.01   42.50
   1  -4  12  952.30   41.60
  -1  -4 -12  886.61   42.00
  -1  -4 -12  871.21   41.90
  -1  -4 -12  852.11   42.50
   1  -4  12  884.71   41.70
   1  -4  12  910.61   40.10
  -1  -4 -12  813.12   42.20
   1   4  12  928.31   42.80
   1   4  12  847.32   42.30
  -1   4 -12  890.41   41.70
  -1   4 -12  862.51   41.30
  -1   4 -12  834.52   41.40
  -1   4 -12  867.31   41.30
   1   4  12  920.81   42.60
  -1   4 -12  900.11   41.60
   1   4  12  858.91   41.80
   1   4  12  915.91   41.80
   2  -4  12  123.79   10.30
   2  -4  12  119.99   10.60
   2  -4  12  127.59   10.10
   2  -4  12  102.89    8.00
   2  -4  12  121.09   10.00
  -2  -4 -12  117.49   10.60
  -2  -4 -12   89.99   10.10
  -2  -4 -12  115.09   10.00
  -2  -4 -12  107.39   11.20
   2  -4  12  115.69    8.20
  -2  -4 -12  132.99   10.90
  -2  -4 -12  121.39   10.40
  -2   4 -12  133.99   10.10
   2   4  12  104.09   11.10
  -2   4 -12  108.39   10.50
   2   4  12  106.49   10.10
  -2   4 -12   91.89    9.60
   2   4  12  109.39   10.70
  -2   4 -12  128.39    9.60
  -2   4 -12  119.49    9.50
   2   4  12  117.49   11.40
  -2   4 -12  113.89    9.60
   2   4  12  109.29   10.60
  -3  -4 -12   48.80    9.20
  -3  -4 -12   34.70    7.20
   3  -4  12   64.39    9.40
   3  -4  12   37.20    6.30
   3  -4  12   51.39    9.50
   3  -4  12   42.20    8.90
   3  -4  12   61.09    7.30
  -3  -4 -12   51.49    9.70
   3  -4  12   31.50    7.90
  -3  -4 -12   43.20    9.10
  -3  -4 -12   58.09    9.30
  -3  -4 -12   43.30    7.90
   3   4  12   56.89    8.20
   3   4  12   51.19    9.10
  -3   4 -12   63.19    8.10
  -3   4 -12   49.40    8.10
   3   4  12   44.50    9.40
   3   4  12   39.40    8.30
   3   4  12   39.50    9.40
  -3   4 -12   39.50    8.40
  -3   4 -12   45.40    8.70
   3   4  12   47.00    8.60
  -3   4 -12   43.50    8.10
  -3   4 -12   69.79   10.40
  -3  -5  12   66.99    5.10
  -3  -5  12   47.80    5.80
   3  -5 -12   70.29    9.70
   3  -5 -12   60.29    8.50
   3  -5 -12   64.79    7.60
   3  -5 -12   55.79    8.20
   3  -5 -12   71.79   10.40
   3   5 -12   76.79    6.70
   3   5 -12   60.79    7.00
  -3   5  12   64.39    8.30
  -3   5  12   60.49    8.10
  -3   5  12   50.79    8.20
  -3   5  12   57.99    7.00
  -3   5  12   57.19    9.10
   2  -5 -12    5.90    3.80
   2  -5 -12    8.70    4.40
   2  -5 -12    0.00    4.30
   2  -5 -12    3.70    4.00
   2  -5 -12    4.90    3.60
  -2   5  12    5.60    4.60
  -2   5  12   12.20    5.00
  -2   5  12    8.30    3.60
   2   5 -12   11.80    2.40
  -2   5  12    4.10    3.90
   2   5 -12    7.50    2.10
  -2   5  12    3.20    3.50
   1  -5 -12  114.89    8.30
   1  -5 -12  104.19    8.00
  -1  -5  12  109.69    5.70
   1  -5 -12  103.59    8.50
  -1  -5  12  105.09    5.40
  -1  -5  12  105.49    5.60
   1  -5 -12  115.79    9.00
   1  -5 -12  100.69    8.20
   1  -5 -12  103.09    8.50
  -1   5  12  111.39    7.90
   1   5 -12  109.09    5.90
  -1   5  12  107.89    7.70
  -1   5  12  114.79    9.10
   1   5 -12  101.29    6.00
  -1   5  12  100.59    8.70
  -1   5  12  109.09    8.90
   0  -5  12  330.47   15.70
   0  -5 -12  330.27   17.40
   0  -5  12  325.67   15.50
   0  -5 -12  326.17   17.40
   0  -5 -12  316.97   16.80
   0  -5 -12  313.77   17.10
   0  -5 -12  330.17   16.80
   0  -5  12  304.07   15.40
   0  -5 -12  282.37   17.10
   0  -5  12  313.17   15.60
   0   5 -12  301.57   15.40
   0   5  12  323.97   17.40
   0   5 -12  314.57   15.50
   0   5  12  299.87   17.30
   0   5  12  272.37   17.00
   0   5 -12  315.97   15.30
   0   5 -12  319.37   15.30
   0   5 -12  318.27   15.40
   0   5 -12  352.76   15.50
   0   5  12  294.57   16.40
   0   5  12  310.77   16.60
  -1  -5 -12   -2.50    3.60
   1  -5  12    0.10    3.00
  -1  -5 -12    0.10    4.40
  -1  -5 -12    2.60    3.60
  -1  -5 -12    4.40    3.70
  -1  -5 -12    0.10    3.20
  -1  -5 -12    0.70    4.30
   1  -5  12    1.70    3.20
   1  -5  12    1.60    3.10
  -1   5 -12   -0.60    2.60
   1   5  12   -4.50    3.90
   1   5  12    1.00    4.10
  -1   5 -12   -2.20    2.50
   1   5  12    1.50    3.60
  -1   5 -12   -1.30    2.90
   1   5  12    9.00    4.00
  -1   5 -12    2.40    2.90
  -1   5 -12   -1.00    2.70
   1   5  12    0.50    4.20
  -1   5 -12    0.10    3.20
   1   5  12   -2.60    3.80
  -2  -5 -12  144.39   11.40
   2  -5  12  144.49    9.00
   2  -5  12  135.19   11.20
   2  -5  12  169.08   11.50
  -2  -5 -12  159.58   12.40
   2  -5  12  144.59    9.00
  -2  -5 -12  135.89   12.40
  -2  -5 -12  156.98   12.50
  -2  -5 -12  156.88   12.10
   2  -5  12  137.09   11.20
   2  -5  12  145.49   11.30
   2   5  12  144.39   12.30
   2   5  12  138.69   11.60
   2   5  12  144.99   12.00
  -2   5 -12  139.89   10.80
   2   5  12  138.49   11.10
  -2   5 -12  110.89   10.20
   2   5  12  132.89   12.50
  -2   5 -12  140.59   10.90
  -2   5 -12  138.19   11.50
  -2   5 -12  135.89   10.70
  -2   5 -12  138.19   10.40
   2   5  12  134.89   12.60
   3  -5  12   17.00    7.70
   3  -5  12   33.50    6.30
  -3  -5 -12   21.40    8.40
  -3  -5 -12   27.20    9.00
  -3  -5 -12   33.90    9.30
  -3  -5 -12   10.20    7.80
   3  -5  12   18.60    8.20
   3  -5  12   28.20    5.90
  -3  -5 -12   44.90    9.50
   3  -5  12   12.40    7.70
  -3   5 -12   26.50    7.80
   3   5  12   34.50    9.30
   3   5  12   18.60    7.70
   3   5  12   10.10    7.80
  -3   5 -12   15.20    8.30
   3   5  12   48.80    9.40
  -3   5 -12   18.60    7.20
   3   5  12   42.70    8.40
   3   5  12   26.70    8.00
  -3   5 -12   36.40    7.70
  -3   5 -12   26.60    7.30
  -3  -6  12    1.70    2.10
   3  -6 -12    4.40    5.60
  -3  -6  12   -1.50    2.00
   3  -6 -12    0.80    6.40
   3  -6 -12   -0.50    6.30
   3  -6 -12    2.60    6.70
   3  -6 -12    5.30    5.60
   3   6 -12    8.30    3.70
  -3   6  12    7.60    7.10
  -3   6  12    0.40    7.10
   3   6 -12    5.10    3.80
  -3   6  12    1.00    4.90
  -3   6  12    0.70    6.30
  -3   6  12   -4.00    6.70
   2  -6 -12  198.58   13.50
   2  -6 -12  163.68   13.00
   2  -6 -12  195.08   13.20
   2  -6 -12  186.08   12.70
   2  -6 -12  210.18   12.90
  -2   6  12  197.38   13.50
   2   6 -12  183.58    9.90
  -2   6  12  195.78   13.80
   2   6 -12  201.08    9.90
  -2   6  12  215.28   12.30
  -2   6  12  209.28   13.50
  -2   6  12  201.58   12.40
   1  -6 -12  392.36   20.20
   1  -6 -12  340.07   20.20
   1  -6 -12  362.66   19.90
   1  -6 -12  381.66   20.10
   1  -6 -12  375.16   19.90
   1  -6 -12  401.76   20.50
  -1   6  12  390.26   20.70
   1   6 -12  390.56   17.80
  -1   6  12  352.66   20.20
  -1   6  12  389.96   19.70
   1   6 -12  391.66   17.70
  -1   6  12  382.56   19.50
  -1   6  12  388.36   20.60
   0  -6 -12   44.80    5.40
   0  -6 -12   45.20    5.90
   0  -6 -12   31.90    4.90
   0  -6  12   32.20    3.90
   0  -6  12   36.20    3.90
   0  -6 -12   31.40    5.30
   0  -6 -12   28.10    4.80
   0  -6  12   33.60    3.80
   0  -6 -12   47.20    6.90
   0   6 -12   31.70    3.20
   0   6  12   33.00    5.70
   0   6 -12   35.70    3.70
   0   6  12   41.80    5.40
   0   6 -12   36.10    3.50
   0   6  12   41.60    5.90
   0   6  12   28.00    4.40
   0   6 -12   36.10    3.60
   0   6 -12   35.10    3.80
   0   6  12   27.20    4.90
   0   6 -12   34.40    3.90
   1  -6  12   30.50    4.50
   1  -6  12   39.40    4.90
  -1  -6 -12   49.40    6.60
  -1  -6 -12   27.80    5.20
   1  -6  12   41.10    4.90
  -1  -6 -12   41.10    6.20
  -1  -6 -12   36.10    6.30
  -1  -6 -12   38.10    5.40
   1   6  12   31.70    5.10
  -1   6 -12   39.00    5.50
   1   6  12   42.30    6.20
   1   6  12   38.60    6.00
  -1   6 -12   38.30    5.30
   1   6  12   34.70    6.00
   1   6  12   35.90    5.80
   1   6  12   22.20    4.80
  -1   6 -12   36.70    5.20
  -1   6 -12   36.50    4.70
  -1   6 -12   36.50    5.20
  -1   6 -12   34.40    4.90
   2  -6  12  132.49   11.00
  -2  -6 -12  128.19   12.60
  -2  -6 -12  136.89   11.80
  -2  -6 -12  114.89   12.30
   2  -6  12  128.59   11.30
   2  -6  12  129.19    8.30
  -2  -6 -12  151.18   12.60
  -2  -6 -12  139.09   11.50
   2  -6  12  124.09   11.00
  -2  -6 -12  120.79   12.00
   2   6  12  121.99   11.50
   2   6  12  118.79   11.70
  -2   6 -12  125.99   10.70
  -2   6 -12  137.29   11.40
   2   6  12  145.49   12.80
   2   6  12  126.89   11.50
   2   6  12  130.79   12.60
  -2   6 -12  134.79   10.40
  -2   6 -12  136.49   10.60
  -2   6 -12  138.09   10.20
   2   6  12  143.09   12.50
  -2   6 -12  143.89   11.10
   3  -7 -12   -1.80    6.90
   3  -7 -12   11.70    6.50
   3  -7 -12   -2.40    5.80
   3  -7 -12    5.30    6.70
   3  -7 -12    9.10    6.80
   3   7 -12    3.50    3.40
  -3   7  12    5.10   11.20
  -3   7  12    3.60    6.00
  -3   7  12   -7.30    5.30
  -3   7  12    8.50    7.10
   3   7 -12   -1.30    3.70
  -3   7  12   -3.30    6.70
  -3   7  12    2.00    7.30
   2  -7 -12   37.40    6.20
   2  -7 -12   54.49    6.70
   2  -7 -12   38.90    6.40
   2  -7 -12   45.80    6.50
   2  -7 -12   49.70    7.20
  -2   7  12   54.99    7.60
   2   7 -12   51.59    3.80
  -2   7  12   54.69    7.80
  -2   7  12   46.10    6.90
  -2   7  12   65.29    7.90
   2   7 -12   47.30    3.80
   1  -7 -12   74.69    8.50
   1  -7 -12   94.29    8.20
   1  -7 -12   92.29    9.00
   1  -7 -12   77.59    8.40
   1  -7 -12   85.49    8.90
   1  -7 -12   86.89    8.60
  -1   7  12   83.49    8.90
  -1   7  12   74.49    7.80
  -1   7  12   89.99    7.90
   1   7 -12   82.09    4.70
   1   7 -12   75.69    4.60
  -1   7  12   89.69    9.00
  -1   7  12   82.29    9.10
   0  -7  12  789.12   34.10
   0  -7 -12  634.64   35.80
   0  -7  12  750.02   34.10
   0  -7  12  776.62   34.10
   0  -7 -12  722.63   36.40
   0  -7  12  664.53   33.90
   0  -7 -12  742.93   35.90
   0  -7 -12  631.14   36.00
   0  -7 -12  765.32   35.90
   0   7 -12  766.62   34.20
   0   7  12  790.52   35.80
   0   7 -12  691.23   33.40
   0   7 -12  774.72   34.20
   0   7  12  766.72   36.50
   0   7  12  743.83   35.60
   0   7 -12  779.22   33.90
   0   7 -12  717.83   33.80
   0   7  12  712.73   36.40
   0   7  12  829.72   36.80
   0   7 -12  689.43   33.50
   0   7  12  803.02   36.60
  -1  -7 -12   68.69    8.50
   1  -7  12   73.39    6.80
   1  -7  12   63.19    6.60
  -1  -7 -12   67.19    8.00
  -1  -7 -12   55.89    7.80
  -1  -7 -12   62.09    7.70
  -1  -7 -12   74.29    9.20
  -1   7 -12   67.39    6.50
   1   7  12   62.29    9.00
  -1   7 -12   60.69    5.90
  -1   7 -12   65.79    6.40
   1   7  12   70.39    8.20
   1   7  12   60.09    8.10
  -1   7 -12   67.09    6.40
   1   7  12   60.99    8.30
  -1   7 -12   61.99    6.20
  -1   7 -12   54.39    6.40
  -2  -7 -12   -4.80    5.70
  -2  -7 -12   10.20    6.90
  -2  -7 -12    3.40    5.70
   2  -7  12   -3.00    2.70
  -2  -7 -12    8.50    5.70
   2  -7  12    0.60    4.90
   2  -7  12    1.80    5.10
  -2  -7 -12   -4.20    6.70
   2  -7  12   11.00    5.30
   2  -7  12    5.00    5.20
   2  -7  12    2.80    2.80
  -2  -7 -12    1.50    5.30
  -2   7 -12    2.20    4.40
   2   7  12    4.10    5.90
   2   7  12   10.90    6.90
   2   7  12    0.80    6.10
  -2   7 -12    0.60    5.00
   2   7  12    9.30    6.50
  -2   7 -12   -3.40    4.40
  -2   7 -12    6.00    5.20
   2   7  12   -2.30    5.30
   2   7  12   -3.60    5.40
  -2   7 -12    2.60    4.50
  -2   7 -12   -1.10    4.90
   2  -8 -12   26.00    6.30
   2  -8 -12   34.30    6.40
   2  -8 -12   24.80    6.80
   2  -8 -12   33.20    6.80
   2  -8 -12   17.30    6.60
   2   8 -12   31.00    2.90
  -2   8  12   25.70    7.30
  -2   8  12   27.50    7.30
  -2   8  12   22.70    6.20
  -2   8  12   21.90    6.50
   2   8 -12   23.40    3.00
  -2   8  12   22.10    6.10
  -2   8  12   37.00    5.90
   1  -8 -12   64.49    8.40
   1  -8 -12   67.49    8.80
   1  -8 -12   56.09    8.00
   1  -8 -12   52.49    7.40
   1  -8 -12   50.29    7.00
   1  -8 -12   58.89    8.40
  -1   8  12   43.70    7.20
  -1   8  12   60.19    7.80
   1   8 -12   51.99    3.50
   1   8 -12   55.79    3.50
  -1   8  12   48.20    6.90
  -1   8  12   59.49    8.90
  -1   8  12   66.39    7.70
   0  -8 -12   18.20    5.40
   0  -8  12   17.50    2.50
   0  -8 -12   18.90    5.20
   0  -8  12   13.30    2.50
   0  -8  12   19.00    2.60
   0  -8  12   23.50    2.70
   0  -8 -12   18.50    4.30
   0  -8 -12   18.30    4.80
   0  -8 -12   18.50    5.40
   0   8 -12   17.80    2.20
   0   8  12   16.20    5.30
   0   8  12   21.20    5.10
   0   8  12   24.60    5.80
   0   8  12   22.30    5.50
   0   8  12   15.30    5.00
   0   8 -12   13.40    2.90
   0   8 -12   19.10    2.60
   0   8 -12   18.20    3.10
  -1  -8 -12   94.19    9.90
   1  -8  12  100.59    8.20
  -1  -8 -12  106.89    9.70
  -1  -8 -12  102.89   10.70
   1  -8  12   76.79    7.80
  -1  -8 -12  114.69   10.70
   1  -8  12  101.29    8.30
  -1  -8 -12   95.59   10.40
   1   8  12  102.29   10.70
  -1   8 -12  106.79    7.30
   1   8  12   87.19   10.50
   1   8  12   89.19   10.50
  -1   8 -12  113.99    7.70
  -1   8 -12   94.09    7.50
  -1   8 -12  108.69    8.00
   1   8  12   96.09    9.50
  -1   8 -12  110.79    8.10
   1   8  12  114.59    9.90
   1   8  12  115.19    9.90
  -1   8 -12  100.59    7.90
   2  -8  12   25.70    6.40
   2  -8  12   32.50    6.60
  -2  -8 -12   20.70    6.50
  -2  -8 -12   16.40    7.80
   2  -8  12   33.20    6.60
  -2  -8 -12   24.20    6.20
   2  -8  12   19.00    3.00
  -2  -8 -12   29.50    7.30
  -2  -8 -12   32.70    7.20
  -2  -8 -12   21.80    7.40
  -2   8 -12   30.20    6.20
  -2   8 -12   26.80    6.20
   2   8  12   23.70    7.20
   2   8  12   24.70    7.40
  -2   8 -12   29.00    6.10
   2   8  12   23.80    7.80
   2   8  12   24.00    7.00
  -2   8 -12   31.90    6.20
  -2   8 -12   24.90    5.50
  -2   8 -12   23.40    6.30
   2   8  12   29.90    7.10
   2   8  12   24.30    7.10
   2  -9 -12   34.60    6.80
   2  -9 -12   50.09    8.70
   2  -9 -12   36.40    7.20
   2  -9 -12   30.50    7.30
   2  -9 -12   28.30    7.40
   2  -9 -12   26.50    6.90
  -2   9  12   28.50    6.20
  -2   9  12   27.90    7.50
  -2   9  12   39.90    7.90
  -2   9  12   51.09    7.50
  -2   9  12   32.50    7.40
  -2   9  12   33.60    7.80
   1  -9 -12   28.60    6.70
   1  -9 -12   29.10    5.90
   1  -9 -12   23.80    5.50
   1  -9 -12   23.50    5.90
   1  -9 -12   29.40    5.70
   1  -9 -12   24.00    5.90
  -1   9  12   25.70    5.70
  -1   9  12   26.30    6.50
  -1   9  12   20.60    6.10
  -1   9  12   19.70    6.10
  -1   9  12   23.40    5.20
  -1   9  12   23.90    6.20
   0  -9 -12  213.08   13.80
   0  -9 -12  176.98   13.20
   0  -9  12  209.88    9.70
   0  -9 -12  168.48   13.40
   0  -9  12  180.28    9.50
   0  -9 -12  211.18   13.80
   0  -9 -12  187.88   12.50
   0  -9  12  155.78    9.40
   0   9  12  173.98   12.70
   0   9  12  172.58   13.60
   0   9  12  173.28   12.90
   0   9 -12  187.78   10.10
   0   9  12  194.98   12.80
   0   9 -12  190.78   10.20
   0   9  12  205.78   13.70
   0   9  12  187.88   13.70
  -1  -9 -12   46.60    7.40
   1  -9  12   54.09    6.00
  -1  -9 -12   44.10    7.00
   1  -9  12   37.90    5.40
  -1  -9 -12   60.89    7.50
  -1  -9 -12   51.09    6.90
  -1  -9 -12   45.40    7.10
  -1  -9 -12   50.39    7.50
  -1   9 -12   46.70    5.50
   1   9  12   39.60    7.20
   1   9  12   40.40    7.30
  -1   9 -12   44.20    5.90
   1   9  12   53.49    8.70
  -1   9 -12   53.29    5.90
  -1   9 -12   47.10    6.50
   1   9  12   46.30    6.70
  -1   9 -12   47.40    6.40
  -1   9 -12   54.69    5.80
   1   9  12   51.19    7.30
   2  -9  12    2.30    4.90
  -2  -9 -12   -6.60    7.30
   2  -9  12    4.00    5.50
   2  -9  12    6.60    6.00
  -2  -9 -12   -1.30    5.70
  -2  -9 -12   10.30    7.10
  -2  -9 -12    6.50    6.10
  -2  -9 -12   -1.30    7.70
   2  -9  12    6.30    6.20
  -2  -9 -12   13.20    7.70
  -2   9 -12    4.70    5.60
   2   9  12   13.90    7.30
  -2   9 -12    0.30    5.60
   2   9  12    0.10    7.10
  -2   9 -12    6.30    5.50
  -2   9 -12    2.60    5.50
  -2   9 -12   -3.80    5.20
   2   9  12   -3.40    7.40
   2   9  12   -1.10    7.30
  -2   9 -12    8.00    5.60
   2   9  12    6.80    6.20
   2   9  12    7.70    6.50
   2 -10 -12   31.40    7.50
   2 -10 -12   24.30    8.20
   2 -10 -12   37.30    8.30
   2 -10 -12   13.70    7.60
   2 -10 -12   28.00    7.30
   2 -10 -12   32.00    6.90
  -2  10  12   26.20    8.90
  -2  10  12   22.40    8.50
  -2  10  12   40.10    7.60
  -2  10  12   35.90    9.20
  -2  10  12   26.80    7.90
  -2  10  12   25.90    6.90
   1 -10 -12   22.10    6.30
   1 -10 -12   25.10    7.20
   1 -10 -12   27.90    6.10
   1 -10 -12   22.20    6.10
   1 -10 -12   21.00    6.20
   1 -10 -12   21.30    6.10
  -1  10  12   17.10    6.00
  -1  10  12   19.80    5.60
  -1  10  12   16.60    5.70
  -1  10  12   16.00    6.80
  -1  10  12   34.10    7.70
  -1  10  12   26.30    6.70
   0 -10 -12    8.30    5.60
   0 -10  12   10.20    2.00
   0 -10 -12   11.00    5.10
   0 -10 -12    3.10    5.70
   0 -10  12    5.90    2.20
   0 -10 -12   15.20    5.50
   0 -10 -12   16.40    4.90
   0 -10 -12    1.60    5.50
   0  10  12   18.70    6.50
   0  10  12    9.40    5.50
   0  10  12    0.40    5.30
   0  10  12   16.90    5.50
   0  10 -12   14.80    3.30
   0  10  12   12.90    5.90
   0  10  12    3.80    5.10
  -1 -10 -12   -1.10    5.30
   1 -10  12    1.00    4.00
  -1 -10 -12   -4.90    5.70
  -1 -10 -12   -4.50    5.60
  -1 -10 -12   11.10    6.50
   1 -10  12    0.90    3.20
   1 -10  12    0.60    3.60
  -1 -10 -12    5.90    6.40
  -1 -10 -12   -2.90    6.20
  -1  10 -12   -0.10    3.30
   1  10  12   -7.20    6.30
  -1  10 -12    1.80    3.20
   1  10  12    0.90    5.70
  -1  10 -12    7.30    3.90
   1  10  12   -3.10    6.40
   1  10  12   15.00    7.00
   1  10  12    3.60    6.40
   1  10  12    1.50    5.70
  -1  10 -12    8.00    4.10
  -1  10 -12   -2.80    3.30
  -1  10 -12   -4.90    3.50
  -2 -10 -12  -11.20    7.10
  -2 -10 -12    4.40    6.50
   2 -10  12   -1.10    6.30
  -2 -10 -12    6.70    8.50
  -2 -10 -12    1.60    7.50
  -2 -10 -12   -4.20    6.40
   2 -10  12   -4.30    5.80
  -2 -10 -12   17.30    8.20
  -2  10 -12    6.50    6.30
   2  10  12  -11.00    7.50
   2  10  12    6.60    8.30
  -2  10 -12   -2.30    5.50
   2  10  12    3.40    7.60
  -2  10 -12   -6.00    5.90
  -2  10 -12    5.30    6.10
  -2  11  12   18.50    9.20
  -2  11  12   33.20    9.80
   1 -11 -12   -4.00    6.40
   1 -11 -12    3.60    6.80
   1 -11 -12   -0.60    6.60
   1 -11 -12   16.80    6.20
   1 -11 -12   14.10    6.00
   1 -11 -12   12.60    6.90
  -1  11  12   -5.80    6.30
  -1  11  12   -3.00    6.70
  -1  11  12    8.50    6.00
   1  11 -12    2.70    2.10
  -1  11  12   12.10    6.70
  -1  11  12    5.10    6.20
  -1  11  12   11.60    6.20
   0 -11 -12  158.48   12.90
   0 -11 -12  146.69   13.60
   0 -11 -12  165.08   12.90
   0 -11 -12  147.29   13.70
   0 -11 -12  154.28   12.30
   0 -11 -12  117.09   13.40
   0  11 -12  145.79    9.20
   0  11  12  139.99   13.70
   0  11  12  184.78   14.60
   0  11  12  154.38   12.90
   0  11  12  138.79   13.60
   0  11  12  158.78   12.90
   0  11  12  162.38   13.00
  -1 -11 -12   17.30    7.00
  -1 -11 -12    0.00    6.30
  -1 -11 -12   -2.90    5.90
  -1 -11 -12    1.80    5.70
   1 -11  12   -4.30    4.20
  -1 -11 -12   -4.40    6.20
   1 -11  12    1.60    3.50
   1 -11  12    0.70    4.20
  -1 -11 -12    2.90    7.00
   1 -11  12   -4.50    3.90
  -1  11 -12   -0.10    3.50
   1  11  12    4.80    6.90
  -1  11 -12   -0.60    4.30
   1  11  12    1.60    6.60
   1  11  12    5.90    7.70
  -1  11 -12   -1.90    3.70
   1  11  12    4.30    6.70
  -1  11 -12   -6.30    3.50
  -1  11 -12   -2.60    4.20
   1  11  12    3.50    6.80
  -1  11 -12    0.40    3.90
   1  11  12    2.20    5.20
   1 -12 -12  369.76   23.20
   1 -12 -12  377.06   23.00
   1 -12 -12  372.46   26.80
   1 -12 -12  433.66   24.70
   1 -12 -12  375.36   23.50
   1 -12 -12  417.96   24.70
   1  12 -12  417.26   18.70
  -1  12  12  356.86   24.30
   1  12 -12  417.76   19.10
  -1  12  12  396.16   24.50
  -1  12  12  424.76   23.20
  -1  12  12  404.26   22.90
  -1  12  12  367.56   24.20
  -1  12  12  440.56   25.10
   0 -12 -12   62.69    9.00
   0 -12 -12   56.99    7.90
   0 -12 -12   72.59    9.10
   0 -12 -12   63.59    9.10
   0 -12 -12   58.69    9.00
   0 -12 -12   75.49   10.20
   0  12  12   98.29   11.20
   0  12 -12   67.19    7.10
   0  12  12   65.69    9.70
   0  12  12   65.49    9.20
   0  12 -12   58.69    6.50
   0  12  12   47.60    9.00
   0  12  12   69.59   10.30
   0  12  12   61.79    8.20
   1 -12  12   -4.40    4.70
   1 -12  12    5.50    5.50
  -1 -12 -12    3.90    9.10
  -1 -12 -12    9.20    8.40
  -1 -12 -12    1.20    7.30
  -1 -12 -12    2.20    6.60
  -1 -12 -12    0.50    7.80
   1 -12  12   -5.40    4.40
  -1 -12 -12    7.00    7.30
   1  12  12    9.50    7.00
  -1  12 -12    3.70    4.20
   1  12  12    3.40    8.30
   1  12  12    4.90    8.00
  -1  12 -12    6.90    3.80
  -1  12 -12   -5.70    3.80
  -1  12 -12   -3.80    4.80
   1  12  12   10.60    8.40
   3   0 -13    5.60    4.10
   3   0 -13   -0.10    4.70
  -3   0  13    5.10    3.80
  -3   0  13    4.60    4.90
  -3   0  13    4.70    5.20
   3   0 -13    5.60    4.80
   3   0 -13   -2.70    4.50
  -3   0  13    1.30    4.30
   3   0 -13    7.70    4.20
   2   0 -13   -0.60    2.90
   2   0 -13    6.10    3.10
  -2   0  13    1.10    3.30
  -2   0  13    2.90    3.40
   2   0 -13   -1.80    2.80
   2   0 -13   -0.20    2.90
   2   0 -13   -5.10    2.90
  -2   0  13   -2.60    2.80
   2   0 -13   -1.90    2.80
   1   0 -13    0.20    2.40
  -1   0  13    0.80    2.50
   1   0 -13   -2.30    2.30
   1   0 -13    4.80    2.50
   1   0 -13   -0.90    2.30
   1   0 -13   -0.40    2.40
  -1   0  13    0.10    2.80
   1   0 -13   -1.30    2.40
  -1   0  13    3.80    2.70
  -1   0  13    0.00    2.20
   0   0  13    1.50    1.60
   0   0 -13    1.40    2.70
   0   0 -13    6.80    2.50
   0   0 -13    6.80    2.80
   0   0  13    1.30    2.90
   0   0  13   -2.00    1.90
   0   0  13    3.70    3.20
   0   0 -13    3.20    2.60
   0   0 -13    4.00    2.70
   0   0  13    1.40    3.10
   0   0 -13    4.60    2.70
  -1   0 -13    3.40    3.30
  -1   0 -13    3.10    2.90
   1   0  13   -1.20    3.80
   1   0  13    0.30    3.40
  -1   0 -13    0.90    3.50
   1   0  13   -4.00    3.40
   1   0  13    2.80    3.60
  -1   0 -13   -0.20    3.50
  -1   0 -13    2.30    3.20
  -1   0 -13    0.90    3.40
   1   0  13    4.50    2.40
  -2   0 -13   -4.70    4.70
  -2   0 -13   -9.60    4.80
   2   0  13   -2.20    4.60
  -2   0 -13    0.60    4.50
   2   0  13    3.50    5.30
  -2   0 -13   -7.60    4.20
   2   0  13    4.60    3.80
  -2   0 -13   -0.50    4.90
   2   0  13   -1.40    4.80
  -2   0 -13    2.90    4.00
  -3   0 -13    5.20    7.50
  -3   0 -13    2.50    7.50
  -3   0 -13    2.30    6.90
   3   0  13   -2.00    7.80
   3   0  13   -6.50    6.90
   3   0  13    4.60    7.40
   3   0  13    4.40    6.40
  -3   0 -13   -1.00    8.00
  -3   0 -13   10.10    8.10
   3   0  13  -13.90    5.90
   3   0  13   10.00   10.30
   3  -1 -13   93.69    9.10
  -3  -1  13   92.19    9.40
   3  -1 -13  119.49   10.10
   3  -1 -13   98.09   10.10
  -3  -1  13   99.59    9.50
   3  -1 -13   92.49   10.00
   3  -1 -13  114.09    9.20
   3   1 -13  106.39    8.20
   3   1 -13   92.09    7.90
   3   1 -13  101.69    8.70
  -3   1  13   82.29   10.30
   3   1 -13   84.79    8.50
  -3   1  13  107.79    9.80
   3   1 -13   90.59    9.30
  -3   1  13   90.09   10.60
   2  -1 -13   54.69    6.30
   2  -1 -13   67.79    6.00
  -2  -1  13   53.29    6.20
   2  -1 -13   58.89    6.10
   2  -1 -13   55.09    6.10
   2  -1 -13   58.79    6.60
  -2  -1  13   55.19    5.80
   2  -1 -13   55.49    6.20
   2   1 -13   52.39    5.20
   2   1 -13   48.20    5.30
   2   1 -13   52.49    5.30
  -2   1  13   37.00    5.40
   2   1 -13   53.59    5.40
   2   1 -13   45.70    5.80
   2   1 -13   54.99    5.50
  -2   1  13   41.20    5.10
  -2   1  13   42.60    6.20
   1  -1 -13   98.69    7.90
   1  -1 -13  131.79    8.40
   1  -1 -13  135.39    8.30
  -1  -1  13  124.59    7.90
  -1  -1  13  129.69    7.80
   1  -1 -13  130.49    8.20
   1  -1 -13  121.89    8.40
  -1  -1  13  125.59    8.10
  -1  -1  13  121.99    8.10
   1  -1 -13  120.59    8.20
  -1   1  13  121.49    6.80
   1   1 -13  118.19    7.70
   1   1 -13  115.19    7.70
  -1   1  13  118.09    8.40
  -1   1  13  124.49    6.80
   1   1 -13  124.09    7.70
   1   1 -13  122.99    7.60
   1   1 -13  128.49    7.60
   1   1 -13  140.29    7.70
  -1   1  13  119.29    8.30
   0  -1 -13   71.49    6.00
   0  -1  13   65.59    6.10
   0  -1  13   73.59    4.10
   0  -1 -13   74.59    6.60
   0  -1  13   51.19    5.70
   0  -1 -13   75.79    6.20
   0  -1 -13   77.49    6.30
   0  -1 -13   67.79    6.00
   0  -1  13   60.89    6.00
   0  -1  13   64.79    4.20
   0  -1 -13   74.09    6.40
   0   1  13   79.39    6.90
   0   1 -13   68.89    6.20
   0   1 -13   56.79    5.50
   0   1  13   70.09    5.40
   0   1  13   60.69    6.60
   0   1 -13   80.89    6.10
   0   1 -13   60.89    5.70
   0   1  13   68.49    5.10
   0   1  13   72.99    6.60
   0   1 -13   68.19    5.70
   0   1 -13   69.09    5.90
  -1  -1 -13 1368.96   61.39
  -1  -1 -13 1354.56   60.99
  -1  -1 -13 1164.18   60.99
   1  -1  13 1369.56   61.29
   1  -1  13 1319.47   61.29
   1  -1  13 1319.87   60.99
   1  -1  13 1375.16   60.09
   1  -1  13 1312.77   60.09
  -1  -1 -13 1326.77   60.99
  -1  -1 -13 1382.96   61.59
  -1  -1 -13 1484.65   61.49
  -1   1 -13 1218.08   60.89
   1   1  13 1307.57   61.29
   1   1  13 1311.17   60.39
  -1   1 -13 1401.16   60.79
  -1   1 -13 1343.67   61.29
  -1   1 -13 1329.17   60.79
   1   1  13 1275.07   61.29
  -1   1 -13 1151.68   60.69
   1   1  13 1135.59   61.09
   1   1  13 1369.06   60.59
   2  -1  13    4.20    5.20
  -2  -1 -13   10.40    4.70
   2  -1  13   12.30    5.20
  -2  -1 -13    5.80    5.00
   2  -1  13   11.60    4.20
  -2  -1 -13   -0.20    5.00
   2  -1  13    5.50    3.70
  -2  -1 -13    8.30    5.20
   2  -1  13    2.30    5.10
  -2  -1 -13    9.70    5.10
  -2  -1 -13    9.00    5.50
  -2   1 -13    1.50    5.10
  -2   1 -13    4.60    4.80
   2   1  13   12.40    5.30
   2   1  13   10.30    5.10
  -2   1 -13   14.90    5.60
   2   1  13    0.30    3.70
  -2   1 -13    3.80    4.20
  -2   1 -13    4.20    4.90
  -2   1 -13    5.40    4.60
   2   1  13   13.70    5.40
   3  -1  13   56.69    9.50
   3  -1  13   68.49    8.70
  -3  -1 -13   23.10    9.90
   3  -1  13   50.79    7.70
  -3  -1 -13   55.99   10.00
  -3  -1 -13   51.19    9.30
   3  -1  13   57.69    9.80
  -3  -1 -13   57.39    8.90
   3  -1  13   65.49    9.90
   3   1  13   47.80    8.10
  -3   1 -13   56.59    9.70
  -3   1 -13   38.70    8.60
   3   1  13   42.80    8.10
   3   1  13   59.29   10.20
  -3   1 -13   20.40    9.30
  -3   1 -13   56.69    9.60
  -3   1 -13   53.09    9.40
   3   1  13   56.29    9.40
   3   1  13   46.40    9.00
   3  -2 -13  399.46   21.80
   3  -2 -13  397.26   22.30
   3  -2 -13  415.96   22.60
  -3  -2  13  398.56   21.10
   3  -2 -13  393.56   22.10
   3  -2 -13  436.16   22.00
   3   2 -13  407.46   20.60
   3   2 -13  419.66   20.70
   3   2 -13  399.26   20.40
  -3   2  13  410.96   22.70
  -3   2  13  391.26   22.70
   3   2 -13  380.46   20.10
  -3   2  13  440.46   22.50
   3   2 -13  420.26   20.90
   3   2 -13  426.96   21.30
  -2  -2  13   -1.90    2.80
   2  -2 -13    2.60    3.20
  -2  -2  13    0.30    3.00
   2  -2 -13    0.00    3.40
   2  -2 -13    2.80    3.50
   2  -2 -13   -5.80    3.70
   2  -2 -13    4.60    3.90
  -2  -2  13   -0.30    2.50
   2  -2 -13    0.50    3.30
  -2   2  13    0.10    2.30
   2   2 -13    0.10    2.30
   2   2 -13    2.00    2.60
   2   2 -13    0.30    2.40
   2   2 -13    2.40    2.70
   2   2 -13    1.70    2.80
  -2   2  13   -0.20    3.90
   2   2 -13    2.20    2.30
  -2   2  13    0.60    2.30
   1  -2 -13    1.40    2.80
  -1  -2  13    4.50    2.60
  -1  -2  13    0.00    2.20
   1  -2 -13    3.20    2.80
  -1  -2  13    4.00    2.20
  -1  -2  13    3.00    2.60
   1  -2 -13    0.00    3.00
   1  -2 -13    2.20    3.00
   1  -2 -13    4.40    2.80
   1  -2 -13    5.70    3.10
   1   2 -13   -1.70    2.00
  -1   2  13    2.80    3.20
   1   2 -13    2.20    2.10
   1   2 -13    5.30    2.20
   1   2 -13    2.10    2.30
  -1   2  13    2.00    2.10
  -1   2  13    1.00    2.40
  -1   2  13   -0.10    3.30
   1   2 -13    0.90    2.20
  -1   2  13    0.60    3.10
   1   2 -13    3.40    2.20
   0  -2 -13   70.59    6.60
   0  -2 -13   71.09    6.30
   0  -2 -13   49.00    6.20
   0  -2  13   68.59    5.90
   0  -2 -13   63.09    5.90
   0  -2  13   67.29    5.80
   0  -2  13   71.39    5.80
   0  -2 -13   58.39    6.00
   0  -2 -13   55.89    6.10
   0  -2  13   62.99    5.80
   0   2  13   57.59    6.40
   0   2 -13   61.69    5.70
   0   2 -13   60.79    5.30
   0   2 -13   62.99    5.40
   0   2 -13   55.19    5.20
   0   2  13   70.79    6.80
   0   2 -13   59.69    5.40
   0   2  13   67.79    6.80
   0   2  13   61.19    6.60
   0   2  13   62.29    5.70
   0   2 -13   62.79    5.30
   0   2  13   66.49    5.40
   1  -2  13   -1.00    2.00
  -1  -2 -13   -6.50    3.70
   1  -2  13   -1.40    3.40
   1  -2  13   -1.60    2.20
  -1  -2 -13    1.90    3.40
  -1  -2 -13   -2.90    3.20
  -1  -2 -13   -1.00    3.30
   1  -2  13   -0.80    3.40
  -1  -2 -13   -1.90    2.90
  -1  -2 -13   -0.40    3.70
   1  -2  13   -1.50    3.40
   1   2  13   -1.00    3.10
  -1   2 -13   -4.10    3.20
   1   2  13   -1.50    2.70
  -1   2 -13   -3.00    2.80
   1   2  13    4.00    4.40
  -1   2 -13   -4.10    3.00
  -1   2 -13    0.40    3.10
   1   2  13    1.30    3.90
  -1   2 -13    1.10    2.80
   1   2  13   -3.10    3.40
  -1   2 -13   -3.60    3.50
   2  -2  13   -5.90    4.60
   2  -2  13    3.00    4.90
   2  -2  13   -0.50    4.70
  -2  -2 -13    3.30    5.30
  -2  -2 -13    7.20    5.10
  -2  -2 -13    1.40    5.00
  -2  -2 -13    0.90    5.20
   2  -2  13    2.30    3.70
  -2  -2 -13   -5.10    4.00
  -2  -2 -13   -4.30    4.70
   2  -2  13    1.90    3.40
   2  -2  13    0.60    4.90
   2   2  13   -3.60    4.90
  -2   2 -13    6.80    4.80
  -2   2 -13    0.80    4.50
   2   2  13    1.30    5.30
  -2   2 -13   -1.00    4.00
   2   2  13   -0.80    5.10
  -2   2 -13    2.00    4.60
  -2   2 -13   -3.70    4.80
   2   2  13   -1.20    4.90
   2   2  13    2.00    4.70
  -2   2 -13   -1.30    4.90
  -3  -2 -13  157.98   16.20
   3  -2  13  187.48   15.50
   3  -2  13  171.88   13.10
   3  -2  13  155.98   13.30
   3  -2  13  160.28   15.60
  -3  -2 -13  189.58   16.80
  -3  -2 -13  158.48   15.00
   3  -2  13  148.19   16.10
   3   2  13  179.88   14.60
  -3   2 -13  143.29   15.30
   3   2  13  167.88   16.50
   3   2  13  120.99   16.70
  -3   2 -13  147.29   15.90
  -3   2 -13  158.88   15.30
   3   2  13  170.08   21.50
  -3   2 -13  160.78   14.60
   3   2  13  165.18   16.00
   3  -3 -13   24.80    5.70
  -3  -3  13   30.10    4.80
   3  -3 -13   20.20    5.90
   3  -3 -13   30.50    5.70
   3  -3 -13   28.10    6.40
   3  -3 -13   24.90    5.90
   3  -3 -13   35.50    6.90
   3   3 -13   25.90    5.00
   3   3 -13   31.70    4.00
   3   3 -13   34.30    4.60
  -3   3  13   18.10    6.30
   3   3 -13   36.50    5.40
   3   3 -13   35.40    5.10
  -3   3  13   25.20    6.80
  -3   3  13   38.60    7.60
   3   3 -13   36.60    4.90
  -3   3  13   26.90    4.20
   2  -3 -13  263.97   14.00
   2  -3 -13  255.17   14.00
   2  -3 -13  241.68   13.40
   2  -3 -13  229.88   13.90
   2  -3 -13  228.88   13.90
   2  -3 -13  240.58   13.70
  -2  -3  13  210.58   11.70
  -2  -3  13  231.18   12.20
   2   3 -13  222.08   11.20
  -2   3  13  237.78   14.00
   2   3 -13  225.88   12.10
   2   3 -13  235.88   11.60
   2   3 -13  218.08   12.30
   2   3 -13  222.08   11.30
  -2   3  13  235.98   12.30
  -2   3  13  227.28   12.40
   2   3 -13  227.18   11.50
  -2   3  13  210.48   13.80
   1  -3 -13   15.00    3.80
  -1  -3  13   17.30    2.80
   1  -3 -13   20.70    4.30
   1  -3 -13   13.90    3.40
  -1  -3  13   17.90    3.00
  -1  -3  13   17.00    2.70
   1  -3 -13   13.10    3.60
   1  -3 -13   16.80    3.60
   1  -3 -13   11.90    3.70
   1   3 -13   20.20    2.80
  -1   3  13   22.20    4.70
  -1   3  13   12.50    3.10
   1   3 -13   22.30    3.20
  -1   3  13    6.60    3.60
   1   3 -13   21.60    2.70
   1   3 -13   24.00    3.10
  -1   3  13   17.10    4.10
   1   3 -13   18.30    2.50
  -1   3  13   23.30    4.30
   1   3 -13   17.30    2.80
  -1   3  13   20.00    3.10
   0  -3  13    4.60    2.60
   0  -3 -13    3.20    3.50
   0  -3 -13    6.10    2.80
   0  -3 -13    2.00    3.40
   0  -3 -13    1.00    3.10
   0  -3 -13    0.30    3.00
   0  -3  13    1.40    2.40
   0  -3 -13   -1.20    3.10
   0  -3  13    3.60    2.80
   0  -3  13    2.90    2.60
   0   3 -13    4.40    2.20
   0   3  13    0.20    3.50
   0   3 -13    2.90    2.50
   0   3 -13    4.50    2.60
   0   3  13    0.10    3.50
   0   3  13    2.60    3.00
   0   3 -13    2.80    2.40
   0   3 -13    1.60    2.30
   0   3  13    2.80    2.70
   0   3 -13   -0.20    2.10
   0   3  13    0.60    3.50
   1  -3  13   89.59    5.60
  -1  -3 -13   89.19    8.10
  -1  -3 -13   89.19    7.70
   1  -3  13   85.89    5.50
  -1  -3 -13   71.69    8.20
   1  -3  13   85.29    7.60
   1  -3  13   82.79    7.50
  -1  -3 -13   77.29    7.70
  -1  -3 -13   95.99    8.80
  -1  -3 -13   93.79    8.30
   1  -3  13   83.39    8.10
   1   3  13   91.09    8.60
   1   3  13   73.69    7.10
  -1   3 -13   90.49    7.00
   1   3  13   97.79    8.00
   1   3  13   73.49    8.40
   1   3  13  103.69    9.00
  -1   3 -13   94.39    7.70
  -1   3 -13   79.99    7.50
  -1   3 -13   83.29    7.80
  -1   3 -13   92.39    7.00
  -1   3 -13   86.49    7.10
   2  -3  13   93.69    7.20
   2  -3  13   81.79    7.70
  -2  -3 -13   89.69    9.50
   2  -3  13   76.09    9.40
  -2  -3 -13   80.89   10.80
   2  -3  13   95.49    9.90
   2  -3  13   90.49    9.70
  -2  -3 -13   73.59   10.00
  -2  -3 -13   80.99   10.10
   2  -3  13   93.99    9.50
  -2  -3 -13  101.29   10.60
  -2  -3 -13   97.69    9.60
   2   3  13   79.59   11.20
  -2   3 -13   77.39    8.80
   2   3  13   81.79   10.20
  -2   3 -13   83.09    9.40
  -2   3 -13   79.69    8.90
   2   3  13   76.69   10.50
   2   3  13   81.99   10.60
   2   3  13   87.59    9.30
  -2   3 -13   92.09    9.20
  -2   3 -13   94.09   10.00
  -2   3 -13   84.99    9.30
   2   3  13   71.69   10.10
   3  -3  13  123.59   15.00
   3  -3  13  135.89   14.10
   3  -3  13  121.99   15.40
  -3  -3 -13  154.18   15.90
  -3  -3 -13  126.09   14.50
   3  -3  13  107.29   11.70
  -3  -3 -13  165.38   16.50
  -3   3 -13   89.89   13.30
   3   3  13  142.59   16.00
   3   3  13  127.29   15.20
  -3   3 -13  125.19   14.40
  -3   3 -13  120.09   14.20
   3   3  13  107.09   16.40
   3   3  13  141.39   13.10
   3   3  13  100.69   13.60
  -3   3 -13  141.39   15.70
   3  -4 -13  144.49   11.70
   3  -4 -13  134.49   11.60
  -3  -4  13  119.49    9.10
   3  -4 -13  131.09   12.50
   3  -4 -13  131.59   11.30
  -3  -4  13  137.99    8.60
   3  -4 -13  114.19   11.50
   3  -4 -13  144.09   12.70
  -3   4  13  136.69   13.30
   3   4 -13  127.19    7.10
  -3   4  13  127.29   12.20
  -3   4  13  144.09   12.90
  -3   4  13  127.89    9.50
   3   4 -13  135.19    9.30
   3   4 -13  129.79    7.10
   3   4 -13  126.99    9.60
   2  -4 -13   11.60    4.50
  -2  -4  13   11.50    2.30
   2  -4 -13    8.30    4.20
   2  -4 -13   11.50    4.80
   2  -4 -13    9.60    4.10
  -2  -4  13    7.30    2.10
  -2  -4  13   10.60    2.60
   2  -4 -13   14.70    4.30
   2  -4 -13   10.30    3.90
  -2   4  13   12.60    4.70
   2   4 -13   10.10    2.80
  -2   4  13   11.70    3.40
  -2   4  13   13.90    5.10
  -2   4  13   18.80    5.30
  -2   4  13    3.00    3.40
  -2   4  13    9.40    4.40
   2   4 -13   16.00    2.70
   1  -4 -13  686.03   34.90
   1  -4 -13  772.82   35.30
   1  -4 -13  802.32   35.40
   1  -4 -13  739.03   34.80
   1  -4 -13  721.13   34.80
  -1  -4  13  721.33   33.30
  -1  -4  13  697.03   33.20
   1  -4 -13  702.13   34.90
  -1  -4  13  677.43   33.20
   1   4 -13  740.03   33.00
   1   4 -13  681.03   33.30
   1   4 -13  712.03   32.70
   1   4 -13  755.22   33.50
  -1   4  13  787.82   35.30
   1   4 -13  704.43   32.90
   1   4 -13  683.43   32.60
  -1   4  13  729.83   34.20
  -1   4  13  703.23   34.10
  -1   4  13  753.22   35.40
   0  -4  13  244.78   12.50
   0  -4 -13  238.88   13.20
   0  -4 -13  226.98   13.60
   0  -4  13  227.98   12.30
   0  -4 -13  231.38   13.40
   0  -4  13  239.98   12.40
   0  -4 -13  243.98   13.70
   0  -4 -13  218.78   13.40
   0  -4 -13  253.07   14.00
   0   4 -13  196.38   11.90
   0   4  13  214.18   13.70
   0   4 -13  238.28   12.20
   0   4 -13  250.17   12.20
   0   4 -13  233.28   11.90
   0   4  13  196.18   12.60
   0   4  13  234.88   13.00
   0   4 -13  236.78   12.10
   0   4  13  262.27   14.10
   0   4 -13  222.78   12.20
   0   4  13  223.68   13.80
   1  -4  13   46.30    6.20
   1  -4  13   60.69    6.40
   1  -4  13   47.60    3.40
  -1  -4 -13   57.49    7.80
   1  -4  13   48.30    3.50
  -1  -4 -13   53.79    6.70
  -1  -4 -13   51.59    6.80
  -1  -4 -13   66.89    7.80
  -1  -4 -13   48.30    5.90
  -1  -4 -13   35.50    5.50
  -1   4 -13   58.19    6.60
  -1   4 -13   42.90    5.80
   1   4  13   51.09    6.80
   1   4  13   39.50    5.50
   1   4  13   47.80    6.30
   1   4  13   40.50    6.20
  -1   4 -13   53.39    5.70
  -1   4 -13   52.69    6.40
  -1   4 -13   55.29    6.20
  -1   4 -13   46.80    5.60
   1   4  13   38.50    6.30
  -2  -4 -13   35.30    6.80
   2  -4  13   31.50    6.20
  -2  -4 -13   23.70    6.30
   2  -4  13   49.60    7.10
  -2  -4 -13   34.20    7.30
  -2  -4 -13   33.30    6.20
  -2  -4 -13   46.90    8.20
   2  -4  13   25.20    5.80
  -2  -4 -13   26.80    6.30
   2  -4  13   34.10    4.30
   2  -4  13   26.30    4.50
   2  -4  13   26.70    6.00
   2   4  13   43.90    7.50
  -2   4 -13   34.70    6.20
  -2   4 -13   27.60    5.60
   2   4  13   21.10    6.30
  -2   4 -13   27.00    5.20
  -2   4 -13   19.80    5.80
  -2   4 -13   30.80    5.70
   2   4  13   28.40    6.30
   2   4  13   30.80    6.00
   2   4  13   30.50    7.00
  -2   4 -13   28.40    5.30
   2   4  13   31.30    6.90
   3  -5 -13  407.26   21.30
   3  -5 -13  342.87   21.90
   3  -5 -13  347.07   20.80
   3  -5 -13  411.96   21.70
   3  -5 -13  347.97   21.20
   3  -5 -13  376.56   21.90
  -3   5  13  389.66   22.30
   3   5 -13  361.26   19.00
  -3   5  13  355.86   22.10
   3   5 -13  380.16   18.80
  -3   5  13  321.37   21.50
  -3   5  13  373.86   19.70
   2  -5 -13    7.50    5.00
   2  -5 -13    6.80    5.10
   2  -5 -13    1.30    4.20
   2  -5 -13    9.90    4.90
   2  -5 -13   12.80    4.70
   2  -5 -13    8.90    4.40
  -2   5  13   17.10    4.00
  -2   5  13    6.60    4.60
   2   5 -13   10.80    2.50
  -2   5  13   12.60    3.80
  -2   5  13    5.00    5.40
  -2   5  13   10.80    4.90
   2   5 -13    6.70    2.50
  -2   5  13    8.00    4.90
  -1  -5  13   92.19    5.50
   1  -5 -13  104.59    8.80
   1  -5 -13   89.89    8.10
  -1  -5  13   90.19    5.40
  -1  -5  13   99.09    5.20
  -1  -5  13   95.09    5.30
   1  -5 -13   85.69    8.30
   1  -5 -13  100.09    8.70
   1  -5 -13   94.29    8.80
   1  -5 -13   87.99    8.30
  -1   5  13   95.99    7.70
  -1   5  13  114.39    8.90
  -1   5  13  107.29    9.10
   1   5 -13   96.19    5.80
  -1   5  13   98.39    7.80
   1   5 -13   90.69    5.80
  -1   5  13  102.09    8.90
   0  -5 -13   22.60    4.90
   0  -5 -13   12.30    4.10
   0  -5  13   15.00    3.20
   0  -5 -13   14.80    4.20
   0  -5 -13   14.30    3.80
   0  -5  13   11.50    2.70
   0  -5  13   10.50    2.70
   0  -5  13   13.20    2.90
   0  -5 -13   17.70    4.40
   0  -5 -13   14.50    4.70
   0   5 -13   13.10    2.70
   0   5 -13   12.90    2.60
   0   5 -13   12.40    2.60
   0   5  13   13.70    4.30
   0   5 -13   10.30    2.50
   0   5  13   14.60    4.50
   0   5 -13   12.60    2.80
   0   5  13   19.00    4.20
   0   5 -13   12.30    2.70
   0   5  13   14.40    4.60
   0   5  13   12.80    3.70
  -1  -5 -13   59.79    7.80
  -1  -5 -13   61.39    8.10
   1  -5  13   46.00    6.30
  -1  -5 -13   51.59    7.90
   1  -5  13   82.29    7.10
  -1  -5 -13   55.99    7.90
   1  -5  13   56.19    6.40
  -1  -5 -13   67.39    8.90
  -1  -5 -13   60.49    7.70
   1   5  13   59.49    7.70
  -1   5 -13   68.59    6.40
   1   5  13   58.19    8.50
   1   5  13   63.19    8.60
  -1   5 -13   71.39    6.60
   1   5  13   58.69    7.50
   1   5  13   74.69    8.90
  -1   5 -13   71.99    6.60
  -1   5 -13   74.29    6.30
   1   5  13   47.40    6.90
  -1   5 -13   64.59    7.00
  -1   5 -13   77.59    6.80
  -2  -5 -13  304.27   17.40
   2  -5  13  257.47   16.60
   2  -5  13  287.67   17.40
   2  -5  13  252.47   17.20
  -2  -5 -13  303.57   18.40
   2  -5  13  287.47   14.80
  -2  -5 -13  293.67   18.10
  -2  -5 -13  301.57   18.70
  -2  -5 -13  279.17   18.20
  -2  -5 -13  285.97   17.40
  -2   5 -13  252.47   16.20
  -2   5 -13  265.07   16.60
   2   5  13  277.77   18.00
   2   5  13  280.17   18.20
  -2   5 -13  281.77   16.60
   2   5  13  245.08   18.20
  -2   5 -13  272.27   16.50
  -2   5 -13  289.47   16.80
   2   5  13  302.37   18.10
   2   5  13  282.27   17.30
   2   5  13  283.47   17.20
  -2   5 -13  268.47   17.40
   3  -6 -13  101.39   11.60
   3  -6 -13  114.19   12.10
   3  -6 -13  108.99   13.20
  -3   6  13  123.99   13.50
   3   6 -13  114.29    8.80
   3   6 -13  112.59    8.60
  -3   6  13  121.09   11.00
   2  -6 -13   -4.00    5.10
   2  -6 -13   10.20    5.00
   2  -6 -13    0.50    4.80
   2  -6 -13    6.80    5.20
   2  -6 -13    1.30    5.30
   2  -6 -13    2.70    4.40
  -2   6  13    4.10    5.50
   2   6 -13    3.10    2.10
   2   6 -13   -0.50    2.20
  -2   6  13   -0.20    4.00
  -2   6  13   -1.10    5.40
  -2   6  13   -4.10    5.30
  -2   6  13    7.80    4.40
  -2   6  13    6.70    5.10
   1  -6 -13   12.50    4.40
   1  -6 -13    9.50    4.50
   1  -6 -13   11.00    4.50
   1  -6 -13    3.40    4.20
   1  -6 -13   11.60    4.40
   1  -6 -13   13.20    4.60
  -1   6  13   13.20    4.00
  -1   6  13   13.40    4.90
  -1   6  13    7.00    3.90
  -1   6  13   16.00    5.10
  -1   6  13   10.00    4.50
   1   6 -13    9.30    2.00
   1   6 -13    6.80    1.90
   0  -6 -13  782.82   37.10
   0  -6 -13  709.93   36.80
   0  -6  13  751.12   35.20
   0  -6 -13  703.93   36.60
   0  -6 -13  713.33   37.00
   0  -6 -13  772.52   36.60
   0  -6 -13  798.02   37.40
   0  -6  13  862.11   35.20
   0  -6  13  659.23   34.90
   0   6  13  767.32   37.20
   0   6 -13  712.63   35.10
   0   6 -13  767.72   35.10
   0   6 -13  788.62   35.00
   0   6  13  748.73   36.40
   0   6 -13  683.73   34.80
   0   6 -13  788.42   34.70
   0   6 -13  849.41   34.80
   0   6  13  826.12   37.60
   0   6  13  778.22   36.40
   0   6  13  686.63   37.10
  -1  -6 -13  298.07   17.20
  -1  -6 -13  313.37   17.70
   1  -6  13  293.07   16.20
  -1  -6 -13  345.37   18.50
  -1  -6 -13  291.97   17.30
  -1  -6 -13  289.37   17.20
  -1  -6 -13  312.17   17.80
   1  -6  13  300.87   16.40
  -1   6 -13  300.07   16.10
  -1   6 -13  286.87   15.80
   1   6  13  300.27   18.00
   1   6  13  315.27   18.40
   1   6  13  301.47   17.20
  -1   6 -13  287.67   15.90
   1   6  13  261.57   17.70
  -1   6 -13  292.57   15.90
  -1   6 -13  309.57   16.30
  -2  -6 -13   34.00    7.90
   2  -6  13   38.40    7.00
  -2  -6 -13   22.10    6.70
  -2  -6 -13   34.90    7.40
  -2  -6 -13   25.70    7.00
   2  -6  13   31.40    6.50
  -2  -6 -13   45.70    7.80
   2  -6  13   36.80    4.30
   2  -6  13   36.10    7.00
  -2  -6 -13   44.80    7.40
  -2   6 -13   49.00    7.00
   2   6  13   37.30    7.40
  -2   6 -13   38.10    6.40
   2   6  13   38.40    7.70
  -2   6 -13   41.30    6.80
  -2   6 -13   33.10    6.10
   2   6  13   50.49    8.80
  -2   6 -13   35.50    5.60
   2   6  13   39.80    8.00
  -2   6 -13   30.60    6.40
   2   6  13   30.80    6.60
   2   6  13   45.90    8.10
   2  -7 -13    0.80    5.20
   2  -7 -13   -1.60    4.80
   2  -7 -13    6.90    5.80
   2  -7 -13    0.10    6.00
   2  -7 -13   13.70    5.60
   2  -7 -13   -9.50    5.20
  -2   7  13    3.20    6.00
  -2   7  13    8.40    4.60
  -2   7  13   -8.90    5.80
  -2   7  13   -0.80    5.30
   2   7 -13   -4.40    2.00
   2   7 -13    1.90    2.00
  -2   7  13    1.90    6.20
   1  -7 -13  374.66   21.10
   1  -7 -13  421.46   22.00
   1  -7 -13  358.96   21.10
   1  -7 -13  402.56   21.60
   1  -7 -13  396.56   21.80
   1  -7 -13  391.16   21.40
  -1   7  13  355.16   20.50
   1   7 -13  384.46   18.40
  -1   7  13  439.66   22.00
  -1   7  13  405.66   22.10
  -1   7  13  436.86   21.80
   1   7 -13  377.26   18.40
   0  -7  13   30.80    4.20
   0  -7 -13   41.80    6.20
   0  -7 -13   52.39    7.20
   0  -7 -13   55.29    7.90
   0  -7  13   42.50    4.40
   0  -7 -13   43.70    6.40
   0  -7 -13   38.40    5.70
   0  -7 -13   47.50    6.60
   0   7 -13   42.70    3.90
   0   7 -13   38.10    4.40
   0   7  13   37.70    5.60
   0   7 -13   33.20    3.60
   0   7 -13   40.00    3.20
   0   7  13   44.00    6.80
   0   7 -13   42.00    4.70
   0   7  13   38.00    6.40
   0   7 -13   39.70    3.20
   0   7  13   53.29    7.90
   0   7  13   37.30    6.40
  -1  -7 -13  288.37   17.90
  -1  -7 -13  275.07   17.00
  -1  -7 -13  295.47   17.80
   1  -7  13  281.77   15.80
  -1  -7 -13  285.17   17.00
   1  -7  13  269.17   15.70
  -1  -7 -13  286.37   17.70
  -1  -7 -13  283.97   17.30
  -1   7 -13  298.37   15.70
  -1   7 -13  287.07   15.40
  -1   7 -13  278.97   15.40
  -1   7 -13  275.47   15.40
   1   7  13  277.57   17.10
   1   7  13  291.37   17.40
  -1   7 -13  283.77   15.50
  -1   7 -13  293.17   15.10
   1   7  13  287.97   17.90
   1   7  13  311.87   18.30
   1   7  13  305.37   16.80
   2  -7  13  126.49   12.30
  -2  -7 -13  123.69   13.10
   2  -7  13  137.59   12.30
  -2  -7 -13  121.79   12.50
  -2  -7 -13  153.08   14.50
  -2  -7 -13  162.88   14.40
  -2  -7 -13  120.99   13.50
  -2  -7 -13  128.79   12.70
   2  -7  13  141.89   12.20
   2   7  13  141.49   14.40
   2   7  13  132.69   13.20
  -2   7 -13  132.69   11.60
  -2   7 -13  147.49   12.00
   2   7  13  119.99   13.80
   2   7  13  145.79   13.00
   2   7  13  137.79   14.20
   2   7  13  154.98   14.30
  -2   7 -13  139.09   11.70
  -2   7 -13  136.99   11.70
  -2   7 -13  164.88   11.00
  -2   7 -13  141.89   12.10
   2  -8 -13  789.82   38.90
   2  -8 -13  777.22   38.90
   2  -8 -13  724.83   38.60
   2  -8 -13  799.82   38.10
   2  -8 -13  814.32   38.40
   2  -8 -13  788.82   38.40
   2   8 -13  729.83   34.50
  -2   8  13  798.32   38.80
  -2   8  13  696.53   38.60
  -2   8  13  746.53   38.70
  -2   8  13  766.22   37.50
   2   8 -13  726.73   34.50
  -2   8  13  721.73   39.00
  -2   8  13  778.52   37.30
   1  -8 -13  647.24   31.60
   1  -8 -13  600.24   31.40
   1  -8 -13  670.63   32.30
   1  -8 -13  627.04   31.40
   1  -8 -13  649.54   32.20
   1  -8 -13  641.84   32.10
  -1   8  13  575.34   32.10
  -1   8  13  683.33   32.10
  -1   8  13  683.23   32.30
  -1   8  13  604.94   30.90
   1   8 -13  575.84   28.40
   1   8 -13  568.64   28.40
  -1   8  13  600.54   32.00
   0  -8  13   24.20    3.00
   0  -8 -13   27.30    6.30
   0  -8 -13   17.40    4.90
   0  -8  13   17.70    2.90
   0  -8 -13   28.00    5.90
   0  -8 -13   36.50    6.80
   0  -8 -13   22.90    5.10
   0  -8 -13   32.70    6.40
   0   8  13   16.90    4.90
   0   8 -13   16.20    3.20
   0   8  13   25.60    6.00
   0   8 -13   21.60    2.30
   0   8  13   25.30    6.80
   0   8  13   25.40    5.70
   0   8  13   16.90    5.90
   0   8 -13   20.40    2.70
   0   8  13   18.80    5.60
   0   8 -13   18.10    3.20
  -1  -8 -13  242.08   16.80
  -1  -8 -13  283.47   17.50
   1  -8  13  251.57   15.20
  -1  -8 -13  260.87   16.80
  -1  -8 -13  267.07   16.70
  -1  -8 -13  303.17   18.10
  -1  -8 -13  291.97   17.60
  -1   8 -13  275.77   14.90
  -1   8 -13  303.17   15.10
   1   8  13  293.57   18.00
   1   8  13  242.08   16.90
  -1   8 -13  257.87   15.10
   1   8  13  267.97   17.00
   1   8  13  269.57   16.60
  -1   8 -13  285.97   14.70
   1   8  13  289.67   18.30
  -1   8 -13  278.47   15.30
  -1   8 -13  277.67   15.10
   1   8  13  280.27   17.30
   2  -8  13  134.79   13.40
  -2  -8 -13  107.39   14.60
  -2  -8 -13  144.09   14.00
  -2  -8 -13  154.38   12.90
   2  -8  13  144.79   12.40
   2  -8  13  141.89   13.10
  -2  -8 -13  144.79   15.00
  -2  -8 -13  139.09   14.90
  -2  -8 -13  137.59   13.20
  -2   8 -13  108.59   11.40
   2   8  13  140.69   13.60
  -2   8 -13  146.39   11.90
  -2   8 -13  126.39   12.20
  -2   8 -13  135.49   11.90
   2   8  13  138.69   15.20
  -2   8 -13  156.38   12.60
   2   8  13  140.59   13.80
   2   8  13  136.79   12.80
  -2   8 -13  117.89   11.30
   2   8  13  121.49   15.10
   2   8  13  162.38   15.00
   2  -9 -13   49.10    9.00
   2  -9 -13   34.70    7.10
   2  -9 -13   40.60    8.50
   2  -9 -13   38.00    8.80
   2  -9 -13   25.00    6.80
   2  -9 -13   55.49    8.10
  -2   9  13   50.09    8.80
  -2   9  13   39.60    7.10
  -2   9  13   44.40    8.50
  -2   9  13   52.49    8.90
  -2   9  13   65.59    9.80
  -2   9  13   39.30    7.60
   1  -9 -13   36.10    6.50
   1  -9 -13   53.49    7.30
   1  -9 -13   42.80    8.10
   1  -9 -13   43.50    7.50
   1  -9 -13   38.00    6.60
   1  -9 -13   49.70    7.90
   1   9 -13   42.80    3.50
  -1   9  13   40.00    6.90
   1   9 -13   44.10    3.60
  -1   9  13   55.09    7.20
  -1   9  13   39.60    7.50
  -1   9  13   46.10    7.80
  -1   9  13   49.99    7.80
  -1   9  13   29.60    5.90
   0  -9 -13   71.09    9.00
   0  -9 -13   69.19    9.80
   0  -9 -13   48.70    7.00
   0  -9  13   63.69    4.70
   0  -9 -13   59.59    8.20
   0  -9 -13   65.89    8.90
   0  -9 -13   61.09    8.10
   0   9 -13   64.79    5.90
   0   9  13   47.60    8.00
   0   9 -13   68.19    5.60
   0   9  13   45.80    7.80
   0   9  13   54.59    7.00
   0   9  13   58.09    7.10
   0   9  13   48.90    7.50
   0   9  13   73.79   10.30
  -1  -9 -13   16.00    6.00
   1  -9  13    2.60    7.00
  -1  -9 -13    4.80    6.30
  -1  -9 -13   14.70    5.90
  -1  -9 -13    7.60    6.50
   1  -9  13   12.50    4.70
  -1  -9 -13    8.70    5.80
   1  -9  13    3.30    4.00
  -1  -9 -13   14.10    6.10
  -1   9 -13   17.30    4.50
  -1   9 -13   11.60    4.00
   1   9  13   26.80    7.50
  -1   9 -13   14.70    3.60
  -1   9 -13   12.50    4.10
   1   9  13    7.80    5.80
   1   9  13    7.30    5.20
  -1   9 -13   18.90    3.90
   1   9  13   20.20    7.10
  -1   9 -13   13.60    4.50
   1   9  13   10.40    7.00
   2 -10 -13  262.67   19.80
  -2  10  13  262.07   20.00
  -2  10  13  266.17   20.50
   1 -10 -13   71.19    8.70
   1 -10 -13   72.49    9.90
   1 -10 -13   69.59    9.50
   1 -10 -13   69.29    8.90
   1 -10 -13   58.39    9.20
   1 -10 -13   59.99    8.40
  -1  10  13   81.39   11.30
  -1  10  13   76.09   10.30
  -1  10  13   62.29    9.40
  -1  10  13   51.09    8.30
  -1  10  13   60.09    7.80
   1  10 -13   59.59    4.20
  -1  10  13   58.29    9.20
   0 -10  13   -2.30    2.00
   0 -10 -13   -7.00    5.90
   0 -10  13   -1.60    2.00
   0 -10 -13    0.40    6.00
   0 -10  13    1.40    1.70
   0 -10 -13   15.50    6.60
   0 -10 -13   -4.40    6.00
   0 -10 -13   -0.10    5.80
   0 -10 -13    5.50    5.20
   0  10 -13    6.10    3.30
   0  10  13    3.20    6.60
   0  10  13    7.70    6.00
   0  10  13    2.60    5.60
   0  10  13   10.80    6.80
   0  10  13    3.60    5.90
   0  10 -13    7.10    3.50
   0  10  13    7.20    6.20
   1 -10  13  226.38   13.50
  -1 -10 -13  201.18   15.00
  -1 -10 -13  239.08   16.80
  -1 -10 -13  206.38   16.60
   1 -10  13  213.18   13.40
  -1 -10 -13  239.78   16.10
  -1 -10 -13  231.88   15.70
  -1 -10 -13  235.38   16.70
   1  10  13  232.08   17.50
  -1  10 -13  202.18   13.40
   1  10  13  218.38   16.70
  -1  10 -13  226.88   12.70
  -1  10 -13  222.68   12.70
   1  10  13  231.08   15.50
   1  10  13  207.38   16.90
  -1  10 -13  190.68   12.10
   1  10  13  177.78   16.50
  -1  10 -13  201.88   13.30
   1  10  13  205.68   15.60
  -1  10 -13  215.68   12.30
   1 -11 -13  160.98   13.10
   1 -11 -13  186.98   15.70
   1 -11 -13  162.78   15.20
   1 -11 -13  161.08   15.50
   1 -11 -13  158.68   15.50
  -1  11  13  177.08   14.00
  -1  11  13  137.39   14.80
  -1  11  13  148.79   14.90
  -1  11  13  181.18   15.50
  -1  11  13  163.98   15.40
   1  11 -13  154.88    8.40
  -1  11  13  136.99   13.80
   0 -11 -13  151.98   13.40
   0 -11 -13  165.58   13.40
   0 -11 -13  141.19   13.60
   0 -11 -13  139.69   14.40
   0 -11 -13  161.98   13.10
   0 -11 -13  143.29   14.80
   0  11  13  161.38   13.50
   0  11 -13  151.58    9.80
   0  11  13  158.88   14.90
   0  11  13  137.79   13.60
   0  11 -13  161.98    9.80
   0  11  13  179.08   15.20
   0  11  13  189.68   15.80
   0  11  13  138.79   14.40
  -1 -11 -13    4.20    7.00
  -1 -11 -13   20.10    7.90
  -1 -11 -13  -12.10    7.60
  -1 -11 -13    3.60    7.60
   1 -11  13    1.20    5.10
   1 -11  13   -5.50    4.00
  -1 -11 -13    9.40    8.40
   1 -11  13   -0.10    4.70
   1  11  13   17.40    7.90
   1  11  13   20.70    8.60
  -1  11 -13    0.30    4.00
  -1  11 -13   -0.80    3.60
  -1  11 -13   -1.60    3.80
   1  11  13    1.50    8.40
  -1  11 -13   12.00    5.30
  -1  11 -13   -2.60    4.90
   1  11  13   17.10    8.60
   1  11  13    7.20    7.20
   3   0 -14   82.19    8.70
  -3   0  14  113.29   10.90
  -3   0  14   97.69   10.00
   3   0 -14   93.49    9.80
   3   0 -14   92.79    9.40
   3   0 -14  103.39   10.30
   3   0 -14   78.49    8.60
   3   0 -14   98.59    9.10
   2   0 -14    5.90    3.40
   2   0 -14   11.40    3.70
  -2   0  14   -1.60    2.90
   2   0 -14    6.10    3.70
   2   0 -14    7.70    3.20
   2   0 -14   11.70    3.60
  -2   0  14    7.20    4.00
   2   0 -14    6.20    3.30
  -2   0  14    8.30    3.80
   1   0 -14  412.86   20.50
  -1   0  14  400.16   20.60
   1   0 -14  412.46   20.50
   1   0 -14  390.36   20.50
   1   0 -14  419.96   20.50
  -1   0  14  421.86   20.90
   1   0 -14  432.56   20.50
   1   0 -14  400.96   20.50
   0   0  14    1.80    3.90
   0   0 -14    2.00    3.00
   0   0 -14    0.00    3.00
   0   0  14   -0.90    3.30
   0   0 -14   -1.70    2.70
   0   0 -14   -3.30    2.70
   0   0  14   -0.20    1.80
   0   0 -14    2.20    3.10
   0   0 -14    1.70    3.20
   0   0  14    1.60    3.30
  -1   0 -14  285.57   16.60
  -1   0 -14  301.27   16.30
   1   0  14  288.47   16.60
  -1   0 -14  317.67   16.40
  -1   0 -14  280.47   15.90
   1   0  14  284.97   16.40
  -1   0 -14  297.87   16.00
   1   0  14  287.37   16.60
  -1   0 -14  257.07   15.90
   1   0  14  276.67   14.90
   2   0  14  380.86   23.00
  -2   0 -14  380.06   22.50
  -2   0 -14  404.16   23.40
  -2   0 -14  398.66   22.00
  -2   0 -14  440.46   23.00
   2   0  14  410.16   21.50
   2   0  14  413.36   23.00
   2   0  14  421.36   22.90
  -2   0 -14  398.76   22.20
   2   0  14  428.36   23.30
  -2   0 -14  418.96   22.30
   3  -1 -14   36.30    6.60
   3  -1 -14   33.20    6.00
   3  -1 -14   38.70    6.70
   3  -1 -14   30.80    5.80
  -3  -1  14   39.70    6.70
   3  -1 -14   40.50    6.10
  -3  -1  14   34.80    6.00
   3  -1 -14   45.80    6.50
   3   1 -14   31.30    4.90
   3   1 -14   35.90    5.10
   3   1 -14   34.10    5.40
  -3   1  14   28.90    6.30
   3   1 -14   43.50    6.40
  -3   1  14   44.30    7.30
   3   1 -14   31.50    5.40
   3   1 -14   52.19    6.70
  -2  -1  14   66.79    6.90
  -2  -1  14   57.29    6.50
  -2  -1  14   56.79    6.70
   2  -1 -14   46.60    6.80
   2  -1 -14   71.49    6.90
   2  -1 -14   64.79    7.10
   2  -1 -14   56.29    6.40
   2  -1 -14   59.49    6.80
   2  -1 -14   56.59    6.90
  -2   1  14   54.19    7.20
   2   1 -14   60.49    6.00
   2   1 -14   58.79    5.80
   2   1 -14   68.69    5.90
   2   1 -14   56.79    6.60
   2   1 -14   65.29    6.10
   2   1 -14   57.69    6.10
  -2   1  14   59.69    7.70
   1  -1 -14   22.30    4.10
   1  -1 -14   26.60    3.90
  -1  -1  14   22.00    3.70
   1  -1 -14   23.10    3.70
   1  -1 -14   16.30    3.70
   1  -1 -14   35.40    5.00
  -1  -1  14   20.50    3.50
  -1  -1  14   25.80    4.00
   1  -1 -14   21.70    4.00
   1   1 -14   22.50    3.30
   1   1 -14   22.50    3.60
   1   1 -14   26.40    3.70
  -1   1  14   23.00    2.50
  -1   1  14   21.20    4.10
   1   1 -14   31.00    4.50
   1   1 -14   28.80    3.70
  -1   1  14   21.90    2.60
  -1   1  14   12.10    4.00
   1   1 -14   27.50    3.60
  -1   1  14   18.90    4.40
   0  -1  14 1049.70   47.40
   0  -1 -14 1053.19   49.10
   0  -1  14 1067.59   47.50
   0  -1 -14 1060.79   49.40
   0  -1 -14  948.71   49.10
   0  -1  14 1110.69   49.30
   0  -1  14 1073.29   49.20
   0  -1  14 1050.69   49.20
   0  -1 -14 1001.80   49.40
   0  -1 -14 1123.29   49.30
   0   1 -14 1014.00   48.90
   0   1 -14  972.10   48.90
   0   1  14 1163.28   49.80
   0   1 -14 1044.80   48.90
   0   1  14 1019.60   49.40
   0   1 -14  949.90   48.80
   0   1  14 1078.69   48.40
   0   1 -14 1115.29   49.10
   0   1 -14 1039.50   49.10
   0   1  14 1044.20   49.60
   0   1  14 1157.08   48.40
  -1  -1 -14   40.00    5.80
  -1  -1 -14   49.10    7.00
  -1  -1 -14   40.20    5.40
   1  -1  14   47.70    5.00
  -1  -1 -14   58.39    7.80
   1  -1  14   51.79    5.30
   1  -1  14   49.20    6.30
  -1  -1 -14   48.30    5.80
   1  -1  14   58.79    7.50
  -1  -1 -14   44.50    5.90
  -1   1 -14   51.99    6.30
  -1   1 -14   49.60    7.00
   1   1  14   40.00    6.00
  -1   1 -14   49.80    6.60
   1   1  14   50.09    6.70
  -1   1 -14   46.80    6.00
   1   1  14   54.89    6.70
  -1   1 -14   61.49    6.40
   1   1  14   45.80    6.40
   1   1  14   44.70    5.70
  -1   1 -14   51.49    7.40
  -2  -1 -14  -10.50    4.90
  -2  -1 -14   -7.30    5.20
   2  -1  14   -1.10    5.60
  -2  -1 -14   -4.40    5.20
  -2  -1 -14   -4.50    5.70
   2  -1  14    0.70    5.70
   2  -1  14    2.80    4.10
  -2  -1 -14   -5.80    5.50
  -2  -1 -14    2.20    4.90
   2  -1  14   -6.80    5.80
   2  -1  14    1.80    5.70
   2  -1  14   -2.20    4.10
  -2   1 -14   -3.10    4.40
  -2   1 -14    1.80    4.60
   2   1  14    3.50    5.80
  -2   1 -14    2.20    5.20
  -2   1 -14    2.60    5.40
   2   1  14    4.80    6.40
   2   1  14   -1.70    5.40
  -2   1 -14   -5.60    4.60
  -2   1 -14   -2.60    5.30
   2   1  14    1.40    5.60
   3  -2 -14   29.80    6.70
  -3  -2  14   43.10    6.40
   3  -2 -14   52.19    7.70
  -3  -2  14   43.90    5.80
   3  -2 -14   41.60    6.40
   3  -2 -14   32.80    6.50
   3  -2 -14   31.00    6.60
   3   2 -14   41.70    5.30
   3   2 -14   42.60    6.20
   3   2 -14   57.09    6.40
  -3   2  14   53.89    8.30
  -3   2  14   54.59    7.80
   3   2 -14   55.19    7.50
   3   2 -14   54.79    6.10
  -3   2  14   28.10    7.60
   3   2 -14   51.59    7.70
   2  -2 -14  574.04   27.60
  -2  -2  14  552.84   26.40
   2  -2 -14  527.45   27.10
   2  -2 -14  561.94   27.40
   2  -2 -14  488.65   27.20
   2  -2 -14  593.54   27.30
   2  -2 -14  557.14   27.40
  -2  -2  14  584.84   26.50
   2   2 -14  526.05   25.90
  -2   2  14  491.45   27.30
   2   2 -14  554.14   25.90
   2   2 -14  521.85   26.00
  -2   2  14  524.75   27.80
   2   2 -14  543.95   26.50
   2   2 -14  559.54   26.30
  -2   2  14  534.35   25.40
   2   2 -14  605.64   25.80
   1  -2 -14  863.71   39.20
   1  -2 -14  815.52   38.90
   1  -2 -14  863.51   39.00
   1  -2 -14  824.32   38.80
   1  -2 -14  795.42   38.70
  -1  -2  14  741.33   38.00
  -1  -2  14  795.42   38.20
  -1  -2  14  804.52   38.10
   1  -2 -14  867.61   39.20
  -1   2  14  819.32   37.70
   1   2 -14  780.12   38.00
  -1   2  14  788.32   37.70
  -1   2  14  860.31   39.10
  -1   2  14  863.71   39.20
   1   2 -14  752.62   37.70
   1   2 -14  839.42   38.00
   1   2 -14  786.62   38.10
   1   2 -14  890.91   37.90
   1   2 -14  795.72   37.90
   0  -2 -14  100.99    8.10
   0  -2  14   66.89    6.70
   0  -2 -14   73.49    7.30
   0  -2 -14   82.69    7.40
   0  -2  14   85.79    7.00
   0  -2 -14   80.49    7.40
   0  -2 -14   85.49    7.30
   0  -2  14   95.69    7.30
   0  -2 -14   84.29    7.50
   0   2  14   88.29    6.80
   0   2 -14   86.99    6.90
   0   2 -14   90.39    6.60
   0   2  14   81.49    7.80
   0   2  14   67.19    7.80
   0   2  14   79.99    7.80
   0   2 -14   78.59    6.70
   0   2 -14   90.69    6.60
   0   2 -14   96.69    6.70
   0   2 -14  100.99    7.00
   0   2  14   81.29    6.50
  -1  -2 -14  161.18   11.70
   1  -2  14  176.58    9.40
   1  -2  14  168.28    9.30
   1  -2  14  168.08   11.50
   1  -2  14  168.38   11.20
  -1  -2 -14  178.68   11.60
  -1  -2 -14  185.08   11.60
  -1  -2 -14  156.38   12.00
  -1  -2 -14  150.18   11.40
  -1  -2 -14  172.88   11.30
  -1   2 -14  174.08   11.10
   1   2  14  172.98   12.20
   1   2  14  169.58   12.00
  -1   2 -14  160.78   10.70
  -1   2 -14  187.78   10.80
  -1   2 -14  157.88   10.80
   1   2  14  149.59   10.70
   1   2  14  177.38   10.60
  -1   2 -14  190.38   11.00
   1   2  14  151.58   11.80
  -1   2 -14  158.68   11.40
   2  -2  14  216.48   14.90
  -2  -2 -14  207.78   14.50
  -2  -2 -14  214.78   14.80
  -2  -2 -14  212.58   15.10
  -2  -2 -14  195.28   14.90
   2  -2  14  192.38   12.70
   2  -2  14  212.18   15.00
   2  -2  14  215.78   12.90
   2  -2  14  191.58   14.60
   2  -2  14  229.38   14.90
  -2  -2 -14  229.38   15.10
  -2  -2 -14  217.48   16.00
  -2   2 -14  214.58   14.20
  -2   2 -14  184.68   13.80
   2   2  14  212.58   14.50
   2   2  14  216.78   15.80
  -2   2 -14  206.78   14.80
   2   2  14  200.88   15.50
  -2   2 -14  220.38   15.10
  -2   2 -14  227.08   14.60
   2   2  14  195.08   14.00
  -2   2 -14  203.38   14.20
   2   2  14  226.08   15.40
   2   2  14  232.98   14.20
   3  -3 -14    5.70    5.90
   3  -3 -14    3.30    5.50
  -3  -3  14    3.00    3.70
   3  -3 -14    3.00    5.30
  -3  -3  14    6.60    4.30
   3  -3 -14    2.10    6.20
  -3   3  14   -2.20    3.60
   3   3 -14    3.40    3.10
  -3   3  14    3.10    6.70
   3   3 -14   -4.60    3.90
   3   3 -14    7.90    4.80
   3   3 -14    1.40    2.80
   3   3 -14    4.00    3.30
   3   3 -14   -0.50    3.30
  -3   3  14  -12.60    6.50
  -3   3  14    3.20    3.50
   2  -3 -14  186.68   13.00
   2  -3 -14  186.28   12.70
  -2  -3  14  187.68   11.20
   2  -3 -14  215.78   12.90
   2  -3 -14  203.38   13.10
   2  -3 -14  212.08   12.70
   2  -3 -14  203.18   13.40
   2   3 -14  192.18   11.30
  -2   3  14  196.98   11.10
  -2   3  14  214.58   14.10
   2   3 -14  202.48   10.20
   2   3 -14  197.28   11.10
  -2   3  14  231.18   13.40
   2   3 -14  188.28   10.00
   2   3 -14  195.88   10.40
  -2   3  14  234.18   13.80
   2   3 -14  210.08   10.40
  -1  -3  14    9.50    2.70
  -1  -3  14    8.90    3.10
   1  -3 -14   13.90    4.20
  -1  -3  14   11.90    3.00
   1  -3 -14   14.60    3.80
   1  -3 -14   11.80    4.00
   1  -3 -14   13.00    3.90
   1  -3 -14   14.80    4.30
   1  -3 -14   15.10    4.00
   1   3 -14   11.70    2.80
  -1   3  14   15.50    3.20
  -1   3  14   15.10    4.30
   1   3 -14   14.10    2.60
   1   3 -14    9.80    2.40
   1   3 -14   13.50    2.70
  -1   3  14    9.30    2.90
   1   3 -14   16.90    2.60
   1   3 -14   18.40    3.00
  -1   3  14   10.90    4.00
   0  -3  14  402.66   20.40
   0  -3 -14  436.86   21.50
   0  -3 -14  408.66   21.20
   0  -3 -14  389.56   21.50
   0  -3 -14  416.96   21.40
   0  -3 -14  425.06   21.60
   0  -3 -14  377.86   20.90
   0  -3  14  390.76   20.40
   0   3 -14  409.66   20.20
   0   3  14  401.96   21.70
   0   3 -14  398.86   20.20
   0   3  14  433.96   20.50
   0   3  14  400.16   20.60
   0   3  14  421.06   21.70
   0   3 -14  473.75   20.30
   0   3  14  358.66   21.40
   0   3 -14  409.06   20.30
   0   3 -14  435.66   20.30
   0   3 -14  408.96   20.40
  -1  -3 -14  186.28   13.40
  -1  -3 -14  253.27   14.60
  -1  -3 -14  211.78   13.30
  -1  -3 -14  221.88   13.80
  -1  -3 -14  209.28   13.30
   1  -3  14  241.48   13.20
   1  -3  14  214.48   10.70
  -1  -3 -14  209.18   13.20
   1   3  14  216.68   12.70
   1   3  14  201.08   12.90
  -1   3 -14  227.88   12.70
  -1   3 -14  197.88   12.50
   1   3  14  203.38   14.10
  -1   3 -14  207.28   13.10
   1   3  14  192.58   13.80
   1   3  14  204.28   13.90
  -1   3 -14  206.48   12.80
  -1   3 -14  221.38   12.40
  -1   3 -14  197.08   12.60
  -2  -3 -14   23.40    6.60
  -2  -3 -14   23.60    7.00
  -2  -3 -14   30.60    6.20
  -2  -3 -14   32.30    6.70
   2  -3  14   19.60    6.00
   2  -3  14   27.90    4.70
  -2  -3 -14   26.60    6.90
   2  -3  14   29.60    4.90
   2  -3  14   34.20    6.60
   2  -3  14   26.70    6.60
  -2  -3 -14   29.50    6.80
  -2   3 -14   24.50    6.60
  -2   3 -14   28.00    5.70
  -2   3 -14   25.00    6.00
  -2   3 -14   32.90    6.10
  -2   3 -14   27.10    6.00
  -2   3 -14   45.90    7.30
   2   3  14   36.10    6.50
   2   3  14   24.10    6.60
   2   3  14   26.10    7.00
   2   3  14   31.50    6.20
   2   3  14   24.30    6.60
   2   3  14   24.90    6.80
   3  -4 -14    1.30    6.70
  -3  -4  14    2.40    3.00
  -3  -4  14    4.10    3.40
   3  -4 -14   -8.00    6.70
  -3  -4  14    2.30    4.30
   3  -4 -14    2.40    5.40
  -3   4  14   -9.10    7.00
  -3   4  14    5.90    4.50
   3   4 -14    6.80    4.70
  -3   4  14  -10.00   10.90
   2  -4 -14   17.80    4.80
   2  -4 -14   10.50    5.40
   2  -4 -14   14.10    4.80
   2  -4 -14   19.60    4.80
  -2  -4  14   14.10    2.40
  -2  -4  14   10.90    2.90
   2  -4 -14   13.00    4.90
   2  -4 -14   18.40    5.10
  -2   4  14   17.10    3.90
   2   4 -14   15.50    3.10
   2   4 -14   10.20    3.30
  -2   4  14   13.70    5.20
  -2   4  14    8.40    5.40
  -2   4  14    9.20    5.30
  -2   4  14   11.60    3.90
  -2   4  14    4.40    4.40
   1  -4 -14   16.60    4.30
   1  -4 -14    6.20    4.00
  -1  -4  14   10.70    2.40
  -1  -4  14    9.10    2.50
  -1  -4  14   10.80    2.60
   1  -4 -14    8.00    3.70
  -1  -4  14    5.30    2.30
   1  -4 -14   16.40    4.20
   1  -4 -14   11.00    4.20
   1  -4 -14    9.00    3.80
  -1   4  14    6.70    3.90
  -1   4  14    5.90    3.40
   1   4 -14   12.50    1.90
   1   4 -14   10.30    1.80
   1   4 -14   10.60    2.70
  -1   4  14   13.30    4.60
  -1   4  14    9.30    3.50
  -1   4  14    8.30    4.40
   1   4 -14   12.60    2.30
   1   4 -14    6.90    1.90
   1   4 -14   10.80    2.50
   0  -4 -14  137.49   10.70
   0  -4  14  145.19    9.50
   0  -4  14  171.48    9.50
   0  -4 -14  172.98   11.50
   0  -4 -14  164.28   11.00
   0  -4 -14  152.78   10.70
   0  -4 -14  145.79   10.70
   0  -4 -14  159.48   10.40
   0  -4  14  141.49    9.40
   0   4 -14  166.28    8.80
   0   4 -14  139.89    9.00
   0   4  14  157.58    9.90
   0   4  14  154.38   11.40
   0   4 -14  156.38    9.00
   0   4  14  160.48   10.30
   0   4 -14  146.39    9.30
   0   4 -14  167.28    9.20
   0   4  14  136.79   10.60
   0   4 -14  153.28    9.20
   0   4  14  166.88   11.40
  -1  -4 -14   21.20    5.10
   1  -4  14   40.10    5.60
  -1  -4 -14   43.00    6.50
  -1  -4 -14   54.49    6.60
  -1  -4 -14   33.00    5.10
  -1  -4 -14   41.30    6.40
  -1  -4 -14   35.50    6.10
  -1   4 -14   24.40    4.50
   1   4  14   19.30    5.80
   1   4  14   40.20    5.90
  -1   4 -14   36.80    5.10
  -1   4 -14   36.30    4.70
  -1   4 -14   34.20    4.60
   1   4  14   29.00    5.90
   1   4  14   30.70    6.60
   1   4  14   35.40    5.10
  -1   4 -14   40.40    5.40
  -1   4 -14   32.20    4.80
   2  -4  14   75.79   10.40
  -2  -4 -14   75.89   11.20
   2  -4  14   71.39    9.90
  -2  -4 -14   85.19   11.90
  -2  -4 -14   78.39   11.10
   2  -4  14   85.69   10.30
  -2  -4 -14   76.69   10.20
  -2  -4 -14   70.19    9.50
  -2  -4 -14   69.39    8.90
   2  -4  14   75.29    7.30
  -2   4 -14   87.09    9.70
   2   4  14   81.39   10.10
  -2   4 -14   90.19    9.50
  -2   4 -14   70.79    9.60
   2   4  14   93.29   11.50
   2   4  14  105.39   10.90
   2   4  14   83.49   12.00
  -2   4 -14   85.49   10.00
  -2   4 -14   78.49   10.40
  -2   4 -14   87.39    9.40
   2   4  14   83.19   10.20
   2   4  14   87.59   11.70
   2  -5 -14   33.20    6.20
   2  -5 -14   32.30    5.60
   2  -5 -14   31.50    6.10
   2  -5 -14   28.90    6.60
   2  -5 -14   18.70    5.80
   2  -5 -14   18.70    5.30
  -2   5  14   29.00    6.80
   2   5 -14   25.50    3.60
  -2   5  14   24.20    6.20
   2   5 -14   27.20    3.50
  -2   5  14   27.20    4.70
  -2   5  14    9.50    5.50
  -2   5  14   21.10    6.30
  -2   5  14   24.40    4.80
   1  -5 -14   15.30    4.40
   1  -5 -14   18.00    5.10
   1  -5 -14   16.80    5.00
   1  -5 -14   23.40    4.80
   1  -5 -14   14.00    4.40
  -1  -5  14   15.90    2.40
  -1  -5  14   16.80    2.40
  -1  -5  14   19.30    2.30
   1  -5 -14    8.40    4.60
  -1   5  14   21.50    7.10
  -1   5  14   25.60    5.60
  -1   5  14   14.40    4.70
   1   5 -14   21.10    2.90
   1   5 -14   16.30    2.70
  -1   5  14   23.30    4.30
  -1   5  14   12.20    4.80
  -1   5  14   12.70    4.00
   0  -5 -14   76.79    7.70
   0  -5 -14   89.29    9.10
   0  -5 -14   82.99    8.30
   0  -5 -14   78.19    8.60
   0  -5  14   84.69    6.40
   0  -5  14   76.29    6.60
   0  -5 -14   69.09    8.30
   0  -5 -14   73.89    8.30
   0   5  14   79.49    8.80
   0   5 -14   71.39    6.20
   0   5 -14   86.09    6.20
   0   5 -14   70.49    5.70
   0   5 -14   73.29    6.00
   0   5 -14   79.99    6.00
   0   5  14   67.39    8.60
   0   5  14  100.79    9.30
   0   5 -14   73.39    5.80
   0   5  14   89.79    7.80
   0   5  14   83.19    7.90
  -1  -5 -14   12.10    5.40
  -1  -5 -14   13.10    5.70
   1  -5  14    7.00    4.20
  -1  -5 -14    9.30    5.30
  -1  -5 -14   14.10    5.10
   1  -5  14   13.20    4.40
   1  -5  14   -0.90    3.60
  -1  -5 -14    9.70    4.80
  -1  -5 -14    6.90    5.70
   1   5  14    9.00    5.10
   1   5  14   15.10    6.10
  -1   5 -14    5.20    3.70
  -1   5 -14   10.90    3.60
   1   5  14   16.40    5.90
  -1   5 -14    9.50    3.90
  -1   5 -14   10.00    4.10
  -1   5 -14    4.70    3.70
   1   5  14   12.50    5.80
  -1   5 -14   14.70    4.40
   1   5  14   14.20    5.70
  -2  -5 -14   36.10    8.20
  -2  -5 -14   49.50    7.70
  -2  -5 -14   65.99    8.20
  -2  -5 -14   41.20    8.30
  -2  -5 -14   46.40    8.20
  -2  -5 -14   45.70    8.10
   2  -5  14   46.50    7.70
   2  -5  14   42.10    6.10
   2  -5  14   36.00    7.60
   2  -5  14   51.59    7.90
  -2   5 -14   52.49    7.00
   2   5  14   48.00    8.00
  -2   5 -14   36.30    7.10
  -2   5 -14   46.90    7.10
   2   5  14   39.20    7.10
   2   5  14   47.80    9.20
   2   5  14   56.19    8.80
  -2   5 -14   47.70    7.10
   2   5  14   44.10    8.50
   2   5  14   56.99    9.60
  -2   5 -14   40.30    6.10
  -2   5 -14   49.10    7.30
   2  -6 -14  212.48   14.10
   2  -6 -14  196.78   14.70
   2  -6 -14  225.18   14.60
   2  -6 -14  183.58   14.10
   2  -6 -14  218.48   14.70
   2  -6 -14  206.58   14.80
  -2   6  14  209.58   15.60
  -2   6  14  211.88   15.10
  -2   6  14  200.48   15.00
  -2   6  14  204.18   13.30
   2   6 -14  192.58   10.70
   2   6 -14  203.88   10.80
  -2   6  14  195.48   12.90
   1  -6 -14   44.20    6.70
   1  -6 -14   51.19    6.70
   1  -6 -14   32.30    5.90
   1  -6 -14   53.49    6.80
   1  -6 -14   43.60    6.00
   1  -6 -14   38.10    5.90
  -1   6  14   51.59    7.20
   1   6 -14   37.20    4.20
   1   6 -14   45.40    4.20
  -1   6  14   39.40    5.90
  -1   6  14   34.50    6.10
  -1   6  14   54.09    7.40
  -1   6  14   59.49    8.60
   0  -6  14  707.83   36.00
   0  -6 -14  751.82   38.10
   0  -6 -14  733.23   37.60
   0  -6 -14  799.82   38.30
   0  -6 -14  797.72   37.90
   0  -6 -14  795.22   38.50
   0  -6 -14  893.01   38.90
   0   6 -14  798.32   36.20
   0   6 -14  781.92   35.60
   0   6 -14  780.92   36.00
   0   6  14  785.82   38.50
   0   6  14  844.52   37.60
   0   6 -14  798.02   35.60
   0   6  14  733.83   38.30
   0   6  14  700.33   38.00
   0   6 -14  733.23   36.10
   0   6 -14  780.62   35.90
  -1  -6 -14   34.30    6.40
  -1  -6 -14   46.70    7.90
  -1  -6 -14   43.10    7.70
  -1  -6 -14   43.50    6.40
   1  -6  14   41.70    5.70
  -1  -6 -14   49.00    6.30
  -1  -6 -14   49.60    7.40
   1  -6  14   40.30    5.60
  -1   6 -14   42.30    5.40
   1   6  14   42.40    6.40
   1   6  14   34.40    6.60
   1   6  14   36.90    6.80
  -1   6 -14   45.10    6.70
   1   6  14   41.60    5.80
   1   6  14   40.30    7.40
  -1   6 -14   42.00    5.30
  -1   6 -14   39.50    5.70
  -1   6 -14   47.50    5.50
  -1   6 -14   37.20    4.60
  -2  -6 -14   44.20    8.90
  -2  -6 -14   39.80    7.40
  -2  -6 -14   41.80    7.70
  -2  -6 -14   27.80    7.50
   2  -6  14   48.80    8.00
   2  -6  14   49.10    7.50
   2  -6  14   27.30    7.00
  -2  -6 -14   28.90    8.20
  -2  -6 -14   40.40    7.90
   2  -6  14   25.40    3.90
   2   6  14   39.30    8.50
   2   6  14   38.60    7.30
  -2   6 -14   45.10    7.10
  -2   6 -14   45.10    7.10
  -2   6 -14   63.69    9.00
  -2   6 -14   44.10    7.10
   2   6  14   26.40    7.70
   2   6  14   65.49    8.60
  -2   6 -14   47.70    7.20
   2   6  14   32.40    9.10
  -2   6 -14   33.80    5.80
   2   6  14   25.60    7.70
   2  -7 -14    7.50    5.50
   2  -7 -14   -0.80    5.80
   2  -7 -14   10.90    6.80
   2  -7 -14   -4.40    5.80
   2  -7 -14   12.00    6.00
   2  -7 -14    0.20    5.80
  -2   7  14    0.20    6.40
  -2   7  14    9.70    4.80
   2   7 -14   -0.20    2.40
  -2   7  14   -2.60    6.10
  -2   7  14    1.30    6.90
  -2   7  14   -0.10    5.90
   2   7 -14    0.20    2.50
   1  -7 -14   10.40    5.30
   1  -7 -14   11.00    5.50
   1  -7 -14   16.80    5.70
   1  -7 -14   11.50    5.80
   1  -7 -14   13.10    5.50
   1  -7 -14   16.50    5.00
  -1   7  14   13.60    5.30
  -1   7  14   10.70    6.00
  -1   7  14   14.30    6.00
   1   7 -14   13.50    2.50
   1   7 -14   18.30    2.60
  -1   7  14   16.00    4.80
  -1   7  14   13.00    5.60
   0  -7 -14   45.10    7.00
   0  -7 -14   35.50    5.70
   0  -7 -14   47.80    7.40
   0  -7 -14   43.00    6.50
   0  -7 -14   57.29    7.10
   0  -7 -14   51.79    7.40
   0  -7  14   40.50    4.90
   0   7  14   42.10    7.00
   0   7  14   45.70    7.30
   0   7 -14   49.80    5.40
   0   7  14   49.60    6.50
   0   7  14   36.60    6.20
   0   7 -14   43.30    5.00
   0   7 -14   49.20    4.10
   0   7 -14   45.80    3.50
   0   7 -14   36.70    3.30
   0   7  14   54.09    7.80
   0   7 -14   44.80    4.30
  -1  -7 -14  248.88   16.70
   1  -7  14  245.78   14.80
  -1  -7 -14  220.98   16.20
  -1  -7 -14  283.57   16.80
  -1  -7 -14  256.87   16.40
  -1  -7 -14  266.47   16.50
   1  -7  14  245.68   15.20
  -1  -7 -14  281.57   17.60
  -1   7 -14  263.87   14.60
   1   7  14  235.58   17.20
  -1   7 -14  288.67   14.20
   1   7  14  256.57   17.80
  -1   7 -14  251.27   14.40
  -1   7 -14  252.97   14.70
  -1   7 -14  255.37   14.70
   1   7  14  265.57   16.10
   1   7  14  239.08   17.20
   1   7  14  285.17   17.70
  -1   7 -14  262.87   14.50
   1   7  14  259.27   16.50
  -2  -7 -14   90.49   11.30
   2  -7  14   86.29   11.70
  -2  -7 -14  119.79   14.60
   2  -7  14   79.49   10.30
  -2  -7 -14   88.19   12.10
   2   7  14   94.79   14.10
   2   7  14   91.49   12.50
   2   7  14   98.99   14.60
  -2   7 -14   86.89   11.20
   2   7  14  118.19   14.40
  -2   7 -14   85.29   10.70
   2   7  14  101.89   12.90
  -2   7 -14   85.69   10.60
  -2   7 -14   86.89   10.80
   2   7  14  101.99   11.70
   2  -8 -14   19.30    7.20
   2  -8 -14   23.10    7.30
   2  -8 -14   29.60    7.60
   2  -8 -14   29.80    8.20
   2  -8 -14   29.60    7.00
   2  -8 -14   25.00    7.40
  -2   8  14   31.30    8.30
  -2   8  14   20.30    5.90
   2   8 -14   26.30    2.90
  -2   8  14   13.40    6.60
   2   8 -14   23.20    2.80
  -2   8  14   34.30    8.80
  -2   8  14   20.50   10.80
  -2   8  14   26.40    8.50
   1  -8 -14  156.08   13.30
   1  -8 -14  154.98   12.50
   1  -8 -14  158.18   13.00
   1  -8 -14  157.88   13.20
   1  -8 -14  148.99   13.30
   1  -8 -14  182.58   12.20
   1   8 -14  154.98    8.30
  -1   8  14  137.79   12.00
   1   8 -14  155.58    8.30
  -1   8  14  147.79   13.70
  -1   8  14  137.89   13.70
  -1   8  14  168.38   13.10
  -1   8  14  139.99   11.80
   0  -8 -14   13.20    5.50
   0  -8 -14   15.70    6.10
   0  -8  14   11.10    2.90
   0  -8 -14    9.60    5.00
   0  -8 -14    4.10    4.80
   0  -8 -14   11.00    6.30
   0  -8 -14   17.00    6.20
   0   8 -14    6.60    2.80
   0   8 -14   13.70    2.10
   0   8 -14    5.70    3.20
   0   8  14   25.60    7.00
   0   8  14    9.30    5.30
   0   8  14   14.00    5.50
   0   8  14   11.20    5.30
   0   8  14    4.20    6.40
   0   8  14   13.10    6.30
   0   8 -14   12.50    2.00
   1  -8  14   62.69    7.80
  -1  -8 -14   41.20    7.80
  -1  -8 -14   78.29   10.90
  -1  -8 -14   56.19    7.90
  -1  -8 -14   53.39    9.10
  -1  -8 -14   67.89    9.40
  -1  -8 -14   38.80    6.80
   1  -8  14   59.79    7.40
  -1   8 -14   45.00    6.00
   1   8  14   52.69    9.00
  -1   8 -14   50.89    6.70
   1   8  14   47.20    8.40
   1   8  14   44.60    7.80
  -1   8 -14   51.79    5.90
  -1   8 -14   51.69    6.00
  -1   8 -14   57.19    7.40
   1   8  14   49.80    7.00
  -1   8 -14   57.79    6.90
   1   8  14   34.70    8.00
   1  -9 -14  173.38   13.70
   1  -9 -14  152.88   12.70
   1  -9 -14  157.08   14.00
   1  -9 -14  149.59   13.10
   1  -9 -14  153.28   13.90
   1  -9 -14  133.19   13.50
  -1   9  14  148.99   14.00
  -1   9  14  162.28   12.50
  -1   9  14  148.09   14.20
   1   9 -14  139.29    7.80
  -1   9  14  129.79   12.40
   1   9 -14  142.69    8.00
  -1   9  14  165.98   14.10
   0  -9 -14   42.60    7.50
   0  -9 -14   28.00    6.80
   0  -9 -14   38.00    7.30
   0  -9 -14   42.80    7.60
   0  -9 -14   37.10    6.80
   0  -9 -14   25.40    6.50
   0   9  14   34.20    7.50
   0   9 -14   39.30    5.50
   0   9  14   39.70    6.90
   0   9  14   45.60    7.90
   0   9  14   35.20    6.70
   0   9  14   38.20    8.10
   0   9 -14   30.90    4.40
   0   9  14   37.70    8.40
  -1  -9 -14  166.88   13.50
  -1  -9 -14  162.58   14.80
   1  -9  14  149.29   11.30
  -1  -9 -14  166.18   14.80
   1  -9  14  169.68   11.40
  -1  -9 -14  172.48   13.70
  -1  -9 -14  120.49   14.90
  -1  -9 -14  167.88   14.70
   1   9  14  168.98   14.10
   1   9  14  176.48   13.80
  -1   9 -14  168.68   10.70
  -1   9 -14  162.68   10.90
  -1   9 -14  159.88   11.40
   1   9  14  184.78   15.40
  -1   9 -14  157.48   10.50
   1   9  14  186.08   15.70
  -1   9 -14  167.88   10.00
  -1   9 -14  163.08   11.50
   1 -10 -14    2.00    6.60
   1 -10 -14    8.50    7.60
   1 -10 -14   -1.50    7.20
   1 -10 -14   12.80    9.30
   1 -10 -14   19.50    7.70
   1  10 -14   -1.60    2.20
  -1  10  14   -2.50    6.50
  -1  10  14    3.60    6.80
  -1  10  14    8.60    7.20
  -1  10  14   -2.60    6.40
  -1  10  14    3.20    6.50
  -1  10  14    4.00    7.00
   1  10 -14    1.00    2.40
   0 -10 -14   68.19   10.00
   0 -10 -14   67.29    9.40
   0 -10 -14   51.99    9.30
   0 -10 -14   53.99    7.60
   0 -10 -14   55.99    8.60
   0 -10 -14   74.29   10.00
   0  10  14   49.20    9.50
   0  10  14   73.99    9.00
   0  10  14   75.79   10.40
   0  10  14   60.19    8.90
   0  10 -14   61.69    6.70
   0  10 -14   63.59    6.70
   0  10  14   66.69    8.60
   0  10  14   56.79    9.10
  -1 -10 -14    4.30   10.60
  -1 -10 -14    9.00    8.20
   1 -10  14   -5.30    4.50
  -1 -10 -14    7.40    7.50
  -1 -10 -14    4.30    8.30
   1 -10  14   -6.30    4.40
  -1  10 -14   -2.60    4.10
  -1  10 -14    8.60    4.00
   1  10  14    6.80    7.10
   1  10  14    0.30    8.20
  -1  10 -14    2.90    3.90
   1  10  14    7.80    7.40
   1  10  14   13.50    8.90
   2   0 -15    1.30    3.50
   2   0 -15   -0.80    3.50
  -2   0  15   -0.60    4.20
  -2   0  15    2.00    3.50
  -2   0  15    0.50    4.90
   2   0 -15    7.30    3.80
   2   0 -15   -2.10    3.50
   2   0 -15   -2.20    4.10
   2   0 -15   -3.80    3.60
  -2   0  15    4.50    4.10
  -1   0  15    3.20    3.50
   1   0 -15   -1.10    3.00
  -1   0  15    2.40    3.00
   1   0 -15    0.60    3.20
   1   0 -15    0.10    3.20
   1   0 -15    9.70    3.30
   1   0 -15    3.50    3.00
   1   0 -15   -2.20    3.10
  -1   0  15    0.60    3.40
   0   0  15    1.20    2.00
   0   0 -15    2.80    3.10
   0   0  15    3.80    3.60
   0   0 -15    0.60    3.70
   0   0 -15   -1.40    3.50
   0   0 -15    1.80    3.40
   0   0 -15   -3.70    3.10
   0   0 -15   -0.20    3.60
   1   0  15    1.80    4.30
  -1   0 -15   -4.00    4.20
  -1   0 -15   -3.10    4.00
   1   0  15    3.60    4.40
  -1   0 -15   -1.40    4.50
  -1   0 -15    0.50    3.80
   1   0  15    6.80    5.00
  -1   0 -15    0.80    3.90
   1   0  15   -1.30    2.90
  -1   0 -15    0.00    4.10
   1   0  15   -6.30    4.50
   2   0  15    3.80    6.00
  -2   0 -15   -3.70    6.00
   2   0  15   -1.30    4.80
  -2   0 -15   -8.50    6.10
   2   0  15   -6.70    6.70
  -2   0 -15    8.50    5.60
   2   0  15   -7.60    6.10
  -2   0 -15    2.00    5.40
  -2   0 -15   -5.20    5.60
   2   0  15   -1.40    6.00
   2  -1 -15    7.40    4.70
   2  -1 -15    7.10    4.00
  -2  -1  15    0.70    3.40
   2  -1 -15   15.00    4.10
  -2  -1  15   -1.80    3.60
   2  -1 -15    7.80    4.30
  -2  -1  15    9.20    4.20
   2  -1 -15    2.90    4.20
   2  -1 -15    7.80    4.10
   2   1 -15   10.80    3.30
  -2   1  15   12.20    5.00
  -2   1  15    5.00    4.50
   2   1 -15    2.70    3.50
   2   1 -15    2.20    3.40
   2   1 -15    9.60    3.80
   2   1 -15    3.30    3.90
  -2   1  15    3.60    4.60
   2   1 -15    8.30    3.50
  -1  -1  15  337.47   17.40
  -1  -1  15  310.47   17.20
  -1  -1  15  336.77   17.50
   1  -1 -15  335.77   17.60
   1  -1 -15  344.67   17.80
   1  -1 -15  294.57   17.50
   1  -1 -15  322.97   17.40
   1  -1 -15  329.87   17.50
   1  -1 -15  352.56   17.60
   1   1 -15  315.27   16.90
   1   1 -15  321.27   17.10
   1   1 -15  351.36   17.20
   1   1 -15  351.16   17.00
   1   1 -15  337.27   16.80
   1   1 -15  334.77   17.10
  -1   1  15  312.97   15.50
   0  -1 -15    8.00    4.00
   0  -1  15    8.20    4.00
   0  -1 -15    9.30    3.50
   0  -1 -15   15.20    4.00
   0  -1 -15    1.50    3.50
   0  -1 -15   11.90    4.00
   0  -1 -15    8.50    3.80
   0  -1  15    1.80    3.10
   0   1  15   11.00    3.00
   0   1  15    6.40    4.10
   0   1 -15   14.30    3.50
   0   1 -15   10.10    3.40
   0   1 -15   12.60    3.40
   0   1 -15   11.40    3.60
   0   1 -15    7.70    3.30
   0   1  15   10.10    4.40
   0   1  15    7.40    2.70
   0   1 -15   13.10    3.80
   1  -1  15   11.20    5.20
  -1  -1 -15   19.50    4.80
  -1  -1 -15   24.80    5.20
  -1  -1 -15   15.60    4.50
  -1  -1 -15   16.70    5.30
   1  -1  15   26.20    5.30
   1  -1  15   22.00    5.20
   1  -1  15   12.60    3.20
  -1  -1 -15   18.00    5.20
   1  -1  15    7.90    4.70
  -1  -1 -15   19.10    5.60
   1  -1  15   17.00    3.50
  -1   1 -15   22.50    4.80
   1   1  15   30.80    6.00
  -1   1 -15   20.60    5.10
   1   1  15   13.60    4.30
   1   1  15   14.90    3.80
   1   1  15    9.60    5.10
  -1   1 -15   15.50    4.70
  -1   1 -15   21.80    4.40
   1   1  15   15.30    5.50
  -1   1 -15   18.10    4.80
  -1   1 -15   16.30    4.20
   1   1  15   10.30    4.80
  -2  -1 -15  267.27   17.70
  -2  -1 -15  257.57   18.40
   2  -1  15  259.37   15.40
  -2  -1 -15  266.67   17.00
   2  -1  15  256.17   15.60
  -2  -1 -15  255.67   17.40
   2  -1  15  283.27   18.30
   2  -1  15  275.87   18.00
  -2  -1 -15  263.87   17.30
  -2  -1 -15  286.97   17.30
  -2   1 -15  235.48   17.20
   2   1  15  262.67   16.70
   2   1  15  258.77   16.90
  -2   1 -15  241.98   17.70
   2   1  15  314.97   18.60
  -2   1 -15  254.87   17.40
  -2   1 -15  258.07   16.80
  -2   1 -15  265.27   16.80
   2   1  15  262.67   17.90
  -2   1 -15  280.77   17.00
   2  -2 -15  505.95   25.30
   2  -2 -15  473.55   25.20
  -2  -2  15  475.95   24.30
   2  -2 -15  515.15   25.70
   2  -2 -15  485.05   25.10
   2  -2 -15  499.25   25.60
   2  -2 -15  487.05   25.40
  -2   2  15  496.35   25.90
   2   2 -15  518.05   23.80
   2   2 -15  496.15   23.60
   2   2 -15  471.75   23.80
   2   2 -15  496.45   24.50
   2   2 -15  458.25   24.20
   2   2 -15  508.95   23.80
  -2   2  15  572.14   25.90
  -2   2  15  485.55   25.80
  -1  -2  15   28.80    4.10
  -1  -2  15   24.80    4.00
   1  -2 -15   26.40    4.70
   1  -2 -15   32.00    5.30
   1  -2 -15   30.00    4.80
  -1  -2  15   28.50    4.40
   1  -2 -15   22.40    4.40
   1  -2 -15   24.60    4.50
   1  -2 -15   19.50    4.70
   1   2 -15   24.10    3.80
  -1   2  15   20.80    8.10
   1   2 -15   33.70    3.90
  -1   2  15   17.00    4.70
   1   2 -15   23.40    3.60
   1   2 -15   23.20    3.80
   1   2 -15   25.50    3.50
   1   2 -15   31.40    3.90
  -1   2  15   23.00    3.30
   0  -2 -15  171.58   11.70
   0  -2 -15  188.28   11.30
   0  -2 -15  138.49   11.30
   0  -2 -15  162.48   11.20
   0  -2  15  186.38   10.90
   0  -2 -15  172.58   11.40
   0  -2 -15  169.58   10.90
   0   2  15  179.08   11.90
   0   2  15  156.08   10.10
   0   2  15  162.28   11.70
   0   2 -15  158.18   10.50
   0   2  15  174.98   11.90
   0   2 -15  172.28   10.40
   0   2 -15  135.09   10.10
   0   2 -15  169.28   10.30
   0   2  15  172.88    9.90
   0   2 -15  177.68   10.30
   0   2 -15  205.78   10.50
   1  -2  15  107.99   11.40
  -1  -2 -15  101.29    9.90
  -1  -2 -15  106.59   10.10
   1  -2  15  109.69    7.10
   1  -2  15  114.59    9.30
  -1  -2 -15  117.09    9.80
  -1  -2 -15  118.59   10.30
  -1  -2 -15  134.99   11.10
   1  -2  15  126.39   10.20
  -1  -2 -15  113.49    9.80
  -1   2 -15  103.29    9.80
   1   2  15  109.79   10.50
   1   2  15  105.09   10.60
  -1   2 -15  111.39    9.20
  -1   2 -15  101.69    9.00
   1   2  15  121.59   10.50
  -1   2 -15  118.09    9.00
   1   2  15  104.79    8.50
  -1   2 -15  134.89    9.90
  -1   2 -15  104.79    9.00
   1   2  15  115.99   10.60
   1   2  15  125.09    9.20
  -2  -2 -15    6.70    5.50
  -2  -2 -15    0.00    6.60
   2  -2  15   -8.50    4.00
   2  -2  15   11.50    4.50
   2  -2  15    4.40    6.60
  -2  -2 -15    7.60    6.20
   2  -2  15    8.10    6.40
   2  -2  15    2.90    5.80
   2  -2  15    0.20    6.30
  -2  -2 -15    0.30    6.00
  -2  -2 -15   -1.40    7.10
  -2  -2 -15   -7.10    5.80
   2   2  15    5.60    5.40
  -2   2 -15   -3.00    5.60
  -2   2 -15   15.60    7.00
   2   2  15   -1.40    5.50
   2   2  15    8.90    7.20
  -2   2 -15    2.30    5.40
   2   2  15    0.00    6.40
   2   2  15   -8.50    6.80
   2   2  15    6.80    6.40
  -2   2 -15    2.70    5.60
  -2   2 -15    5.00    5.60
  -2   2 -15    7.80    6.30
   2  -3 -15   11.70    5.00
   2  -3 -15    7.90    4.90
  -2  -3  15    0.10    2.80
  -2  -3  15   10.60    3.30
   2  -3 -15    9.10    5.30
  -2  -3  15    9.90    3.70
   2  -3 -15    8.20    4.70
  -2  -3  15    1.40    3.30
   2  -3 -15    6.50    4.30
   2  -3 -15    7.70    5.10
  -2   3  15    0.80    3.00
   2   3 -15   14.80    2.40
  -2   3  15   -0.40    4.80
  -2   3  15    8.90    3.30
   2   3 -15    8.20    3.70
   2   3 -15   13.50    2.70
  -2   3  15   23.30    5.90
  -2   3  15   11.40    5.30
  -2   3  15    9.50    5.60
   2   3 -15   11.10    2.80
   2   3 -15    8.20    3.40
   2   3 -15   14.50    2.40
  -1  -3  15   18.90    3.70
   1  -3 -15   29.60    5.00
   1  -3 -15   22.30    4.70
   1  -3 -15   33.70    5.20
   1  -3 -15   34.20    5.60
  -1  -3  15   20.50    4.10
   1  -3 -15   16.80    4.90
   1  -3 -15   28.10    5.00
   1   3 -15   19.30    3.50
  -1   3  15   23.30    5.20
   1   3 -15   26.30    3.20
  -1   3  15   20.60    5.70
   1   3 -15   22.80    3.20
  -1   3  15   12.20    4.50
   1   3 -15   19.70    3.10
  -1   3  15   25.20    3.90
  -1   3  15   19.00    3.90
   1   3 -15   24.80    3.50
  -1   3  15   31.10    5.20
   1   3 -15   26.20    3.80
   0  -3 -15   38.30    5.70
   0  -3  15   34.80    5.00
   0  -3 -15   42.00    5.90
   0  -3 -15   50.79    6.40
   0  -3 -15   40.90    5.70
   0  -3 -15   36.90    5.50
   0  -3  15   38.90    4.90
   0  -3 -15   32.30    5.10
   0   3 -15   34.10    4.50
   0   3  15   50.99    7.50
   0   3 -15   35.40    4.40
   0   3 -15   44.90    5.00
   0   3  15   36.60    6.10
   0   3  15   29.20    5.80
   0   3 -15   35.50    4.60
   0   3 -15   40.80    5.70
   0   3  15   41.20    5.70
   0   3  15   42.70    6.40
   0   3  15   45.50    6.20
   0   3 -15   29.30    4.10
  -1  -3 -15   18.50    4.90
   1  -3  15   19.50    5.20
  -1  -3 -15   22.60    5.30
  -1  -3 -15   26.70    5.80
  -1  -3 -15   19.40    4.70
   1  -3  15   17.80    5.00
   1  -3  15   17.50    2.40
   1  -3  15   16.30    5.50
  -1  -3 -15   11.20    5.40
  -1  -3 -15   22.80    6.10
  -1   3 -15   17.70    4.60
  -1   3 -15   26.10    5.20
  -1   3 -15   18.40    4.70
   1   3  15   15.60    5.90
  -1   3 -15   22.50    4.40
  -1   3 -15   29.80    5.00
   1   3  15   17.70    4.50
   1   3  15   21.40    6.40
   1   3  15   20.10    5.00
   1   3  15   26.00    6.30
  -1   3 -15   16.70    5.00
   1   3  15   23.30    6.20
   2  -3  15   43.20    7.60
  -2  -3 -15   48.20    7.80
  -2  -3 -15   54.29    9.00
  -2  -3 -15   51.89    7.90
  -2  -3 -15   37.10    8.40
   2  -3  15   38.50    8.20
   2  -3  15   42.00    7.80
  -2  -3 -15   34.60    7.20
  -2  -3 -15   47.10    8.50
   2  -3  15   49.50    5.80
   2   3  15   39.00    8.30
   2   3  15   41.10    8.90
   2   3  15   37.50    7.50
  -2   3 -15   52.19    7.50
   2   3  15   36.20    8.20
  -2   3 -15   54.09    7.20
  -2   3 -15   44.10    7.10
   2   3  15   58.29    7.60
  -2   3 -15   44.00    7.20
  -2   3 -15   56.49    8.00
  -2   3 -15   51.89    7.50
   2   3  15   35.70    6.70
   2  -4 -15   64.79    7.80
  -2  -4  15   43.40    5.30
  -2  -4  15   54.19    4.80
   2  -4 -15   68.59    8.60
   2  -4 -15   65.69    8.90
   2  -4 -15   56.59    7.60
   2  -4 -15   57.99    7.40
   2  -4 -15   50.09    7.50
  -2   4  15   48.70    7.60
  -2   4  15   56.89    7.00
  -2   4  15   52.69    7.30
   2   4 -15   52.29    5.80
  -2   4  15   47.40    7.60
   2   4 -15   63.29    6.40
   1  -4 -15    7.50    4.50
   1  -4 -15   10.20    4.80
   1  -4 -15    7.60    4.40
  -1  -4  15    2.20    2.60
   1  -4 -15    0.90    4.40
  -1  -4  15    5.80    2.70
   1  -4 -15   11.60    4.90
  -1  -4  15   -3.80    2.50
   1  -4 -15    1.50    3.90
  -1   4  15    0.60    3.20
  -1   4  15    3.10    5.10
   1   4 -15    3.00    2.00
   1   4 -15    3.50    2.00
   1   4 -15    3.00    1.80
  -1   4  15    3.50    3.50
   1   4 -15    1.30    2.30
   1   4 -15    3.40    2.70
  -1   4  15    1.70    4.40
  -1   4  15    1.50    4.40
  -1   4  15    1.80    4.90
   1   4 -15    4.30    2.80
   0  -4 -15   79.19    8.50
   0  -4 -15   80.29    9.00
   0  -4  15   70.39    6.90
   0  -4  15   71.59    6.90
   0  -4 -15   67.99    8.50
   0  -4 -15   60.19    7.60
   0  -4 -15   84.29    8.50
   0  -4 -15   82.69    8.70
   0   4  15   80.39    7.80
   0   4  15   81.79    9.20
   0   4  15   67.79    8.80
   0   4 -15   67.99    5.80
   0   4 -15   68.39    6.00
   0   4  15   67.79    9.00
   0   4 -15   67.49    6.40
   0   4  15   79.59    7.30
   0   4 -15   72.99    6.60
   0   4 -15   74.19    6.60
   0   4  15   77.69    9.00
   0   4 -15   76.29    6.40
   1  -4  15  427.36   20.00
  -1  -4 -15  329.37   20.40
   1  -4  15  348.37   19.30
  -1  -4 -15  397.86   20.40
  -1  -4 -15  350.86   20.00
  -1  -4 -15  337.17   20.50
  -1  -4 -15  379.96   20.60
  -1  -4 -15  342.27   20.90
   1  -4  15  327.27   19.40
  -1   4 -15  339.17   18.90
  -1   4 -15  351.26   19.10
   1   4  15  326.07   20.80
  -1   4 -15  400.56   19.40
   1   4  15  320.17   20.70
  -1   4 -15  359.36   19.50
   1   4  15  395.76   20.90
  -1   4 -15  345.57   19.10
  -1   4 -15  367.96   19.00
   1   4  15  360.16   19.70
   1   4  15  375.56   20.90
   2  -4  15   81.59   10.20
  -2  -4 -15   91.69   10.40
   2  -4  15   71.19    9.20
   2  -4  15   78.09   11.00
  -2  -4 -15   65.09   10.10
  -2  -4 -15   75.59   10.60
  -2  -4 -15   70.49   10.00
  -2  -4 -15   84.79   10.20
  -2  -4 -15   56.79    8.90
   2  -4  15   71.59    7.60
   2   4  15   97.19   11.40
  -2   4 -15   57.39    8.10
  -2   4 -15   70.19   10.20
   2   4  15   69.89    9.80
   2   4  15   94.69   13.70
  -2   4 -15   61.79    9.40
  -2   4 -15   55.79    8.70
   2   4  15   60.59    8.10
  -2   4 -15   74.19    9.90
  -2   4 -15   81.99    8.60
   2   4  15   96.29   11.70
   2   4  15   85.09   12.40
   2  -5 -15   -2.60    5.30
   2  -5 -15   -1.10    5.50
   2  -5 -15   -7.30    5.80
   2  -5 -15    1.00    5.30
   2  -5 -15   -5.10    5.20
   2  -5 -15    3.80    5.50
  -2   5  15   -1.20    4.10
   2   5 -15    0.60    3.30
  -2   5  15   -3.70    4.20
  -2   5  15    3.40    6.00
  -2   5  15    7.90    6.70
  -2   5  15   11.10    6.40
  -2   5  15   -1.90    5.70
   2   5 -15    5.70    3.00
  -1  -5  15  181.68    9.90
   1  -5 -15  223.78   13.40
   1  -5 -15  205.38   13.70
   1  -5 -15  169.58   13.10
   1  -5 -15  203.28   13.20
   1  -5 -15  205.88   12.90
   1  -5 -15  212.78   13.20
  -1   5  15  204.48   14.00
  -1   5  15  196.08   12.00
  -1   5  15  197.38   13.80
  -1   5  15  200.68   12.00
   1   5 -15  178.28   10.40
  -1   5  15  173.08   13.20
  -1   5  15  153.08   13.00
   1   5 -15  179.88   10.50
   0  -5 -15    4.80    4.30
   0  -5  15    1.70    3.10
   0  -5  15    0.10    3.10
   0  -5 -15   -3.20    4.80
   0  -5 -15   -3.80    4.80
   0  -5 -15    4.50    4.50
   0  -5 -15    4.40    4.90
   0  -5 -15    1.50    4.60
   0  -5  15   -0.50    3.20
   0   5 -15    7.80    3.10
   0   5 -15    3.90    2.70
   0   5  15    0.30    5.50
   0   5  15    1.20    3.90
   0   5 -15    7.70    3.20
   0   5 -15    3.50    2.60
   0   5 -15   -2.10    2.80
   0   5  15    8.70    8.90
   0   5  15   -2.90    4.60
   0   5  15    6.30    4.90
   0   5  15    6.50    4.40
   0   5 -15    4.60    3.10
  -1  -5 -15  153.28   12.80
  -1  -5 -15  170.78   12.90
  -1  -5 -15  141.09   11.70
   1  -5  15  144.49   10.60
  -1  -5 -15  137.69   12.30
  -1  -5 -15  157.58   12.60
   1  -5  15  157.18   11.10
  -1  -5 -15  142.49   13.00
   1  -5  15  141.09   11.00
   1   5  15  147.79   11.20
   1   5  15  158.78   11.90
  -1   5 -15  144.49   10.20
  -1   5 -15  140.19   10.20
  -1   5 -15  159.48   10.50
   1   5  15  152.88   13.10
   1   5  15  154.98   12.20
  -1   5 -15  129.09   10.40
  -1   5 -15  140.29   10.80
   1   5  15  129.89   11.90
  -1   5 -15  140.79   10.40
  -2  -5 -15   11.10    8.10
   2  -5  15   12.10    6.20
  -2  -5 -15   16.50    7.40
  -2  -5 -15    9.60    6.90
   2  -5  15   -0.90    3.40
   2  -5  15   16.90    7.80
   2  -5  15    5.90    3.70
   2   5  15    2.10    6.90
  -2   5 -15   13.80    6.40
  -2   5 -15   10.70    6.30
  -2   5 -15    0.20    6.20
  -2   5 -15    7.70    6.50
   2   5  15   24.30    9.00
   2   5  15   19.20    9.10
   2   5  15    7.50    7.70
   2   5  15    9.50    6.60
   2  -6 -15  202.48   15.20
   2  -6 -15  210.88   14.70
   2  -6 -15  212.68   14.70
   2  -6 -15  197.48   14.70
   2  -6 -15  181.98   15.10
   2  -6 -15  195.68   14.20
   2   6 -15  186.58   10.90
  -2   6  15  209.58   13.30
  -2   6  15  196.18   15.20
  -2   6  15  198.88   15.00
  -2   6  15  190.58   15.50
   2   6 -15  199.98   10.90
   1  -6 -15    6.50    5.80
   1  -6 -15   16.00    6.30
   1  -6 -15    9.00    5.30
   1  -6 -15   18.70    5.70
   1  -6 -15   11.70    5.20
   1  -6 -15   23.40    5.40
  -1   6  15    5.90    4.40
  -1   6  15    8.50    6.60
  -1   6  15   16.90    4.90
  -1   6  15    6.00    5.40
  -1   6  15    7.30    6.10
   1   6 -15   12.80    2.90
   1   6 -15    7.50    2.80
  -1   6  15   17.90    6.10
   0  -6  15    2.80    3.00
   0  -6 -15    4.90    5.30
   0  -6 -15   16.10    5.00
   0  -6 -15    5.50    4.90
   0  -6 -15   14.00    6.30
   0  -6 -15    9.20    5.60
   0  -6 -15   12.00    4.90
   0  -6  15    8.20    3.40
   0   6  15   16.20    6.30
   0   6  15    8.90    5.90
   0   6  15    1.30    4.50
   0   6  15    9.30    5.90
   0   6  15    1.00    5.70
   0   6 -15   10.20    3.10
   0   6 -15    5.50    2.50
   0   6 -15    9.20    2.70
   0   6 -15    7.50    3.40
   0   6 -15   11.90    3.20
   0   6 -15    8.80    2.70
   1  -6  15  215.68   12.50
  -1  -6 -15  157.38   14.70
   1  -6  15  205.48   12.70
  -1  -6 -15  190.18   14.70
  -1  -6 -15  194.38   13.80
  -1  -6 -15  193.08   14.90
  -1  -6 -15  214.88   14.60
  -1  -6 -15  187.78   14.10
  -1   6 -15  188.58   12.00
  -1   6 -15  177.08   12.10
   1   6  15  167.38   13.80
   1   6  15  191.38   15.30
  -1   6 -15  164.88   11.70
  -1   6 -15  156.58   11.30
   1   6  15  186.98   15.10
   1   6  15  180.48   13.00
   1   6  15  186.78   15.10
  -1   6 -15  203.78   12.30
  -1   6 -15  175.58   12.20
   2  -7 -15   88.99   12.20
   2  -7 -15   87.99   12.20
   2  -7 -15  106.09   12.00
   2  -7 -15   93.09   13.30
  -2   7  15  117.49   16.60
  -2   7  15  121.69   11.50
  -2   7  15  114.39   13.20
  -2   7  15  100.79   10.90
   2   7 -15  118.99    8.20
   2   7 -15  103.39    7.00
   1  -7 -15   79.59   10.40
   1  -7 -15   52.79    8.00
   1  -7 -15   73.49    9.10
   1  -7 -15   49.20    7.60
   1  -7 -15   59.99    7.60
   1  -7 -15   52.19    8.40
  -1   7  15   52.19    7.80
  -1   7  15   57.69    8.20
   1   7 -15   51.59    4.90
  -1   7  15   56.39    8.80
   1   7 -15   48.60    5.10
  -1   7  15   43.20    6.40
  -1   7  15   56.79    8.50
   0  -7 -15  122.79   11.60
   0  -7 -15   90.49   10.50
   0  -7  15  124.49    8.00
   0  -7 -15  121.49   10.60
   0  -7 -15  139.39   12.10
   0  -7 -15   97.79   11.30
   0  -7 -15  121.79   11.90
   0   7 -15  121.49    7.20
   0   7 -15  133.59    8.40
   0   7  15  139.29   10.80
   0   7  15  121.09   11.00
   0   7  15  101.59   11.70
   0   7  15  111.79   12.10
   0   7 -15  121.09    8.10
   0   7  15  126.89   12.30
   0   7 -15  116.69    6.30
   0   7  15  111.99   12.10
   0   7 -15  121.69    7.10
  -1  -7 -15   28.30    8.00
   1  -7  15   24.80    5.50
  -1  -7 -15   30.80    8.30
  -1  -7 -15   35.60    7.30
  -1  -7 -15   23.90    6.20
  -1  -7 -15   12.40    7.20
  -1  -7 -15   33.90    7.70
   1  -7  15   17.10    5.40
   1   7  15   25.90    7.50
  -1   7 -15   34.50    5.80
  -1   7 -15   28.70    5.10
   1   7  15   27.30    6.80
  -1   7 -15   31.10    4.30
  -1   7 -15   39.90    5.50
  -1   7 -15   23.10    5.10
   1   7  15   32.30    7.90
   1   7  15   25.30    7.50
   1   7  15   37.50    7.90
   1   7  15   24.40    6.50
  -1   7 -15   29.80    5.20
   1  -8 -15  867.11   43.30
   1  -8 -15  842.72   43.50
   1  -8 -15  930.91   44.20
   1  -8 -15  929.41   44.40
   1  -8 -15  766.52   43.80
   1  -8 -15  862.41   43.40
  -1   8  15  814.92   44.00
   1   8 -15  862.51   40.40
  -1   8  15  873.51   44.50
  -1   8  15 1021.20   44.70
  -1   8  15  887.01   44.20
  -1   8  15  915.31   43.10
   1   8 -15  921.61   40.50
  -1   8  15  879.71   42.90
   0  -8 -15  132.59   12.30
   0  -8 -15  131.89   12.70
   0  -8 -15  119.39   13.10
   0  -8 -15  138.89   11.60
   0  -8  15  105.59    7.80
   0  -8 -15  125.29   12.20
   0  -8 -15  131.39   12.90
   0   8  15  134.89   13.40
   0   8  15  125.19   11.70
   0   8  15  105.69   12.70
   0   8  15  141.89   13.60
   0   8  15  128.29   11.60
   0   8  15  114.99   12.80
   0   8 -15  115.39    8.60
   0   8 -15  124.99    8.40
   0   8 -15  116.49    6.40
   1  -8  15   14.80    5.40
  -1  -8 -15   18.00    8.00
  -1  -8 -15    5.40    6.90
  -1  -8 -15   17.30    7.40
  -1  -8 -15   32.50    8.00
   1  -8  15   15.50    4.80
  -1   8 -15   25.00    5.10
   1   8  15   28.70    7.80
   1   8  15   27.10    9.50
   1   8  15   13.40    7.90
   1   8  15    7.20    7.00
  -1   8 -15   28.30    5.50
  -1   8 -15   20.70    4.80
   1   8  15    7.10    6.50
  -1   8 -15   26.10    5.60
  -1   8 -15   18.40    4.70
   1  -9 -15   17.20    7.60
   1  -9 -15   13.10    7.30
   1  -9 -15   10.60    7.50
  -1   9  15   11.00    6.60
  -1   9  15    5.70    7.20
  -1   9  15   14.60    8.50
  -1   9  15   16.60    6.40
   1   9 -15    6.10    2.80
  -1   9  15   17.90    8.20
   0  -9 -15   15.30    7.20
   0  -9 -15   17.90    7.80
   0  -9 -15   -1.30    6.10
   0  -9 -15   14.40    7.20
   0  -9 -15   10.90    7.20
   0   9  15    9.90    6.70
   0   9 -15   14.80    4.00
   0   9  15   13.60    7.50
   0   9  15    9.10    6.60
   0   9  15    3.50    7.30
   0   9  15   11.90    6.40
   0   9  15   -2.40    6.80
   0   9 -15   10.70    4.00
   2   0 -16   94.39    7.90
   2   0 -16   81.89    7.90
  -2   0  16   94.99    9.50
   2   0 -16   68.09    9.30
  -2   0  16   69.59    9.10
   2   0 -16   77.19    8.40
   2   0 -16   87.29    8.50
   2   0 -16   82.39    8.10
  -1   0  16  600.84   30.60
   1   0 -16  637.34   30.50
   1   0 -16  657.63   30.50
   1   0 -16  640.54   30.40
   1   0 -16  625.94   30.30
  -1   0  16  624.64   30.50
   1   0 -16  612.44   30.20
  -1   0  16  575.34   31.50
   1   0 -16  625.44   30.30
   0   0  16 1083.19   50.19
   0   0 -16  990.00   51.79
   0   0 -16 1136.29   52.39
   0   0 -16 1209.68   52.49
   0   0  16 1135.09   54.59
   0   0 -16 1093.49   52.09
   0   0 -16 1106.29   51.99
   0   0  16 1195.48   52.59
   0   0 -16 1042.10   51.89
  -1   0 -16   -3.40    4.80
  -1   0 -16   -1.70    4.80
  -1   0 -16   -3.70    4.50
  -1   0 -16    4.70    4.70
  -1   0 -16    2.50    5.00
   1   0  16   -3.70    4.70
   1   0  16    1.20    3.30
   1   0  16   -3.20    5.50
  -1   0 -16    7.00    4.50
   1   0  16    1.80    3.70
   1   0  16   -4.30    4.60
   1   0  16    4.30    5.30
   2   0  16  111.09   10.90
   2   0  16   90.99   11.70
   2   0  16  104.79   15.10
  -2   0 -16   74.09    9.60
  -2   0 -16  103.49   11.70
  -2   0 -16  131.39   12.80
  -2   0 -16  116.09   12.80
   2  -1 -16   56.79    6.50
  -2  -1  16   60.09    7.90
   2  -1 -16   46.00    6.30
  -2  -1  16   51.79    7.80
   2  -1 -16   43.00    6.00
   2  -1 -16   47.60    6.20
   2  -1 -16   43.30    6.00
   2  -1 -16   41.80    6.60
  -2   1  16   63.59    9.10
   2   1 -16   47.00    6.40
   2   1 -16   44.10    5.40
   2   1 -16   58.89    7.20
   2   1 -16   45.30    6.50
  -2   1  16   39.00    6.80
   2   1 -16   36.90    5.80
   2   1 -16   43.50    6.30
   1  -1 -16  199.08   12.80
   1  -1 -16  207.18   13.00
   1  -1 -16  198.48   12.60
   1  -1 -16  196.18   12.40
   1  -1 -16  207.98   12.80
  -1  -1  16  190.58   12.30
   1  -1 -16  218.88   12.60
   1   1 -16  208.98   12.00
   1   1 -16  192.38   12.00
   1   1 -16  206.08   12.00
   1   1 -16  208.98   12.00
   1   1 -16  218.08   11.80
  -1   1  16  185.98   12.80
  -1   1  16  192.68   13.20
   1   1 -16  216.78   12.30
  -1   1  16  210.88   13.50
   0  -1 -16  125.39   10.10
   0  -1  16  115.79    9.80
   0  -1 -16  118.19   10.00
   0  -1 -16  145.79   10.10
   0  -1 -16  135.59   10.20
   0  -1  16  153.88   10.30
   0  -1 -16  123.19   10.30
   0  -1 -16  129.19    9.90
   0   1  16  133.79    8.40
   0   1 -16  118.09    9.30
   0   1 -16  132.09    9.40
   0   1  16  144.49   10.70
   0   1  16  135.09   10.50
   0   1 -16  141.69   10.10
   0   1 -16  130.49    9.80
   0   1 -16  140.69    9.80
   0   1 -16  152.98   10.10
  -1  -1 -16  153.38   11.70
   1  -1  16  151.28   11.70
   1  -1  16  137.99   11.60
  -1  -1 -16  163.58   11.90
  -1  -1 -16  129.09   11.20
   1  -1  16  150.68    9.30
  -1  -1 -16  140.89   11.50
   1  -1  16  149.49   12.10
  -1  -1 -16  139.69   12.40
  -1  -1 -16  160.28   11.80
  -1   1 -16  146.29   11.50
   1   1  16  146.29   12.20
  -1   1 -16  140.69   11.00
   1   1  16  158.48   12.80
   1   1  16  152.88    9.90
  -1   1 -16  163.48   11.30
   1   1  16  145.99   12.20
  -1   1 -16  160.48   11.30
  -1   1 -16  134.09   11.30
  -1   1 -16  129.29   11.70
   2  -1  16   -2.60    5.40
  -2  -1 -16    4.30    6.90
  -2  -1 -16   -4.50    7.90
   2  -1  16   15.90    8.20
  -2  -1 -16    9.60    6.20
  -2  -1 -16   -2.30    7.30
  -2  -1 -16   19.30    7.10
  -2   1 -16   23.20    6.90
   2   1  16   18.60    7.00
  -2   1 -16   16.10    7.30
   2   1  16    6.20    5.60
   2   1  16    8.10    6.50
   2   1  16   17.40    8.40
  -2   1 -16   15.00    6.30
   2  -2 -16   -4.80    5.10
  -2  -2  16   -1.90    3.80
   2  -2 -16    1.80    4.60
   2  -2 -16    5.20    5.40
  -2  -2  16   -3.60    3.70
   2  -2 -16   -0.40    4.70
   2  -2 -16    3.60    4.70
  -2  -2  16   -2.20    3.70
   2  -2 -16    6.90    4.90
   2   2 -16   -0.70    3.10
  -2   2  16   -0.60    3.90
   2   2 -16    5.40    3.40
  -2   2  16   -0.40    5.40
   2   2 -16    0.00    3.40
   2   2 -16   -0.80    3.70
   2   2 -16    4.10    3.30
  -2   2  16    0.30    5.10
   2   2 -16    2.00    4.20
  -2   2  16   -3.00    5.30
   1  -2 -16   23.10    5.00
   1  -2 -16   27.20    5.10
   1  -2 -16   27.60    5.30
   1  -2 -16   24.30    5.70
   1  -2 -16   24.00    5.00
   1  -2 -16   37.70    5.10
  -1  -2  16   16.80    4.10
   1   2 -16   26.30    4.00
   1   2 -16   35.80    5.20
  -1   2  16   27.10    5.50
   1   2 -16   32.50    4.20
  -1   2  16   33.90    5.90
  -1   2  16   26.80    5.90
   1   2 -16   30.50    4.60
  -1   2  16   26.50    3.50
   1   2 -16   31.40    4.40
   1   2 -16   27.00    4.30
   0  -2  16  234.28   14.10
   0  -2 -16  230.78   14.20
   0  -2 -16  219.58   14.10
   0  -2 -16  231.78   14.60
   0  -2  16  267.77   14.10
   0  -2 -16  221.98   14.30
   0  -2 -16  249.68   15.00
   0  -2 -16  238.38   14.60
   0   2  16  233.28   12.80
   0   2 -16  229.08   13.60
   0   2 -16  224.28   13.20
   0   2 -16  246.28   13.50
   0   2 -16  227.78   13.50
   0   2 -16  252.27   14.00
   0   2  16  243.38   13.10
   0   2  16  247.78   15.00
   0   2  16  211.78   14.70
   0   2 -16  240.58   13.70
   1  -2  16  191.38   13.20
  -1  -2 -16  209.98   14.00
  -1  -2 -16  187.18   13.70
  -1  -2 -16  214.08   13.90
   1  -2  16  191.78   10.40
  -1  -2 -16  194.28   14.00
   1  -2  16  199.18   13.80
  -1  -2 -16  189.58   13.70
   1  -2  16  196.08   13.50
  -1  -2 -16  201.28   14.40
  -1   2 -16  208.78   13.40
   1   2  16  197.98   14.70
  -1   2 -16  195.38   12.80
   1   2  16  202.78   14.70
   1   2  16  181.58   14.40
  -1   2 -16  192.78   13.10
  -1   2 -16  187.28   12.90
   1   2  16  197.38   12.20
   1   2  16  166.58   13.90
  -1   2 -16  194.78   13.50
   1   2  16  192.08   12.70
  -1   2 -16  196.88   12.90
   2  -3 -16   70.39    9.10
  -2  -3  16   72.79    6.90
   2  -3 -16   79.09    9.90
   2  -3 -16   73.49   10.40
   2  -3 -16   68.59    8.30
   2  -3 -16   62.99    9.70
   2  -3 -16   89.09    9.20
  -2   3  16   59.79    8.50
   2   3 -16   75.19    7.40
   2   3 -16   72.99    5.70
   2   3 -16   79.29    8.00
   2   3 -16   67.89    5.70
  -2   3  16   89.59   10.90
  -2   3  16   67.79   10.10
   1  -3 -16   34.30    6.00
   1  -3 -16   42.00    5.80
   1  -3 -16   43.60    6.50
   1  -3 -16   32.70    5.80
   1  -3 -16   36.60    5.60
   1  -3 -16   48.70    5.90
  -1  -3  16   37.90    4.60
  -1  -3  16   32.60    4.60
  -1   3  16   37.10    4.80
   1   3 -16   31.10    3.90
  -1   3  16   38.30    6.40
   1   3 -16   43.10    5.20
   1   3 -16   36.80    4.70
   1   3 -16   32.50    4.90
   1   3 -16   30.30    4.60
  -1   3  16   42.40    6.80
   1   3 -16   31.00    4.00
  -1   3  16   40.30    6.60
   0  -3 -16   -2.10    4.30
   0  -3  16    8.10    3.90
   0  -3 -16   -0.10    4.20
   0  -3  16   -2.70    3.90
   0  -3 -16    6.60    4.80
   0  -3 -16    0.40    4.00
   0  -3 -16    1.20    4.70
   0  -3 -16   -2.50    4.50
   0   3  16    3.00    5.40
   0   3  16    0.00    3.40
   0   3 -16   -1.50    3.60
   0   3 -16    1.60    3.20
   0   3  16    2.70    4.80
   0   3  16    5.10    5.30
   0   3 -16    3.90    3.70
   0   3  16    0.50    4.70
   0   3  16   -0.50    3.90
   0   3 -16    6.10    3.40
   0   3 -16   -1.50    3.60
   0   3 -16   -1.40    3.10
  -1  -3 -16  209.18   15.40
  -1  -3 -16  241.68   15.60
   1  -3  16  227.88   14.70
   1  -3  16  221.48   14.80
  -1  -3 -16  229.58   15.50
  -1  -3 -16  220.78   15.00
  -1  -3 -16  226.08   15.50
  -1  -3 -16  228.58   16.20
  -1   3 -16  234.48   14.20
   1   3  16  227.88   16.40
  -1   3 -16  254.87   14.90
  -1   3 -16  251.07   14.60
   1   3  16  227.98   16.30
   1   3  16  235.28   14.60
  -1   3 -16  217.28   14.10
   1   3  16  224.28   16.00
  -1   3 -16  239.78   14.90
   1   3  16  256.47   16.30
  -1   3 -16  240.48   14.70
   2  -4 -16  198.18   15.40
  -2  -4  16  201.88   10.80
   2  -4 -16  214.48   14.70
   2  -4 -16  211.28   14.10
   2  -4 -16  242.78   17.50
   2  -4 -16  218.78   15.50
   2   4 -16  205.08   12.20
   2   4 -16  218.58   12.60
  -2   4  16  195.78   15.20
  -2   4  16  201.58   15.30
  -2   4  16  219.28   12.40
   1  -4 -16   48.10    6.80
   1  -4 -16   45.50    6.80
   1  -4 -16   57.99    8.20
   1  -4 -16   45.00    6.70
   1  -4 -16   47.10    7.20
  -1  -4  16   42.50    5.60
  -1  -4  16   44.80    5.40
   1  -4 -16   43.90    6.40
   1   4 -16   45.30    4.40
   1   4 -16   50.29    4.10
  -1   4  16   58.19    8.10
   1   4 -16   49.99    4.00
  -1   4  16   47.00    7.40
  -1   4  16   42.60    5.50
   1   4 -16   38.10    4.60
   1   4 -16   53.59    6.10
  -1   4  16   36.60    6.80
   1   4 -16   46.40    4.80
   0  -4 -16   32.40    5.50
   0  -4 -16   33.60    6.10
   0  -4 -16   32.00    6.20
   0  -4 -16   23.50    5.50
   0  -4 -16   15.40    5.60
   0  -4 -16   40.90    6.60
   0   4  16   20.90    4.80
   0   4 -16   36.20    4.80
   0   4 -16   33.10    4.50
   0   4 -16   39.30    4.80
   0   4 -16   32.30    4.60
   0   4 -16   31.40    4.30
   0   4  16   35.40    5.60
   0   4  16   32.80    6.70
   0   4  16   26.60    5.90
   0   4  16   28.50    6.90
   0   4 -16   30.90    4.10
   0   4  16   31.70    6.80
  -1  -4 -16   53.49    7.70
  -1  -4 -16   83.69   10.80
  -1  -4 -16   72.49   10.50
  -1  -4 -16   81.19   11.50
   1  -4  16   60.89    9.10
   1  -4  16   61.29    8.70
   1  -4  16   66.19    9.10
  -1  -4 -16   74.09    9.10
  -1  -4 -16   68.89    9.60
  -1   4 -16   59.79    8.10
   1   4  16   60.69    9.00
   1   4  16   71.69   10.00
   1   4  16   74.29    9.50
  -1   4 -16   66.59    8.20
  -1   4 -16   72.09    8.60
   1   4  16   49.80    7.70
   1   4  16   61.79    9.00
  -1   4 -16   68.79    8.60
  -1   4 -16   73.39    8.00
  -1   4 -16   80.09    8.90
   2  -5 -16   31.50    6.90
   2  -5 -16   24.20    7.50
   2  -5 -16   24.20    7.60
   2  -5 -16   12.40    6.40
  -2   5  16   27.60    7.70
   2   5 -16   20.60    4.20
  -2   5  16   21.10    5.50
   2   5 -16   29.80    4.40
   1  -5 -16    6.40    4.90
  -1  -5  16   -0.80    2.50
  -1  -5  16    3.00    2.70
   1  -5 -16    3.50    5.30
   1  -5 -16   15.10    5.80
   1  -5 -16    2.10    5.70
   1  -5 -16    7.40    5.50
  -1  -5  16    6.50    2.50
   1  -5 -16   11.00    6.00
  -1   5  16    7.90    6.30
  -1   5  16   11.70    4.50
   1   5 -16    8.60    3.00
   1   5 -16    8.50    3.40
  -1   5  16   13.10    6.00
  -1   5  16    9.60    6.20
  -1   5  16   -1.20    4.70
  -1   5  16    8.00    4.60
   0  -5 -16   23.20    6.40
   0  -5 -16   36.30    7.00
   0  -5 -16   26.50    6.60
   0  -5 -16   15.20    5.20
   0  -5 -16   28.90    6.30
   0  -5 -16   31.80    6.30
   0   5 -16   35.60    4.80
   0   5  16   23.80    6.30
   0   5 -16   44.50    6.00
   0   5  16   22.30    6.40
   0   5  16   25.90    6.60
   0   5 -16   33.00    4.10
   0   5  16   28.90    5.80
   0   5 -16   36.20    4.20
   0   5 -16   29.00    4.40
   0   5  16   30.80    7.10
   0   5 -16   27.70    3.90
  -1  -5 -16  105.99   12.50
   1  -5  16  136.09   10.80
  -1  -5 -16  122.49   12.90
   1  -5  16  148.09   11.00
  -1  -5 -16  130.59   12.60
  -1  -5 -16  104.69   11.60
  -1  -5 -16  156.68   13.80
  -1   5 -16  143.09   10.90
   1   5  16  134.79   13.90
  -1   5 -16  142.09   10.40
   1   5  16  142.79   12.10
  -1   5 -16  130.79   10.80
  -1   5 -16  123.99    9.80
  -1   5 -16  120.89   10.80
   1   5  16  131.59   11.40
   1   5  16  128.59   13.80
   1   5  16  132.39   12.80
  -1   5 -16  125.59   10.20
   1  -6 -16   14.60    5.80
   1  -6 -16   16.00    6.40
   1  -6 -16   23.50    5.90
   1  -6 -16   14.10    6.20
   1  -6 -16   13.10    6.30
   1  -6 -16   27.60    7.10
   1   6 -16   18.10    3.50
  -1   6  16   16.40    6.50
  -1   6  16   14.40    5.30
  -1   6  16    5.10    6.00
  -1   6  16   17.10    6.90
   1   6 -16   16.60    3.80
  -1   6  16   14.70    6.60
   0  -6 -16   41.00    7.90
   0  -6 -16   41.10    7.30
   0  -6 -16   35.30    7.10
   0  -6 -16   27.90    6.00
   0  -6 -16   34.90    7.10
   0  -6 -16   32.40    7.30
   0   6 -16   44.10    4.90
   0   6 -16   36.90    3.80
   0   6 -16   44.60    5.60
   0   6  16   39.60    7.90
   0   6 -16   49.50    6.00
   0   6  16   42.70    8.10
   0   6  16   34.30    8.00
   0   6  16   42.70    6.80
   0   6 -16   42.40    5.20
   0   6  16   36.90    6.50
   0   6 -16   50.99    6.40
   0   6  16   38.50    8.10
   1  -6  16  114.89   10.40
  -1  -6 -16   82.39   12.10
  -1  -6 -16  119.99   12.10
   1  -6  16  122.29   10.10
  -1  -6 -16   73.09   13.50
  -1  -6 -16  129.49   12.80
  -1  -6 -16  116.79   13.30
   1   6  16  120.79   13.40
  -1   6 -16  109.49   10.20
   1   6  16  150.78   18.70
   1   6  16  112.19   11.50
   1   6  16  105.79   13.60
  -1   6 -16   99.09   10.10
  -1   6 -16  116.69    9.90
  -1   6 -16   94.79    9.90
  -1   6 -16   99.59    9.20
   1   6  16  117.29   12.20
   1   6  16  127.69   14.40
  -1   6 -16  109.29    9.30
   1  -7 -16    0.50    6.40
   1  -7 -16    1.20    6.40
   1  -7 -16   -1.40    8.60
   1  -7 -16    2.60    6.20
   1  -7 -16   -2.50    6.00
   1  -7 -16    4.10    6.90
  -1   7  16    1.70    6.60
  -1   7  16    9.30    7.40
   1   7 -16    3.40    3.00
  -1   7  16   -9.10    5.50
   1   7 -16    2.70    3.10
  -1   7  16   -2.80    6.40
  -1   7  16    4.00    5.50
   0  -7 -16   68.29    9.10
   0  -7 -16   49.90    8.10
   0  -7 -16   62.69    7.90
   0  -7 -16   52.39    8.50
   0  -7 -16   38.20    7.40
   0  -7 -16   83.99   12.00
   0   7  16   61.99    9.30
   0   7  16   47.60    9.50
   0   7 -16   57.39    6.60
   0   7  16   57.59    7.80
   0   7  16   45.40    8.10
   0   7  16   63.79    9.60
   0   7 -16   49.70    5.80
   0   7  16   59.19    7.80
   0   7 -16   62.69    5.40
   0   7 -16   48.70    5.00
   0  -8 -16   60.69    9.40
   0  -8 -16   69.59   10.50
   0  -8  16   64.29    6.00
   0  -8 -16   82.39   10.40
   0   8  16   87.39    9.50
   0   8  16   86.29   11.50
   0   8 -16   78.59    7.70
   0   8  16   74.59   11.10
   0   8  16   66.49    9.80
   0   8  16   93.09   13.20
   0   8 -16   71.39    7.40
  -2   0  17   -3.60    5.60
   1   0 -17    0.30    4.40
   1   0 -17   -3.00    4.10
   1   0 -17    5.60    4.20
   1   0 -17    4.50    4.50
   1   0 -17    5.50    4.20
  -1   0  17    2.20    5.10
  -1   0  17    5.90    4.80
   1   0 -17    1.90    4.30
  -1   0  17   -2.20    4.50
  -1   0  17    1.50    3.90
   0   0  17    4.80    5.00
   0   0 -17    0.90    4.70
   0   0  17    5.50    5.60
   0   0 -17    8.50    4.80
   0   0 -17    4.60    4.70
   0   0 -17   -2.80    4.80
   0   0 -17    3.60    4.80
   0   0 -17    2.10    3.90
   0   0  17   -1.70    1.70
   1   0  17   -3.00    5.10
  -1   0 -17    3.50    5.70
   1   0  17   -2.20    6.00
  -1   0 -17   -1.90    5.60
   1   0  17   -1.30    4.00
   1   0  17   -0.50    5.50
  -1   0 -17    5.30    5.10
  -1   0 -17   -5.60    4.40
   1   0  17    6.30    3.70
  -1   0 -17    1.40    5.60
   1   0  17    5.60    6.70
  -1   0 -17    9.60    5.70
   1  -1 -17   27.30    5.30
   1  -1 -17   26.50    5.20
   1  -1 -17   38.40    5.70
  -1  -1  17   23.80    5.20
  -1  -1  17   32.20    5.80
   1  -1 -17   26.50    5.70
   1  -1 -17   22.60    5.50
   1  -1 -17   21.10    5.50
   1   1 -17   31.00    5.00
  -1   1  17   28.10    5.70
  -1   1  17   26.00    6.20
   1   1 -17   34.40    5.30
   1   1 -17   18.60    4.10
   1   1 -17   28.50    4.90
   1   1 -17   31.80    5.00
  -1   1  17   26.70    6.40
   1   1 -17   35.90    5.20
   0  -1 -17  231.78   13.70
   0  -1  17  217.18   13.70
   0  -1 -17  192.98   13.40
   0  -1 -17  217.38   13.60
   0  -1 -17  203.58   13.80
   0  -1 -17  202.18   13.90
   0  -1  17  167.28   13.30
   0  -1 -17  220.58   14.10
   0   1 -17  236.48   13.20
   0   1  17  212.48   14.20
   0   1  17  194.88   14.10
   0   1  17  234.88   14.50
   0   1 -17  224.48   13.50
   0   1 -17  175.38   12.90
   0   1 -17  196.88   13.20
   0   1 -17  202.58   13.40
   0   1 -17  204.08   12.90
   1  -1  17    1.40    3.10
  -1  -1 -17    6.30    5.60
   1  -1  17    4.20    6.10
   1  -1  17   -1.20    5.30
  -1  -1 -17   -0.90    4.70
   1  -1  17    7.50    6.40
  -1  -1 -17    4.00    5.60
  -1  -1 -17    5.90    6.20
   1  -1  17    5.30    3.30
  -1  -1 -17    6.90    5.30
   1  -1  17    5.20    5.00
  -1  -1 -17    2.70    5.90
   1   1  17   -0.50    7.20
  -1   1 -17    1.00    5.50
   1   1  17   -0.10    4.20
   1   1  17    3.10    6.40
  -1   1 -17    2.60    4.80
  -1   1 -17   -0.10    5.50
  -1   1 -17    1.80    5.60
  -1   1 -17   -2.80    5.00
  -1   1 -17    5.50    4.60
   1   1  17    4.90    5.60
   1   1  17    7.10    6.30
   1  -2 -17  407.36   22.00
  -1  -2  17  401.16   21.00
   1  -2 -17  403.26   22.30
   1  -2 -17  395.96   21.80
   1  -2 -17  405.66   22.00
   1  -2 -17  397.06   21.60
  -1  -2  17  408.66   21.10
   1  -2 -17  396.46   21.70
   1   2 -17  387.96   20.90
  -1   2  17  444.16   22.90
  -1   2  17  463.45   22.40
   1   2 -17  393.56   20.50
   1   2 -17  436.46   21.00
   1   2 -17  420.06   20.40
  -1   2  17  387.76   22.20
   1   2 -17  399.86   20.40
   1   2 -17  357.76   20.10
   0  -2 -17    5.50    5.00
   0  -2 -17    9.90    5.40
   0  -2  17   -1.20    4.40
   0  -2  17    0.10    4.70
   0  -2 -17    1.80    4.60
   0  -2 -17    2.50    4.30
   0  -2 -17   -6.20    5.10
   0  -2  17   -1.90    4.20
   0  -2 -17    5.10    5.10
   0   2  17    0.30    3.80
   0   2 -17    3.10    4.10
   0   2  17    1.30    5.10
   0   2 -17    1.10    4.00
   0   2 -17   -7.20    3.90
   0   2 -17   -2.50    3.80
   0   2  17   -1.60    5.20
   0   2  17    4.90    6.00
   0   2 -17    0.80    4.40
   0   2 -17   -3.90    4.10
   0   2  17   -2.90    5.70
   0   2  17   -3.80    3.10
   1  -2  17   13.30    6.20
   1  -2  17   -1.60    2.60
   1  -2  17    2.90    2.40
  -1  -2 -17   14.80    5.70
  -1  -2 -17   10.10    6.30
  -1  -2 -17    5.30    6.00
  -1  -2 -17    0.80    5.90
  -1  -2 -17   10.10    6.20
   1  -2  17    1.10    6.90
   1  -2  17   -1.80    5.30
  -1  -2 -17    3.50    5.70
   1  -2  17   16.90    6.60
   1   2  17   -6.20    6.10
   1   2  17   14.90    7.50
   1   2  17   10.90    6.20
  -1   2 -17   21.40    5.90
  -1   2 -17    1.90    5.50
  -1   2 -17   -3.20    5.40
  -1   2 -17    5.10    4.90
   1   2  17    9.90    4.60
   1   2  17    5.70    6.40
   1   2  17   20.40    5.80
  -1   2 -17    6.00    5.70
  -1   2 -17   15.30    5.40
   1  -3 -17   67.59    8.00
   1  -3 -17   69.29    8.70
   1  -3 -17   53.99    6.80
   1  -3 -17   53.99    7.40
  -1  -3  17   59.19    6.90
   1  -3 -17   68.59    8.90
   1  -3 -17   48.70    7.10
  -1   3  17   65.79    6.80
   1   3 -17   57.29    6.70
  -1   3  17   46.10    8.10
   1   3 -17   67.39    6.10
   1   3 -17   52.39    6.00
  -1   3  17   77.89    9.90
   1   3 -17   50.99    6.00
   1   3 -17   63.69    6.10
   1   3 -17   66.09    6.40
  -1   3  17   51.19    7.20
   0  -3  17   21.70    5.00
   0  -3 -17   23.70    5.90
   0  -3 -17   22.90    5.90
   0  -3 -17   23.10    5.60
   0  -3 -17    7.50    5.70
   0  -3 -17   25.20    6.50
   0  -3 -17   14.60    5.90
   0   3 -17   13.20    4.70
   0   3 -17   15.70    4.40
   0   3 -17   26.10    4.70
   0   3  17    8.80    4.60
   0   3 -17   19.60    4.90
   0   3 -17   20.50    4.80
   0   3  17   17.60    6.40
   0   3 -17   16.40    3.90
   0   3  17   12.80    6.10
   0   3  17   24.80    6.70
  -1  -3 -17    8.40    6.50
  -1  -3 -17   10.60    6.50
  -1  -3 -17    2.60    6.40
  -1  -3 -17   -2.00    5.30
   1  -3  17   -5.30    6.10
  -1  -3 -17    4.50    6.50
   1  -3  17   12.20    6.00
  -1  -3 -17    5.10    5.70
   1   3  17   11.80    7.40
  -1   3 -17   14.50    5.80
  -1   3 -17   -1.20    4.90
  -1   3 -17    3.00    5.40
   1   3  17   -4.50    6.50
  -1   3 -17    3.00    7.60
  -1   3 -17    6.80    4.90
   1   3  17    1.70    5.50
   1  -4 -17  361.76   20.90
  -1  -4  17  361.46   18.40
   1  -4 -17  359.46   20.70
   1  -4 -17  369.16   20.60
   1  -4 -17  386.66   20.70
   1  -4 -17  361.56   21.30
   1  -4 -17  364.56   21.20
   1   4 -17  359.66   17.80
   1   4 -17  374.76   18.00
  -1   4  17  396.86   21.90
   1   4 -17  377.06   18.90
   1   4 -17  392.66   19.20
  -1   4  17  389.36   21.60
  -1   4  17  304.17   21.20
  -1   4  17  397.46   19.40
   1   4 -17  342.37   17.20
   0  -4 -17    5.50    5.90
   0  -4  17   -1.60    4.20
   0  -4 -17   -2.80    4.90
   0  -4 -17    7.50    5.40
   0  -4  17   -7.90    4.20
   0  -4  17    1.00    4.10
   0  -4 -17   10.20    6.10
   0  -4 -17   -1.40    5.80
   0  -4 -17    4.10    5.20
   0   4  17    5.60    6.00
   0   4  17    6.30    6.60
   0   4  17    3.00    4.50
   0   4  17   10.70    5.10
   0   4 -17    1.40    3.70
   0   4 -17   -2.10    3.30
   0   4 -17    0.00    4.20
   0   4 -17    6.30    4.10
   0   4  17    4.90    6.20
   0   4  17    5.80    6.50
   0   4 -17   -1.00    3.90
   0   4 -17   14.00    4.30
  -1  -4 -17   -0.90    5.60
   1  -4  17   -5.50    6.30
  -1  -4 -17    9.90    6.20
   1  -4  17   -6.70    5.60
  -1  -4 -17   -1.70    6.90
  -1  -4 -17   -2.70    7.50
  -1  -4 -17    3.30    7.10
   1   4  17    3.90    6.10
   1   4  17    5.50    7.60
  -1   4 -17    0.70    5.10
  -1   4 -17    2.20    5.70
  -1   4 -17    1.80    5.30
   1   4  17    0.70    5.20
   1   4  17    3.70    7.50
   1  -5 -17   27.00    9.10
  -1  -5  17   20.90    3.30
   1  -5 -17   10.10    5.80
   1  -5 -17   14.50    6.70
   1  -5 -17   20.40    6.20
   1  -5 -17   19.30    6.80
  -1   5  17   13.30    5.70
  -1   5  17    7.80    7.10
   1   5 -17   18.00    4.20
   1   5 -17   26.50    4.60
  -1   5  17   21.20   10.90
   0  -5  17  142.29   10.50
   0  -5 -17  138.89   13.30
   0  -5 -17  168.68   13.80
   0  -5 -17  163.08   13.70
   0  -5 -17  160.08   12.80
   0  -5 -17  150.68   13.30
   0  -5 -17  173.78   13.10
   0   5 -17  164.98   11.00
   0   5 -17  154.88    9.90
   0   5  17  164.78   12.50
   0   5 -17  159.68    9.90
   0   5  17  133.49   13.80
   0   5 -17  156.58   10.30
   0   5  17  128.49   14.10
   0   5 -17  151.48   10.00
   0   5  17  166.08   13.70
   0   5 -17  177.98   10.60
   0  -6 -17  289.77   18.70
   0  -6 -17  274.77   19.30
   0  -6  17  261.37   14.90
   0  -6 -17  268.57   18.20
   0  -6 -17  292.07   18.40
   0   6 -17  292.67   15.80
   0   6  17  255.77   19.10
   0   6  17  303.47   17.60
   0   6  17  276.67   17.00
   0   6 -17  273.37   14.00
   0   6 -17  287.17   14.50
   0   6  17  273.17   18.80
   0   6 -17  269.67   14.60
   0   6 -17  252.27   15.20
   1   0 -18    0.10    4.60
   1   0 -18    4.60    5.20
   1   0 -18    3.60    5.00
  -1   0  18    0.00    5.80
   0   0 -18  145.89   12.00
   0   0  18  188.58   13.70
   0   0 -18  154.38   12.30
   0   0 -18  193.28   12.90
   0   0 -18  129.89   11.60
   0   0  18  167.18   13.40
  -1  -1  18   21.80    6.10
   1  -1 -18   20.80    5.90
   1   1 -18   13.40    5.00
  -1   1  18   25.10    7.10
  -1   1  18    7.40    6.90
   1   1 -18   14.10    5.20
   0  -1 -18    4.10    5.80
   0  -1 -18    2.70    5.00
   0  -1 -18    0.20    5.70
   0  -1 -18    3.40    5.90
   0  -1  18   -0.70    5.60
   0   1 -18    7.80    5.30
   0   1 -18    1.70    4.90
   0   1 -18    3.50    5.30
   0   1 -18    6.20    4.90
   0   1  18   -0.40    6.10
   0   1  18   -5.70    6.70
   0   1  18   -1.60    2.80
   0  -2 -18   -4.50    5.70
   0  -2 -18   -0.20    6.10
   0  -2 -18   -3.20    5.80
   0  -2 -18    7.60    5.40
   0   2  18   -1.90    4.30
   0   2  18   -1.40    3.60
   0   2  18    2.00    7.00
   0   2 -18   -4.80    5.00
   0   2 -18    5.90    5.10
   0   2 -18    6.80    4.70
   0   2  18   -2.70    5.90
_computing_structure_solution     'SHELXT 2014/4 (Sheldrick, 2014)'
;
_shelx_hkl_checksum              50644
_shelx_res_file
;
TITL mo_UMD675_0m_a.res in P2(1)/c
CELL 0.71073 3.8639 13.9326 15.0186 90 93.313 90
ZERR 4 0.001 0.0035 0.0037 0 0.009 0
LATT 1
SYMM -X,0.5+Y,0.5-Z
SFAC C H Cl N O
UNIT 32 12 8 4 8
EQIV $1 2-X,1-Y,1-Z
EQIV $2 -1+X,1.5-Y,-0.5+Z
DFIX 0.86 0.005 N1 H1
L.S. 10
PLAN  20
SIZE 0.1 0.2 0.22
TEMP -153.12
HTAB C6 O2_$2
HTAB N1 O1_$1
BOND $H
CONF
HTAB 2
MORE -1
fmap 2
acta 136
REM <olex2.extras>
REM <HklSrc "%.\\mo_UMD675_0m_a.hkl">
REM </olex2.extras>
WGHT    0.021400    0.686400
FVAR       0.84451
CL1   3    0.189653    0.918412    0.438303    11.00000    0.02862    0.01967 =
         0.03042   -0.00055    0.00339    0.00536
CL2   3    0.467091    0.529900    0.246266    11.00000    0.02791    0.02919 =
         0.02409   -0.01124   -0.00165    0.00029
O1    5    0.983687    0.597178    0.581683    11.00000    0.02974    0.02597 =
         0.01951    0.00217   -0.00766    0.00558
O2    5    0.645562    0.786588    0.580852    11.00000    0.02951    0.02751 =
         0.01930   -0.00580   -0.00327    0.00174
N1    4    0.700944    0.587655    0.441572    11.00000    0.01944    0.01636 =
         0.01691    0.00105   -0.00147    0.00158
H1    2    0.778473    0.532716    0.426072    11.00000   -1.20000
C1    1    0.795128    0.629771    0.521031    11.00000    0.01765    0.02133 =
         0.01727    0.00194    0.00038   -0.00165
C2    1    0.621141    0.731029    0.519551    11.00000    0.01551    0.02066 =
         0.01600    0.00111    0.00006   -0.00172
C3    1    0.444701    0.738057    0.430087    11.00000    0.01328    0.01881 =
         0.01454    0.00102    0.00150   -0.00325
C4    1    0.262548    0.811212    0.385187    11.00000    0.01442    0.01782 =
         0.02156    0.00189    0.00377   -0.00014
C5    1    0.141607    0.797479    0.297103    11.00000    0.01502    0.02642 =
         0.02010    0.00772   -0.00083    0.00130
AFIX  43
H5    2    0.019028    0.847346    0.265786    11.00000   -1.20000
AFIX   0
C6    1    0.200304    0.710775    0.255011    11.00000    0.01531    0.03383 =
         0.01329    0.00338   -0.00151   -0.00297
AFIX  43
H6    2    0.114797    0.701736    0.195016    11.00000   -1.20000
AFIX   0
C7    1    0.382591    0.636584    0.299141    11.00000    0.01467    0.02160 =
         0.01666   -0.00250    0.00148   -0.00316
C8    1    0.504364    0.651162    0.386262    11.00000    0.01176    0.01812 =
         0.01572    0.00207    0.00077   -0.00269
HKLF 4
REM  mo_UMD675_0m_a.res in P2(1)/c
REM R1 =  0.0251 for    1415 Fo > 4sig(Fo)  and  0.0278 for all    1531 data
REM    121 parameters refined using      1 restraints
END
WGHT      0.0214      0.6864
REM Instructions for potential hydrogen bonds
HTAB N1 O1_$1
HTAB C6 O2_$2
REM Highest difference peak  0.303,  deepest hole -0.239,  1-sigma level  0.053
Q1    1   0.7093  0.6805  0.5248  11.00000  0.05    0.30
Q2    1   0.5029  0.6998  0.4007  11.00000  0.05    0.27
Q3    1   0.4458  0.6411  0.3455  11.00000  0.05    0.27
Q4    1   0.2654  0.8961  0.4951  11.00000  0.05    0.24
Q5    1   0.5175  0.7387  0.4725  11.00000  0.05    0.24
Q6    1   0.6109  0.6203  0.4069  11.00000  0.05    0.24
Q7    1   0.3620  0.6808  0.2722  11.00000  0.05    0.21
Q8    1   0.3209  0.7673  0.4195  11.00000  0.05    0.21
Q9    1   0.1681  0.7951  0.3453  11.00000  0.05    0.20
Q10   1   0.1133  0.7437  0.2877  11.00000  0.05    0.18
Q11   1   0.2432  0.7612  0.2772  11.00000  0.05    0.17
Q12   1   0.2511  0.6647  0.2884  11.00000  0.05    0.16
Q13   1   0.8066  0.6168  0.4730  11.00000  0.05    0.15
Q14   1   0.1705  0.7096  0.2299  11.00000  0.05    0.14
Q15   1   0.9459  0.6191  0.5489  11.00000  0.05    0.13
Q16   1   0.2174  0.8610  0.4067  11.00000  0.05    0.13
Q17   1   0.9454  0.4997  0.2922  11.00000  0.05    0.13
Q18   1   0.6988  0.5999  0.4821  11.00000  0.05    0.13
Q19   1   0.4339  0.6009  0.2810  11.00000  0.05    0.13
Q20   1   0.1730  0.8194  0.5475  11.00000  0.05    0.12
;
_shelx_res_checksum              32072
_shelxl_version_number           2014/6
loop_
_space_group_symop_operation_xyz
'x, y, z'
'-x, y+1/2, -z+1/2'
'-x, -y, -z'
'x, -y-1/2, z-1/2'
loop_
_atom_site_type_symbol
_atom_site_label
_atom_site_fract_x
_atom_site_fract_y
_atom_site_fract_z
_atom_site_U_iso_or_equiv
_atom_site_adp_type
_atom_site_calc_flag
_atom_site_occupancy
Cl Cl1 0.18965(11) 0.91841(3) 0.43830(3) 0.02617(13) Uani d 1
Cl Cl2 0.46709(11) 0.52990(3) 0.24627(3) 0.02719(13) Uani d 1
O O1 0.9837(3) 0.59718(9) 0.58168(8) 0.0254(3) Uani d 1
O O2 0.6456(3) 0.78659(9) 0.58085(8) 0.0256(3) Uani d 1
N N1 0.7009(3) 0.58766(10) 0.44157(9) 0.0177(3) Uani d 1
H H1 0.778(5) 0.5327(7) 0.4261(12) 0.021 Uiso d 1
C C1 0.7951(4) 0.62977(12) 0.52103(10) 0.0188(3) Uani d 1
C C2 0.6211(4) 0.73103(11) 0.51955(10) 0.0174(3) Uani d 1
C C3 0.4447(4) 0.73806(11) 0.43009(10) 0.0155(3) Uani d 1
C C4 0.2625(4) 0.81121(11) 0.38519(11) 0.0178(3) Uani d 1
C C5 0.1416(4) 0.79748(12) 0.29710(11) 0.0206(3) Uani d 1
H H5 0.0190 0.8473 0.2658 0.025 Uiso calc 1
C C6 0.2003(4) 0.71077(13) 0.25501(10) 0.0209(3) Uani d 1
H H6 0.1148 0.7017 0.1950 0.025 Uiso calc 1
C C7 0.3826(4) 0.63658(11) 0.29914(10) 0.0176(3) Uani d 1
C C8 0.5044(4) 0.65116(11) 0.38626(10) 0.0152(3) Uani d 1
loop_
_atom_site_aniso_label
_atom_site_aniso_U_11
_atom_site_aniso_U_22
_atom_site_aniso_U_33
_atom_site_aniso_U_12
_atom_site_aniso_U_13
_atom_site_aniso_U_23
Cl1 0.0286(2) 0.0197(2) 0.0304(2) 0.00536(16) 0.00339(17) -0.00055(16)
Cl2 0.0279(2) 0.0292(2) 0.0241(2) 0.00029(17) -0.00165(16) -0.01124(17)
O1 0.0297(6) 0.0260(6) 0.0195(6) 0.0056(5) -0.0077(5) 0.0022(5)
O2 0.0295(7) 0.0275(6) 0.0193(6) 0.0017(5) -0.0033(5) -0.0058(5)
N1 0.0194(7) 0.0164(7) 0.0169(6) 0.0016(5) -0.0015(5) 0.0011(5)
C1 0.0176(8) 0.0213(8) 0.0173(8) -0.0017(6) 0.0004(6) 0.0019(6)
C2 0.0155(7) 0.0207(8) 0.0160(8) -0.0017(6) 0.0001(6) 0.0011(6)
C3 0.0133(7) 0.0188(8) 0.0145(7) -0.0032(6) 0.0015(6) 0.0010(6)
C4 0.0144(7) 0.0178(8) 0.0216(8) -0.0001(6) 0.0038(6) 0.0019(6)
C5 0.0150(7) 0.0264(9) 0.0201(8) 0.0013(6) -0.0008(6) 0.0077(7)
C6 0.0153(7) 0.0338(9) 0.0133(7) -0.0030(7) -0.0015(6) 0.0034(7)
C7 0.0147(7) 0.0216(8) 0.0167(8) -0.0032(6) 0.0015(6) -0.0025(6)
C8 0.0118(7) 0.0181(8) 0.0157(7) -0.0027(6) 0.0008(6) 0.0021(6)
loop_
_atom_type_symbol
_atom_type_description
_atom_type_scat_dispersion_real
_atom_type_scat_dispersion_imag
_atom_type_scat_source
C C 0.0033 0.0016 'International Tables Vol C Tables 4.2.6.8 and 6.1.1.4'
H H 0.0000 0.0000 'International Tables Vol C Tables 4.2.6.8 and 6.1.1.4'
Cl Cl 0.1484 0.1585 'International Tables Vol C Tables 4.2.6.8 and 6.1.1.4'
N N 0.0061 0.0033 'International Tables Vol C Tables 4.2.6.8 and 6.1.1.4'
O O 0.0106 0.0060 'International Tables Vol C Tables 4.2.6.8 and 6.1.1.4'
loop_
_geom_angle_atom_site_label_1
_geom_angle_atom_site_label_2
_geom_angle_atom_site_label_3
_geom_angle
C1 N1 H1 122.8(13)
C1 N1 C8 110.78(13)
C8 N1 H1 125.8(13)
O1 C1 N1 127.74(15)
O1 C1 C2 125.75(14)
N1 C1 C2 106.50(13)
O2 C2 C1 123.77(14)
O2 C2 C3 131.82(15)
C3 C2 C1 104.41(13)
C4 C3 C2 133.23(15)
C4 C3 C8 119.81(14)
C8 C3 C2 106.87(13)
C3 C4 Cl1 120.14(12)
C5 C4 Cl1 120.30(12)
C5 C4 C3 119.56(15)
C4 C5 H5 120.1
C6 C5 C4 119.88(15)
C6 C5 H5 120.1
C5 C6 H6 119.4
C5 C6 C7 121.28(15)
C7 C6 H6 119.4
C6 C7 Cl2 121.53(12)
C8 C7 Cl2 120.01(13)
C8 C7 C6 118.44(15)
C3 C8 N1 111.32(13)
C7 C8 N1 127.64(14)
C7 C8 C3 121.03(14)
loop_
_geom_bond_atom_site_label_1
_geom_bond_atom_site_label_2
_geom_bond_distance
Cl1 C4 1.7241(17)
Cl2 C7 1.7253(16)
O1 C1 1.2207(19)
O2 C2 1.2024(19)
N1 H1 0.859(5)
N1 C1 1.360(2)
N1 C8 1.406(2)
C1 C2 1.562(2)
C2 C3 1.474(2)
C3 C4 1.391(2)
C3 C8 1.403(2)
C4 C5 1.391(2)
C5 H5 0.9500
C5 C6 1.388(2)
C6 H6 0.9500
C6 C7 1.396(2)
C7 C8 1.380(2)
loop_
_geom_hbond_atom_site_label_D
_geom_hbond_atom_site_label_H
_geom_hbond_atom_site_label_A
_geom_hbond_site_symmetry_A
_geom_hbond_distance_DH
_geom_hbond_distance_HA
_geom_hbond_distance_DA
_geom_hbond_angle_DHA
N1 H1 O1 3_766 0.859(5) 2.036(7) 2.8788(19) 166.7(18)
C6 H6 O2 4_475 0.95 2.43 3.285(2) 149.9
loop_
_geom_torsion_atom_site_label_1
_geom_torsion_atom_site_label_2
_geom_torsion_atom_site_label_3
_geom_torsion_atom_site_label_4
_geom_torsion
Cl1 C4 C5 C6 -179.73(12)
Cl2 C7 C8 N1 0.3(2)
Cl2 C7 C8 C3 178.74(11)
O1 C1 C2 O2 -3.1(3)
O1 C1 C2 C3 175.86(15)
O2 C2 C3 C4 3.3(3)
O2 C2 C3 C8 179.75(17)
N1 C1 C2 O2 178.29(15)
N1 C1 C2 C3 -2.77(16)
C1 N1 C8 C3 -3.17(17)
C1 N1 C8 C7 175.44(15)
C1 C2 C3 C4 -175.52(16)
C1 C2 C3 C8 0.94(16)
C2 C3 C4 Cl1 -3.6(2)
C2 C3 C4 C5 176.01(15)
C2 C3 C8 N1 1.18(17)
C2 C3 C8 C7 -177.54(14)
C3 C4 C5 C6 0.6(2)
C4 C3 C8 N1 178.20(13)
C4 C3 C8 C7 -0.5(2)
C4 C5 C6 C7 -0.6(2)
C5 C6 C7 Cl2 -178.14(12)
C5 C6 C7 C8 0.0(2)
C6 C7 C8 N1 -177.96(14)
C6 C7 C8 C3 0.5(2)
C8 N1 C1 O1 -175.00(16)
C8 N1 C1 C2 3.59(16)
C8 C3 C4 Cl1 -179.71(11)
C8 C3 C4 C5 -0.1(2)

_cod_database_fobs_code 1544195
