#------------------------------------------------------------------------------
#$Date: 2016-11-16 04:34:20 +0200 (Wed, 16 Nov 2016) $
#$Revision: 188501 $
#$URL: file:///home/coder/svn-repositories/cod/cif/1/54/45/1544581.cif $
#------------------------------------------------------------------------------
#
# This file is available in the Crystallography Open Database (COD),
# http://www.crystallography.net/. The original data for this entry
# were provided by IUCr Journals, http://journals.iucr.org/.
#
# The file may be used within the scientific community so long as
# proper attribution is given to the journal article from which the
# data were obtained.
#
data_1544581
loop_
_publ_author_name
'Eltayeb, Naser Eltaher'
_publ_section_title
;
 Methyl 5-(4-hydroxyphenyl)-6-oxo-1,6-dihydropyrazine-2-carboxylate
 monohydrate
;
_journal_coeditor_code           HB4089
_journal_issue                   11
_journal_name_full               IUCrData
_journal_page_first              x161741
_journal_paper_doi               10.1107/S2414314616017417
_journal_volume                  1
_journal_year                    2016
_chemical_formula_iupac          'C12 H10 N2 O4, H2 O'
_chemical_formula_moiety         'C12 H10 N2 O4, H2 O'
_chemical_formula_sum            'C12 H12 N2 O5'
_chemical_formula_weight         264.24
_chemical_name_systematic
;
Methyl 5-(4-hydroxyphenyl)-6-oxo-1,6-dihydropyrazine-2-carboxylate monohydrate
;
_space_group_crystal_system      triclinic
_space_group_IT_number           2
_space_group_name_Hall           '-P 1'
_space_group_name_H-M_alt        'P -1'
_symmetry_space_group_name_Hall  '-P 1'
_symmetry_space_group_name_H-M   'P -1'
_atom_sites_solution_hydrogens   mixed
_atom_sites_solution_primary     direct
_audit_creation_method           SHELXL-2014/7
_cell_angle_alpha                70.748(4)
_cell_angle_beta                 88.425(5)
_cell_angle_gamma                83.284(5)
_cell_formula_units_Z            2
_cell_length_a                   3.7072(3)
_cell_length_b                   11.4251(9)
_cell_length_c                   14.3713(13)
_cell_measurement_reflns_used    3588
_cell_measurement_temperature    100(2)
_cell_measurement_theta_max      25.31
_cell_measurement_theta_min      2.78
_cell_volume                     570.68(8)
_computing_cell_refinement
;
SAINT (Bruker, 2016)
;
_computing_data_collection
;
APEX3 (Bruker, 2016)
;
_computing_data_reduction
;
SAINT (Bruker, 2016)
;
_computing_molecular_graphics
;
SHELXL2014 (Sheldrick, 2015b)
;
_computing_publication_material
;
APEX3 (Bruker, 2016) and PLATON (Spek, 2015)
;
_computing_structure_refinement
;
SHELXL2014 (Sheldrick, 2015b)
;
_computing_structure_solution
;
SHELXT2014 (Sheldrick, 2015a)
;
_diffrn_ambient_temperature      100(2)
_diffrn_measured_fraction_theta_full 0.997
_diffrn_measured_fraction_theta_max 0.997
_diffrn_measurement_device_type  'Bruker D8 Quest CCD'
_diffrn_measurement_method       '\f and \w scans'
_diffrn_radiation_type           MoK\a
_diffrn_radiation_wavelength     0.71073
_diffrn_reflns_av_R_equivalents  0.0794
_diffrn_reflns_limit_h_max       4
_diffrn_reflns_limit_h_min       -4
_diffrn_reflns_limit_k_max       13
_diffrn_reflns_limit_k_min       -13
_diffrn_reflns_limit_l_max       16
_diffrn_reflns_limit_l_min       -17
_diffrn_reflns_number            10223
_diffrn_reflns_theta_full        25.242
_diffrn_reflns_theta_max         25.348
_diffrn_reflns_theta_min         2.783
_diffrn_standards_decay_%        0
_diffrn_standards_interval_count 0
_diffrn_standards_interval_time  0
_diffrn_standards_number         0
_exptl_absorpt_coefficient_mu    0.122
_exptl_absorpt_correction_T_max  0.7452
_exptl_absorpt_correction_T_min  0.6888
_exptl_absorpt_correction_type   multi-scan
_exptl_absorpt_process_details
;
(SADABS; Bruker, 2016)
;
_exptl_crystal_colour            Gold
_exptl_crystal_density_diffrn    1.538
_exptl_crystal_description       Block
_exptl_crystal_F_000             276
_exptl_crystal_size_max          0.156
_exptl_crystal_size_mid          0.119
_exptl_crystal_size_min          0.071
_refine_diff_density_max         0.272
_refine_diff_density_min         -0.341
_refine_ls_extinction_method     none
_refine_ls_goodness_of_fit_ref   1.016
_refine_ls_hydrogen_treatment    mixed
_refine_ls_matrix_type           full
_refine_ls_number_parameters     189
_refine_ls_number_reflns         2091
_refine_ls_number_restraints     0
_refine_ls_restrained_S_all      1.016
_refine_ls_R_factor_all          0.0740
_refine_ls_R_factor_gt           0.0486
_refine_ls_shift/su_max          0.000
_refine_ls_shift/su_mean         0.000
_refine_ls_structure_factor_coef Fsqd
_refine_ls_weighting_details
'w=1/[\s^2^(Fo^2^)+(0.0581P)^2^+0.2621P] where P=(Fo^2^+2Fc^2^)/3'
_refine_ls_weighting_scheme      calc
_refine_ls_wR_factor_gt          0.1075
_refine_ls_wR_factor_ref         0.1192
_reflns_number_gt                1556
_reflns_number_total             2091
_reflns_threshold_expression     'I > 2\s(I)'
_cod_data_source_file            hb4089sup1.cif
_cod_data_source_block           I
_cod_database_code               1544581
_shelx_space_group_comment
;
The symmetry employed for this shelxl refinement is uniquely defined
by the following loop, which should always be used as a source of
symmetry information in preference to the above space-group names.
They are only intended as comments.
;
_shelx_hkl_file
;
  -1   0   0  817.62   39.30
  -1   0   0  813.02   40.50
   1   0   0  838.32   39.30
   1   0   0  771.42   39.80
   1   0   0  815.72   40.90
   1   0   0  766.42   40.70
  -2   0   0   78.99    9.60
  -2   0   0   76.09    6.70
   2   0   0   81.99    7.80
   2   0   0   99.89   12.60
   2   0   0   72.49   11.50
   2   0   0   81.19    6.30
  -3   0   0   21.30    8.30
  -3   0   0   32.00    6.10
   3   0   0   21.70    5.30
   3   0   0   33.20   14.30
   3   0   0   27.30    5.10
   3   0   0   22.80    5.20
  -4   0   0   22.70    8.80
  -4   0   0   -1.10    7.80
   4   0   0   11.30    4.80
   4   0   0    6.00    6.30
   4   0   0   -5.30   16.80
   4   0   0   24.00   15.90
   4  -1   0   -4.30   18.20
   4  -1   0    3.80    6.50
   4  -1   0   -2.30    6.10
   4  -1   0   15.40   16.30
   4  -1   0   13.50    4.80
  -4   1   0    2.10    7.70
   3  -1   0  202.78   14.80
   3  -1   0  194.08   22.50
   3  -1   0  256.07   23.00
   3  -1   0  218.48   14.30
  -3   1   0  222.88   15.30
  -3   1   0  211.48   17.20
   2  -1   0  129.59   13.80
  -2   1   0  125.79   11.10
  -2   1   0  145.29    9.40
   1  -1   0 5367.16  238.18
   1  -1   0 4817.22  238.58
  -1   1   0 4844.42  238.08
  -1   1   0 4905.81  238.38
  -1   1   0 4973.30  237.28
  -1  -1   0 2101.09  103.59
  -1  -1   0 2103.39  102.29
   1   1   0 2050.09  102.19
   1   1   0 2171.78  103.59
   1   1   0 2246.88  102.29
   1   1   0 2141.59  103.79
  -2  -1   0  255.67   15.70
  -2  -1   0  283.97   18.70
   2   1   0  285.07   16.00
   2   1   0  271.37   19.60
   2   1   0  301.27   19.70
   2   1   0  290.77   15.70
  -3  -1   0   17.40    5.20
  -3  -1   0   13.10    8.30
   3   1   0   17.20    4.80
   3   1   0   20.40    4.60
   3   1   0   40.30   12.70
   3   1   0   16.10    5.10
   3   1   0   15.40   13.30
  -4  -1   0   26.80    9.80
  -4  -1   0    2.20    7.50
   4   1   0    1.00    5.90
   4   1   0   -6.50    5.70
   4   1   0  -12.80   15.30
   4   1   0   18.20   14.40
   4   1   0   11.60    4.80
   4  -2   0    1.80    5.30
   4  -2   0    1.50    6.70
   4  -2   0    0.60   16.80
   4  -2   0  -11.60   16.90
  -4   2   0    2.90    8.80
   3  -2   0   41.50   14.60
   3  -2   0   65.39   16.50
  -3   2   0   33.60    8.90
  -3   2   0   26.20    6.30
   2  -2   0  101.79    7.50
   2  -2   0   98.89    8.50
   2  -2   0   89.49   12.10
   2  -2   0  110.79   12.40
  -2   2   0   81.69    9.40
  -2   2   0  104.69    7.90
  -2   2   0   95.49   10.70
   1  -2   0  234.48   13.50
   1  -2   0  232.68   14.40
   1  -2   0  214.08   12.30
  -1   2   0  230.78   14.00
  -1   2   0  233.68   12.50
  -1   2   0  246.78   14.00
   0   2   0 3974.90  184.28
   0   2   0 3745.63  184.18
  -1  -2   0 2289.67  108.19
  -1  -2   0 2192.88  108.49
  -1  -2   0 2372.36  109.99
   1   2   0 2032.40  107.99
   1   2   0 2352.16  109.69
   1   2   0 2326.57  108.49
  -2  -2   0 1468.15   73.99
  -2  -2   0 1471.25   71.69
   2   2   0 1483.15   74.29
   2   2   0 1428.46   71.29
   2   2   0 1459.95   71.39
  -3  -2   0   41.90    6.80
  -3  -2   0   36.40   10.20
   3   2   0   31.00    5.40
   3   2   0   22.90    5.80
   3   2   0   39.00   12.90
   3   2   0   32.10    5.30
  -4  -2   0   22.40    9.80
  -4  -2   0    2.60    7.40
   4   2   0   16.70   13.50
   4   2   0    7.60    6.10
   4   2   0    5.90    4.50
   4  -3   0   -6.90   18.70
   4  -3   0   21.20    7.70
   4  -3   0   22.10   18.30
   4  -3   0   16.20    6.40
  -4   3   0    2.10    8.20
   3  -3   0   25.30    5.30
   3  -3   0   37.60   15.00
   3  -3   0   27.40    5.40
   3  -3   0   -3.10   12.80
  -3   3   0   19.20    6.00
   2  -3   0   89.09   11.40
   2  -3   0   93.89    8.90
   2  -3   0   88.09   12.60
   2  -3   0   95.39    7.40
  -2   3   0   82.99    7.80
  -2   3   0   96.69   10.10
  -2   3   0  104.69   12.00
   1  -3   0   -1.00    1.30
   1  -3   0   -1.10    2.10
   1  -3   0   -5.40    3.20
  -1   3   0   -0.10    1.60
  -1   3   0   -1.70    2.70
   0  -3   0   25.70    2.00
   0  -3   0   24.10    4.20
   0  -3   0   23.00    3.80
   0   3   0   35.30    5.50
   0   3   0   18.20    3.30
   0   3   0   23.00    2.00
   0   3   0   25.40    3.80
  -1  -3   0  579.64   28.40
  -1  -3   0  546.75   29.00
  -1  -3   0  567.54   29.30
   1   3   0  594.44   29.10
   1   3   0  569.44   28.10
   1   3   0  572.74   30.30
  -2  -3   0  676.63   38.20
  -2  -3   0  734.03   35.30
   2   3   0  717.63   34.90
   2   3   0  654.03   37.80
   2   3   0  669.63   35.00
  -3  -3   0  154.28   11.80
  -3  -3   0  120.99   15.40
   3   3   0  132.19   10.30
   3   3   0  134.19   11.00
   3   3   0  173.98   17.70
  -4  -3   0   73.59   11.10
   4   3   0   63.09   10.20
   4   3   0   62.89    8.80
   4   3   0   74.59   17.10
   4   3   0   44.50    7.00
   4  -4   0    1.90    8.10
   4  -4   0    8.10   22.70
   4  -4   0  -10.70   16.90
   4  -4   0   10.90    8.60
  -4   4   0    1.90    9.60
   3  -4   0    4.00    4.40
   3  -4   0    8.30   14.10
   3  -4   0    1.60    4.50
   3  -4   0    7.00   12.80
  -3   4   0    4.80    7.60
  -3   4   0    2.20    5.20
   2  -4   0   39.30    5.30
   2  -4   0   39.60    9.10
  -2   4   0   28.90    5.00
  -2   4   0   32.70    7.90
  -2   4   0   33.50    8.20
   1  -4   0   -2.20    4.10
   1  -4   0   -0.90    2.40
   1  -4   0    3.50    1.80
  -1   4   0   -2.20    3.50
  -1   4   0    8.50    2.40
  -1   4   0    4.30    3.60
   0  -4   0  199.68   10.60
   0  -4   0  214.28   12.80
   0  -4   0  205.48   12.60
   0   4   0  210.98   13.00
   0   4   0  214.88   13.50
   0   4   0  199.28   10.60
   0   4   0  216.98   12.70
  -1  -4   0   39.20    3.80
  -1  -4   0   39.70    4.60
  -1  -4   0   44.80    5.60
   1   4   0   42.20    7.00
   1   4   0   35.40    4.90
   1   4   0   44.30    3.30
  -2  -4   0   83.19    6.90
  -2  -4   0   66.59   11.80
  -2  -4   0   79.19    7.90
   2   4   0   66.79    7.10
   2   4   0   72.39    5.70
   2   4   0   85.89   11.50
  -3  -4   0   91.49    9.90
  -3  -4   0  103.69   15.80
   3   4   0  106.79    9.00
   3   4   0  106.69   15.50
   3   4   0   95.29    9.50
  -4  -4   0    4.00    8.10
   4   4   0   -6.90    5.40
   4   4   0   13.60   13.70
   4   4   0   -8.50    6.30
   4   4   0   -2.20    4.50
   3  -5   0    8.30   13.00
   3  -5   0   13.10   13.40
   3  -5   0   18.40    6.00
   3  -5   0    5.70    5.10
  -3   5   0    2.40    9.10
  -3   5   0   39.40   11.40
  -3   5   0   21.20    6.80
   2  -5   0   41.70    7.00
   2  -5   0   53.69    6.10
   2  -5   0   53.39   11.60
  -2   5   0   62.09   10.80
  -2   5   0   51.09    9.40
  -2   5   0   55.69    6.80
   1  -5   0   11.80    3.90
   1  -5   0   15.90    2.80
   1  -5   0   16.10    5.90
  -1   5   0   17.60    3.10
  -1   5   0   10.00    5.00
  -1   5   0   16.10    4.80
   0  -5   0  311.37   18.70
   0  -5   0  329.27   16.10
   0  -5   0  308.97   18.70
   0   5   0  310.87   16.20
   0   5   0  342.57   18.90
   0   5   0  337.47   19.20
   0   5   0  318.17   19.50
  -1  -5   0  135.09    9.80
  -1  -5   0  117.29    8.80
   1   5   0  115.79    6.90
   1   5   0  127.69    9.40
   1   5   0  117.99   10.80
  -2  -5   0    4.50    3.80
  -2  -5   0    9.90    8.60
  -2  -5   0    5.10    4.10
  -2  -5   0    5.00    2.90
   2   5   0    0.90    1.90
   2   5   0    3.60    3.30
   2   5   0   -1.50    8.00
  -3  -5   0   -1.30   10.60
  -3  -5   0    0.90    4.70
   3   5   0   -1.70    3.50
   3   5   0    2.70    3.30
   3   5   0   11.70   10.90
  -4  -5   0   15.70    9.00
   4   5   0   17.60    7.10
   4   5   0   23.10   14.80
   4   5   0    9.40    5.20
   3  -6   0  155.58   16.60
   3  -6   0  147.89   12.80
   3  -6   0  143.79   22.50
   3  -6   0  141.19   20.20
  -3   6   0  142.49   13.80
  -3   6   0  104.69   17.20
   2  -6   0   78.19    7.50
   2  -6   0   78.79   14.20
   2  -6   0   71.89   10.50
  -2   6   0   69.19   11.60
  -2   6   0   74.19    8.10
  -2   6   0   69.09   11.20
   1  -6   0  301.67   16.70
   1  -6   0  329.87   20.00
   1  -6   0  306.77   20.40
  -1   6   0  295.67   20.50
  -1   6   0  308.57   20.20
  -1   6   0  324.17   21.10
  -1   6   0  300.17   16.90
   0  -6   0   64.19    7.60
   0  -6   0   57.59    7.30
   0   6   0   58.79    7.90
   0   6   0   55.79    4.10
   0   6   0   64.19    9.10
   0   6   0   52.39    6.70
  -1  -6   0   61.79    7.40
  -1  -6   0   52.19    6.60
   1   6   0   61.79    7.70
   1   6   0   57.09    6.40
   1   6   0   51.09    9.00
   1   6   0   53.59    4.00
  -2  -6   0   86.59    8.80
  -2  -6   0   93.39    8.00
  -2  -6   0  110.19   11.00
   2   6   0   81.09   13.00
   2   6   0   87.79    6.60
   2   6   0   96.29    9.40
  -3  -6   0    4.20   10.70
  -3  -6   0   12.60    5.50
  -3  -6   0   10.90    6.90
  -3  -6   0    5.40    5.10
   3   6   0    6.10    4.50
   3   6   0   15.20   10.80
   3   6   0   13.60    4.10
  -4  -6   0   -4.00   14.40
  -4  -6   0   -4.90    9.90
   4   6   0    3.40    5.40
   4   6   0   12.60   23.10
   4   6   0    9.00    6.90
   3  -7   0   45.70   14.90
   3  -7   0   30.20    8.60
   3  -7   0   37.10    7.60
   3  -7   0   47.60   17.00
  -3   7   0   31.20    8.70
  -3   7   0   68.79   14.90
  -3   7   0    1.30   12.20
   2  -7   0  101.79   14.90
   2  -7   0   87.99    8.70
   2  -7   0  102.19   12.40
  -2   7   0   89.39    9.70
  -2   7   0   79.99   13.30
  -2   7   0   97.69   15.60
   1  -7   0  231.08   16.70
   1  -7   0  217.28   17.40
   1  -7   0  228.58   12.90
  -1   7   0  198.78   13.00
  -1   7   0  239.68   18.30
  -1   7   0  228.88   17.10
  -1   7   0  214.78   17.30
   0  -7   0   39.20    7.50
   0  -7   0   48.60    7.90
   0   7   0   29.30    6.30
   0   7   0   45.00    3.80
   0   7   0   41.50   10.10
   0   7   0   41.40    7.40
  -1  -7   0   62.89    7.90
  -1  -7   0   68.29    9.00
   1   7   0   65.99    4.40
   1   7   0   64.39    7.80
   1   7   0   72.59    4.70
   1   7   0   65.19    8.50
   1   7   0   63.39   11.30
  -2  -7   0   79.39    8.80
  -2  -7   0   79.99   11.30
   2   7   0   77.09    9.90
   2   7   0   66.99   12.90
   2   7   0   61.09    5.60
  -3  -7   0  125.49   14.00
  -3  -7   0  129.19   13.60
  -3  -7   0  118.09   17.90
  -3  -7   0  127.09   13.10
   3   7   0  132.29   12.60
   3   7   0  129.79   17.60
   3   7   0  144.59   10.40
  -4  -7   0   30.40   11.60
  -4  -7   0   19.10   15.30
  -4  -7   0   49.90   11.20
   4   7   0   34.60    7.40
   4   7   0   41.40   17.00
   4   7   0   28.80    8.10
   3  -8   0  106.99   17.70
   3  -8   0   78.79   16.10
   3  -8   0   95.09   11.70
   3  -8   0   71.89   21.80
  -3   8   0   59.29   18.10
  -3   8   0   76.39   11.70
   2  -8   0  212.98   19.00
   2  -8   0  222.08   15.20
   2  -8   0  241.78   22.30
  -2   8   0  268.47   21.50
  -2   8   0  239.28   23.30
  -2   8   0  243.58   16.10
   1  -8   0  222.28   12.70
   1  -8   0  221.28   17.30
   1  -8   0  212.08   18.00
  -1   8   0  215.88   19.30
  -1   8   0  219.38   17.60
  -1   8   0  192.28   12.80
  -1   8   0  192.08   18.40
   0  -8   0  168.88   14.20
   0  -8   0  159.78   14.10
   0   8   0  174.58   14.00
   0   8   0  174.48    9.60
   0   8   0  141.79   15.10
   0   8   0  164.08   15.00
  -1  -8   0  469.55   27.60
  -1  -8   0  482.05   28.10
   1   8   0  485.35   28.20
   1   8   0  461.05   23.40
   1   8   0  441.06   29.70
   1   8   0  478.65   27.70
   1   8   0  451.55   23.10
  -2  -8   0  491.85   29.50
  -2  -8   0  468.25   28.40
   2   8   0  469.45   24.70
   2   8   0  458.65   31.60
   2   8   0  520.65   28.90
  -3  -8   0   -7.20   12.50
  -3  -8   0   -5.40    6.80
  -3  -8   0   -4.00    6.50
  -3  -8   0    1.20    7.00
   3   8   0   -2.00    3.70
   3   8   0    1.70   11.00
   3   8   0    4.90    5.40
   2  -9   0   51.99   13.90
   2  -9   0   18.00    6.00
   2  -9   0   34.00    8.80
  -2   9   0   45.90   12.70
  -2   9   0   26.30    6.60
  -2   9   0   16.20   10.90
   1  -9   0   47.30    8.90
   1  -9   0   77.69   12.00
   1  -9   0   45.00    5.70
  -1   9   0   47.10   12.20
  -1   9   0   33.80    9.10
  -1   9   0   68.49   12.00
  -1   9   0   50.19    6.10
   0  -9   0   59.79   10.60
   0  -9   0   69.59   11.80
   0   9   0   56.19   11.30
   0   9   0   70.09   13.80
   0   9   0   55.89   10.20
   0   9   0   66.29    5.40
  -1  -9   0 1658.13   85.39
  -1  -9   0 1668.03   85.09
   1   9   0 1642.34   85.09
   1   9   0 1689.43   80.39
   1   9   0 1547.95   86.89
   1   9   0 1693.03   80.09
   1   9   0 1790.02   86.39
  -2  -9   0   26.70    7.90
  -2  -9   0   43.50    8.80
   2   9   0   28.60    3.50
   2   9   0   27.10    6.70
   2   9   0   20.50   10.60
  -3  -9   0  103.79   18.90
  -3  -9   0   58.29   11.40
   3   9   0   86.19    8.40
   3   9   0   86.39   13.10
   3   9   0   70.09   17.20
   2 -10   0   26.60   10.20
   2 -10   0   28.40    6.60
  -2  10   0    7.80   12.20
  -2  10   0   28.00    7.80
  -2  10   0   40.70   13.20
   1 -10   0   75.79    7.60
   1 -10   0   67.69   11.20
  -1  10   0   89.49   14.90
  -1  10   0   86.39   14.30
  -1  10   0   95.69    8.90
  -1  10   0   99.19   17.50
   0 -10   0  525.95   32.30
   0 -10   0  518.45   32.30
   0  10   0  515.15   32.10
   0  10   0  495.25   33.10
   0  10   0  529.75   26.20
   0  10   0  480.85   33.30
  -1 -10   0  108.59   14.20
  -1 -10   0  144.49   15.00
   1  10   0  104.89   16.20
   1  10   0  115.59   13.50
   1  10   0  114.69    6.80
   1  10   0  111.59    6.90
   1  10   0  109.69   14.30
  -2 -10   0  130.49   16.20
  -2 -10   0  156.78   16.70
   2  10   0  147.59   15.90
   2  10   0  141.99    8.50
   2  10   0  120.79   17.70
   2  10   0  140.69    8.60
  -3 -10   0   12.60   16.60
  -3 -10   0   32.90    9.90
   3  10   0    7.80    7.20
   3  10   0   -4.00   12.50
   3  10   0   -2.10    3.90
   1 -11   0    4.70    8.30
  -1  11   0   -4.30   11.00
  -1  11   0   19.30   10.80
  -1  11   0   17.80   11.10
  -1  11   0    8.10    5.00
   0 -11   0   -2.60    6.80
   0  11   0    4.20    9.60
   0  11   0   -0.30    8.30
   0  11   0   -4.30    2.80
   0  11   0  -12.40    7.10
  -1 -11   0  604.84   34.60
  -1 -11   0  520.55   34.70
   1  11   0  527.75   33.70
   1  11   0  525.55   26.30
   1  11   0  538.95   26.30
   1  11   0  534.95   35.20
   1  11   0  501.25   36.50
  -2 -11   0  227.38   21.90
   2  11   0  240.18   12.40
   2  11   0  232.78   12.40
   2  11   0  222.58   23.50
   1 -12   0   27.90   11.20
  -1  12   0   39.80   14.20
  -1  12   0   28.00   14.20
  -1  12   0   25.20    6.50
  -1  12   0   48.60   14.30
   0  12   0    1.90   11.90
   0  12   0    9.80    9.70
   0  12   0    7.10   10.20
  -1 -12   0   63.09   12.90
   1  12   0   76.99   17.50
   1  12   0   57.59   12.10
   1  12   0   81.69   14.10
  -2 -12   0    9.00   11.10
   2  12   0   21.40    9.80
   2  12   0   24.20   16.00
   1  12  -1    4.70    9.00
   1  12  -1   -0.30    2.50
   1  12  -1    1.20    2.90
   1  12  -1    5.00    8.90
   1  12  -1   14.60   12.90
  -1 -12   1    6.40    9.50
   0  12  -1    8.20    9.60
   0  12  -1    9.50   12.10
   0  12  -1   23.50   11.10
   0 -12   1    3.10    8.80
   2  11  -1   65.79   17.30
   2  11  -1   67.19    6.20
   2  11  -1   88.69   14.80
   2  11  -1   64.49    6.20
  -2 -11   1   63.09   13.20
   1  11  -1   15.60    3.20
   1  11  -1   18.90   11.50
   1  11  -1   21.90    8.80
   1  11  -1   24.10    9.10
   1  11  -1   16.60    3.00
  -1 -11   1    7.50    8.50
   0  11  -1  175.88   19.70
   0  11  -1  212.08   20.80
   0  11  -1  229.28   19.80
   0  11  -1  204.48   12.70
   0 -11   1  201.38   19.90
  -1  11  -1   57.99   13.70
  -1  11  -1   99.99   17.00
  -1  11  -1   63.29    8.10
  -1  11  -1   67.29   15.20
   1 -11   1   61.19   12.20
   3  10  -1   30.40    5.60
   3  10  -1   35.20   15.90
   3  10  -1   27.90    9.00
  -3 -10   1   13.50   27.70
   2  10  -1    4.10    2.90
   2  10  -1    7.60    7.00
   2  10  -1    2.20    2.70
   2  10  -1    4.00   11.00
  -2 -10   1   10.20    7.50
  -2 -10   1   -6.90    7.80
   1  10  -1   51.09    5.40
   1  10  -1   60.49   13.60
   1  10  -1   57.89    5.10
   1  10  -1   53.69   10.00
   1  10  -1   61.59   10.30
  -1 -10   1   76.79   11.20
  -1 -10   1   41.90    9.60
   0  10  -1  353.06   25.70
   0  10  -1  311.77   18.20
   0  10  -1  322.57   25.20
   0  10  -1  357.86   24.40
   0 -10   1  391.16   24.80
   0 -10   1  300.97   24.20
  -1  10  -1  184.88   20.80
  -1  10  -1  206.68   13.60
  -1  10  -1  209.68   19.40
  -1  10  -1  154.98   18.80
   1 -10   1  181.78   12.60
   1 -10   1  234.48   20.30
   1 -10   1  189.18   18.60
  -2  10  -1   43.70   13.40
  -2  10  -1   19.70   13.10
   3   9  -1    4.40   12.10
   3   9  -1    3.30    4.60
   3   9  -1    1.50    6.30
  -3  -9   1   20.10    8.40
  -3  -9   1   -6.70    8.30
  -3  -9   1   -3.60   13.20
   2   9  -1   16.20   10.70
   2   9  -1    9.70    3.00
  -2  -9   1    8.80    5.80
   1   9  -1   97.79   11.70
   1   9  -1   91.79   14.90
   1   9  -1   98.99    6.70
   1   9  -1   80.59   16.10
   1   9  -1  104.79    7.30
  -1  -9   1  111.39   14.30
  -1  -9   1  109.59   11.60
   0   9  -1 1517.85   82.09
   0   9  -1 1508.05   76.99
   0   9  -1 1727.53   82.49
   0  -9   1 1535.75   82.49
   0  -9   1 1646.84   82.19
  -1   9  -1  314.97   24.50
  -1   9  -1  271.97   17.70
  -1   9  -1  307.57   23.10
  -1   9  -1  276.97   22.50
   1  -9   1  330.47   23.80
   1  -9   1  329.87   22.90
   1  -9   1  320.07   17.50
  -2   9  -1   13.00   10.10
  -2   9  -1   11.20    6.50
   2  -9   1   38.00   12.50
   2  -9   1    4.40    7.60
   2  -9   1    6.10    5.30
   3   8  -1  189.18   21.60
   3   8  -1  218.78   17.60
   3   8  -1  201.38   13.70
  -3  -8   1  161.58   21.90
  -3  -8   1  213.18   17.00
  -3  -8   1  178.38   18.70
  -3  -8   1  220.68   16.80
   2   8  -1  146.69   17.00
   2   8  -1  188.78   10.80
   2   8  -1  177.58   15.20
  -2  -8   1  186.08   14.10
  -2  -8   1  152.28   15.80
   1   8  -1  324.27   22.00
   1   8  -1  366.76   17.90
   1   8  -1  339.47   23.70
   1   8  -1  311.57   17.10
   1   8  -1  339.77   21.20
  -1  -8   1  336.37   22.60
  -1  -8   1  301.87   21.00
   0   8  -1   79.19   12.80
   0   8  -1   56.69    5.20
   0   8  -1   47.70    8.40
   0   8  -1   49.10    8.60
   0  -8   1   67.59   10.10
   0  -8   1   65.39   10.10
  -1   8  -1  219.48   18.10
  -1   8  -1  214.18   13.20
  -1   8  -1  213.78   20.30
  -1   8  -1  208.18   17.80
   1  -8   1  224.78   21.20
   1  -8   1  193.48   12.60
   1  -8   1  207.78   17.30
  -2   8  -1   82.59   14.30
  -2   8  -1   58.19   12.30
  -2   8  -1   64.39    9.50
   2  -8   1   77.59   13.30
   2  -8   1   60.69   11.30
  -3   8  -1  -11.70    8.20
  -3   8  -1  -15.50   13.30
   3  -8   1   -4.80   13.00
   3  -8   1   -6.70   18.30
   3  -8   1    4.50    9.20
   3  -8   1   -6.80    7.10
   3   7  -1   27.20   13.10
   3   7  -1   24.70    5.10
   3   7  -1   16.30    6.10
  -3  -7   1   20.30    7.50
  -3  -7   1   28.50    7.50
  -3  -7   1   15.30    7.20
  -3  -7   1   30.30   12.90
   2   7  -1  139.79   13.40
   2   7  -1  158.28    9.60
   2   7  -1  125.49   16.50
  -2  -7   1  146.99   11.80
  -2  -7   1  139.69   14.00
   1   7  -1  249.88   19.20
   1   7  -1  249.97   13.40
   1   7  -1  272.37   16.90
   1   7  -1  250.07   17.50
   1   7  -1  270.57   14.10
  -1  -7   1  232.28   16.40
  -1  -7   1  254.77   17.70
   0   7  -1  265.87   17.70
   0   7  -1  294.17   14.50
   0   7  -1  270.37   18.50
   0   7  -1  254.47   18.40
   0  -7   1  277.47   18.40
   0  -7   1  236.88   17.60
  -1   7  -1  148.29   14.30
  -1   7  -1  159.68   14.90
  -1   7  -1  155.08   10.30
  -1   7  -1  167.98   15.40
   1  -7   1  166.38   10.20
   1  -7   1  149.19   13.80
   1  -7   1  158.38   15.20
  -2   7  -1  371.16   27.60
  -2   7  -1  413.06   26.80
  -2   7  -1  340.27   21.60
   2  -7   1  401.36   28.30
   2  -7   1  349.27   24.10
   2  -7   1  359.16   21.20
  -3   7  -1   -3.20   12.60
  -3   7  -1   21.10    8.00
   3  -7   1   14.60    6.80
   3  -7   1   37.00   17.80
   3  -7   1   20.80    8.70
   3  -7   1   18.80   13.70
   4   6  -1   16.00    7.50
   4   6  -1   13.80    6.40
  -4  -6   1   21.00   10.20
  -4  -6   1   16.70   11.40
  -4  -6   1   19.60   12.40
   3   6  -1   34.50    5.50
   3   6  -1   43.10   13.00
   3   6  -1   33.90    6.50
  -3  -6   1   42.40    8.00
  -3  -6   1   33.90    7.30
  -3  -6   1   35.20    7.40
  -3  -6   1   32.20   11.20
   2   6  -1  192.08   12.00
   2   6  -1  217.78   15.20
   2   6  -1  190.28   17.70
  -2  -6   1  213.58   15.70
  -2  -6   1  209.48   14.00
  -2  -6   1  204.68   13.60
   1   6  -1   39.80    6.20
   1   6  -1   31.60    3.90
   1   6  -1   39.70    5.80
   1   6  -1   61.59   10.10
  -1  -6   1   39.70    5.60
  -1  -6   1   43.40    7.50
   0   6  -1  111.59   10.30
   0   6  -1  110.79   11.00
   0   6  -1  117.79    9.80
   0   6  -1  112.39    6.90
   0  -6   1  103.09    9.80
   0  -6   1  124.89   10.40
  -1   6  -1   40.40    7.20
  -1   6  -1   46.60    9.00
  -1   6  -1   36.70    4.70
  -1   6  -1   58.89    9.80
   1  -6   1   27.50    5.80
   1  -6   1   44.00    4.80
   1  -6   1   43.80    9.00
  -2   6  -1  271.77   21.20
  -2   6  -1  240.58   22.20
  -2   6  -1  244.08   15.60
   2  -6   1  235.18   15.00
   2  -6   1  220.28   17.60
  -3   6  -1  110.09   12.60
  -3   6  -1   89.29   15.70
   3  -6   1  121.19   21.90
   3  -6   1   98.29   16.70
   3  -6   1   95.69   11.30
   3  -6   1  116.39   18.40
   4   5  -1   19.60   13.40
   4   5  -1    0.40    6.40
  -4  -5   1    9.40   10.60
  -4  -5   1   20.30    9.30
   3   5  -1   18.10   11.20
   3   5  -1   -1.70    4.30
   3   5  -1    7.40    3.70
  -3  -5   1    1.50    5.30
  -3  -5   1    0.40    9.00
   2   5  -1    3.40    7.90
   2   5  -1    1.30    3.50
   2   5  -1    0.70    1.90
  -2  -5   1    9.10    5.00
  -2  -5   1    1.40    3.50
  -2  -5   1    5.20    3.40
  -2  -5   1    0.50    7.20
   1   5  -1   95.49    7.40
   1   5  -1   84.89    5.80
   1   5  -1   82.29    8.10
   1   5  -1   92.19    9.50
  -1  -5   1  100.69    8.90
  -1  -5   1   73.79    6.90
   0   5  -1  102.19    9.00
   0   5  -1   98.09    8.50
   0   5  -1  110.59    6.30
   0  -5   1   94.39    8.60
   0  -5   1  117.49    9.20
  -1   5  -1  102.29    9.80
  -1   5  -1  100.39   10.10
  -1   5  -1   98.19    7.10
   1  -5   1   86.79    9.10
   1  -5   1  107.59    6.90
   1  -5   1   87.59   10.10
  -2   5  -1   26.10    7.70
  -2   5  -1   33.50    9.50
  -2   5  -1   36.50    5.40
   2  -5   1   30.50    5.00
   2  -5   1   29.00    5.80
   2  -5   1   46.70   11.30
  -3   5  -1   69.49    9.60
  -3   5  -1  101.29   14.60
   3  -5   1   74.99   18.40
   3  -5   1   68.99   17.20
   3  -5   1   63.29    8.50
   3  -5   1   70.69   11.00
   4   4  -1   -3.90    5.40
   4   4  -1    8.00    6.80
   4   4  -1   14.00   14.50
  -4  -4   1   21.50    9.60
  -4  -4   1    7.80    8.70
   3   4  -1   33.90   11.80
   3   4  -1   15.00    4.40
   3   4  -1   14.10    5.10
  -3  -4   1   22.80    6.00
  -3  -4   1    6.60    9.00
   2   4  -1   50.59    5.00
   2   4  -1   60.19   10.50
   2   4  -1   45.50    6.90
  -2  -4   1   55.79   10.30
  -2  -4   1   53.49    6.30
  -2  -4   1   57.69    8.40
   1   4  -1   77.79    7.30
   1   4  -1   64.79    5.00
   1   4  -1   74.09    8.30
  -1  -4   1   73.69    6.00
  -1  -4   1   80.89    7.60
   0   4  -1 1815.62   84.19
   0   4  -1 1713.03   85.89
   0   4  -1 1718.13   86.19
   0   4  -1 1859.21   86.09
   0  -4   1 1665.63   85.89
   0  -4   1 1766.62   86.19
  -1   4  -1   42.00    7.00
  -1   4  -1   53.19    4.50
  -1   4  -1   48.20    7.40
   1  -4   1   44.90    4.10
   1  -4   1   43.10    7.70
   1  -4   1   32.80    5.60
  -2   4  -1   35.50    7.70
  -2   4  -1   45.00    5.80
  -2   4  -1   37.70    8.90
   2  -4   1   48.50    9.90
   2  -4   1   32.40    5.50
   2  -4   1   41.70   11.20
   2  -4   1   36.50    5.10
  -3   4  -1    4.10    8.10
  -3   4  -1   25.00   10.20
  -3   4  -1   21.70    6.10
   3  -4   1   19.40   14.70
   3  -4   1   15.20    5.20
   3  -4   1   22.80    5.40
   3  -4   1   19.10   13.90
  -4   4  -1  127.89   17.30
   4  -4   1  137.29   15.40
   4  -4   1  124.19   15.00
   4  -4   1  118.59   23.60
   4  -4   1   93.39   27.70
   4   3  -1  -10.10    5.80
   4   3  -1   -0.30    6.70
   4   3  -1   -7.50    5.50
   4   3  -1   17.70   13.50
  -4  -3   1    6.40    8.30
   3   3  -1   34.50    6.00
   3   3  -1   43.10    6.20
  -3  -3   1   30.50    6.60
  -3  -3   1   27.00    9.50
   2   3  -1   19.20    3.40
   2   3  -1   38.60    9.40
   2   3  -1   26.00    4.40
  -2  -3   1   29.70    4.50
  -2  -3   1   22.70    7.00
  -2  -3   1   23.70    4.70
   1   3  -1  700.63   35.90
   1   3  -1  718.63   34.10
   1   3  -1  681.23   35.00
  -1  -3   1  659.33   34.40
  -1  -3   1  676.73   35.10
  -1  -3   1  701.73   34.40
   0   3  -1    8.40    2.60
   0   3  -1    9.50    1.50
   0   3  -1    8.50    2.80
   0   3  -1   16.80    4.10
   0  -3   1   10.70    2.80
   0  -3   1    5.00    2.90
  -1   3  -1   41.40    3.90
  -1   3  -1   32.20    5.60
  -1   3  -1   40.90    6.30
   1  -3   1   33.90    4.70
   1  -3   1   39.00    3.60
   1  -3   1   37.80    6.80
  -2   3  -1  240.58   17.30
  -2   3  -1  238.88   17.20
  -2   3  -1  245.18   14.70
   2  -3   1  235.48   17.20
   2  -3   1  231.18   19.70
   2  -3   1  247.48   15.10
   2  -3   1  240.68   14.20
  -3   3  -1   31.50    6.80
  -3   3  -1   17.90   14.60
   3  -3   1   13.40    5.10
   3  -3   1   31.80   14.50
   3  -3   1   19.60    4.70
   3  -3   1   25.70   14.60
  -4   3  -1   26.60    9.80
   4  -3   1   15.70    6.10
   4  -3   1   -8.30   21.10
   4  -3   1   14.70    7.50
   4  -3   1   10.90   16.90
   4   2  -1    7.00   13.90
   4   2  -1   -1.10    6.20
   4   2  -1   -9.10    6.00
   4   2  -1    1.10    6.10
  -4  -2   1   -6.10    7.50
  -4  -2   1   11.70    8.60
   3   2  -1   87.89   10.60
   3   2  -1   83.79    8.20
  -3  -2   1   86.99    9.70
  -3  -2   1   88.09   12.20
   2   2  -1   28.60    4.00
   2   2  -1   36.00    6.20
  -2  -2   1   21.70    6.50
  -2  -2   1   28.60    4.40
   1   2  -1  119.49    8.00
   1   2  -1  105.79    9.30
   1   2  -1  117.89    6.80
  -1  -2   1  120.49    8.30
  -1  -2   1  105.99    7.00
   0   2  -1   29.90    4.00
   0   2  -1   29.30    2.30
   0   2  -1   26.10    3.50
   0   2  -1   29.80    3.60
   0  -2   1   22.70    3.50
   0  -2   1   31.90    4.00
  -1   2  -1  184.18   10.10
  -1   2  -1  177.58   11.80
  -1   2  -1  150.88   11.00
   1  -2   1  182.18   10.00
   1  -2   1  171.78   10.60
   1  -2   1  199.48   12.40
  -2   2  -1 1522.55   72.89
  -2   2  -1 1366.26   71.69
  -2   2  -1 1430.26   70.39
   2  -2   1 1492.55   74.49
   2  -2   1 1455.05   70.59
   2  -2   1 1429.66   69.99
   2  -2   1 1282.37   71.89
  -3   2  -1    9.80    5.00
  -3   2  -1    4.90    6.70
   3  -2   1    7.90    4.20
   3  -2   1    4.90    3.60
   3  -2   1   -0.40   12.70
   3  -2   1   27.00   14.00
  -4   2  -1    2.90    8.60
   4  -2   1   14.80   16.50
   4  -2   1   17.60    5.40
   4  -2   1   15.80    7.40
   4  -2   1   18.80   20.70
   4   1  -1  181.38   31.80
   4   1  -1  258.97   25.70
   4   1  -1  232.18   17.40
   4   1  -1  164.98   17.20
   4   1  -1  208.28   16.40
  -4  -1   1  219.28   18.50
   3   1  -1    2.20    4.90
   3   1  -1    3.90    5.50
   3   1  -1    6.90    3.80
   3   1  -1   -3.40   10.50
  -3  -1   1   -2.40    6.40
  -3  -1   1   -2.40    4.40
   2   1  -1  633.94   33.60
   2   1  -1  613.34   37.00
   2   1  -1  675.13   34.30
   2   1  -1  705.13   37.00
  -2  -1   1  676.93   34.10
  -2  -1   1  665.83   35.40
   1   1  -1   79.39    5.30
   1   1  -1   91.79    6.70
   1   1  -1  103.79    9.10
   1   1  -1   74.39    7.20
  -1  -1   1   73.19    6.90
  -1  -1   1   71.29    5.40
  -1  -1   1   79.39    6.50
   0   1  -1   28.20    2.00
   0   1  -1   20.60    2.20
   0   1  -1   25.10    2.40
   0   1  -1   25.00    1.80
   0  -1   1   21.60    2.20
   0  -1   1   29.50    2.10
   0  -1   1   29.90    2.60
  -1   1  -1 9821.12  483.55
  -1   1  -1 9999.00  485.35
  -2   1  -1  229.68   13.60
  -2   1  -1  233.68   16.20
   2  -1   1  217.08   13.20
   2  -1   1  242.78   18.00
   2  -1   1  228.48   18.60
   2  -1   1  223.08   13.50
  -3   1  -1   93.99   12.70
  -3   1  -1  115.09   11.70
   3  -1   1   91.89    8.80
   3  -1   1  122.69   19.70
   3  -1   1   92.69    8.90
  -4   1  -1    4.40    8.20
   4  -1   1   -4.20    5.70
   4  -1   1   -6.60   17.50
   4  -1   1   12.60   14.40
   4  -1   1    6.10    4.20
   4  -1   1    5.30    6.60
   4   0  -1   53.79   17.90
   4   0  -1   23.60    6.20
   4   0  -1    7.60   16.80
   4   0  -1   20.00    7.30
  -4   0   1   27.50    9.30
   3   0  -1  165.58   20.80
   3   0  -1  179.68   12.00
   3   0  -1  153.58   14.00
   3   0  -1  165.18   13.70
  -3   0   1  143.29   14.30
  -3   0   1  162.38   12.70
   2   0  -1  164.88   14.90
   2   0  -1  131.79   11.00
   2   0  -1  146.49    8.90
   2   0  -1  120.19   12.60
  -2   0   1  121.69   10.70
  -2   0   1  128.69    9.20
   1   0  -1  956.20   47.80
   1   0  -1  945.81   46.90
   1   0  -1  961.30   48.40
  -1   0   1  946.71   47.00
  -1   0   1 1006.90   47.50
  -1   0  -1 2939.01  146.49
  -1   0  -1 3043.70  145.09
  -1   0  -1 2957.10  144.99
   1   0   1 2918.11  145.69
   1   0   1 3138.79  146.99
   1   0   1 3224.38  145.09
  -2   0  -1  938.41   48.70
  -2   0  -1  918.41   46.20
   2   0   1  974.80   46.00
   2   0   1  943.61   50.39
   2   0   1  828.22   48.10
   2   0   1  924.81   46.00
  -3   0  -1   -1.70    4.30
  -3   0  -1   -4.50    7.20
   3   0   1    2.40   12.20
   3   0   1    1.60    3.50
   3   0   1   30.40   12.50
   3   0   1   -4.20    2.70
  -4   0  -1   -9.80    7.40
   4   0   1   -8.30   18.00
   4   0   1    1.30   13.60
   4   0   1    4.00    3.60
   4   0   1  -11.10    5.30
   4   0   1   -1.20    6.10
   4  -1  -1  155.68   14.50
   4  -1  -1  111.49   15.70
   4  -1  -1  177.18   24.90
   4  -1  -1  153.08   25.20
   4  -1  -1  159.98   14.50
  -4   1   1  160.58   16.60
   3  -1  -1  162.68   12.10
   3  -1  -1  160.48   13.80
   3  -1  -1  183.28   20.50
  -3   1   1  144.99   14.40
  -3   1   1  193.08   13.50
   2  -1  -1  280.57   19.80
   2  -1  -1  268.27   18.80
   2  -1  -1  244.78   16.40
   2  -1  -1  247.38   14.60
  -2   1   1  256.27   15.10
  -2   1   1  253.07   16.20
   1  -1  -1   25.50    4.60
   1  -1  -1   26.40    3.00
   1  -1  -1   21.40    3.90
  -1   1   1   20.80    2.80
  -1   1   1   23.30    4.00
  -1  -1  -1 1635.44   74.29
  -1  -1  -1 1526.95   76.19
   1   1   1 1570.74   74.19
   1   1   1 1524.95   76.39
   1   1   1 1425.66   73.69
   1   1   1 1589.04   75.39
  -2  -1  -1   34.60    7.90
  -2  -1  -1   27.00    4.20
   2   1   1   32.10    9.20
   2   1   1   33.00    3.90
   2   1   1   33.20    4.70
   2   1   1   32.30    4.80
  -3  -1  -1   38.80    6.40
  -3  -1  -1   28.90   10.00
   3   1   1   32.70    5.20
   3   1   1   41.60    5.80
   3   1   1   30.00    4.70
   3   1   1   35.30   13.90
   3   1   1   57.19   13.30
  -4  -1  -1   37.60   11.10
  -4  -1  -1    9.10    7.50
   4   1   1    1.50    6.00
   4   1   1   32.00   14.50
   4   1   1   21.20   17.80
   4   1   1   13.60    3.60
   4   1   1    0.50    5.20
   4  -2  -1   38.80    7.80
   4  -2  -1   66.09   20.90
   4  -2  -1    6.50   18.20
   4  -2  -1   21.40    7.70
  -4   2   1   31.00   10.00
   3  -2  -1   86.99   16.20
   3  -2  -1   94.79   10.70
  -3   2   1   68.89   10.40
  -3   2   1   73.49   10.70
   2  -2  -1  262.87   18.60
   2  -2  -1  259.27   18.10
   2  -2  -1  253.17   14.40
   2  -2  -1  229.28   15.70
  -2   2   1  237.08   14.60
  -2   2   1  241.18   16.10
   1  -2  -1    2.80    3.40
   1  -2  -1    7.50    1.80
   1  -2  -1    5.30    2.80
  -1   2   1    5.70    1.90
  -1   2   1    9.80    3.60
  -1   2   1   -0.70    2.90
   0  -2  -1   86.69    4.20
   0  -2  -1   85.39    5.60
   0  -2  -1   71.89    5.30
   0   2   1   89.89    5.80
   0   2   1   86.09    6.20
   0   2   1   86.79    5.50
  -1  -2  -1 3645.34  167.68
  -1  -2  -1 3466.55  165.18
   1   2   1 3211.08  165.08
   1   2   1 3548.74  166.68
  -2  -2  -1  358.16   20.10
  -2  -2  -1  381.06   23.80
   2   2   1  388.06   20.00
   2   2   1  370.06   23.00
   2   2   1  375.36   19.60
   2   2   1  390.26   25.10
  -3  -2  -1  316.97   24.40
  -3  -2  -1  332.97   19.60
   3   2   1  307.37   18.00
   3   2   1  305.67   26.30
   3   2   1  309.67   18.50
   3   2   1  312.47   18.60
   3   2   1  355.46   24.60
  -4  -2  -1    1.10    6.80
  -4  -2  -1   15.30   10.30
   4   2   1    9.40    5.90
   4   2   1    3.70    3.20
   4   2   1   -6.90    4.00
   4   2   1   14.80   13.50
   4  -3  -1    5.70   18.40
   4  -3  -1   15.90    7.80
   4  -3  -1   17.70    6.90
   4  -3  -1    0.60   18.60
  -4   3   1    9.40    8.80
   3  -3  -1  165.58   20.60
   3  -3  -1  154.48   12.30
   3  -3  -1  155.68   13.90
   3  -3  -1  178.48   21.90
  -3   3   1  189.98   15.60
  -3   3   1  170.48   13.50
   2  -3  -1  553.84   31.20
   2  -3  -1  528.75   28.20
   2  -3  -1  531.05   29.90
   2  -3  -1  530.05   31.70
  -2   3   1  545.65   31.90
  -2   3   1  512.95   28.50
  -2   3   1  575.64   30.80
   1  -3  -1  284.67   16.70
   1  -3  -1  274.57   14.70
   1  -3  -1  259.97   16.30
  -1   3   1  287.97   16.60
  -1   3   1  284.07   17.30
  -1   3   1  284.07   14.90
   0  -3  -1  204.88   12.50
   0  -3  -1  231.38   10.80
   0  -3  -1  216.78   12.60
   0   3   1  219.88   12.90
   0   3   1  227.58   10.80
   0   3   1  238.58   13.70
   0   3   1  197.28   12.40
  -1  -3  -1   12.80    1.90
  -1  -3  -1   19.60    3.40
   1   3   1   13.10    2.40
   1   3   1   20.00    5.50
   1   3   1   11.90    1.60
  -2  -3  -1    3.70    7.50
  -2  -3  -1    3.80    2.30
   2   3   1    5.70    2.10
   2   3   1    0.10    6.00
   2   3   1    2.80    2.10
  -3  -3  -1  143.09   17.10
  -3  -3  -1  150.48   12.00
   3   3   1  148.49   11.70
   3   3   1  174.48   17.20
   3   3   1  156.68   10.80
   3   3   1  136.19   10.20
  -4  -3  -1   -6.30    7.30
  -4  -3  -1   21.10   11.30
   4   3   1    7.60    6.30
   4   3   1   17.00   13.00
   4   3   1    1.00    3.10
   4  -4  -1  -15.90    7.30
   4  -4  -1    1.50   18.20
   4  -4  -1    7.80    7.50
   4  -4  -1   -7.60   19.30
  -4   4   1   -1.80    9.90
   3  -4  -1   17.40   15.20
   3  -4  -1   19.30    5.50
   3  -4  -1   24.80   13.90
   3  -4  -1   17.40    5.80
  -3   4   1   30.00    7.00
   2  -4  -1    3.50    2.80
   2  -4  -1   -0.80    3.60
   2  -4  -1   -3.40    7.00
  -2   4   1   -5.00    5.00
  -2   4   1    6.80    6.50
  -2   4   1    3.60    3.40
   1  -4  -1   79.49    5.40
   1  -4  -1   79.09    7.60
   1  -4  -1   64.19    7.70
  -1   4   1   71.09    5.40
  -1   4   1   82.09    8.70
  -1   4   1   74.49    7.20
   0  -4  -1  561.54   28.40
   0  -4  -1  625.64   30.80
   0  -4  -1  582.14   30.60
   0   4   1  604.04   30.90
   0   4   1  586.84   31.30
   0   4   1  577.24   30.60
  -1  -4  -1  207.08   13.00
  -1  -4  -1  215.78   11.30
  -1  -4  -1  234.98   12.80
   1   4   1  212.18   11.00
   1   4   1  238.98   14.60
   1   4   1  187.08   12.30
  -2  -4  -1  136.69   14.50
  -2  -4  -1  152.08   10.30
  -2  -4  -1  135.59    9.30
   2   4   1  140.39    9.60
   2   4   1  153.88   13.00
   2   4   1  162.58    9.10
  -3  -4  -1  282.47   18.30
  -3  -4  -1  294.27   23.90
   3   4   1  289.17   17.10
   3   4   1  297.27   23.60
   3   4   1  327.07   17.80
  -4  -4  -1  -13.70    7.40
  -4  -4  -1    5.40   13.10
   4   4   1    0.50    6.00
   4   4   1   10.40   12.90
   4   4   1   -1.70    3.60
   4   4   1    3.90    3.70
   3  -5  -1   43.90   15.00
   3  -5  -1   33.00    6.30
   3  -5  -1   16.90    6.00
   3  -5  -1   10.70   13.10
  -3   5   1   28.30   10.70
  -3   5   1   32.00    7.10
   2  -5  -1   20.80    5.50
   2  -5  -1   25.50    9.10
   2  -5  -1   19.80    4.30
  -2   5   1   18.20    4.50
  -2   5   1   28.40    8.30
  -2   5   1   18.30    7.80
   1  -5  -1  267.97   17.10
   1  -5  -1  274.87   16.90
   1  -5  -1  262.17   14.20
  -1   5   1  265.57   17.10
  -1   5   1  257.77   17.90
  -1   5   1  267.07   18.00
  -1   5   1  253.67   14.40
   0  -5  -1   35.50    5.80
   0  -5  -1   33.40    2.50
   0  -5  -1   34.00    5.40
   0   5   1   37.50    2.60
   0   5   1   31.60    5.30
   0   5   1   49.90    7.90
   0   5   1   27.90    4.80
  -1  -5  -1  607.84   30.60
  -1  -5  -1  551.64   30.70
   1   5   1  628.04   32.60
   1   5   1  553.64   30.40
   1   5   1  570.84   28.30
  -2  -5  -1    1.40    2.70
  -2  -5  -1    6.10    3.50
  -2  -5  -1    9.90    8.70
   2   5   1    2.10    7.70
   2   5   1    1.00    2.80
   2   5   1    3.40    1.90
  -3  -5  -1  202.68   20.60
  -3  -5  -1  214.38   14.40
   3   5   1  207.58   13.00
   3   5   1  205.88   19.90
   3   5   1  196.28   13.30
  -4  -5  -1  113.09   14.00
  -4  -5  -1  116.79   20.80
   4   5   1  118.39   12.80
   4   5   1   98.59   20.00
   4   5   1  123.79   10.30
   3  -6  -1   19.30   14.50
   3  -6  -1    5.50   12.80
   3  -6  -1    4.30    6.00
   3  -6  -1   -2.70    5.40
  -3   6   1    6.90    6.30
  -3   6   1   15.30   11.10
  -3   6   1   -3.80    9.90
   2  -6  -1   -1.80    4.30
   2  -6  -1   -1.20    7.80
   2  -6  -1    4.70    3.50
  -2   6   1    4.40    7.20
  -2   6   1   -3.10    5.20
  -2   6   1    2.00    3.70
   1  -6  -1  120.49   11.50
   1  -6  -1  135.69   11.10
   1  -6  -1  118.69    7.80
  -1   6   1  104.19    7.80
  -1   6   1  127.99   11.30
  -1   6   1  120.89   12.60
  -1   6   1  119.79   13.10
   0  -6  -1  181.18    9.70
   0  -6  -1  207.98   13.40
   0  -6  -1  176.48   12.90
   0   6   1  186.78   14.40
   0   6   1  179.28    9.80
   0   6   1  195.58   13.10
   0   6   1  190.98   13.70
  -1  -6  -1    7.00    3.10
  -1  -6  -1    2.10    3.40
   1   6   1    4.30    1.10
   1   6   1    3.70    3.20
   1   6   1    0.90    6.10
  -2  -6  -1    1.30    2.90
  -2  -6  -1    0.80    4.20
  -2  -6  -1    5.10    4.20
   2   6   1    5.00    3.30
   2   6   1    6.00    8.20
   2   6   1    0.10    1.70
  -3  -6  -1   39.10    7.00
  -3  -6  -1   33.00   13.10
   3   6   1   57.29   13.70
   3   6   1   53.39    7.80
   3   6   1   46.00    6.20
  -4  -6  -1   21.60    9.90
  -4  -6  -1   -2.60   13.90
   4   6   1   12.00   13.80
   4   6   1   26.60    7.30
   4   6   1   18.90    4.90
   3  -7  -1   -4.90   11.90
   3  -7  -1   13.10    6.30
   3  -7  -1    6.10   13.80
   3  -7  -1   12.00    7.40
  -3   7   1   44.60   13.40
  -3   7   1   -8.80   11.70
  -3   7   1    7.20    7.40
   2  -7  -1  191.68   18.30
   2  -7  -1  190.48   15.80
   2  -7  -1  156.48   12.00
  -2   7   1  176.28   19.50
  -2   7   1  183.88   16.20
  -2   7   1  182.88   13.00
   1  -7  -1   24.00    6.00
   1  -7  -1   25.90    3.60
   1  -7  -1   28.60    8.30
  -1   7   1   22.10    3.80
  -1   7   1   21.20    7.00
  -1   7   1   28.60    7.70
  -1   7   1   28.20   10.30
   0  -7  -1    4.40    3.80
   0  -7  -1   -1.80    4.60
   0   7   1    1.20    3.80
   0   7   1    6.00    1.60
   0   7   1    2.70    4.00
   0   7   1    3.80    7.00
  -1  -7  -1   37.90    6.90
  -1  -7  -1   31.20    5.60
   1   7   1   35.20    9.50
   1   7   1   27.80    2.30
   1   7   1   27.10    2.30
   1   7   1   34.50    6.60
   1   7   1   22.40    5.30
  -2  -7  -1   51.29    9.10
  -2  -7  -1   51.99    8.70
  -2  -7  -1   38.70    5.20
   2   7   1   53.89    8.30
   2   7   1   50.49   12.10
   2   7   1   49.30    4.50
  -3  -7  -1  484.45   28.20
  -3  -7  -1  469.85   35.10
  -3  -7  -1  480.55   28.50
  -3  -7  -1  482.45   30.30
   3   7   1  519.35   26.50
   3   7   1  468.75   33.70
   3   7   1  521.05   28.20
  -4  -7  -1    2.50   14.90
  -4  -7  -1   18.20   10.20
  -4  -7  -1    9.50   11.00
   4   7   1    3.30   13.50
   4   7   1    9.60    6.80
   4   7   1   13.00    5.60
   3  -8  -1   35.50   17.80
   3  -8  -1   17.00    7.50
   3  -8  -1   20.20    9.10
   3  -8  -1   32.10   13.70
  -3   8   1   -4.80   13.50
  -3   8   1   20.70    8.40
   2  -8  -1    3.20    5.60
   2  -8  -1    8.10    9.00
   2  -8  -1    2.40    4.10
  -2   8   1   -0.50    8.40
  -2   8   1    4.30    5.00
  -2   8   1  -11.20    7.30
   1  -8  -1  226.68   17.60
   1  -8  -1  251.97   13.20
   1  -8  -1  229.98   17.70
  -1   8   1  194.38   13.10
  -1   8   1  215.38   17.60
  -1   8   1  236.18   19.80
  -1   8   1  208.98   19.20
   0  -8  -1   39.60    7.20
   0  -8  -1   51.69    9.30
   0   8   1   38.90    3.70
   0   8   1   40.90    8.20
   0   8   1   45.80   11.40
   0   8   1   34.80    7.50
  -1  -8  -1   -5.50    3.90
  -1  -8  -1   -0.30    4.40
   1   8   1    0.50    4.60
   1   8   1    4.10    4.60
   1   8   1    2.10    1.00
   1   8   1   -6.30    7.80
   1   8   1    3.00    1.10
  -2  -8  -1  971.20   50.69
  -2  -8  -1  976.90   51.19
   2   8   1  904.81   53.79
   2   8   1  973.90   50.69
   2   8   1  952.00   46.80
  -3  -8  -1   23.30   14.10
  -3  -8  -1   12.50    6.60
  -3  -8  -1   27.20    8.30
  -3  -8  -1    6.90    6.50
   3   8   1   16.60    4.20
   3   8   1   16.90   11.30
   3   8   1   15.80    5.60
   2  -9  -1   42.10    9.70
   2  -9  -1   50.19   12.60
  -2   9   1   85.49   15.10
  -2   9   1   43.40   12.50
  -2   9   1   11.60   10.60
   1  -9  -1   57.09   11.40
   1  -9  -1   34.90    8.00
   1  -9  -1   40.10    5.20
  -1   9   1   45.90   10.60
  -1   9   1   41.80    9.90
  -1   9   1   37.20   11.50
  -1   9   1   38.40    5.30
   0  -9  -1    0.80    4.60
   0  -9  -1    4.00    6.70
   0   9   1    4.10    6.10
   0   9   1    5.60    2.10
   0   9   1   -1.70    9.90
   0   9   1   -1.50    5.60
  -1  -9  -1  107.69   11.90
  -1  -9  -1  109.59   13.30
   1   9   1  123.39   13.20
   1   9   1  116.49   11.90
   1   9   1  108.59    5.80
   1   9   1  100.79    5.70
   1   9   1  120.39   15.80
  -2  -9  -1   -1.10    5.20
  -2  -9  -1    5.00    6.20
   2   9   1    0.00    1.70
   2   9   1    1.90    9.90
   2   9   1    1.10    4.90
  -3  -9  -1  155.08   28.60
  -3  -9  -1  213.68   18.70
  -3  -9  -1  176.48   18.70
   3   9   1  215.88   12.90
   3   9   1  228.78   17.40
   3   9   1  188.38   22.50
   2 -10  -1   38.50   12.60
   2 -10  -1    2.50    5.60
   2 -10  -1   14.20    8.80
  -2  10   1   20.20   11.90
  -2  10   1   16.20   12.10
  -2  10   1   -1.90    6.00
   1 -10  -1   15.40    8.50
   1 -10  -1    3.40    6.40
   1 -10  -1   -0.20    3.00
  -1  10   1    2.80    3.90
  -1  10   1   -4.00    7.80
  -1  10   1    5.20   10.40
  -1  10   1   -4.60    7.80
   0 -10  -1  161.18   15.60
   0 -10  -1  148.19   15.50
   0  10   1  145.39    9.00
   0  10   1  147.59   16.50
   0  10   1  163.38   15.40
   0  10   1  136.09   17.40
  -1 -10  -1    8.40    7.50
  -1 -10  -1   14.20    8.40
   1  10   1   -6.70    9.20
   1  10   1    4.90    6.70
   1  10   1    7.00    6.10
  -2 -10  -1  250.47   27.50
   2  10   1  266.37   24.30
   2  10   1  300.77   14.20
   2  10   1  261.37   14.00
  -3 -10  -1   33.90   18.50
  -3 -10  -1   38.50   10.80
   3  10   1   16.80   14.30
   3  10   1   18.60    4.20
   2 -11  -1   31.40   10.50
   2 -11  -1   27.90    7.30
  -2  11   1   22.60    7.90
  -2  11   1   43.40   16.50
   1 -11  -1   17.30    4.30
   1 -11  -1    7.10    8.50
  -1  11   1   29.00   10.70
  -1  11   1   15.70   12.20
  -1  11   1   19.00    5.20
  -1  11   1   24.00   10.90
   0 -11  -1   45.40    9.70
   0  11   1   48.50   10.40
   0  11   1   67.39   14.80
   0  11   1   57.39    5.30
   0  11   1   60.59   12.60
  -1 -11  -1  116.89   15.50
  -1 -11  -1  147.19   15.70
   1  11   1  132.49   15.70
   1  11   1  122.89   18.00
   1  11   1  137.69   16.60
  -2 -11  -1   34.80    9.80
  -2 -11  -1   10.20    8.70
   2  11   1   14.30   12.40
   2  11   1   20.30    8.00
   1 -12  -1  102.99   18.40
  -1  12   1  113.79   19.60
  -1  12   1   87.69   16.80
  -1  12   1  133.79   19.20
  -1  12   1   98.29   10.60
   0 -12  -1   69.79   12.90
   0  12   1   98.59   18.40
   0  12   1   92.49    6.70
   0  12   1   62.79   13.10
   0  12   1   93.39   15.90
   1  12   1    3.60    8.10
   1  12   1    7.00    9.10
   1  12   1    4.10   13.20
  -2 -12  -1   32.50   10.50
  -2 -12  -1  -13.20    8.90
   2  12   1    6.60    9.40
   2  12   1   -1.20   13.20
   0 -13  -1    2.20   10.50
   0  13   1    5.80   11.70
   0  13   1   29.20   12.70
   0  13   1   25.80   15.10
   1  13   1   18.00   11.20
   1  13   1   11.10   15.20
   1  12  -2    8.80    4.00
   1  12  -2   -1.30   10.00
   1  12  -2   19.60   10.10
   1  12  -2   15.90   12.60
  -1 -12   2  -10.30    9.80
   0  12  -2   31.80   12.50
   0  12  -2   19.20   10.20
   0  12  -2    8.10    4.90
   0  12  -2   19.80   12.20
   2  11  -2   30.50    4.90
   2  11  -2   33.70   14.00
   2  11  -2   62.29   11.50
   2  11  -2   34.80    5.20
  -2 -11   2   19.90   11.20
   1  11  -2    4.50    7.80
   1  11  -2   -1.80    8.30
   1  11  -2   15.20   11.20
  -1 -11   2   -1.30    9.10
   0  11  -2   20.90   10.00
   0  11  -2   11.60    4.40
   0  11  -2   19.70   11.50
   0  11  -2   20.10    9.20
   0 -11   2    2.10    8.20
  -1  11  -2   83.39   10.50
  -1  11  -2  136.39   22.00
   1 -11   2   88.79   14.50
   2  10  -2   23.40    4.30
   2  10  -2   22.10   13.10
   2  10  -2   23.10    4.30
   2  10  -2   34.70    8.70
  -2 -10   2   14.80    9.80
   1  10  -2    7.20    7.10
   1  10  -2    3.60    2.90
   1  10  -2    7.30    6.50
   1  10  -2    4.60    3.40
   1  10  -2    4.30   10.10
  -1 -10   2    0.90    7.00
   0  10  -2  131.49   16.90
   0  10  -2  170.98   16.70
   0  10  -2  163.28   10.80
   0  10  -2  148.49   17.20
   0 -10   2  196.38   16.90
   0 -10   2  139.39   17.20
  -1  10  -2  466.85   27.60
  -1  10  -2  517.55   35.10
  -1  10  -2  516.25   33.70
   1 -10   2  531.05   34.20
   1 -10   2  474.15   33.00
  -2  10  -2   18.40   13.00
  -2  10  -2   11.10   12.70
  -2  10  -2    9.40    7.50
   2 -10   2   40.20   14.60
   2 -10   2    3.70    6.20
   2 -10   2    2.00    9.30
   3   9  -2   27.00   14.40
   3   9  -2   25.60    6.00
   3   9  -2   35.70    9.50
  -3  -9   2   11.50    9.80
  -3  -9   2   -2.60   12.60
   2   9  -2   31.70   12.20
   2   9  -2   32.10    8.50
   2   9  -2   28.20    4.50
  -2  -9   2   39.00    8.40
  -2  -9   2   27.90    9.80
   1   9  -2  111.29   14.90
   1   9  -2  147.99   14.60
   1   9  -2  144.49   13.60
   1   9  -2  130.29    9.70
   1   9  -2  141.79    8.90
  -1  -9   2  167.48   13.60
  -1  -9   2  132.59   15.90
   0   9  -2  131.49   13.60
   0   9  -2  134.89   15.10
   0   9  -2  131.39    9.30
   0   9  -2  138.09   14.90
   0  -9   2  128.89   14.90
   0  -9   2  157.48   14.60
  -1   9  -2   -0.30    7.20
  -1   9  -2   14.10    8.40
  -1   9  -2    6.10    4.10
  -1   9  -2   -7.10    8.50
   1  -9   2   18.10    9.80
   1  -9   2    3.00    3.50
   1  -9   2    4.90    6.40
  -2   9  -2  152.98   18.50
  -2   9  -2  122.79   20.20
  -2   9  -2  109.59   12.90
   2  -9   2  147.69   18.30
   2  -9   2   86.39   15.60
   2  -9   2  107.79   11.30
   3   8  -2   19.60    7.40
   3   8  -2   19.40   13.30
   3   8  -2   12.50    5.60
  -3  -8   2   -1.50   10.20
  -3  -8   2   35.30    8.00
  -3  -8   2   16.40   12.00
   2   8  -2   54.39    6.60
   2   8  -2   71.69   10.90
   2   8  -2   83.29   14.80
  -2  -8   2   66.59   10.50
  -2  -8   2   71.49    9.30
   1   8  -2   46.40   11.80
   1   8  -2   34.30    7.50
   1   8  -2   38.80    7.60
   1   8  -2   25.20    4.10
   1   8  -2   32.60    4.30
  -1  -8   2   40.60    8.10
  -1  -8   2   43.70    9.10
   0   8  -2   91.09   11.30
   0   8  -2   79.69   12.60
   0   8  -2   86.89   12.20
   0   8  -2   92.59    7.00
   0  -8   2   88.79   12.10
   0  -8   2   93.69   12.00
  -1   8  -2   80.39   12.50
  -1   8  -2   52.29   18.20
  -1   8  -2   61.49    7.30
  -1   8  -2   48.80    9.80
   1  -8   2   61.89    6.60
   1  -8   2   70.49   15.30
  -2   8  -2   18.40   10.60
  -2   8  -2    8.20    9.30
  -2   8  -2    7.40    5.70
   2  -8   2   17.80   12.00
   2  -8   2    3.20    4.60
   2  -8   2    3.20    6.70
   3   7  -2   35.20    6.10
   3   7  -2   32.80    7.60
   3   7  -2   29.50   14.00
  -3  -7   2   34.50    7.50
  -3  -7   2   31.20   11.80
  -3  -7   2   18.60    8.00
  -3  -7   2   36.50    8.60
   2   7  -2   23.70   10.40
   2   7  -2   27.40    6.60
   2   7  -2   30.20    4.60
  -2  -7   2   34.50    8.20
  -2  -7   2   31.30    6.60
   1   7  -2    2.50    2.30
   1   7  -2    1.20    2.00
   1   7  -2   -1.70    7.40
   1   7  -2    3.40    4.50
   1   7  -2    1.20    4.00
  -1  -7   2   -1.40    4.40
  -1  -7   2   -1.00    5.00
   0   7  -2   27.20    6.60
   0   7  -2   25.90    3.50
   0   7  -2   30.10    9.00
   0   7  -2   24.60    6.10
   0  -7   2   22.00    7.10
   0  -7   2   20.20    6.10
  -1   7  -2  281.57   20.40
  -1   7  -2  277.07   20.90
  -1   7  -2  267.77   16.20
   1  -7   2  284.37   21.50
   1  -7   2  278.37   19.80
   1  -7   2  306.67   16.30
  -2   7  -2    5.60    8.10
   2  -7   2   13.50   11.00
  -3   7  -2   39.00    9.20
  -3   7  -2   27.40   13.00
   3  -7   2   46.60   10.20
   3  -7   2   41.90   15.80
   3  -7   2   54.29   19.60
   3  -7   2   54.39    9.10
   4   6  -2    2.40    6.90
   4   6  -2    4.40    7.60
   4   6  -2   25.10   15.80
  -4  -6   2    3.80   10.70
  -4  -6   2   12.80   10.30
  -4  -6   2   10.80    8.80
   3   6  -2   51.49    6.80
   3   6  -2   52.19   13.80
   3   6  -2   43.60    7.90
  -3  -6   2   49.80    8.60
  -3  -6   2   48.70    8.80
  -3  -6   2   56.19    9.30
  -3  -6   2   29.90   10.80
   2   6  -2  330.47   23.90
   2   6  -2  326.67   21.20
   2   6  -2  328.57   18.60
  -2  -6   2  345.17   19.90
  -2  -6   2  351.26   22.50
   1   6  -2   50.19    6.40
   1   6  -2   62.19    9.90
   1   6  -2   63.09    8.50
   1   6  -2   60.79    5.40
  -1  -6   2   72.09    9.30
  -1  -6   2   56.79    6.90
   0   6  -2   17.30    2.70
   0   6  -2   15.80    6.30
   0   6  -2    8.90    4.50
   0   6  -2   11.80    4.60
   0  -6   2   13.80    5.40
   0  -6   2   12.20    4.80
  -1   6  -2   28.10    4.30
  -1   6  -2   26.30    6.60
  -1   6  -2   45.40    8.30
   1  -6   2   44.40    8.60
   1  -6   2   31.70    6.40
   1  -6   2   37.30    4.90
  -2   6  -2  199.38   14.10
  -2   6  -2  219.68   19.50
  -2   6  -2  222.78   18.70
   2  -6   2  212.88   21.00
   2  -6   2  208.78   13.70
   2  -6   2  191.88   15.80
  -3   6  -2  117.49   15.30
  -3   6  -2   63.49   14.20
  -3   6  -2   88.99   11.20
   3  -6   2   83.89   11.20
   3  -6   2   91.79   17.80
   3  -6   2   94.69   14.70
   3  -6   2   97.19   21.80
   4   5  -2   -7.70    6.40
   4   5  -2    8.40   21.30
   4   5  -2    0.20    7.10
  -4  -5   2   -8.00    9.00
  -4  -5   2   15.20    9.40
   3   5  -2   -4.40    4.50
   3   5  -2   18.60   11.00
   3   5  -2    2.20    4.00
  -3  -5   2    3.60    5.90
  -3  -5   2   -1.00    5.00
  -3  -5   2   -4.90    7.90
   2   5  -2   25.10    9.50
   2   5  -2   20.60    5.50
   2   5  -2   24.30    3.90
  -2  -5   2   24.80    4.90
  -2  -5   2   22.20    6.20
  -2  -5   2   19.80    8.10
  -2  -5   2   23.10    5.00
   1   5  -2   34.70    7.60
   1   5  -2   24.60    3.60
   1   5  -2   26.40    4.10
   1   5  -2   19.90    4.70
  -1  -5   2   23.90    5.20
  -1  -5   2   30.60    4.90
   0   5  -2  646.34   32.00
   0   5  -2  625.34   34.60
   0   5  -2  668.53   34.30
   0   5  -2  661.43   34.10
   0  -5   2  611.64   34.20
   0  -5   2  657.53   34.70
  -1   5  -2  508.05   25.30
  -1   5  -2  504.95   28.20
  -1   5  -2  493.05   28.20
   1  -5   2  454.15   25.00
   1  -5   2  467.45   28.60
   1  -5   2  476.95   27.30
  -2   5  -2  130.29   14.30
  -2   5  -2  156.38   11.20
  -2   5  -2  146.29   14.50
   2  -5   2  146.19   18.30
   2  -5   2  145.69   10.50
   2  -5   2  135.39   12.60
  -3   5  -2  158.18   17.20
  -3   5  -2  133.29   13.50
   3  -5   2  108.69   21.90
   3  -5   2  115.59   19.30
   3  -5   2  133.79   12.20
   3  -5   2  119.59   13.40
   4   4  -2   14.50   14.20
   4   4  -2   -2.70    6.90
  -4  -4   2   11.50    8.80
  -4  -4   2   20.60    8.50
   3   4  -2   11.70    4.40
   3   4  -2   33.60   12.30
   3   4  -2    3.40    5.00
  -3  -4   2    5.60    7.50
  -3  -4   2    7.80    6.00
   2   4  -2    8.10    2.90
   2   4  -2    8.20    4.10
   2   4  -2   19.10    8.50
  -2  -4   2   10.80    6.60
  -2  -4   2    9.50    3.90
  -2  -4   2   10.50    4.70
  -2  -4   2    8.70    3.40
   1   4  -2  466.05   28.00
   1   4  -2  531.75   27.90
   1   4  -2  544.05   26.50
  -1  -4   2  513.55   28.10
  -1  -4   2  519.45   26.60
   0   4  -2    3.80    3.70
   0   4  -2    2.70    1.60
   0   4  -2   -1.00    2.30
   0   4  -2   -2.80    2.40
   0  -4   2    0.30    2.10
   0  -4   2   -4.70    2.60
  -1   4  -2   -0.70    2.90
  -1   4  -2   -4.40    3.70
  -1   4  -2    1.20    2.20
   1  -4   2   -0.30    5.00
   1  -4   2    2.40    1.80
   1  -4   2    0.70    2.60
  -2   4  -2    0.00    3.50
  -2   4  -2    0.50    5.10
   2  -4   2    2.60    3.50
   2  -4   2    4.80    7.80
   2  -4   2    0.10    3.00
   2  -4   2   -1.20    9.30
  -3   4  -2  422.36   24.10
  -3   4  -2  323.37   27.10
  -3   4  -2  430.86   27.80
   3  -4   2  400.16   33.50
   3  -4   2  364.66   22.90
   3  -4   2  402.16   23.90
   3  -4   2  359.86   28.30
   4   3  -2   12.30   15.10
   4   3  -2   -2.30    6.30
   4   3  -2  -16.50    8.30
  -4  -3   2   -7.10    7.90
   3   3  -2   47.80    7.50
   3   3  -2   42.40    6.50
  -3  -3   2   58.69    9.80
  -3  -3   2   46.00    7.90
   2   3  -2  207.68   13.80
   2   3  -2  232.38   17.30
   2   3  -2  192.68   11.90
  -2  -3   2  198.18   14.00
  -2  -3   2  179.68   14.00
  -2  -3   2  185.98   12.70
   1   3  -2   22.90    5.80
   1   3  -2   19.90    2.90
   1   3  -2   22.30    3.80
  -1  -3   2   21.50    4.30
  -1  -3   2   14.00    2.70
  -1  -3   2   17.30    3.20
   0   3  -2  219.68   12.30
   0   3  -2  196.88   12.40
   0   3  -2  221.78   11.40
   0   3  -2  225.18   13.20
   0  -3   2  197.28   12.50
   0  -3   2  233.88   13.30
  -1   3  -2  466.95   25.40
  -1   3  -2  434.36   23.90
  -1   3  -2  456.25   26.10
   1  -3   2  479.25   27.00
   1  -3   2  505.65   25.30
   1  -3   2  467.25   23.90
  -2   3  -2   12.40    4.00
  -2   3  -2    9.80    6.50
  -2   3  -2    9.80    5.10
   2  -3   2   18.20   10.10
   2  -3   2    9.40    3.30
   2  -3   2   33.20    9.40
   2  -3   2   11.30    3.60
  -3   3  -2  447.36   25.90
  -3   3  -2  468.85   29.40
  -3   3  -2  390.06   28.30
   3  -3   2  460.95   25.50
   3  -3   2  419.26   30.40
   3  -3   2  437.56   25.20
   3  -3   2  436.36   34.30
  -4   3  -2  -20.30    8.10
   4  -3   2    8.80    7.00
   4  -3   2  -14.50   14.00
   4  -3   2   -1.50   22.50
   4  -3   2    0.30    5.70
   4   2  -2   28.90   16.00
   4   2  -2   19.70    7.10
  -4  -2   2   25.80    9.20
   3   2  -2  309.27   24.00
   3   2  -2  242.48   17.90
   3   2  -2  233.68   15.80
  -3  -2   2  264.97   17.30
  -3  -2   2  239.68   17.90
   2   2  -2  211.98   17.10
   2   2  -2  211.38   12.10
   2   2  -2  194.08   13.70
  -2  -2   2  193.48   12.40
  -2  -2   2  178.18   13.40
   1   2  -2  770.92   40.10
   1   2  -2  891.11   39.60
  -1  -2   2  754.22   38.80
  -1  -2   2  807.62   40.40
  -1  -2   2  765.02   39.60
   0   2  -2  321.97   16.60
   0   2  -2  303.57   15.20
   0   2  -2  334.57   15.60
   0   2  -2  272.27   16.00
   0  -2   2  278.57   15.80
   0  -2   2  294.67   16.10
   0  -2   2  307.57   16.60
  -1   2  -2  206.18   13.60
  -1   2  -2  192.58   12.30
  -1   2  -2  213.58   11.70
   1  -2   2  218.88   11.60
   1  -2   2  228.78   14.90
   1  -2   2  198.28   12.10
  -2   2  -2 1421.66   72.29
  -2   2  -2 1495.45   69.69
  -2   2  -2 1465.15   70.89
   2  -2   2 1200.78   70.69
   2  -2   2 1475.95   69.39
   2  -2   2 1411.56   74.09
   2  -2   2 1385.76   69.49
  -3   2  -2  292.67   18.10
  -3   2  -2  255.97   23.20
   3  -2   2  279.47   23.70
   3  -2   2  270.77   17.20
   3  -2   2  263.27   16.70
  -4   2  -2  154.08   16.90
   4  -2   2  163.18   29.20
   4  -2   2  163.28   15.40
   4  -2   2  166.48   23.30
   4  -2   2  177.08   13.70
   4   1  -2   56.99   17.80
   4   1  -2   32.60    8.90
   4   1  -2   49.60    9.10
   4   1  -2   88.19   19.20
   4   1  -2   45.70    9.30
  -4  -1   2   65.29   11.30
   3   1  -2   55.69   13.10
   3   1  -2   51.29    6.90
   3   1  -2   40.00    7.30
   3   1  -2   36.40    8.20
  -3  -1   2   28.20    7.50
  -3  -1   2   37.60    7.00
   2   1  -2  793.82   45.00
   2   1  -2  799.12   42.50
   2   1  -2  821.52   43.60
   2   1  -2  895.91   41.80
  -2  -1   2  816.62   42.00
  -2  -1   2  829.72   42.40
   1   1  -2  299.97   16.10
   1   1  -2  300.57   18.30
   1   1  -2  322.07   17.10
  -1  -1   2  301.37   15.90
  -1  -1   2  308.97   16.30
  -1  -1   2  300.77   17.00
   0   1  -2  206.18   10.30
   0   1  -2  194.48   10.70
   0   1  -2  218.18   11.10
   0   1  -2  193.18   10.20
   0  -1   2  197.08   10.90
   0  -1   2  209.48   11.30
   0  -1   2  188.88   10.30
  -1   1  -2 2144.39  102.59
  -1   1  -2 2142.59  102.89
  -1   1  -2 2252.37  104.59
   1  -1   2 2147.99  102.59
   1  -1   2 1992.80  102.79
   1  -1   2 1996.60  102.59
   1  -1   2 2281.57  105.19
  -2   1  -2  291.37   18.10
  -2   1  -2  305.97   19.80
  -2   1  -2  300.67   17.20
   2  -1   2  306.27   17.00
   2  -1   2  308.37   16.80
   2  -1   2  317.97   22.90
   2  -1   2  304.77   20.20
  -3   1  -2   87.29   12.80
   3  -1   2  110.79   17.30
   3  -1   2   75.99   18.30
   3  -1   2   78.39    7.50
  -4   1  -2    8.70    8.40
   4  -1   2    9.90   14.00
   4  -1   2   10.80    4.00
   4  -1   2  -21.50   17.80
   4  -1   2    7.40    7.10
   4   0  -2   48.60    8.90
   4   0  -2   57.99   19.30
  -4   0   2   30.20    9.80
   3   0  -2  171.58   16.40
   3   0  -2  240.38   23.70
   3   0  -2  182.58   15.00
   3   0  -2  164.58   18.70
   3   0  -2  171.88   12.60
  -3   0   2  168.98   14.40
  -3   0   2  184.28   13.80
   2   0  -2   11.10    3.90
   2   0  -2   42.70   11.10
   2   0  -2   16.00    3.30
   2   0  -2   15.50    6.70
  -2   0   2   14.90    3.60
  -2   0   2    9.20    4.10
   1   0  -2  187.08   11.50
   1   0  -2  199.68   12.90
   1   0  -2  181.68   10.80
   1   0  -2  180.28   10.30
  -1   0   2  192.08   10.30
  -1   0   2  176.88   10.50
   0   0  -2   14.00    2.60
   0   0  -2   12.50    2.10
   0   0  -2   17.20    2.50
   0   0   2   10.80    2.30
   0   0   2   15.80    2.50
  -1   0  -2   55.89    8.10
  -1   0  -2   57.19    4.40
  -1   0  -2   56.39    4.10
   1   0   2   54.19    3.90
   1   0   2   58.59    8.70
   1   0   2   61.69    4.30
  -2   0  -2  296.37   19.80
  -2   0  -2  293.37   16.20
   2   0   2  283.77   18.60
   2   0   2  287.67   21.70
   2   0   2  267.77   15.10
   2   0   2  290.97   15.90
  -3   0  -2   59.29    7.90
  -3   0  -2   68.19   12.50
   3   0   2   60.89    7.30
   3   0   2   58.19    6.00
   3   0   2   64.79   16.90
  -4   0  -2    6.80    8.10
   4   0   2    7.10    3.00
   4   0   2   -2.80    5.90
   4   0   2    4.20   12.70
   4   0   2   14.90   19.10
   4  -1  -2   16.00    7.60
   4  -1  -2   -0.30   15.80
   4  -1  -2   17.90    7.30
   4  -1  -2   46.90   19.00
   4  -1  -2    8.60    7.70
  -4   1   2   11.80    8.80
   3  -1  -2   27.20   12.10
   3  -1  -2   11.40    6.20
   3  -1  -2   16.10    4.70
  -3   1   2   13.00    6.80
  -3   1   2   23.70    7.20
   2  -1  -2    9.50    6.30
   2  -1  -2   10.80    4.80
   2  -1  -2    5.30    2.70
   2  -1  -2   25.90    9.50
  -2   1   2    5.90    3.10
  -2   1   2    0.40    3.80
   1  -1  -2  578.64   27.90
   1  -1  -2  544.65   27.30
   1  -1  -2  530.15   29.10
  -1   1   2  523.05   27.30
  -1   1   2  545.55   27.60
   0   1   2   28.00    3.10
  -1  -1  -2   74.69    9.40
  -1  -1  -2   68.79    5.00
   1   1   2   87.49    6.80
   1   1   2   67.29    8.20
   1   1   2   76.09    4.90
  -2  -1  -2  228.98   17.70
  -2  -1  -2  225.18   13.50
   2   1   2  220.08   18.90
   2   1   2  227.28   12.20
   2   1   2  236.68   13.20
   2   1   2  264.27   16.50
   2   1   2  223.78   12.30
  -3  -1  -2    3.90    4.70
  -3  -1  -2   10.60    9.50
   3   1   2    7.00    3.40
   3   1   2   16.30   10.40
   3   1   2   -8.80   12.80
   3   1   2    3.80    2.20
   3   1   2    9.50    3.70
  -4  -1  -2   35.50   11.70
  -4  -1  -2   11.40    7.70
   4   1   2   14.60    2.90
   4   1   2   11.70   17.90
   4   1   2   21.40    6.90
   4   1   2    3.40    4.20
   4   1   2   26.60   14.60
   4  -2  -2    8.70    7.00
   4  -2  -2   16.70    7.30
   4  -2  -2   50.79   20.60
   4  -2  -2   25.60   18.10
  -4   2   2   10.70    9.30
   3  -2  -2    3.00    5.30
   3  -2  -2    6.00   11.80
   3  -2  -2   29.70   15.50
  -3   2   2    2.50    4.80
  -3   2   2  -10.00    5.30
   2  -2  -2  221.18   15.50
   2  -2  -2  209.78   15.50
   2  -2  -2  204.58   12.40
   2  -2  -2  215.68   16.70
  -2   2   2  210.38   12.90
  -2   2   2  171.78   13.30
   1  -2  -2  292.07   15.20
   1  -2  -2  299.97   17.50
   1  -2  -2  297.57   16.30
  -1   2   2  271.67   16.00
  -1   2   2  296.57   15.40
  -1   2   2  278.57   17.70
   0  -2  -2  193.88    9.80
   0  -2  -2  226.68   11.50
   0  -2  -2  172.28   10.70
   0   2   2  192.98   10.80
   0   2   2  171.18    9.90
   0   2   2  217.18   11.80
   0   2   2  205.78   11.50
  -1  -2  -2 1244.98   60.59
  -1  -2  -2 1064.09   57.39
  -1  -2  -2 1134.19   56.89
   1   2   2 1301.87   59.29
   1   2   2 1224.58   57.39
   1   2   2 1193.28   56.99
  -2  -2  -2  340.47   22.70
  -2  -2  -2  336.17   18.20
   2   2   2  328.57   16.60
   2   2   2  311.17   23.10
   2   2   2  350.36   20.90
   2   2   2  320.47   17.70
   2   2   2  335.17   17.00
  -3  -2  -2   12.30    4.60
  -3  -2  -2    0.30    9.60
   3   2   2    8.40    2.80
   3   2   2   23.50   10.30
   3   2   2    8.20   12.50
   3   2   2   -1.90    3.20
  -4  -2  -2    9.10    7.40
  -4  -2  -2   26.20   11.90
   4   2   2   25.90   13.50
   4   2   2    6.30    2.90
   4   2   2    8.60    6.30
   4   2   2   11.30    2.10
   4  -3  -2   11.30    7.70
   4  -3  -2   13.30    7.70
   4  -3  -2  -20.30   17.00
   4  -3  -2   25.60   19.90
  -4   3   2   19.20   10.10
   3  -3  -2   60.79   16.40
   3  -3  -2   49.50   13.70
   3  -3  -2   40.20    7.70
   3  -3  -2   45.10    6.80
  -3   3   2   64.29   10.90
  -3   3   2   44.50    7.50
   2  -3  -2  184.28   15.40
   2  -3  -2  222.98   15.10
   2  -3  -2  199.08   12.30
  -2   3   2  205.18   14.40
  -2   3   2  193.28   12.70
   1  -3  -2  872.31   41.90
   1  -3  -2  808.02   40.20
   1  -3  -2  783.22   42.20
  -1   3   2  819.12   40.40
  -1   3   2  838.72   43.10
  -1   3   2  783.42   41.60
   0  -3  -2  320.97   15.30
   0  -3  -2  331.57   17.50
   0  -3  -2  296.07   17.00
   0   3   2  281.57   15.40
   0   3   2  308.97   17.60
   0   3   2  351.86   18.40
   0   3   2  319.77   17.10
  -1  -3  -2  109.79    6.20
  -1  -3  -2  114.69    6.70
   1   3   2  110.29    6.70
   1   3   2  100.99    6.00
   1   3   2  117.99    9.30
  -2  -3  -2    7.20    7.80
  -2  -3  -2    4.60    2.50
   2   3   2    3.60    1.90
   2   3   2    4.80    1.60
   2   3   2   10.60    6.50
  -3  -3  -2   36.50   12.40
  -3  -3  -2   51.89    6.80
   3   3   2   53.79    6.30
   3   3   2   40.80    4.80
   3   3   2   42.50    5.30
   3   3   2   45.50   12.30
  -4  -3  -2    8.90   11.80
  -4  -3  -2    6.90    7.40
   4   3   2   11.40   12.30
   4   3   2   -1.50    5.80
   4  -4  -2   -4.90   19.10
   4  -4  -2   35.00   21.50
   4  -4  -2   14.90    8.40
  -4   4   2    6.40   10.00
   3  -4  -2    6.40    5.70
   3  -4  -2   13.60   13.50
   3  -4  -2    6.90   11.80
   3  -4  -2    7.00    4.40
  -3   4   2   15.10    6.10
  -3   4   2    6.60    8.20
   2  -4  -2    1.60    4.20
   2  -4  -2    4.70    6.60
   2  -4  -2    4.40    2.80
  -2   4   2    2.60    3.40
  -2   4   2    9.40    6.60
  -2   4   2   -1.90    4.90
   1  -4  -2  154.98    9.00
   1  -4  -2  155.68   11.30
   1  -4  -2  153.58   11.60
  -1   4   2  162.68   12.80
  -1   4   2  154.18    9.30
  -1   4   2  153.28   11.10
   0  -4  -2    0.90    2.30
   0  -4  -2   -0.90    2.30
   0  -4  -2    2.20    0.70
   0   4   2    2.50    2.10
   0   4   2    0.20    5.50
   0   4   2    2.50    2.60
   0   4   2    2.10    0.80
  -1  -4  -2   24.20    3.70
  -1  -4  -2   20.30    2.20
  -1  -4  -2   26.80    4.60
   1   4   2   30.50    6.70
   1   4   2   20.60    3.10
   1   4   2   24.20    2.00
  -2  -4  -2 1297.67   71.69
  -2  -4  -2 1363.26   66.89
  -2  -4  -2 1421.86   67.29
   2   4   2 1410.86   66.79
   2   4   2 1401.16   66.89
   2   4   2 1344.47   70.49
  -3  -4  -2  191.18   21.80
  -3  -4  -2  192.98   13.40
   3   4   2  178.98   18.60
   3   4   2  187.98   11.10
   3   4   2  195.48   12.60
  -4  -4  -2  170.78   17.10
  -4  -4  -2  169.38   23.00
   4   4   2  160.38   14.20
   4   4   2  169.98   21.10
   3  -5  -2   25.60   14.40
   3  -5  -2    8.00   12.20
   3  -5  -2   10.80    5.30
   3  -5  -2    9.30    5.90
  -3   5   2    5.40    5.90
  -3   5   2   22.30    9.80
   2  -5  -2   22.90    4.30
   2  -5  -2   15.40    5.70
   2  -5  -2   15.20    8.10
  -2   5   2   27.10    8.10
  -2   5   2   22.60    4.90
  -2   5   2   17.50    7.80
   1  -5  -2  566.04   28.20
   1  -5  -2  525.85   30.80
   1  -5  -2  559.04   31.00
  -1   5   2  561.34   30.90
  -1   5   2  554.34   28.40
  -1   5   2  594.34   32.30
  -1   5   2  561.74   32.10
   0  -5  -2  204.18   10.50
   0  -5  -2  210.98   13.50
   0  -5  -2  221.28   13.60
   0   5   2  217.78   14.90
   0   5   2  220.18   10.70
   0   5   2  213.08   13.50
   0   5   2  200.08   14.00
  -1  -5  -2   17.70    4.40
  -1  -5  -2   14.00    3.10
  -1  -5  -2   14.70    2.10
   1   5   2   20.10    5.90
   1   5   2   14.30    1.40
   1   5   2   13.50    3.10
  -2  -5  -2    3.60    9.40
  -2  -5  -2    6.50    3.10
  -2  -5  -2    1.50    2.40
   2   5   2    1.50    1.70
   2   5   2   -0.10    2.30
   2   5   2    0.00    7.40
  -3  -5  -2    8.20    5.10
  -3  -5  -2   14.80   12.30
   3   5   2   22.80   11.40
   3   5   2   16.90    3.70
   3   5   2   18.00    3.50
  -4  -5  -2   97.79   19.60
  -4  -5  -2   67.79   12.00
   4   5   2   63.89   17.90
   4   5   2   78.29   10.50
   4   5   2   83.39    5.90
   3  -6  -2   12.80   12.90
   3  -6  -2   13.20    5.80
   3  -6  -2   24.00   13.60
   3  -6  -2   23.90    7.70
  -3   6   2   27.70   11.40
  -3   6   2   13.20    7.10
   2  -6  -2   11.30    4.10
   2  -6  -2    9.80    5.40
   2  -6  -2   21.70    8.90
  -2   6   2    9.50    4.30
  -2   6   2   15.80    8.60
  -2   6   2    9.40    7.90
   1  -6  -2  191.78   14.30
   1  -6  -2  195.48   14.60
   1  -6  -2  185.38   10.90
  -1   6   2  179.68   15.70
  -1   6   2  196.88   16.10
  -1   6   2  193.88   11.30
  -1   6   2  197.38   14.30
   0  -6  -2   54.59    7.00
   0  -6  -2   52.99    7.00
   0  -6  -2   60.09    3.50
   0   6   2   61.19    9.90
   0   6   2   56.29    7.80
   0   6   2   61.19    3.70
   0   6   2   58.29    6.90
  -1  -6  -2  114.49    9.10
  -1  -6  -2  117.49    9.60
   1   6   2  107.59   11.60
   1   6   2  114.59    9.50
   1   6   2  103.19    5.50
  -2  -6  -2    1.60    4.70
  -2  -6  -2    8.20    3.90
  -2  -6  -2    8.60    2.80
   2   6   2    1.80    7.50
   2   6   2    3.20    1.70
   2   6   2    1.20    2.90
  -3  -6  -2   37.50    6.60
  -3  -6  -2   36.10   13.70
   3   6   2   42.70   13.00
   3   6   2   47.80    6.60
   3   6   2   38.10    5.20
  -4  -6  -2  628.14   46.40
  -4  -6  -2  720.03   39.50
   4   6   2  624.54   34.90
   4   6   2  640.44   45.10
   4   6   2  726.73   37.60
   4   6   2  751.82   34.70
   3  -7  -2   -3.20   11.10
   3  -7  -2   -4.00   13.00
   3  -7  -2    7.70    5.60
   3  -7  -2   10.80    7.20
  -3   7   2   -6.80    7.00
  -3   7   2   23.40   12.60
  -3   7   2  -17.90   12.00
   2  -7  -2   46.60   13.40
   2  -7  -2   21.70    6.70
   2  -7  -2   38.40    5.60
  -2   7   2   35.10   10.40
  -2   7   2   39.90    6.30
   1  -7  -2    0.70    1.90
   1  -7  -2   -2.90    5.30
   1  -7  -2    2.50    4.00
  -1   7   2   -8.60    4.70
  -1   7   2    4.10    2.60
  -1   7   2    5.80    8.80
  -1   7   2    3.40    5.90
   0  -7  -2   33.20    6.90
   0  -7  -2   22.40    2.20
   0  -7  -2   23.40    5.30
   0   7   2   26.20    6.10
   0   7   2   30.50    6.30
   0   7   2   26.20    8.70
   0   7   2   28.70    2.70
  -1  -7  -2  206.78   13.60
  -1  -7  -2  181.18   13.80
   1   7   2  191.88   14.10
   1   7   2  184.58   16.50
  -2  -7  -2   45.40    8.40
  -2  -7  -2   42.20    5.00
  -2  -7  -2   54.99    8.50
   2   7   2   40.90   11.50
   2   7   2   33.20    5.70
   2   7   2   45.10    3.90
  -3  -7  -2  558.74   31.20
  -3  -7  -2  577.94   39.60
  -3  -7  -2  579.24   34.50
  -3  -7  -2  571.24   31.30
   3   7   2  514.35   36.70
   3   7   2  586.14   29.80
   3   7   2  581.04   30.90
  -4  -7  -2   91.19   13.30
  -4  -7  -2   59.49   21.30
   4   7   2  106.39   10.00
   4   7   2   83.19   11.20
   3  -8  -2   11.80   15.80
   3  -8  -2    7.90    7.00
   3  -8  -2   20.10    8.80
  -3   8   2  -14.40   13.70
  -3   8   2    5.50    7.80
   2  -8  -2   -1.80    3.80
   2  -8  -2    4.60    5.90
   2  -8  -2    8.00    9.00
  -2   8   2    0.60    4.40
  -2   8   2   -3.50    8.70
  -2   8   2    7.50    8.00
   1  -8  -2  249.88   14.40
   1  -8  -2  264.97   19.20
   1  -8  -2  261.77   19.70
  -1   8   2  261.47   14.90
  -1   8   2  255.17   21.00
  -1   8   2  263.77   21.60
  -1   8   2  255.77   19.30
   0  -8  -2  109.89   11.30
   0  -8  -2  107.29   11.40
   0   8   2   90.69   13.50
   0   8   2  111.59    6.40
   0   8   2  113.59   11.20
   0   8   2  109.39   12.50
  -1  -8  -2    1.00    4.10
  -1  -8  -2   -3.80    4.00
   1   8   2   -0.60    4.10
   1   8   2   -5.30    8.40
  -2  -8  -2  342.57   23.10
  -2  -8  -2  342.37   22.10
   2   8   2  381.26   22.60
   2   8   2  386.16   18.40
   2   8   2  326.67   26.00
  -3  -8  -2    4.80    5.60
  -3  -8  -2   -1.80   14.30
  -3  -8  -2   -3.60    5.40
   3   8   2    8.60    4.90
   3   8   2    7.10    3.30
   3   8   2    6.50   11.30
   2  -9  -2   80.39   13.60
   2  -9  -2   83.69    9.30
   2  -9  -2  115.29   16.10
  -2   9   2   42.80   13.30
  -2   9   2   85.89   15.40
  -2   9   2   63.99    8.80
   1  -9  -2   21.00    8.60
   1  -9  -2    9.70    3.10
   1  -9  -2   12.20    6.20
  -1   9   2    6.80    3.60
  -1   9   2   10.40    9.90
  -1   9   2   12.80    8.00
  -1   9   2   -2.50    6.60
   0  -9  -2   -4.00    4.70
   0  -9  -2   -4.00    6.30
   0   9   2   -0.20    1.60
   0   9   2   -3.20    5.30
   0   9   2    0.90    5.90
   0   9   2   -5.00    9.30
  -1  -9  -2    6.10    6.30
  -1  -9  -2    7.70    5.30
   1   9   2    9.20    6.00
   1   9   2    1.40    5.30
   1   9   2   -4.40    9.70
  -2  -9  -2   52.39    9.70
  -2  -9  -2   40.90    7.80
   2   9   2   40.70   13.00
   2   9   2   49.40    3.60
   2   9   2   48.50    7.90
  -3  -9  -2   88.19   20.20
  -3  -9  -2  111.49   12.20
  -3  -9  -2  109.09   15.60
  -3  -9  -2   79.99   14.10
   3   9   2  102.99   18.00
   3   9   2  116.19    8.60
   3   9   2  133.49   13.40
   2 -10  -2    6.10    8.30
  -2  10   2   -7.30   11.70
  -2  10   2   25.50   11.80
   1 -10  -2   12.30    3.40
   1 -10  -2   20.10    9.40
   1 -10  -2    6.80    6.60
  -1  10   2    5.50   10.00
  -1  10   2    8.00    8.60
  -1  10   2    6.90    8.80
  -1  10   2    7.30    3.80
   0 -10  -2   43.40    8.70
   0 -10  -2   57.99   11.60
   0  10   2   49.20   10.40
   0  10   2   43.60    4.00
   0  10   2   38.00   12.60
   0  10   2   44.50    9.50
  -1 -10  -2   50.09    8.80
  -1 -10  -2   51.79   17.20
   1  10   2   57.09   14.00
   1  10   2   49.10   11.80
   1  10   2   42.00    8.80
  -2 -10  -2   19.20    7.20
  -2 -10  -2   49.40   10.10
   2  10   2   36.40    7.80
   2  10   2   37.90   13.40
  -3 -10  -2   36.50   19.40
  -3 -10  -2  -10.90    7.40
  -3 -10  -2   21.00   10.10
   3  10   2   -2.30    3.00
   3  10   2   18.30    7.00
   3  10   2    3.60   12.40
   2 -11  -2   16.80   10.30
   2 -11  -2   15.60    6.40
  -2  11   2   39.90   13.80
  -2  11   2   11.70    7.70
   1 -11  -2   59.59   11.50
   1 -11  -2   68.79    7.00
  -1  11   2   60.99    8.20
  -1  11   2   73.39   12.70
  -1  11   2   57.79   13.40
  -1  11   2   73.99   16.40
   0 -11  -2   32.10    8.70
   0  11   2   43.20   10.40
   0  11   2   56.79   14.50
   0  11   2   59.89   12.40
   0  11   2   51.09    4.50
  -1 -11  -2   42.50    9.30
   1  11   2   42.50   10.00
   1  11   2   57.89   11.70
   1  11   2   64.49   15.80
  -2 -11  -2   86.39   15.00
   2  11   2   90.09   14.70
   2  11   2   87.39   18.50
   1 -12  -2   -0.30    3.70
   1 -12  -2    2.70    9.20
  -1  12   2    2.40   11.00
  -1  12   2   13.20   11.50
  -1  12   2    3.70   12.40
  -1  12   2    0.10    5.00
   0 -12  -2    5.00    8.40
   0  12   2   20.30   13.00
   0  12   2   22.30   10.60
   0  12   2   12.50    2.30
   0  12   2   24.20   10.20
  -1 -12  -2   65.99   11.50
   1  12   2   76.69   18.50
   1  12   2   64.49   12.40
   2  12   2   23.80   15.70
   2  12   2   14.70    9.40
   0  13   2   39.30   13.30
   0  13   2   16.50   15.20
  -1 -13  -2   11.60    9.50
   1  13   2   11.10   10.90
   2  11  -3   35.80   14.70
   2  11  -3   32.40    5.50
   2  11  -3   46.80   11.50
   2  11  -3   28.80    5.70
  -2 -11   3    1.90   11.40
   1  11  -3   38.10   10.50
   1  11  -3   48.40   11.10
   1  11  -3   28.20    6.00
   1  11  -3   44.60   14.40
   1  11  -3   49.30    5.70
  -1 -11   3   34.50   11.70
   0  11  -3   23.20    5.30
   0  11  -3   40.10   12.60
   0  11  -3   19.00    9.90
   0  11  -3   25.30   10.40
   0 -11   3   13.70    9.80
  -1  11  -3   71.69    9.30
  -1  11  -3   89.49   16.20
  -1  11  -3   98.39   17.10
   1 -11   3   58.69   13.00
   2  10  -3  136.09   10.90
   2  10  -3  141.09   10.30
   2  10  -3  133.09   19.30
   2  10  -3  156.08   18.40
  -2 -10   3  113.69   20.50
   1  10  -3    5.20    7.20
   1  10  -3    4.20   10.20
   1  10  -3    5.50    4.20
   1  10  -3   -0.40    3.20
   1  10  -3    8.20    7.10
  -1 -10   3  -11.90    7.50
  -1 -10   3   29.30    8.90
   0  10  -3   38.10   10.20
   0  10  -3   21.10    4.60
   0  10  -3   21.50    8.40
   0  10  -3   25.40   11.30
   0 -10   3   11.10    8.30
  -1  10  -3  384.86   23.30
  -1  10  -3  393.76   30.40
  -1  10  -3  416.56   29.20
   1 -10   3  418.06   29.80
   1 -10   3  347.37   28.50
   3   9  -3   38.60   10.00
   3   9  -3   48.00    7.70
   3   9  -3   32.80   15.70
  -3  -9   3   34.60   13.80
  -3  -9   3   39.40   12.70
   2   9  -3   -1.30    9.40
   2   9  -3    3.00    6.60
   2   9  -3   -0.90    3.80
  -2  -9   3  -10.70    7.60
   1   9  -3    2.80    3.10
   1   9  -3    3.50    3.90
   1   9  -3   -3.20    5.80
   1   9  -3   -2.90    5.30
   1   9  -3    4.40    8.50
  -1  -9   3   -4.10    6.70
  -1  -9   3   19.70    7.00
   0   9  -3    6.50    6.40
   0   9  -3    7.60    6.80
   0   9  -3    5.90    8.70
   0   9  -3   12.00    3.80
   0  -9   3   16.00    8.00
   0  -9   3    4.40    6.90
  -1   9  -3   36.10    6.30
  -1   9  -3   41.60   10.00
  -1   9  -3   64.09   12.50
   1  -9   3   44.70    9.80
   1  -9   3   49.99   12.70
   1  -9   3   35.40    5.70
  -2   9  -3   68.09    9.60
  -2   9  -3   75.99   14.80
   2  -9   3   65.69    8.70
   2  -9   3   50.99   11.90
   3   8  -3   -3.90    7.10
   3   8  -3   13.50    5.40
   3   8  -3    5.50   12.30
  -3  -8   3   10.20   10.90
  -3  -8   3   10.40    9.10
  -3  -8   3   26.00    7.10
   2   8  -3   22.60    4.70
   2   8  -3   21.50   10.60
   2   8  -3   29.20    7.80
  -2  -8   3   31.90    7.50
  -2  -8   3   14.60    9.40
   1   8  -3   26.40    4.70
   1   8  -3   25.60    4.00
   1   8  -3   22.90    6.80
   1   8  -3   39.60   10.50
   1   8  -3   29.80   11.90
  -1  -8   3   29.10    8.90
  -1  -8   3   39.50    8.40
   0   8  -3    9.40    6.10
   0   8  -3    1.60    2.90
   0   8  -3    2.50    8.10
   0  -8   3    3.30    6.60
  -1   8  -3    1.50    6.90
  -1   8  -3    2.80    6.20
  -1   8  -3    3.50    3.90
   1  -8   3    5.70    6.00
   1  -8   3    3.10    3.40
   1  -8   3   19.50    9.20
  -2   8  -3   29.10   11.50
  -2   8  -3    2.70    5.70
  -2   8  -3   18.10    9.50
   2  -8   3   10.50    5.40
   2  -8   3    7.20    7.70
   2  -8   3   32.00   14.10
   3   7  -3   45.40   15.50
   3   7  -3   22.00    9.10
   3   7  -3   32.80    6.40
  -3  -7   3   50.09   11.50
  -3  -7   3   58.39    9.00
   2   7  -3   -2.10    2.90
   2   7  -3    2.60    5.30
   2   7  -3    2.60    9.10
  -2  -7   3    0.60    6.30
  -2  -7   3    1.30    4.50
   1   7  -3   95.39    6.80
   1   7  -3   80.29    7.40
   1   7  -3   84.39   11.60
   1   7  -3   87.99    8.90
   1   7  -3   93.79   11.60
  -1  -7   3   95.39   12.50
  -1  -7   3   92.29    9.80
   0   7  -3    1.10    6.80
   0   7  -3    0.90    2.60
   0   7  -3   -3.40    4.40
   0   7  -3    0.10    4.70
   0  -7   3    4.90    4.90
   0  -7   3   -5.40    5.20
  -1   7  -3   13.90    6.40
  -1   7  -3   16.90    4.10
  -1   7  -3   12.00    7.70
   1  -7   3   10.80    5.60
   1  -7   3   20.60    9.30
   1  -7   3   13.80    3.60
  -2   7  -3   29.90    6.50
  -2   7  -3   56.59   12.00
  -2   7  -3   47.80   10.30
   2  -7   3   29.60    7.80
   2  -7   3   37.70    6.30
   2  -7   3   34.10   13.80
  -3   7  -3   36.50   14.60
  -3   7  -3   43.70   10.50
   3  -7   3   51.59   10.90
   3  -7   3   32.10   21.00
   3  -7   3    5.60   14.90
   3  -7   3   87.49   11.70
   3   6  -3   52.29   14.10
   3   6  -3   36.10    6.40
   3   6  -3   32.30    7.80
  -3  -6   3   38.20    8.80
  -3  -6   3   49.30    7.90
  -3  -6   3   38.50   10.00
  -3  -6   3   34.60    8.40
   2   6  -3   31.70   10.70
   2   6  -3   26.60    4.50
   2   6  -3   30.20    7.00
  -2  -6   3   25.10    7.70
  -2  -6   3   26.80    5.40
   1   6  -3   59.09   10.20
   1   6  -3   45.00    5.70
   1   6  -3   54.29    9.00
   1   6  -3   54.39    6.50
  -1  -6   3   81.79   10.40
  -1  -6   3   53.59    6.80
   0   6  -3    2.80    2.30
   0   6  -3    1.60    3.80
   0   6  -3    0.80    4.30
   0   6  -3   -0.70    5.60
   0  -6   3   -4.20    4.40
   0  -6   3    1.70    4.10
  -1   6  -3   94.39   11.30
  -1   6  -3   93.09   11.40
  -1   6  -3  110.09    8.50
   1  -6   3   97.49    7.70
   1  -6   3  115.09   13.50
   1  -6   3  106.09   11.30
  -2   6  -3   74.89    9.90
  -2   6  -3   79.19   14.00
  -2   6  -3   86.59   12.00
   2  -6   3   70.99   10.90
   2  -6   3   99.69   11.30
   2  -6   3   81.89    8.30
   2  -6   3   95.59   16.80
  -3   6  -3   11.00   10.30
  -3   6  -3    2.50    6.90
   3  -6   3   -4.40    6.00
   3  -6   3    3.80    6.90
   3  -6   3  -23.90   12.40
   3  -6   3   -4.60   17.30
   4   5  -3   26.80    8.70
  -4  -5   3   13.70    8.10
  -4  -5   3    9.90   11.50
   3   5  -3   10.00    6.00
   3   5  -3   14.40    4.90
   3   5  -3   24.40   11.10
  -3  -5   3   16.00    6.60
  -3  -5   3   13.70    7.70
  -3  -5   3   14.50    5.10
   2   5  -3   51.79    8.90
   2   5  -3   55.69   11.40
   2   5  -3   42.80    5.90
  -2  -5   3   46.10    8.80
  -2  -5   3   41.30    5.60
  -2  -5   3   42.80    8.00
  -2  -5   3   47.10    6.90
   1   5  -3  336.37   21.00
   1   5  -3  335.47   18.60
   1   5  -3  332.87   20.60
   1   5  -3  336.07   18.80
  -1  -5   3  344.57   18.90
  -1  -5   3  334.47   21.00
   0   5  -3    0.00    4.40
   0   5  -3    1.30    1.90
   0   5  -3    0.90    3.30
   0  -5   3    1.30    3.50
   0  -5   3   -2.50    3.40
  -1   5  -3    6.10    5.70
  -1   5  -3   12.40    3.40
  -1   5  -3   11.20    4.70
   1  -5   3   17.60    7.10
   1  -5   3   17.30    3.30
   1  -5   3   15.30    4.50
  -2   5  -3   77.09    8.50
  -2   5  -3   89.79   12.80
  -2   5  -3   75.49   12.20
   2  -5   3   76.99    9.40
   2  -5   3   69.59   11.60
   2  -5   3   91.79   16.80
   2  -5   3   73.29    7.80
  -3   5  -3   51.19   11.90
  -3   5  -3   97.79   15.30
  -3   5  -3   88.49   11.30
   3  -5   3   71.79   11.50
   3  -5   3   73.89   10.20
   3  -5   3   58.59   19.60
   4   4  -3    8.10    7.50
   4   4  -3   19.10   14.90
  -4  -4   3    8.40    9.70
   3   4  -3   -1.00    4.00
   3   4  -3   24.20   12.30
   3   4  -3    0.60    5.20
  -3  -4   3    1.30    6.00
  -3  -4   3    5.00    6.00
   2   4  -3  203.28   14.80
   2   4  -3  192.78   17.10
   2   4  -3  208.98   12.80
  -2  -4   3  194.68   14.60
  -2  -4   3  211.58   14.20
  -2  -4   3  192.28   12.10
  -2  -4   3  217.18   16.20
   1   4  -3  770.92   37.90
   1   4  -3  753.52   38.20
   1   4  -3  680.93   39.20
   1   4  -3  785.72   39.80
  -1  -4   3  767.52   40.00
  -1  -4   3  768.02   37.90
   0   4  -3   25.50    4.70
   0   4  -3   21.80    2.90
   0   4  -3   15.50    4.10
   0   4  -3   15.80    4.00
   0  -4   3   17.00    4.50
   0  -4   3   17.20    4.30
  -1   4  -3    0.00    2.90
  -1   4  -3    1.20    2.20
   1  -4   3    2.70    3.10
   1  -4   3    0.60    6.10
   1  -4   3    0.20    2.00
  -2   4  -3    6.00    3.80
  -2   4  -3   11.10    5.20
  -2   4  -3    2.00    6.60
   2  -4   3    9.60    3.80
   2  -4   3    9.70    8.60
   2  -4   3   14.10   11.10
   2  -4   3    8.40    4.00
  -3   4  -3   -5.50    5.30
  -3   4  -3   -4.70    7.90
  -3   4  -3    9.50    8.80
   3  -4   3   -3.40   14.60
   3  -4   3    2.80    4.80
   3  -4   3   -6.70   11.70
   3  -4   3   13.30    5.80
   4   3  -3   26.10   16.10
   4   3  -3    2.00    7.00
  -4  -3   3    1.80    9.00
   3   3  -3    0.20    5.30
   3   3  -3   -0.60    3.80
   3   3  -3   28.40   12.00
  -3  -3   3   -3.80    5.20
  -3  -3   3    0.00    5.40
   2   3  -3  297.47   16.90
   2   3  -3  314.37   21.50
   2   3  -3  310.07   19.00
  -2  -3   3  294.57   19.00
  -2  -3   3  278.07   17.60
  -2  -3   3  278.57   17.60
   1   3  -3  663.53   33.10
   1   3  -3  592.04   32.70
   1   3  -3  633.74   31.80
  -1  -3   3  606.74   33.00
  -1  -3   3  610.94   30.80
   0   3  -3 2253.47  112.69
   0   3  -3 2485.15  111.99
   0   3  -3 2328.57  111.59
   0   3  -3 2264.37  113.19
   0  -3   3 2281.07  112.89
   0  -3   3 2355.36  113.29
  -1   3  -3  247.38   16.10
  -1   3  -3  249.88   15.20
  -1   3  -3  244.98   13.80
   1  -3   3  231.48   17.30
   1  -3   3  251.77   13.70
   1  -3   3  252.37   15.10
  -2   3  -3    8.30    4.40
  -2   3  -3   -4.20    2.30
  -2   3  -3  -10.60    5.30
   2  -3   3   -2.30    9.50
   2  -3   3    6.10    3.10
   2  -3   3    9.20    8.20
   2  -3   3    4.80    3.20
  -3   3  -3  164.98   17.40
  -3   3  -3  165.48   13.60
  -3   3  -3  177.38   17.10
   3  -3   3  150.78   12.60
   3  -3   3  176.28   12.90
   3  -3   3  136.49   23.20
  -4   3  -3  400.66   27.80
   4  -3   3  401.76   24.60
   4  -3   3  388.26   44.90
   4  -3   3  395.16   30.70
   4  -3   3  381.66   25.80
   4   2  -3   15.30    7.90
   4   2  -3    6.20   10.00
  -4  -2   3   20.10   10.00
   3   2  -3  156.18   14.90
   3   2  -3  195.98   21.30
   3   2  -3  153.08   11.90
  -3  -2   3  151.68   13.10
  -3  -2   3  129.79   12.00
   2   2  -3   88.29   13.40
  -2  -2   3   55.19    6.80
  -2  -2   3   63.49    7.00
   1   2  -3 1626.64   78.99
   1   2  -3 1714.13   78.29
   1   2  -3 1557.94   79.09
  -1  -2   3 1581.94   78.39
  -1  -2   3 1570.04   76.79
  -1  -2   3 1581.24   78.99
   0   2  -3   16.30    2.90
   0   2  -3   16.20    3.20
   0   2  -3   20.60    2.60
   0   2  -3    9.40    2.90
   0  -2   3   13.90    3.60
   0  -2   3   12.70    4.10
  -1   2  -3   76.09    8.50
  -1   2  -3   88.09    7.10
  -1   2  -3   99.69    6.50
   1  -2   3   91.59   10.40
   1  -2   3   91.79    7.00
   1  -2   3   97.29    6.30
   1  -2   3   89.29    7.00
  -2   2  -3  437.96   24.20
  -2   2  -3  454.05   25.30
  -2   2  -3  459.55   27.20
   2  -2   3  448.36   24.00
   2  -2   3  463.15   24.20
   2  -2   3  410.86   25.80
   2  -2   3  446.86   30.40
  -3   2  -3  343.57   24.90
  -3   2  -3  363.46   21.70
   3  -2   3  336.77   20.10
   3  -2   3  356.36   31.30
   3  -2   3  348.27   20.70
   3  -2   3  360.76   25.30
  -4   2  -3    5.30    9.10
   4  -2   3    1.80    4.40
   4  -2   3    9.10   23.10
   4  -2   3    0.90   13.00
   4  -2   3   -1.10    7.10
   4   1  -3   39.90   17.30
   4   1  -3   26.10    7.70
   4   1  -3    1.20    9.00
  -4  -1   3    1.00    9.10
   3   1  -3    5.40    4.00
   3   1  -3    0.00    9.70
   3   1  -3    4.20    5.90
  -3  -1   3    1.60    4.80
  -3  -1   3   -2.30    4.40
   2   1  -3   64.49    8.30
   2   1  -3   51.89    5.40
   2   1  -3   60.29    8.60
  -2  -1   3   38.40    5.80
  -2  -1   3   37.40    5.50
   1   1  -3  257.27   13.60
   1   1  -3  255.07   14.90
  -1  -1   3  230.18   13.70
  -1  -1   3  238.38   12.00
  -1  -1   3  234.88   14.70
   0   1  -3   62.99    4.80
   0   1  -3   50.99    5.80
   0  -1   3   56.89    6.00
  -1   1  -3  313.97   18.10
  -1   1  -3  261.77   15.60
  -1   1  -3  311.57   15.60
   1  -1   3  287.17   18.90
   1  -1   3  293.47   15.40
   1  -1   3  281.97   15.60
   1  -1   3  296.37   15.40
  -2   1  -3 1160.78   56.79
  -2   1  -3 1172.48   57.09
  -2   1  -3 1134.89   59.89
   2  -1   3 1159.48   56.59
   2  -1   3 1182.38   56.19
   2  -1   3 1131.39   61.79
   2  -1   3 1027.10   57.59
  -3   1  -3  416.86   23.80
  -3   1  -3  432.06   28.10
   3  -1   3  371.66   42.70
   3  -1   3  427.06   22.00
   3  -1   3  339.67   23.80
   3  -1   3  389.26   27.10
  -4   1  -3   84.59   12.60
   4  -1   3   97.09    8.60
   4  -1   3   93.99   12.40
   4  -1   3   66.19   23.80
   4  -1   3  105.49   18.30
   4   0  -3   -3.20   14.50
   4   0  -3   31.00   18.40
   3   0  -3   19.50    6.90
   3   0  -3   18.00    5.20
   3   0  -3   15.60   11.20
   3   0  -3   19.70    7.90
  -3   0   3   14.80    5.80
  -3   0   3   21.40    6.80
   2   0  -3   18.20    4.80
   2   0  -3   14.70    3.30
   2   0  -3   17.00    6.30
   2   0  -3   41.70   11.50
  -2   0   3   10.00    3.70
  -2   0   3   14.40    3.60
   1   0  -3  208.28   11.80
   1   0  -3  237.28   14.00
   1   0  -3  244.68   12.60
  -1   0   3  228.08   12.80
  -1   0   3  207.88   11.40
   0   0  -3  207.58   10.80
   0   0  -3  181.48   10.60
   0   0  -3  161.58   10.60
   0   0   3  163.98   10.70
   0   0   3  168.68   10.50
  -1   0  -3  193.08   13.90
  -1   0  -3  176.68   10.20
  -1   0  -3  186.88   10.60
   1   0   3  192.68   13.70
   1   0   3  201.48   10.30
   1   0   3  187.88   10.50
   1   0   3  193.98   11.00
  -2   0  -3  442.56   23.00
  -2   0  -3  434.86   26.90
  -2   0  -3  410.26   22.60
   2   0   3  407.26   28.40
   2   0   3  402.06   22.60
   2   0   3  431.76   21.70
   2   0   3  461.35   24.70
  -3   0  -3  125.19   10.70
  -3   0  -3  115.09   15.40
   3   0   3  114.09   20.50
   3   0   3  105.59    9.60
   3   0   3  116.59   15.60
   3   0   3  119.49    8.00
  -4   0  -3   29.80   11.20
  -4   0  -3    3.40    7.50
   4   0   3    9.70   19.20
   4   0   3    1.90    2.50
   4   0   3    9.50    6.80
   4   0   3    9.00   12.60
   4  -1  -3   15.30    7.90
   4  -1  -3   34.30   19.40
  -4   1   3    8.30    9.20
   3  -1  -3    2.00    6.40
   3  -1  -3    7.30   10.10
  -3   1   3   -5.90    5.40
   2  -1  -3  136.49   11.90
   2  -1  -3  129.19    9.20
   2  -1  -3  142.39   15.10
   2  -1  -3  138.79   12.90
  -2   1   3  123.49    9.60
  -2   1   3  126.59    9.50
   1  -1  -3   13.40    2.50
   1  -1  -3    9.10    2.60
  -1   1   3    8.60    2.30
  -1   1   3   10.90    2.60
   0   1   3   54.49    5.10
  -1  -1  -3   21.10    6.80
  -1  -1  -3   16.30    2.40
  -1  -1  -3   14.80    1.50
   1   1   3   11.00    2.00
   1   1   3   25.00    4.60
   1   1   3   17.80    5.80
  -2  -1  -3   12.20    3.00
  -2  -1  -3   19.50    8.30
   2   1   3   11.60    6.40
   2   1   3    8.60    9.40
   2   1   3    7.00    2.50
   2   1   3    5.90    1.10
  -3  -1  -3   86.59   14.30
  -3  -1  -3   67.29    8.40
   3   1   3   64.09    4.90
   3   1   3   70.09    7.50
   3   1   3  104.89   14.50
   3   1   3   82.89   18.10
   3   1   3   70.89    6.10
  -4  -1  -3   81.89   11.40
   4   1   3   85.49   22.80
   4   1   3   73.99    9.90
   4   1   3   91.79   17.00
   4  -2  -3   34.10   19.70
   4  -2  -3   -2.80   16.30
  -4   2   3   10.80    9.30
   3  -2  -3   18.80   11.70
   3  -2  -3   16.00    5.30
   3  -2  -3   59.19   17.40
   3  -2  -3   15.70    7.00
  -3   2   3   31.40    6.30
  -3   2   3   25.30    7.30
   2  -2  -3   -0.70    7.70
   2  -2  -3    0.30    2.60
   2  -2  -3   -0.10    5.40
   2  -2  -3    6.50    4.80
  -2   2   3   -3.30    3.20
  -2   2   3    2.80    2.90
   1  -2  -3   52.09    7.80
   1  -2  -3   60.99    4.50
   1  -2  -3   40.00    4.90
  -1   2   3   44.10    4.40
  -1   2   3   52.79    4.60
   0  -2  -3  371.46   20.70
   0  -2  -3  370.96   20.10
   0  -2  -3  471.85   22.10
  -1  -2  -3  620.94   34.40
  -1  -2  -3  594.54   30.70
  -1  -2  -3  635.54   30.00
   1   2   3  627.14   30.70
   1   2   3  647.44   32.40
  -2  -2  -3  183.58   16.70
  -2  -2  -3  180.38   10.90
   2   2   3  158.98   16.90
   2   2   3  166.18   13.50
   2   2   3  174.28   10.40
  -3  -2  -3   70.49    8.40
  -3  -2  -3   60.99   14.30
   3   2   3   73.69   17.00
   3   2   3   73.09    7.60
   3   2   3   69.89   13.30
  -4  -2  -3   19.50    8.10
  -4  -2  -3   26.10   12.50
   4   2   3   23.60    7.10
   4   2   3   24.90   14.00
   4  -3  -3   21.50    8.20
   4  -3  -3    7.00    7.80
   4  -3  -3   13.90   19.80
   4  -3  -3    5.60   18.50
  -4   3   3   -1.20   10.00
   3  -3  -3   -9.10    9.90
   3  -3  -3   -2.00    5.60
   3  -3  -3   16.70   14.80
   3  -3  -3    2.50    4.00
  -3   3   3   -1.40    5.20
  -3   3   3   17.50    7.50
   2  -3  -3   42.60    7.50
   2  -3  -3   47.90    5.40
   2  -3  -3   45.80    8.50
  -2   3   3   42.60    6.60
  -2   3   3   53.09    6.40
   1  -3  -3   80.79    5.60
   1  -3  -3   65.79    7.00
   1  -3  -3   90.89    9.00
  -1   3   3   79.09    6.70
  -1   3   3   94.89    9.80
  -1   3   3   86.29    6.00
   0  -3  -3  359.96   20.60
   0  -3  -3  383.56   19.20
   0  -3  -3  411.36   21.40
   0   3   3  387.06   20.70
   0   3   3  383.86   21.60
   0   3   3  414.56   22.00
  -1  -3  -3   31.90    3.10
  -1  -3  -3   37.60    3.00
   1   3   3   39.10    6.40
   1   3   3   36.30    2.80
   1   3   3   35.00    3.80
  -2  -3  -3   22.30    3.60
  -2  -3  -3   34.50    9.70
   2   3   3   21.30    3.10
   2   3   3   36.60    8.30
  -3  -3  -3  271.87   16.70
  -3  -3  -3  264.57   24.10
   3   3   3  260.47   21.30
   3   3   3  262.87   15.90
  -4  -3  -3   10.80    7.70
  -4  -3  -3   11.90   13.80
   4   3   3    5.90    6.50
   4   3   3   16.00   12.70
   4  -4  -3   54.99   21.20
   4  -4  -3   54.89   11.10
   4  -4  -3   56.49   10.50
   4  -4  -3   73.49   24.30
  -4   4   3   51.29   12.20
   3  -4  -3    7.10    6.00
   3  -4  -3    5.20    4.90
   3  -4  -3   21.80   14.00
   3  -4  -3   13.10   11.30
  -3   4   3   23.20    8.60
  -3   4   3   16.50    5.90
   2  -4  -3   61.09   10.60
   2  -4  -3   77.29    6.80
   2  -4  -3   62.89    9.80
  -2   4   3   63.99    7.30
  -2   4   3   62.09    8.50
   1  -4  -3   64.79    4.80
   1  -4  -3   56.89    7.60
   1  -4  -3   40.70    6.50
  -1   4   3   54.99    4.80
  -1   4   3   67.69    9.30
  -1   4   3   51.69    6.10
   0  -4  -3   57.89    5.50
   0  -4  -3   63.49    6.50
   0  -4  -3   67.09    3.70
   0   4   3   59.89    4.00
   0   4   3   70.69    8.20
   0   4   3   75.49    7.50
   0   4   3   60.89    5.90
  -1  -4  -3    6.80    1.90
  -1  -4  -3    7.80    1.40
   1   4   3    6.60    1.20
   1   4   3   11.60    4.70
   1   4   3    3.30    2.10
  -2  -4  -3    3.80    2.40
  -2  -4  -3    2.80    1.90
  -2  -4  -3    2.20    8.60
   2   4   3    2.10    1.50
   2   4   3   -0.40    6.50
   2   4   3    2.90    1.80
  -3  -4  -3   97.29   17.00
  -3  -4  -3   71.09    8.30
   3   4   3   88.39   14.10
   3   4   3   80.89    7.80
  -4  -4  -3   67.99   17.50
  -4  -4  -3   75.29   11.10
   4   4   3   69.39   16.40
   4   4   3   77.09   10.70
   3  -5  -3   17.30   11.80
   3  -5  -3   17.80    7.20
   3  -5  -3   13.00    5.70
   3  -5  -3   15.60   14.00
  -3   5   3   17.50    9.70
  -3   5   3   28.00    7.30
   2  -5  -3  228.98   13.70
   2  -5  -3  229.38   17.30
   2  -5  -3  211.18   17.20
  -2   5   3  199.08   19.70
  -2   5   3  211.38   16.40
  -2   5   3  230.18   14.40
   1  -5  -3  229.08   15.80
   1  -5  -3  194.28   12.30
   1  -5  -3  268.77   15.80
  -1   5   3  215.28   12.70
  -1   5   3  229.38   15.10
  -1   5   3  241.58   17.50
  -1   5   3  216.28   17.10
   0  -5  -3 1112.59   54.09
   0  -5  -3 1037.40   50.89
   0  -5  -3 1093.59   53.89
   0   5   3 1096.49   53.99
   0   5   3 1030.00   51.09
   0   5   3 1118.69   54.59
   0   5   3  960.30   54.69
  -1  -5  -3   34.00    4.80
  -1  -5  -3   40.20    6.10
  -1  -5  -3   40.40    2.80
   1   5   3   43.70    5.50
   1   5   3   45.20    2.60
   1   5   3   44.10    8.10
  -2  -5  -3    6.10    2.50
  -2  -5  -3    4.00   10.00
  -2  -5  -3    8.90    2.80
   2   5   3    4.30    2.30
   2   5   3    9.30    7.50
   2   5   3    4.60    1.90
  -3  -5  -3   38.30   14.70
  -3  -5  -3   29.30    6.00
   3   5   3   35.00   11.70
   3   5   3   33.00    3.90
   3   5   3   35.50    5.10
  -4  -5  -3   -6.20   14.70
  -4  -5  -3   -2.40    8.20
   4   5   3    4.00   13.10
   4   5   3    7.80    6.10
   3  -6  -3   -2.20    5.30
   3  -6  -3    5.00    6.80
   3  -6  -3    4.10   12.00
   3  -6  -3    4.40   12.30
  -3   6   3   -6.90    5.90
  -3   6   3   18.60   11.10
   2  -6  -3   -7.30    7.10
   2  -6  -3    3.70    3.60
   2  -6  -3    1.00    5.40
  -2   6   3   -1.90    3.60
  -2   6   3    8.00    8.20
   1  -6  -3  177.68   14.20
   1  -6  -3  185.28   10.80
   1  -6  -3  177.68   14.30
  -1   6   3  206.38   16.70
  -1   6   3  188.78   14.00
  -1   6   3  188.08   11.20
  -1   6   3  198.18   16.70
   0  -6  -3  200.78   13.60
   0  -6  -3  183.08    9.90
   0  -6  -3  202.78   13.60
   0   6   3  195.78   13.50
   0   6   3  226.98   16.00
   0   6   3  205.78   14.80
   0   6   3  189.08   10.10
  -1  -6  -3  607.14   33.70
  -1  -6  -3  624.44   32.60
   1   6   3  612.14   35.30
   1   6   3  634.34   33.10
  -2  -6  -3    7.90    3.30
  -2  -6  -3   10.90    2.80
   2   6   3    7.70    8.60
   2   6   3    5.40    3.00
   2   6   3    9.30    2.00
  -3  -6  -3   73.39   16.90
  -3  -6  -3   90.79    9.30
   3   6   3   96.39    7.90
   3   6   3   89.59    7.40
   3   6   3   93.29   14.50
  -4  -6  -3   31.90   18.40
  -4  -6  -3   33.70   10.20
   4   6   3   58.89   17.30
   4   6   3   45.10    7.80
   3  -7  -3   18.60    8.30
   3  -7  -3    5.30    5.90
   3  -7  -3   12.10   13.10
  -3   7   3    7.10    7.10
  -3   7   3   28.60   12.10
   2  -7  -3   70.29   11.60
   2  -7  -3   87.19   18.00
   2  -7  -3   63.19    7.30
  -2   7   3   75.49   13.40
  -2   7   3   72.99    8.40
  -2   7   3   77.59   12.00
   1  -7  -3   46.90    4.70
   1  -7  -3   53.49    9.50
   1  -7  -3   39.70    7.20
  -1   7   3   46.00    8.80
  -1   7   3   44.90    9.30
  -1   7   3   54.19   12.40
  -1   7   3   42.10    5.10
   0  -7  -3 1643.04   86.49
   0  -7  -3 1929.61   91.09
   0  -7  -3 1760.12   90.89
   0   7   3 1920.51   91.99
   0   7   3 1937.11   92.89
   0   7   3 1803.52   90.99
   0   7   3 1744.33   86.79
  -1  -7  -3   22.10    4.50
  -1  -7  -3   22.10    6.10
   1   7   3   17.10    4.70
   1   7   3   26.30    9.20
  -2  -7  -3   30.00    5.20
  -2  -7  -3   34.30    4.20
  -2  -7  -3   30.80    7.50
   2   7   3   25.00    4.90
   2   7   3   23.60   10.20
   2   7   3   27.70    3.20
  -3  -7  -3  127.49   11.50
  -3  -7  -3  111.29   10.10
  -3  -7  -3  131.19   21.00
   3   7   3  131.19   10.10
   3   7   3  128.29    9.20
   3   7   3  121.99   16.30
  -4  -7  -3  -12.60   16.90
  -4  -7  -3   28.30   10.30
   4   7   3   22.30    7.00
   3  -8  -3   16.10    9.40
   3  -8  -3   10.30    6.70
   3  -8  -3   36.00   15.00
  -3   8   3    9.40    8.20
  -3   8   3  -15.30   13.20
   2  -8  -3   24.70    9.50
   2  -8  -3   13.00    4.20
   2  -8  -3   16.80    7.10
  -2   8   3    9.40    5.20
  -2   8   3   21.40    9.60
  -2   8   3    3.20   10.10
   1  -8  -3  123.39   13.80
   1  -8  -3  123.09    8.40
   1  -8  -3  131.29   13.40
  -1   8   3  128.09   16.10
  -1   8   3  130.09   16.50
  -1   8   3  139.39    9.20
  -1   8   3  131.89   13.40
   0  -8  -3   13.80    5.20
   0  -8  -3   13.80    6.30
   0   8   3   17.00    6.40
   0   8   3   25.10   10.40
   0   8   3   20.60    2.50
   0   8   3   18.60    6.20
  -1  -8  -3   40.30    7.90
  -1  -8  -3   29.20    5.70
   1   8   3   25.50    6.40
   1   8   3   34.10   11.20
  -2  -8  -3  189.28   13.90
  -2  -8  -3  173.58   15.20
  -2  -8  -3  168.08   10.70
   2   8   3  186.68   14.20
   2   8   3  185.98    9.70
   2   8   3  161.18   18.20
  -3  -8  -3   19.50   15.50
  -3  -8  -3    8.40    5.20
  -3  -8  -3   20.90    9.70
  -3  -8  -3   21.10    6.10
   3   8   3   17.40    3.80
   3   8   3   13.90    4.80
   3   8   3   10.30   11.50
   3  -9  -3   25.50   10.90
   3  -9  -3   13.70    8.30
  -3   9   3    2.10    9.10
  -3   9   3  -34.10   16.00
   2  -9  -3   -2.40    3.80
   2  -9  -3   26.70    9.90
   2  -9  -3    5.40    7.30
  -2   9   3   -3.60    5.10
  -2   9   3    2.20    9.30
  -2   9   3   -3.30   10.60
   1  -9  -3   38.70    8.50
   1  -9  -3   62.89   11.30
   1  -9  -3   40.00    5.10
  -1   9   3   43.00    6.00
  -1   9   3   57.19   11.00
  -1   9   3   39.10   10.30
  -1   9   3   44.30   12.90
   0  -9  -3   19.80    7.90
   0  -9  -3   11.20    5.50
   0   9   3   17.30    2.10
   0   9   3   11.20    7.10
   0   9   3    6.90    6.40
   0   9   3   12.60   10.70
  -1  -9  -3  311.37   21.40
  -1  -9  -3  330.47   20.90
   1   9   3  306.37   21.60
   1   9   3  293.47   24.50
  -2  -9  -3   49.40    7.80
  -2  -9  -3   59.99   10.60
   2   9   3   46.20   13.50
   2   9   3   63.79    3.80
   2   9   3   69.79   10.40
  -3  -9  -3   19.30    9.10
  -3  -9  -3    3.60   16.00
  -3  -9  -3   -1.40    6.10
  -3  -9  -3   14.50    6.20
   3   9   3    4.90   12.00
   3   9   3   11.40    5.90
   3   9   3   10.50    3.40
   2 -10  -3   42.40   12.30
   2 -10  -3    9.90    8.50
  -2  10   3   14.60   10.60
  -2  10   3   -1.40   12.50
   1 -10  -3   30.40    8.40
   1 -10  -3   24.30    4.00
   1 -10  -3   42.70    9.70
  -1  10   3   27.90   11.90
  -1  10   3   43.90   10.50
  -1  10   3   22.80    4.70
  -1  10   3   21.10    9.70
   0 -10  -3   63.79   12.00
   0 -10  -3   52.29    9.00
   0  10   3   60.99   11.00
   0  10   3   41.20    9.60
   0  10   3   47.20    3.70
   0  10   3   53.19   14.20
  -1 -10  -3   75.59   18.20
  -1 -10  -3   76.99   10.90
   1  10   3   80.99   16.10
   1  10   3   61.09   10.30
  -2 -10  -3   58.39    9.20
  -2 -10  -3   69.69   11.80
   2  10   3   73.59   16.00
   2  10   3   63.09   10.00
  -3 -10  -3   11.30   17.50
  -3 -10  -3    5.30    9.40
   3  10   3    2.50   12.90
   3  10   3    7.40    6.50
   3  10   3    3.00    2.80
   2 -11  -3    4.60    6.00
   2 -11  -3   17.50   10.50
  -2  11   3   15.30    7.50
  -2  11   3   19.70   12.70
  -2  11   3   16.00   14.90
   1 -11  -3   15.60    8.20
   1 -11  -3   14.70    3.50
  -1  11   3   19.50   10.80
  -1  11   3    7.20    4.60
  -1  11   3   15.60    9.40
  -1  11   3   11.40   12.60
   0 -11  -3   55.09   11.80
   0 -11  -3   24.30    8.20
   0  11   3   30.80   13.90
   0  11   3   34.80   10.30
   0  11   3   17.40    9.50
  -1 -11  -3   -2.10    5.90
  -1 -11  -3    9.70    7.80
   1  11   3    3.00    6.90
   1  11   3    1.80   10.70
  -2 -11  -3   37.40   10.00
  -2 -11  -3   59.79   12.10
   2  11   3   34.70    9.10
   2  11   3   33.60   14.70
  -3 -11  -3   46.10   22.40
  -3 -11  -3   16.00   10.70
   3  11   3   31.80   16.70
   3  11   3   32.20    3.90
   1 -12  -3    2.80    8.50
   1 -12  -3   -0.10    3.40
  -1  12   3   -6.40    4.70
  -1  12   3   -8.00   11.30
  -1  12   3    6.00   11.10
  -1  12   3  -13.80   12.30
   0 -12  -3   57.29   11.00
   0  12   3   73.79   17.50
   0  12   3   78.49   14.50
   0  12   3   54.69   12.80
  -1 -12  -3    3.20    7.70
  -1 -12  -3   22.80    9.50
   1  12   3    3.30    8.30
   1  12   3   -5.50   12.70
  -2 -12  -3   25.00    9.30
   2  12   3   34.50   10.50
   2  12   3   48.70   17.80
   0 -13  -3    9.30    9.10
   0  13   3   10.40   10.70
   0  13   3    4.80   11.30
   0  13   3    2.60   14.70
  -1 -13  -3    4.80    9.50
   1  13   3   20.10   11.30
   1  13   3   17.20   14.90
   1  11  -4  219.68   14.20
   1  11  -4  191.38   15.70
   1  11  -4  228.78   22.90
   1  11  -4  209.38   21.60
   1  11  -4  228.28   19.00
  -1 -11   4  156.48   23.30
   0  11  -4   16.50   11.20
   0  11  -4   19.90   10.40
   0  11  -4   19.70   10.40
   0  11  -4   13.30    5.40
   0 -11   4   -4.50    9.80
   2  10  -4   27.60   13.10
   2  10  -4   32.00   10.40
   2  10  -4   17.50    6.00
   2  10  -4   29.30    5.60
  -2 -10   4    7.00   11.60
   1  10  -4    2.60    3.90
   1  10  -4    2.80    5.30
   1  10  -4    2.10    7.10
   1  10  -4  -13.50    9.40
   1  10  -4    2.10    6.80
  -1 -10   4  -11.80    8.80
  -1 -10   4   22.50    9.40
   0  10  -4    9.50    8.30
   0  10  -4    3.90    7.40
   0  10  -4   -3.70    4.00
   0  10  -4    9.20    9.70
   0 -10   4   -9.50    7.30
  -1  10  -4   30.40   11.60
  -1  10  -4   14.10    6.20
  -1  10  -4   18.60   10.10
   1 -10   4   13.50    9.80
   2   9  -4   -5.10    4.80
   2   9  -4    4.70    7.20
   2   9  -4   -7.80    9.90
  -2  -9   4  -14.50    8.50
   1   9  -4  113.89   12.50
   1   9  -4  111.89    9.00
   1   9  -4  130.29   15.30
   1   9  -4  106.49   10.40
   1   9  -4  105.89   14.80
  -1  -9   4   82.49   13.20
  -1  -9   4  137.49   13.20
   0   9  -4   -9.20    8.00
   0   9  -4    1.30    6.90
   0   9  -4   -2.60    3.50
   0  -9   4   -6.50    6.70
  -1   9  -4   62.59   13.10
   1  -9   4   81.99   15.40
  -2   9  -4   48.00   13.10
  -2   9  -4   34.20    8.50
   2  -9   4   31.90    7.50
   2  -9   4   67.09   18.80
   2  -9   4   38.70   11.10
   3   8  -4   19.80    6.90
   3   8  -4   22.30    8.50
   3   8  -4   24.40   14.40
  -3  -8   4   36.40   11.10
  -3  -8   4   10.00   11.00
   2   8  -4  111.59   15.90
   2   8  -4  131.69   15.40
   2   8  -4  114.39   10.70
  -2  -8   4  142.89   11.80
  -2  -8   4  112.09   17.00
   1   8  -4   12.70    4.30
   1   8  -4   11.60    6.70
   1   8  -4   11.50    5.50
   1   8  -4   19.60    8.70
   1   8  -4   14.40    3.70
  -1  -8   4    6.10    7.10
   0   8  -4   54.69    9.50
   0   8  -4   55.89    9.70
   0   8  -4   69.79    7.00
   0   8  -4   64.39   11.20
   0  -8   4   51.69    9.50
   0  -8   4   78.29   10.90
  -1   8  -4    7.80    7.70
  -1   8  -4    1.70    6.50
  -1   8  -4   -1.20    4.50
   1  -8   4   -2.80    5.70
   1  -8   4   10.20    9.10
   1  -8   4    3.60    3.50
  -2   8  -4    0.10    6.10
  -2   8  -4   17.80    9.70
  -2   8  -4   23.40   11.90
   2  -8   4   -6.30    5.20
   2  -8   4   12.00    8.30
   2  -8   4    6.60   13.70
   2  -8   4   -0.80    7.60
   3   7  -4   20.40   13.30
   3   7  -4   21.70   10.60
   3   7  -4    8.20    7.50
  -3  -7   4    5.80    8.40
  -3  -7   4    2.40    8.40
   2   7  -4   25.60    5.40
   2   7  -4   32.10   11.00
  -2  -7   4   21.00   14.00
  -2  -7   4   38.60    7.20
   1   7  -4   16.30    3.70
   1   7  -4   10.50    5.10
   1   7  -4   14.80    4.10
   1   7  -4   15.60    6.20
   1   7  -4   12.70    8.60
  -1  -7   4   16.30    6.20
  -1  -7   4   14.90    7.00
   0   7  -4   35.70    7.70
   0   7  -4   35.90    4.80
   0   7  -4   31.20    8.70
   0   7  -4   33.60    7.20
   0  -7   4   42.60    9.30
   0  -7   4   26.90    7.20
  -1   7  -4   70.79   11.40
  -1   7  -4   84.69    8.00
  -1   7  -4   72.59   11.70
   1  -7   4   70.89    7.20
   1  -7   4   72.29   13.50
   1  -7   4   83.89   11.90
  -2   7  -4   50.69   11.80
  -2   7  -4   30.30    8.90
  -2   7  -4   35.30    7.00
   2  -7   4   38.80    6.50
   2  -7   4   23.30    7.80
   2  -7   4   34.90   15.20
   2  -7   4   14.30    8.70
  -3   7  -4   -1.90   12.40
  -3   7  -4    5.20    8.60
   3  -7   4   -8.70   20.10
   3  -7   4    6.40    8.90
   3   6  -4   24.80   12.60
   3   6  -4    9.60    8.70
  -3  -6   4   21.30    5.50
  -3  -6   4   13.40    7.00
   2   6  -4   10.20    3.90
   2   6  -4    7.00    5.80
   2   6  -4   17.40   10.00
  -2  -6   4    2.60    4.00
  -2  -6   4    9.40    7.40
   1   6  -4  106.89   11.60
   1   6  -4  119.89    9.10
   1   6  -4   92.69    8.50
   1   6  -4  112.29   12.10
  -1  -6   4  127.89   13.20
  -1  -6   4   97.79    9.30
   0   6  -4  265.27   15.90
   0   6  -4  289.77   18.30
   0   6  -4  298.17   19.90
   0  -6   4  286.87   19.80
   0  -6   4  287.07   18.90
  -1   6  -4    7.80    3.60
  -1   6  -4   -6.60    5.50
  -1   6  -4    2.20    5.20
   1  -6   4    4.20    5.20
   1  -6   4    0.00    7.80
   1  -6   4    3.50    3.20
  -2   6  -4    7.90    8.80
  -2   6  -4    5.00    5.00
  -2   6  -4    5.90    6.20
   2  -6   4    4.60    5.60
   2  -6   4   -3.80   12.00
   2  -6   4    6.50    4.20
  -3   6  -4   44.00    9.00
  -3   6  -4   42.60   12.80
   3  -6   4   17.90   19.50
   3  -6   4   17.00   10.60
   3  -6   4   18.20    7.90
   3   5  -4    4.40    6.60
   3   5  -4    8.50   11.60
   3   5  -4   -2.00    5.90
  -3  -5   4    2.60    5.50
  -3  -5   4    5.40    4.10
   2   5  -4    3.00    5.00
   2   5  -4   13.30    9.20
   2   5  -4    2.10    3.20
  -2  -5   4   -3.70    2.70
  -2  -5   4    6.00    6.50
  -2  -5   4    1.50    6.00
   1   5  -4   44.70    5.70
   1   5  -4   53.09    9.30
   1   5  -4   49.99    5.40
   1   5  -4   40.20    6.90
  -1  -5   4   47.60    5.90
  -1  -5   4   41.10    7.40
   0   5  -4   24.90    5.70
   0   5  -4   32.20    6.10
   0   5  -4   34.60    6.20
   0   5  -4   35.00    4.20
   0  -5   4   31.70    6.80
   0  -5   4   33.20    6.20
  -1   5  -4  116.29    9.00
  -1   5  -4  107.29   11.70
  -1   5  -4  108.99   11.30
   1  -5   4  131.39    8.60
   1  -5   4  110.89   13.80
   1  -5   4  131.99   11.50
  -2   5  -4   59.49   13.60
  -2   5  -4   47.70    7.10
  -2   5  -4   69.19   11.90
   2  -5   4   42.30   10.20
   2  -5   4   50.59    7.10
   2  -5   4   51.59    8.80
   2  -5   4   50.09   14.80
  -3   5  -4   25.20   11.70
  -3   5  -4  -11.40    8.70
  -3   5  -4   -2.30    6.30
   3  -5   4   -7.40   16.10
   3  -5   4    3.00    6.00
   3  -5   4   -2.80    5.40
   4   4  -4   11.20    7.90
   4   4  -4  -16.20    7.60
  -4  -4   4   -8.40   10.40
   3   4  -4    0.00    6.00
   3   4  -4   17.50   10.90
   3   4  -4    8.80    5.70
  -3  -4   4    6.50    3.80
  -3  -4   4    6.50    4.60
   2   4  -4   12.90    3.80
   2   4  -4   29.30   10.00
   2   4  -4   19.30    6.00
  -2  -4   4   13.10    6.30
  -2  -4   4   13.80    5.50
  -2  -4   4   10.40    5.20
  -2  -4   4   13.10    3.10
   1   4  -4   59.99    6.20
   1   4  -4   63.49    5.30
   1   4  -4   75.59    9.00
   1   4  -4   71.79    8.70
  -1  -4   4   58.99    5.70
  -1  -4   4   73.09    9.60
   0   4  -4  847.02   44.30
   0   4  -4  912.71   45.40
   0   4  -4  811.92   42.90
   0   4  -4  918.81   43.50
   0  -4   4  826.02   45.10
   0  -4   4  897.91   44.90
  -1   4  -4  655.53   35.80
  -1   4  -4  650.63   35.10
  -1   4  -4  656.53   33.20
   1  -4   4  612.44   32.90
   1  -4   4  684.23   37.30
   1  -4   4  626.44   34.70
  -2   4  -4   17.60    4.90
  -2   4  -4   19.10    7.30
  -2   4  -4   17.40    6.10
   2  -4   4    6.60    8.50
   2  -4   4   14.20    4.70
   2  -4   4   13.50    4.20
   2  -4   4   20.60   12.70
  -3   4  -4    5.70    8.00
  -3   4  -4   31.40   10.40
  -3   4  -4   12.70    6.40
   3  -4   4   -9.90   10.40
   3  -4   4   15.50    5.90
   3  -4   4   -6.90   14.90
   3  -4   4   10.10    5.60
   4   3  -4   -1.70    7.60
   4   3  -4   29.30   16.20
  -4  -3   4   17.70   10.20
   3   3  -4  103.09   17.50
   3   3  -4   73.09    9.50
   3   3  -4   73.99   12.50
  -3  -3   4   69.29    7.60
   2   3  -4  145.29   10.80
   2   3  -4  189.28   14.70
  -2  -3   4  156.38   12.20
  -2  -3   4  159.58    9.40
  -2  -3   4  173.18   14.00
  -2  -3   4  156.28   10.60
   1   3  -4   70.59    8.20
   1   3  -4   65.39    6.20
   1   3  -4   74.79    8.80
  -1  -3   4   78.69    9.00
  -1  -3   4   55.59    4.80
   0   3  -4  336.47   18.70
   0   3  -4  311.77   16.50
   0   3  -4  284.87   17.40
   0   3  -4  321.57   16.60
   0  -3   4  313.07   18.60
   0  -3   4  316.97   18.20
  -1   3  -4  351.96   22.00
  -1   3  -4  397.06   19.90
  -1   3  -4  376.46   21.10
   1  -3   4  380.16   19.60
   1  -3   4  375.96   20.90
   1  -3   4  382.46   23.30
   1  -3   4  331.77   18.60
   1  -3   4  352.76   18.70
  -2   3  -4   31.00    5.90
  -2   3  -4   36.50    5.60
  -2   3  -4   24.50    8.30
   2  -3   4   37.80   13.60
   2  -3   4   28.30    5.00
   2  -3   4   37.40    8.50
   2  -3   4   36.00    5.30
  -3   3  -4   33.90    9.00
  -3   3  -4   42.00    7.90
  -3   3  -4   70.19   13.00
   3  -3   4   44.80   11.90
   3  -3   4   44.60    7.40
   3  -3   4   54.19    8.40
   3  -3   4   48.60   18.90
   4   2  -4   36.60   17.90
   4   2  -4   12.00    8.20
  -4  -2   4    3.60    9.30
   3   2  -4   27.10    7.70
   3   2  -4   28.00    6.10
  -3  -2   4   29.90    5.30
   2   2  -4   66.79    9.60
   2   2  -4   67.39    6.30
  -2  -2   4   42.20    5.00
  -2  -2   4   56.09    7.30
   1   2  -4   84.89    6.80
   1   2  -4   86.39    8.80
   1   2  -4  106.89   10.50
  -1  -2   4   87.19    8.90
  -1  -2   4   74.29    4.60
   0   2  -4 1404.56   69.29
   0   2  -4 1470.65   71.19
   0   2  -4 1438.06   69.79
   0   2  -4 1410.16   70.39
   0  -2   4 1433.46   71.19
   0  -2   4 1497.55   70.99
  -1   2  -4  120.69    9.20
  -1   2  -4  107.19   10.50
  -1   2  -4  123.49    8.30
   1  -2   4  127.99    7.60
   1  -2   4  143.59    8.40
   1  -2   4  142.39    9.40
   1  -2   4  126.29    7.30
   1  -2   4  147.19   13.30
  -2   2  -4   34.40    9.30
  -2   2  -4   55.69    7.80
  -2   2  -4   43.00    6.00
   2  -2   4   50.69   13.20
   2  -2   4   51.69    8.60
   2  -2   4   51.49    6.40
   2  -2   4   44.70    5.80
  -3   2  -4  172.08   17.10
  -3   2  -4  237.48   19.60
  -3   2  -4  223.08   15.60
   3  -2   4  227.58   14.10
   3  -2   4  168.88   26.30
   3  -2   4  203.58   18.30
   3  -2   4  232.18   15.10
  -4   2  -4   56.99   11.10
   4  -2   4   51.59   26.00
   4  -2   4   62.29   15.30
   4  -2   4   37.30    6.00
   4  -2   4   43.90    9.60
   4   1  -4   -1.70    9.80
   4   1  -4  -14.10    7.10
   4   1  -4   37.60   19.00
  -4  -1   4  -12.00    9.20
   3   1  -4   54.49   16.00
   3   1  -4    6.60    5.20
   3   1  -4    2.20    6.60
  -3  -1   4    7.80    4.30
   2   1  -4    5.80    2.90
   2   1  -4    9.50    4.90
  -2  -1   4    2.00    3.30
   1   1  -4  120.09   10.90
   1   1  -4  105.79    9.50
   1   1  -4  112.09    7.60
  -1  -1   4   86.09    7.60
  -1  -1   4   95.79    9.10
   0   1  -4   92.89    7.00
   0   1  -4  114.69    8.00
   0   1  -4   89.09    6.50
   0  -1   4  107.19    8.10
   0  -1   4   95.59    8.00
  -1   1  -4   29.30    4.50
  -1   1  -4   39.00    4.10
  -1   1  -4   43.20    7.50
   1  -1   4   45.00    4.00
   1  -1   4   39.90    3.90
   1  -1   4   47.30    9.00
   1  -1   4   45.40    4.80
  -2   1  -4  152.38   10.50
  -2   1  -4  130.79   14.00
  -2   1  -4  146.89   10.00
   2  -1   4  127.79   17.50
   2  -1   4  134.39   11.40
   2  -1   4  133.79    9.20
   2  -1   4  145.69    9.70
  -3   1  -4   -2.20    8.50
  -3   1  -4    0.10    4.70
   3  -1   4    4.00    4.20
   3  -1   4    3.20   15.00
   3  -1   4   -1.40    2.50
   3  -1   4    0.50    8.40
  -4   1  -4   92.59   12.50
   4  -1   4   80.79    8.00
   4  -1   4   96.79   17.30
   4  -1   4   89.79   11.20
   4  -1   4   97.39   27.20
   4   0  -4    6.80   13.90
   4   0  -4   50.49   20.00
  -4   0   4   -3.20    9.00
   3   0  -4    4.10    7.70
   3   0  -4    5.10    9.30
   3   0  -4    7.50    6.70
  -3   0   4    2.20    5.60
   2   0  -4   20.60    3.90
   2   0  -4   30.20    6.00
   2   0  -4   24.30    6.20
  -2   0   4   21.30    4.80
  -2   0   4   18.10    4.00
   1   0  -4    0.70    5.40
   1   0  -4    2.00    1.50
   1   0  -4    4.50    2.30
   1   0  -4    4.40    3.70
  -1   0   4    1.10    0.80
  -1   0   4    0.40    2.50
   0   0  -4  186.88   11.20
   0   0  -4  170.08   11.20
   0   0   4  164.08   11.30
   0   0   4  182.38   11.20
  -1   0  -4  207.48   14.20
  -1   0  -4  202.18   11.20
  -1   0  -4  178.08   10.90
   1   0   4  195.88   11.00
   1   0   4  210.18   11.40
   1   0   4  193.28   15.40
   1   0   4  198.68   11.10
  -2   0  -4  154.38    9.90
  -2   0  -4  150.78   15.20
  -2   0  -4  152.98   10.20
   2   0   4  153.38   12.10
   2   0   4  135.09   15.60
   2   0   4  154.88    8.90
   2   0   4  148.09    9.80
  -3   0  -4   11.20    5.40
  -3   0  -4    2.80   10.90
   3   0   4   15.00    8.90
   3   0   4    8.20    2.40
  -4   0  -4   28.20    9.10
   4   0   4    9.80   20.70
   4   0   4   10.20    7.20
   4   0   4    5.40   11.70
   4  -1  -4   30.60   19.20
   4  -1  -4    3.90   14.90
   3  -1  -4   -5.00    6.00
   3  -1  -4   -3.60    9.70
   3  -1  -4    3.60    7.30
   3  -1  -4    4.20    4.50
  -3   1   4    2.90    5.10
  -3   1   4   -0.20    5.40
   2  -1  -4    3.60    2.70
   2  -1  -4   -0.90    5.10
   2  -1  -4   12.10   10.10
  -2   1   4    2.40    3.20
   1  -1  -4  459.95   23.20
   1  -1  -4  480.25   24.00
  -1   1   4  470.65   23.20
  -1   1   4  433.36   24.10
   0  -1  -4    1.70    2.90
   0   1   4    3.90    3.90
  -1  -1  -4  456.55   27.00
  -1  -1  -4  466.35   23.30
  -1  -1  -4  436.96   22.70
   1   1   4  460.35   22.80
   1   1   4  472.15   23.20
   1   1   4  442.36   27.10
   1   1   4  480.05   24.20
  -2  -1  -4  388.96   26.30
  -2  -1  -4  443.26   21.50
   2   1   4  349.77   19.30
   2   1   4  372.66   27.40
   2   1   4  411.26   21.10
   2   1   4  398.06   23.00
  -3  -1  -4   18.90   11.70
  -3  -1  -4   20.90    5.60
   3   1   4   31.10   14.70
   3   1   4   32.40   10.40
   3   1   4   22.80    4.70
  -4  -1  -4   24.20    8.40
  -4  -1  -4   57.89   14.30
   4   1   4   32.90    7.60
   4   1   4   28.20   12.90
   4   1   4   51.29   21.40
   4  -2  -4  -11.30   15.80
   4  -2  -4    1.20    9.00
   4  -2  -4   39.10   21.80
   4  -2  -4    2.90    7.80
  -4   2   4   -1.30    9.30
   3  -2  -4   -3.90    6.10
   3  -2  -4   37.90   17.00
   3  -2  -4    2.50    4.10
   3  -2  -4    4.00   10.00
  -3   2   4   -2.90    4.60
  -3   2   4    4.30    6.00
   2  -2  -4    2.10    5.30
   2  -2  -4   -3.10    8.60
   2  -2  -4   11.80    6.10
   2  -2  -4    0.20    2.60
  -2   2   4    3.80    3.60
  -2   2   4   -2.50    3.20
   1  -2  -4    0.00    1.70
   1  -2  -4    5.20    4.30
  -1   2   4   -3.20    2.00
  -1   2   4   -2.80    1.50
   0  -2  -4  318.97   16.60
   0   2   4  292.17   17.60
  -1  -2  -4   31.70    3.30
  -1  -2  -4   31.90    3.10
  -1  -2  -4   30.40    3.30
  -1  -2  -4   29.30    7.80
   1   2   4   35.60    6.00
   1   2   4   26.10    2.90
  -2  -2  -4   22.60    3.90
  -2  -2  -4   34.10   10.60
   2   2   4   33.50   10.70
   2   2   4   37.50    7.90
   2   2   4   29.90    4.00
  -3  -2  -4   19.90    5.30
  -3  -2  -4   18.10   12.60
   3   2   4   38.80   11.00
   3   2   4   28.00   15.00
   3   2   4   26.60    4.90
  -4  -2  -4   50.89   15.20
  -4  -2  -4   16.80    8.30
   4   2   4   17.10    7.00
   4   2   4   23.80   12.70
   4   2   4    6.50   18.70
   4  -3  -4   21.50    9.70
   4  -3  -4   15.30    8.50
   4  -3  -4   -5.60   17.00
   4  -3  -4   50.89   22.00
  -4   3   4   18.70   10.80
   3  -3  -4  143.49   20.70
   3  -3  -4  121.69   11.10
   3  -3  -4  111.89   16.10
   3  -3  -4  113.89   15.70
  -3   3   4  132.59   13.10
  -3   3   4  132.19   12.40
   2  -3  -4   65.29    6.30
   2  -3  -4   53.69    9.00
   2  -3  -4   54.79    8.90
  -2   3   4   65.89    7.10
  -2   3   4   53.79    7.00
   1  -3  -4    7.40    2.10
   1  -3  -4    4.40    4.30
   1  -3  -4    1.50    3.00
  -1   3   4    3.80    2.60
  -1   3   4    6.60    2.60
   0  -3  -4 1490.55   66.89
   0  -3  -4 1300.87   64.49
   0  -3  -4 1244.78   65.59
   0   3   4 1312.37   66.89
  -1  -3  -4   38.40    3.60
  -1  -3  -4   40.90    8.90
  -1  -3  -4   44.60    3.40
   1   3   4   43.30    3.30
   1   3   4   46.40    7.10
  -2  -3  -4   22.70    3.60
  -2  -3  -4   30.90   10.80
   2   3   4   24.10    3.40
   2   3   4   23.20    7.50
  -3  -3  -4    3.10    4.20
  -3  -3  -4    7.00   11.90
   3   3   4    1.90    3.50
   3   3   4    0.20    9.20
  -4  -3  -4   -0.30   13.30
  -4  -3  -4   -1.00    7.10
   4   3   4    8.50    6.00
   4   3   4    2.30   12.00
   4  -4  -4  149.19   20.70
   4  -4  -4  124.49   24.90
   4  -4  -4  123.89   15.70
   4  -4  -4  168.78   29.80
  -4   4   4  112.59   15.60
   3  -4  -4   25.10   11.90
   3  -4  -4   22.90   14.60
   3  -4  -4   18.40    5.80
   3  -4  -4   23.90    8.20
  -3   4   4   46.50   10.50
  -3   4   4   17.60    6.40
   2  -4  -4  111.39   13.20
   2  -4  -4  124.19    9.10
   2  -4  -4  124.89   12.40
  -2   4   4  103.09   10.70
  -2   4   4  123.19   10.00
   1  -4  -4  423.16   21.80
   1  -4  -4  437.56   25.50
   1  -4  -4  417.06   23.40
  -1   4   4  429.16   26.10
  -1   4   4  414.56   22.20
  -1   4   4  411.36   23.30
   0  -4  -4   82.89    7.30
   0  -4  -4   93.59    5.60
   0  -4  -4  101.99    8.50
   0   4   4   86.29    9.40
   0   4   4  107.29    9.50
   0   4   4  100.69    7.60
  -1  -4  -4   20.30    3.30
  -1  -4  -4   24.90    2.50
   1   4   4   33.70    7.20
   1   4   4   22.50    3.60
   1   4   4   26.80    2.30
  -2  -4  -4  219.88   20.50
  -2  -4  -4  232.68   13.10
   2   4   4  228.08   17.40
   2   4   4  235.68   12.90
  -3  -4  -4   -3.10    4.00
  -3  -4  -4    6.60   12.60
   3   4   4    7.70    9.40
   3   4   4    7.30    3.80
  -4  -4  -4  -26.10   13.30
  -4  -4  -4   -0.90    7.30
   4   4   4    8.70   12.40
   4   4   4   -3.30    6.20
   3  -5  -4   86.39   10.10
   3  -5  -4   85.49   17.10
  -3   5   4   95.19   11.80
  -3   5   4   82.69   15.30
   2  -5  -4    0.10    3.00
   2  -5  -4   -5.90    5.70
   2  -5  -4   -3.40    5.30
  -2   5   4    2.60    3.70
  -2   5   4   -2.10    5.00
   1  -5  -4   14.90    2.60
   1  -5  -4    9.80    4.70
   1  -5  -4    7.30    4.70
  -1   5   4   15.30    6.20
  -1   5   4   18.60    5.00
  -1   5   4   10.80    8.00
  -1   5   4   14.20    3.00
   0  -5  -4   24.20    5.00
   0  -5  -4   19.10    4.20
   0  -5  -4   26.00    2.30
   0   5   4   22.60    7.30
   0   5   4   21.40    5.10
   0   5   4   29.90    5.20
  -1  -5  -4  712.03   35.40
  -1  -5  -4  682.63   37.10
  -1  -5  -4  671.03   33.60
   1   5   4  677.43   35.90
   1   5   4  711.23   38.40
   1   5   4  724.53   33.60
  -2  -5  -4  374.16   20.60
  -2  -5  -4  408.16   28.80
  -2  -5  -4  398.96   20.30
   2   5   4  383.26   20.50
   2   5   4  363.86   25.00
   2   5   4  421.36   20.40
  -3  -5  -4   19.20   13.50
  -3  -5  -4   23.40    5.20
   3   5   4   25.20   10.90
   3   5   4   20.80    4.40
  -4  -5  -4   70.99   19.20
  -4  -5  -4   48.90   10.10
   4   5   4   64.69   17.20
   4   5   4   60.59    8.90
   3  -6  -4   -5.40    6.90
   3  -6  -4    9.50   11.50
   3  -6  -4    8.40   12.00
   3  -6  -4   -3.50    5.40
  -3   6   4    9.00    7.10
  -3   6   4    9.20   10.20
   2  -6  -4   12.50    6.60
   2  -6  -4   10.60    7.50
   2  -6  -4    3.80    3.70
  -2   6   4    9.30    7.20
  -2   6   4   -0.20    4.20
  -2   6   4   11.60    8.70
   1  -6  -4  156.38   13.80
   1  -6  -4  154.08   12.30
   1  -6  -4  188.58   10.00
  -1   6   4  169.38   16.00
  -1   6   4  145.19   12.30
  -1   6   4  164.48   10.20
  -1   6   4  157.68   15.90
   0  -6  -4   78.99    8.00
   0  -6  -4   79.59    8.50
   0  -6  -4   80.89    4.50
   0   6   4   78.89    9.80
   0   6   4   72.59    5.00
   0   6   4   81.29    8.10
   0   6   4   87.59   11.10
  -1  -6  -4 1013.70   49.40
  -1  -6  -4 1067.89   53.89
  -1  -6  -4 1004.70   51.99
   1   6   4 1028.40   52.79
   1   6   4 1067.09   55.49
  -2  -6  -4  101.29    7.80
  -2  -6  -4   97.09   16.60
  -2  -6  -4   96.89    6.80
   2   6   4   89.19    6.10
   2   6   4   90.09    8.10
   2   6   4   85.19   12.70
  -3  -6  -4   13.40   13.30
  -3  -6  -4   16.60    4.80
   3   6   4   11.50    2.40
   3   6   4   13.40    3.70
   3   6   4   13.40   10.20
  -4  -6  -4   31.40   18.60
  -4  -6  -4   32.50   10.10
   4   6   4   33.60   15.50
   4   6   4   41.70    7.90
   3  -7  -4   32.40   13.40
   3  -7  -4   18.50    9.50
   3  -7  -4   14.60    6.80
  -3   7   4   15.40    7.90
   2  -7  -4   21.40    4.80
   2  -7  -4   12.90    6.90
   2  -7  -4   33.60    9.60
  -2   7   4   20.40    5.40
  -2   7   4   37.00    9.40
  -2   7   4   12.60   11.10
   1  -7  -4   27.80    6.90
   1  -7  -4   35.00    8.50
   1  -7  -4   44.20    4.60
  -1   7   4   60.89   12.90
  -1   7   4   55.09    9.10
  -1   7   4   34.00    8.90
  -1   7   4   46.30    5.30
   0  -7  -4   66.29    7.70
   0  -7  -4   73.09    3.90
   0  -7  -4   64.69    8.70
   0   7   4   62.09   10.20
   0   7   4   71.89    8.30
   0   7   4   79.09   11.80
   0   7   4   62.69    4.50
  -1  -7  -4  357.46   23.20
  -1  -7  -4  420.26   22.40
   1   7   4  384.46   25.80
   1   7   4  368.16   22.90
  -2  -7  -4  134.69   10.20
  -2  -7  -4  132.59    8.50
  -2  -7  -4  126.49   12.70
   2   7   4  124.79   15.30
   2   7   4  128.99    7.70
   2   7   4  146.59   11.10
  -3  -7  -4  101.69   20.20
  -3  -7  -4   85.39    9.80
   3   7   4   89.99   15.50
   3   7   4   94.09    7.80
   3   7   4   99.79    8.50
  -4  -7  -4  -35.10   17.90
  -4  -7  -4    3.20    8.50
   4   7   4    8.10    6.20
   3  -8  -4   26.60   13.00
   3  -8  -4   19.80    9.80
   3  -8  -4    1.80    6.30
  -3   8   4   41.30   13.50
   2  -8  -4    2.90    3.70
   2  -8  -4    9.80    6.70
   2  -8  -4   10.60    8.30
  -2   8   4    4.90    9.80
  -2   8   4    6.60    8.20
  -2   8   4    4.70    5.00
   1  -8  -4    0.50    2.20
   1  -8  -4   -2.50    6.20
   1  -8  -4    1.40    4.50
  -1   8   4   -4.20    5.50
  -1   8   4    2.20    7.40
  -1   8   4   -0.70    2.80
  -1   8   4   -9.10    9.40
   0  -8  -4    3.20    4.20
   0  -8  -4    3.50    4.60
   0  -8  -4    4.80    0.90
   0   8   4    5.10    5.60
   0   8   4    2.90    5.80
   0   8   4    2.40    1.50
   0   8   4    3.30    9.00
  -1  -8  -4   14.50    6.40
  -1  -8  -4   12.60    4.40
   1   8   4   11.30    9.60
   1   8   4   12.40    5.30
  -2  -8  -4   51.79    8.20
  -2  -8  -4   65.19    5.50
  -2  -8  -4   57.79   10.50
   2   8   4   59.49    4.00
   2   8   4   55.29   13.30
   2   8   4   42.90    6.90
  -3  -8  -4   -8.90    7.50
  -3  -8  -4   -6.00    4.70
  -3  -8  -4   -1.40   15.20
  -3  -8  -4   -2.40    4.10
   3   8   4    3.00   10.00
   3   8   4   -0.30    2.80
   3   8   4   -1.80    4.00
   3  -9  -4   54.99   16.70
   3  -9  -4    5.90    8.00
   3  -9  -4   22.30   10.10
  -3   9   4   15.30    9.70
  -3   9   4   40.80   15.20
   2  -9  -4   21.70    9.00
   2  -9  -4   35.70   11.10
   2  -9  -4   25.40    5.60
  -2   9   4   41.40   11.50
  -2   9   4   16.90    6.10
  -2   9   4   21.20   12.10
   1  -9  -4   -2.60    2.40
   1  -9  -4   -1.90    7.30
   1  -9  -4   -1.90    5.30
  -1   9   4    2.00    8.00
  -1   9   4   -6.50    6.00
  -1   9   4   -1.50    3.20
  -1   9   4   -4.70   10.20
   0  -9  -4   18.90    8.00
   0  -9  -4   15.20    6.00
   0   9   4   22.80   11.50
   0   9   4   23.20    7.50
   0   9   4   16.90    7.70
  -1  -9  -4    3.00    4.70
  -1  -9  -4   -2.30    5.10
   1   9   4    1.40    5.20
   1   9   4   -2.10    9.90
  -2  -9  -4    8.80    4.90
   2   9   4   19.40    1.60
   2   9   4   15.80    5.80
   2   9   4   15.50   10.90
  -3  -9  -4  150.78   12.80
  -3  -9  -4  168.98   26.40
  -3  -9  -4  128.69   13.60
  -3  -9  -4  175.68   18.70
   3   9   4  156.48   10.00
   3   9   4  165.98   20.50
   3   9   4  158.88   14.10
   2 -10  -4    8.50    8.70
   2 -10  -4    2.80    6.00
  -2  10   4   17.20   11.20
  -2  10   4    2.00   12.70
   1 -10  -4    4.40    6.70
   1 -10  -4   27.30   10.00
   1 -10  -4    2.20    2.90
  -1  10   4   -0.40    8.60
  -1  10   4    7.00    7.60
  -1  10   4    4.40    3.80
  -1  10   4    1.90   11.30
   0 -10  -4    2.60    7.10
   0  10   4    1.60    7.10
   0  10   4    2.90   10.80
   0  10   4    5.40    6.10
  -1 -10  -4    9.50    5.20
  -1 -10  -4    9.10    7.40
   1  10   4    7.30   11.20
   1  10   4   14.00    6.90
  -2 -10  -4    2.30    5.30
  -2 -10  -4    6.20    8.00
   2  10   4    9.60    6.50
   2  10   4   14.20   12.10
  -3 -10  -4   87.69   23.50
  -3 -10  -4   86.79   14.10
  -3 -10  -4  136.29   17.70
  -3 -10  -4  108.29   11.10
   3  10   4  130.59   14.70
   3  10   4   96.39   20.60
   3  10   4  110.49    7.50
   2 -11  -4   41.70    7.30
   2 -11  -4   42.00   12.00
  -2  11   4    5.30   15.50
  -2  11   4   72.49   15.50
  -2  11   4   29.50    8.50
   1 -11  -4   43.50    9.90
   1 -11  -4   43.90    5.70
  -1  11   4   49.90   14.80
  -1  11   4   35.60   12.20
  -1  11   4   64.59   13.30
  -1  11   4   38.30    6.00
   0 -11  -4   42.20   11.80
   0 -11  -4   23.30    7.70
   0  11   4   32.90   10.00
   0  11   4    9.60    8.90
   0  11   4    9.40   11.70
  -1 -11  -4    8.40    5.90
  -1 -11  -4   12.50    8.50
   1  11   4    2.10    7.10
   1  11   4   -1.20   11.20
  -2 -11  -4   -5.80    5.80
  -2 -11  -4   12.30    9.00
   2  11   4    4.30   11.50
   2  11   4   13.10    8.40
  -3 -11  -4   27.70   11.70
  -3 -11  -4    0.60   19.90
   3  11   4    7.50   14.80
   3  11   4   10.70    8.30
   1 -12  -4   13.50    3.80
   1 -12  -4   18.40    9.30
  -1  12   4   12.40   13.10
  -1  12   4   19.90   11.70
  -1  12   4   11.70    5.30
  -1  12   4    6.70   14.30
   0 -12  -4   30.20    9.30
   0  12   4   45.00   12.40
   0  12   4   38.00   11.20
   0  12   4   29.50   15.00
  -1 -12  -4   36.30    9.00
   1  12   4   28.10   10.20
   1  12   4   33.90   15.40
  -2 -12  -4   -0.30    8.20
  -2 -12  -4   34.60   11.10
   2  12   4    3.80   15.20
   2  12   4   18.30    9.40
   0 -13  -4   35.20   10.50
   0  13   4   32.00   13.60
   0  13   4   48.90   17.70
   0  13   4   39.20   14.10
   1  13   4    1.40   14.00
   1  13   4    2.10   10.60
   1  11  -5   16.30    6.00
   1  11  -5    9.40    7.50
   1  11  -5   28.90   10.60
   1  11  -5   23.30   11.30
   1  11  -5   38.80   13.60
   0  11  -5    5.40    9.80
   0  11  -5   22.00   11.70
   0  11  -5   29.40   11.80
   2  10  -5   -0.70   11.80
   2  10  -5   -2.00    6.10
   2  10  -5   19.20   10.10
   2  10  -5    6.80    5.50
   1  10  -5    4.20    4.90
   1  10  -5    0.70    8.30
   1  10  -5    1.40    6.10
   1  10  -5    5.40    8.40
   1  10  -5   10.40   10.40
  -1 -10   5   -7.60    9.00
   0  10  -5   59.49   12.40
   0  10  -5   55.19    7.40
   0  10  -5   64.39   12.60
   0  10  -5   57.99   11.80
   0 -10   5   40.10   11.80
  -1  10  -5    7.40    6.70
  -1  10  -5   19.60   10.40
  -1  10  -5   53.89   12.90
   1 -10   5   39.90   14.00
   2   9  -5   29.50    9.50
   2   9  -5   41.40   13.10
   2   9  -5   26.60    6.40
  -2  -9   5   19.50   12.00
   1   9  -5   58.39    7.60
   1   9  -5   53.99    8.20
   1   9  -5   51.29   10.30
   1   9  -5   64.09   10.20
   1   9  -5   72.09   13.30
  -1  -9   5   45.90   11.30
   0   9  -5   -4.10    4.30
   0   9  -5    4.10    7.30
   0   9  -5   21.30    8.20
   0   9  -5   -0.20    8.80
   0  -9   5    0.70    7.80
   0  -9   5   23.80    8.90
  -1   9  -5   21.90    6.60
  -1   9  -5   41.00   10.00
  -1   9  -5   56.19   12.10
   1  -9   5   29.20   12.30
   1  -9   5    9.90    9.20
  -2   9  -5    7.10   11.40
  -2   9  -5   -3.50    7.60
   2  -9   5  -18.20    9.30
   2  -9   5    2.30    7.30
   3   8  -5   54.99   17.50
   3   8  -5   35.30   10.00
   3   8  -5   45.80    8.70
  -3  -8   5   19.00   12.10
   2   8  -5   -3.00    9.90
   2   8  -5    1.90    5.50
   2   8  -5    3.20    6.90
  -2  -8   5   -5.20    8.90
   1   8  -5    2.20    3.40
   1   8  -5   -4.00    7.90
   1   8  -5   -0.80    6.20
   1   8  -5    0.80    5.00
   1   8  -5    5.80    4.90
  -1  -8   5   14.00    6.00
  -1  -8   5    2.20    7.60
   0   8  -5   10.80    4.10
   0   8  -5   14.30    7.40
   0   8  -5   19.10    8.30
   0   8  -5   15.20    6.90
   0  -8   5   14.40    8.00
   0  -8   5    9.20    7.50
  -1   8  -5   -0.60    6.70
  -1   8  -5    7.50    8.30
   1  -8   5    4.70    7.70
   1  -8   5    4.50   10.60
  -2   8  -5  120.39   19.90
  -2   8  -5   81.69   10.60
   2  -8   5   81.29   10.80
   2  -8   5   77.89   13.00
   2  -8   5   76.19   20.20
   3   7  -5   45.70   10.60
   3   7  -5   44.40   14.80
   3   7  -5   36.80    8.20
  -3  -7   5   31.80   11.30
  -3  -7   5   37.30    7.80
   2   7  -5    3.90    9.20
   2   7  -5    4.40    4.30
   2   7  -5    1.60    5.70
  -2  -7   5    6.00    8.20
   1   7  -5   18.50    4.60
   1   7  -5   14.20    4.90
   1   7  -5   15.50    8.40
   1   7  -5   14.20    6.30
   1   7  -5    9.50    3.60
  -1  -7   5   11.10    5.90
   0   7  -5    7.30    3.50
   0   7  -5    3.40    5.60
   0   7  -5    2.20    6.50
   0  -7   5    3.60    6.90
   0  -7   5    7.10    7.40
  -1   7  -5    8.10    4.40
  -1   7  -5    3.60    6.10
   1  -7   5    5.20    6.20
   1  -7   5    5.90    3.90
  -2   7  -5    3.80    7.70
  -2   7  -5   34.40   11.60
  -2   7  -5    0.30    5.90
   2  -7   5   -3.10    6.40
   2  -7   5    6.70   12.70
   2  -7   5   -8.70    4.90
   3   6  -5    4.20    7.60
   3   6  -5   26.00   13.20
   3   6  -5   28.30    7.30
  -3  -6   5   16.00    5.40
  -3  -6   5   24.20    9.50
   2   6  -5    2.80    8.80
   2   6  -5    2.60    4.10
   2   6  -5   -1.00    6.20
  -2  -6   5    7.20    3.90
  -2  -6   5    2.20    7.60
   1   6  -5   -1.60    3.00
   1   6  -5    1.20    3.50
   1   6  -5    5.10    7.00
   1   6  -5   -1.40    5.10
  -1  -6   5    4.70    6.50
  -1  -6   5   -1.80    4.00
   0   6  -5    1.80    5.70
   0   6  -5   -0.70    4.60
   0   6  -5    4.50    3.10
   0   6  -5   -0.40    4.30
   0  -6   5    2.50    6.00
   0  -6   5    9.50    5.60
  -1   6  -5    0.30    3.50
  -1   6  -5   -6.30    6.20
  -1   6  -5    0.50    5.00
   1  -6   5   -4.40    4.60
   1  -6   5    6.10    9.70
   1  -6   5    0.90    3.10
  -2   6  -5   49.70   10.60
  -2   6  -5   36.30    7.20
  -2   6  -5   39.90    9.10
   2  -6   5   51.09   16.10
   2  -6   5   38.90    8.30
   2  -6   5   38.30    6.80
  -3   6  -5   26.10   11.90
  -3   6  -5   30.50    8.90
   3  -6   5    9.90   19.20
   3  -6   5   16.90    8.70
   3  -6   5   22.10    7.90
   3   5  -5    9.70   11.90
   3   5  -5   -8.90    6.50
   3   5  -5    4.60    5.60
  -3  -5   5    4.40    3.60
  -3  -5   5    1.10    7.90
  -3  -5   5    6.90    3.70
   2   5  -5    5.60    5.80
   2   5  -5    2.60    3.90
   2   5  -5   18.40   10.10
  -2  -5   5    2.60    7.00
  -2  -5   5   -4.40    3.00
  -2  -5   5   -0.50    4.80
   1   5  -5   35.00    4.90
   1   5  -5   37.10    7.30
   1   5  -5   53.79    9.40
   1   5  -5   41.90    5.90
  -1  -5   5   45.70    8.30
  -1  -5   5   39.80    5.90
   0   5  -5   18.10    5.40
   0   5  -5   30.90    4.20
   0   5  -5   23.10    5.80
   0   5  -5   32.50    6.10
   0  -5   5   25.80    6.10
   0  -5   5   23.40    6.60
  -1   5  -5   43.30    8.90
  -1   5  -5   40.00    5.40
  -1   5  -5   32.00    6.70
   1  -5   5   38.80   10.90
   1  -5   5   36.70    5.10
   1  -5   5   33.50    6.90
  -2   5  -5    1.90    4.40
  -2   5  -5    1.70    7.50
  -2   5  -5    2.50    5.50
   2  -5   5    2.10    3.70
   2  -5   5    3.40    4.90
   2  -5   5   -2.80   11.70
  -3   5  -5    7.40    9.50
  -3   5  -5   -2.50    6.90
   3  -5   5    2.70    6.10
   3  -5   5  -23.40   16.40
   3  -5   5    4.30    6.60
   4   4  -5   52.19   11.00
   4   4  -5   65.99   19.00
  -4  -4   5   50.79   13.70
  -4  -4   5   62.09    9.70
   3   4  -5    6.90    5.40
   3   4  -5    2.60    6.90
   3   4  -5   16.30   12.70
  -3  -4   5    8.60    3.40
  -3  -4   5    8.60    3.10
  -3  -4   5   18.10    7.60
   2   4  -5  121.69   14.60
   2   4  -5   96.49    8.70
   2   4  -5   96.29   12.10
  -2  -4   5  101.29   13.00
  -2  -4   5   83.19    6.20
  -2  -4   5   91.79    7.90
   1   4  -5   44.80    4.30
   1   4  -5   45.60    6.20
   1   4  -5   42.70    7.00
   1   4  -5   50.29    8.50
  -1  -4   5   55.99    9.80
  -1  -4   5   40.50    5.10
   0   4  -5   87.49    7.60
   0   4  -5   80.19    6.50
   0   4  -5   77.79    9.10
   0   4  -5   83.59    7.10
   0  -4   5   94.59    9.90
   0  -4   5   80.59    8.70
  -1   4  -5   -8.60    4.40
  -1   4  -5   -0.60    2.80
  -1   4  -5   -3.40    3.60
   1  -4   5    1.10    3.90
   1  -4   5   -2.00    2.20
   1  -4   5    4.60    7.70
  -2   4  -5  236.88   15.00
  -2   4  -5  237.28   17.50
  -2   4  -5  208.28   18.80
   2  -4   5  194.08   14.70
   2  -4   5  217.88   14.30
   2  -4   5  207.18   36.60
   2  -4   5  227.08   16.10
  -3   4  -5   -3.80    5.60
  -3   4  -5    2.50    7.80
  -3   4  -5   12.20    9.60
   3  -4   5   -2.20    5.20
   3  -4   5    0.30    4.90
   3  -4   5  -13.60    8.20
   3  -4   5   -2.30   16.60
   4   3  -5  127.19   14.70
   4   3  -5   72.59   13.10
  -4  -3   5   82.79   15.20
   3   3  -5   -3.20    6.30
   3   3  -5   -1.10    4.10
   3   3  -5   35.20   13.30
  -3  -3   5    2.00    3.20
  -3  -3   5    2.70    6.20
  -3  -3   5    6.80    2.60
   2   3  -5   77.69   11.80
   2   3  -5   68.39    7.40
  -2  -3   5   56.09    4.40
  -2  -3   5   61.19    4.10
  -2  -3   5   69.79   11.70
  -2  -3   5   69.39    8.70
   1   3  -5  256.17   17.20
   1   3  -5  241.98   16.80
   1   3  -5  254.77   15.50
   1   3  -5  238.58   13.40
  -1  -3   5  273.87   17.90
  -1  -3   5  285.17   14.00
   0   3  -5   33.00    5.30
   0   3  -5   51.99    4.70
   0   3  -5   48.50    4.70
   0   3  -5   44.20    6.90
   0  -3   5   62.39    7.80
   0  -3   5   41.10    7.10
  -1   3  -5  671.13   36.00
  -1   3  -5  661.33   34.80
  -1   3  -5  672.93   33.40
   1  -3   5  648.04   33.20
   1  -3   5  635.64   37.50
   1  -3   5  614.64   34.50
  -2   3  -5    6.50    3.60
  -2   3  -5    5.10    4.70
  -2   3  -5   -1.30    7.00
   2  -3   5    7.10    3.60
   2  -3   5    7.60   11.90
   2  -3   5   11.10    6.00
   2  -3   5    9.70    4.10
  -3   3  -5   14.20    7.60
  -3   3  -5   32.10   10.80
  -3   3  -5   20.20    6.10
   3  -3   5   20.00    6.40
   3  -3   5   18.70    9.20
   3  -3   5   18.70    5.30
   3  -3   5   21.50   18.80
   4   2  -5   39.50    9.40
   4   2  -5   52.39   18.40
  -4  -2   5   36.20   11.90
   3   2  -5   42.00   15.40
   3   2  -5   11.90    7.40
   3   2  -5   11.90    5.00
  -3  -2   5   18.20    4.00
  -3  -2   5   17.80    7.00
   2   2  -5   14.90    6.20
   2   2  -5   16.70    4.10
  -2  -2   5   11.10    1.80
  -2  -2   5    9.80    5.00
  -2  -2   5   12.30    1.90
   1   2  -5    7.70    4.40
   1   2  -5    3.20    2.60
   1   2  -5   13.80    7.40
  -1  -2   5    4.30    4.10
   0   2  -5  435.16   22.20
   0   2  -5  453.65   24.10
   0   2  -5  385.36   22.70
   0   2  -5  431.76   21.70
   0  -2   5  451.65   24.30
   0  -2   5  431.26   24.00
  -1   2  -5   26.80    4.40
  -1   2  -5   21.20    3.60
  -1   2  -5   23.90    6.30
   1  -2   5   22.30    3.40
   1  -2   5   23.20    8.50
   1  -2   5   20.60    4.10
  -2   2  -5   61.79    7.10
  -2   2  -5   65.29    8.20
  -2   2  -5   59.79   11.20
   2  -2   5   74.69   15.30
   2  -2   5   60.19    6.70
   2  -2   5   68.09    7.60
  -3   2  -5   52.59    8.00
  -3   2  -5   53.49   12.00
  -3   2  -5   27.50    7.30
   3  -2   5   49.99   10.50
   3  -2   5   36.20   18.40
   3  -2   5   43.70    6.90
   3  -2   5   27.00    5.10
   4   1  -5   47.60    9.30
   4   1  -5   79.09   21.40
   4   1  -5   14.00   13.60
  -4  -1   5   27.50   11.30
   3   1  -5    0.20    4.40
   3   1  -5    9.00    7.20
  -3  -1   5   12.00    5.80
  -3  -1   5   13.60    4.20
   2   1  -5   52.39    5.90
   2   1  -5   73.99   11.30
  -2  -1   5   58.39    7.50
  -2  -1   5   46.00    3.90
   1   1  -5    7.20    4.40
   1   1  -5    3.00    2.50
   1   1  -5   18.50    7.50
  -1  -1   5   -0.90    3.80
   0   1  -5  112.99    8.80
   0   1  -5   87.49    7.60
   0   1  -5  109.69    7.20
   0  -1   5   99.99    9.00
   0  -1   5  116.89    9.10
  -1   1  -5  244.28   16.90
  -1   1  -5  250.87   13.80
  -1   1  -5  245.58   14.30
   1  -1   5  234.68   18.10
   1  -1   5  240.98   13.50
   1  -1   5  237.98   12.60
   1  -1   5  245.18   14.40
  -2   1  -5   17.60    3.80
  -2   1  -5   25.10    9.30
  -2   1  -5   24.90    4.30
   2  -1   5   20.70    3.70
   2  -1   5   17.80   12.40
   2  -1   5   22.30    4.10
   2  -1   5   30.40    6.50
  -3   1  -5   21.90    9.30
  -3   1  -5    3.30    5.10
   3  -1   5   -4.50    7.70
   3  -1   5   -4.80   15.20
   3  -1   5    4.80    3.00
   3  -1   5    3.90    4.40
  -4   1  -5    9.60    8.80
   4  -1   5    2.00    7.60
   4  -1   5  -15.90   23.60
   4  -1   5  -15.80   10.20
   4   0  -5   39.70   20.30
   4   0  -5   23.20   13.90
   4   0  -5   10.50    8.30
   4   0  -5   -7.10   13.60
  -4   0   5   15.60   10.70
   3   0  -5    2.90    7.00
   3   0  -5   -5.70    4.20
   3   0  -5   46.80   17.70
   3   0  -5    0.90    8.40
  -3   0   5    0.10    5.60
  -3   0   5    3.40    4.20
   2   0  -5   64.69   13.70
   2   0  -5   41.30    7.40
   2   0  -5   38.70    7.20
   2   0  -5   45.80    5.80
  -2   0   5   26.60    3.90
  -2   0   5   40.20    6.20
   1   0  -5   29.70    5.70
   1   0  -5   25.30    4.10
   1   0  -5   34.80    7.60
  -1   0   5   29.90    4.60
   0   0  -5  600.94   31.00
   0   0  -5  617.14   31.20
   0   0   5  561.04   31.10
   0   0   5  606.74   31.10
  -1   0  -5    9.10    2.50
  -1   0  -5   10.40    6.40
  -1   0  -5    6.60    2.30
   1   0   5   10.40    2.30
   1   0   5   12.00    2.80
   1   0   5   12.20    7.50
   1   0   5    9.20    3.40
  -2   0  -5  135.59    9.80
  -2   0  -5  125.09    8.90
  -2   0  -5  126.49   15.10
   2   0   5  144.59   18.20
   2   0   5  138.29    8.70
   2   0   5  127.59    9.20
   2   0   5  145.59   11.20
  -3   0  -5  152.18   18.00
  -3   0  -5  172.58   12.80
   3   0   5  144.29   23.90
   3   0   5  171.28   12.10
   3   0   5  148.09   15.20
   3   0   5  151.18    9.50
  -4   0  -5   -6.40    8.20
  -4   0  -5   39.00   13.20
   4   0   5    0.40   11.10
   4   0   5    9.30   22.70
   4   0   5   15.10    7.20
   4  -1  -5    2.00    7.80
   4  -1  -5   12.00   14.60
   4  -1  -5   38.40   21.20
   4  -1  -5   -6.70    9.10
   4  -1  -5    9.20   11.50
  -4   1   5   -0.50    9.30
   3  -1  -5   54.49   18.10
   3  -1  -5    2.40    8.90
   3  -1  -5   12.00    7.60
   3  -1  -5    5.50    4.80
   3  -1  -5   13.30    9.60
  -3   1   5   13.90    6.30
  -3   1   5    8.50    5.40
   2  -1  -5    5.30    3.20
   2  -1  -5    0.60    4.80
   2  -1  -5    2.80    5.20
   2  -1  -5   -3.20    9.20
  -2   1   5   -0.80    3.50
  -2   1   5   -2.00    2.50
   1  -1  -5   21.50    5.20
   1  -1  -5   27.80    4.00
  -1   1   5   20.40    4.00
  -1   1   5   26.60    2.70
   0  -1  -5   38.70    6.20
   0  -1  -5   35.00    6.00
   0   1   5   27.20    5.10
  -1  -1  -5  287.67   16.80
  -1  -1  -5  340.87   17.20
  -1  -1  -5  336.17   21.60
   1   1   5  317.67   21.60
   1   1   5  331.87   17.10
   1   1   5  325.47   18.00
   1   1   5  331.27   17.00
  -2  -1  -5   35.00   10.90
  -2  -1  -5   31.70    3.40
  -2  -1  -5   28.20    4.40
   2   1   5   31.30    3.00
   2   1   5   27.20    4.10
   2   1   5   36.00   12.40
   2   1   5   34.40    7.30
  -3  -1  -5   89.29   19.60
   3   1   5  108.39   20.70
   3   1   5   87.09   12.90
  -4  -1  -5   36.80   14.10
  -4  -1  -5   16.70    8.80
   4   1   5    9.60   11.50
   4   1   5   17.20    7.10
   4   1   5   14.00   21.20
   4  -2  -5   27.50   21.30
   4  -2  -5    8.40   10.70
  -4   2   5    8.00   10.20
   3  -2  -5   15.80   15.20
   3  -2  -5    0.70    7.60
   3  -2  -5    1.50    9.50
   3  -2  -5    3.40    4.40
  -3   2   5   11.30    6.10
  -3   2   5    0.60    5.50
   2  -2  -5  314.87   19.70
   2  -2  -5  308.07   23.00
   2  -2  -5  342.87   19.00
   2  -2  -5  334.97   23.80
  -2   2   5  342.27   18.90
  -2   2   5  329.57   19.60
   1  -2  -5  493.25   25.50
   1  -2  -5  475.45   25.80
  -1   2   5  487.95   25.40
  -1   2   5  536.25   26.50
   0   2   5  326.77   19.00
  -1  -2  -5  384.56   20.10
  -1  -2  -5  370.76   20.00
  -1  -2  -5  392.66   25.00
   1   2   5  401.36   20.10
   1   2   5  417.96   22.00
  -2  -2  -5   19.70    3.70
  -2  -2  -5   30.50   10.70
   2   2   5   17.00    6.70
   2   2   5   19.90   10.90
   2   2   5   14.80    3.20
  -3  -2  -5    0.70   13.40
  -3  -2  -5    6.20    4.30
   3   2   5    8.30    3.90
   3   2   5    3.40    8.00
  -4  -2  -5   22.90   14.30
  -4  -2  -5   -0.10    7.30
   4   2   5    0.60    6.30
   4   2   5   -9.20   18.70
   4   2   5   -0.30   10.90
   4  -3  -5    5.60    8.10
   4  -3  -5   -5.10   10.60
   4  -3  -5  -22.40   15.60
   4  -3  -5   23.50   25.20
   4  -3  -5  -12.10    9.70
  -4   3   5   -2.50   10.40
   3  -3  -5  310.67   24.70
   3  -3  -5  356.06   21.10
   3  -3  -5  339.27   25.60
   3  -3  -5  318.17   28.30
  -3   3   5  353.46   21.90
  -3   3   5  314.07   21.80
   2  -3  -5   96.59   14.50
   2  -3  -5   87.09    9.90
   2  -3  -5  101.09    8.20
  -2   3   5   84.19    8.50
  -2   3   5   83.59    8.30
   1  -3  -5  796.42   37.80
   1  -3  -5  745.53   37.20
   1  -3  -5  699.23   40.60
  -1   3   5  719.73   37.50
  -1   3   5  724.03   37.50
   0  -3  -5  122.89    9.10
   0  -3  -5  137.79    8.50
   0  -3  -5  154.38   11.60
   0   3   5  140.99   11.40
  -1  -3  -5   -4.60    6.80
  -1  -3  -5   -1.40    1.30
  -1  -3  -5   -0.30    1.90
   1   3   5    1.30    4.50
   1   3   5   -0.70    1.10
  -2  -3  -5    1.00    2.50
  -2  -3  -5    9.30    8.50
   2   3   5    5.70    6.30
   2   3   5    2.50    2.10
  -3  -3  -5  166.98   21.30
  -3  -3  -5  167.38   12.40
   3   3   5  157.28   17.00
   3   3   5  175.28   11.70
  -4  -3  -5   64.29   17.60
  -4  -3  -5   52.19    9.40
   4   3   5   48.10    8.50
   4   3   5   55.99   14.80
   4  -4  -5   30.50   10.30
   4  -4  -5   34.50   12.30
  -4   4   5   65.19   13.00
   3  -4  -5   -8.90   13.20
   3  -4  -5    5.10    7.80
   3  -4  -5   -6.70    8.70
   3  -4  -5    8.40    5.50
  -3   4   5  -11.90    7.20
  -3   4   5    2.20    6.00
   2  -4  -5  250.97   15.20
   2  -4  -5  259.97   20.40
   2  -4  -5  241.38   17.30
  -2   4   5  246.68   15.90
  -2   4   5  245.08   16.60
   1  -4  -5   10.50    4.10
   1  -4  -5   12.30    5.40
   1  -4  -5   16.20    3.00
  -1   4   5   13.50    3.20
  -1   4   5   17.40    4.10
   0  -4  -5    6.20    3.10
   0  -4  -5    8.30    1.90
   0  -4  -5    7.90    3.90
   0   4   5    2.90    5.70
  -1  -4  -5  282.37   14.10
  -1  -4  -5  209.88   12.80
   1   4   5  233.28   16.70
   1   4   5  264.37   12.90
  -2  -4  -5   72.09   14.40
  -2  -4  -5   63.39    5.60
   2   4   5   56.49   10.10
   2   4   5   65.29    5.40
  -3  -4  -5   52.99    7.20
  -3  -4  -5   52.69   15.90
   3   4   5   61.59   12.60
   3   4   5   54.99    6.80
  -4  -4  -5  -11.10   14.50
  -4  -4  -5   13.10    7.80
   4   4   5    6.20   12.00
   4   4   5    5.50    5.80
   3  -5  -5  141.29   17.60
   3  -5  -5  139.89   12.50
   3  -5  -5  111.49   20.10
   3  -5  -5  145.89   17.40
  -3   5   5  130.69   14.00
  -3   5   5  154.08   14.70
   2  -5  -5    4.80    3.30
   2  -5  -5    4.40    6.30
   2  -5  -5    5.20    6.40
  -2   5   5    7.80    4.40
  -2   5   5    5.60    5.50
   1  -5  -5  118.89   10.40
   1  -5  -5  139.49   13.10
   1  -5  -5  146.09    8.80
  -1   5   5  144.59   14.70
  -1   5   5  134.29    9.20
  -1   5   5  139.19   10.60
   0  -5  -5  454.15   25.90
   0  -5  -5  453.15   22.80
   0  -5  -5  434.26   25.20
   0   5   5  457.55   26.80
   0   5   5  479.85   25.50
  -1  -5  -5    7.30    4.20
  -1  -5  -5    4.90    2.40
  -1  -5  -5    8.30    1.60
   1   5   5    6.40    3.50
   1   5   5    8.70    6.80
  -2  -5  -5  199.78   21.40
  -2  -5  -5  239.78   12.70
  -2  -5  -5  214.88   11.50
   2   5   5  207.38   12.10
   2   5   5  213.88   17.60
  -3  -5  -5   66.29    7.90
   3   5   5   74.79   13.20
   3   5   5   82.79    7.60
  -4  -5  -5    8.60    7.90
  -4  -5  -5  -17.20   16.40
   4   5   5    5.30   12.30
   4   5   5    1.90    6.30
   3  -6  -5   -2.40    7.80
   3  -6  -5   -5.50    5.60
   3  -6  -5    4.10   10.90
  -3   6   5    1.20    6.90
  -3   6   5   10.50   10.10
   2  -6  -5   57.19    7.20
   2  -6  -5   52.29    9.80
   2  -6  -5   40.00    9.00
  -2   6   5   36.30    6.50
  -2   6   5   49.20    9.70
   1  -6  -5   41.70    7.90
   1  -6  -5   45.70    4.70
   1  -6  -5   43.70    7.60
  -1   6   5   47.70    9.30
  -1   6   5   47.70    7.10
  -1   6   5   44.80    5.50
  -1   6   5   53.19   12.00
   0  -6  -5   51.79    7.60
   0  -6  -5   47.70    6.20
   0  -6  -5   55.29    3.70
   0   6   5   51.19    6.80
   0   6   5   63.99    9.70
   0   6   5   54.89   10.80
  -1  -6  -5  111.69    8.50
  -1  -6  -5  103.09   10.00
  -1  -6  -5  106.49    5.80
   1   6   5  111.99   10.40
   1   6   5   97.79   12.20
  -2  -6  -5  103.89    7.90
  -2  -6  -5  121.89    8.30
  -2  -6  -5  131.79   19.50
   2   6   5  117.79    9.50
   2   6   5  126.59    7.50
   2   6   5  132.79   14.70
  -3  -6  -5    0.70    4.20
  -3  -6  -5    0.30   13.90
   3   6   5    8.60    9.10
   3   6   5    3.40    3.00
  -4  -6  -5   -0.10    8.50
  -4  -6  -5   17.10   19.80
   4   6   5   -0.80    5.90
   4   6   5    4.80   12.60
   3  -7  -5   49.99    8.50
   3  -7  -5   58.89   12.10
  -3   7   5   35.50    9.50
   2  -7  -5    4.00    4.20
   2  -7  -5    1.60    6.90
  -2   7   5   -2.40    4.20
  -2   7   5   11.30   10.90
  -2   7   5   -0.30    6.40
   1  -7  -5   27.50    7.40
   1  -7  -5   22.30    6.80
   1  -7  -5   28.70    3.90
  -1   7   5   30.30    8.80
  -1   7   5   26.60    4.20
  -1   7   5   22.60    6.80
  -1   7   5   29.30   11.20
   0  -7  -5   -0.50    3.80
   0  -7  -5    3.60    1.10
   0  -7  -5   -2.60    4.20
   0   7   5   -3.60    3.60
   0   7   5   -6.10    7.40
   0   7   5    1.60    5.40
  -1  -7  -5    0.10    3.00
  -1  -7  -5   -2.70    4.10
   1   7   5    4.90    4.40
   1   7   5    0.50    7.40
  -2  -7  -5   51.79    6.30
  -2  -7  -5   50.79    9.60
  -2  -7  -5   42.40    4.80
   2   7   5   43.10    6.30
   2   7   5   51.09   12.90
   2   7   5   47.50    4.00
  -3  -7  -5    3.80   14.70
  -3  -7  -5   -1.40    4.50
   3   7   5    3.70    3.30
   3   7   5    9.80   10.70
  -4  -7  -5  -17.40   18.80
  -4  -7  -5   -5.20    8.20
   4   7   5    6.90    6.40
   3  -8  -5   43.50    8.50
   3  -8  -5   31.60   11.30
  -3   8   5   16.80    9.10
   2  -8  -5   11.60    7.90
   2  -8  -5   -7.30    6.20
   2  -8  -5   -3.90    3.60
  -2   8   5   -2.80    7.10
  -2   8   5   -7.50    4.90
  -2   8   5   -1.10   10.00
   1  -8  -5   63.99   10.90
   1  -8  -5   57.09    5.30
   1  -8  -5   62.79   10.90
  -1   8   5   60.99   10.10
  -1   8   5   54.49    6.40
  -1   8   5   50.69   13.90
  -1   8   5   50.29   11.40
   0  -8  -5    1.90    0.90
   0  -8  -5    2.40    4.30
   0  -8  -5   -6.40    4.80
   0   8   5    3.30    5.30
   0   8   5    3.60    6.00
   0   8   5    3.70    9.40
  -1  -8  -5    5.30    4.10
  -1  -8  -5   12.40    6.10
   1   8   5   14.40    6.00
   1   8   5   19.80   10.20
  -2  -8  -5    2.60    2.30
  -2  -8  -5   -1.70    6.30
  -2  -8  -5    0.00    3.40
   2   8   5   -3.40    4.20
   2   8   5    0.60    1.30
   2   8   5    2.70    9.00
  -3  -8  -5    2.20    8.70
  -3  -8  -5   -3.60    3.30
  -3  -8  -5   -4.90    4.70
  -3  -8  -5   -6.00   17.00
   3   8   5   -6.70   10.90
   3   8   5    3.60    3.00
   3   8   5   -3.90    4.10
   3  -9  -5   17.00    8.40
   3  -9  -5   36.80   11.20
  -3   9   5   -7.10    8.90
   2  -9  -5   22.90    9.80
   2  -9  -5    3.50    4.40
   2  -9  -5    5.30    7.90
  -2   9   5  -14.30   10.60
  -2   9   5    4.50    8.90
  -2   9   5   -0.10    5.40
   1  -9  -5    0.00    2.50
   1  -9  -5   -5.70    5.10
   1  -9  -5   -8.90    6.90
  -1   9   5   -2.10    3.30
  -1   9   5   -5.50    7.70
  -1   9   5   -2.90    9.90
  -1   9   5    1.00    7.40
   0  -9  -5    3.70    6.10
   0  -9  -5    4.10    5.00
   0   9   5    5.80    6.10
   0   9   5   -9.80   10.10
   0   9   5    2.10    7.00
  -1  -9  -5    7.40    6.60
  -1  -9  -5    4.10    4.40
   1   9   5    2.80    5.90
   1   9   5   -1.10   10.50
  -2  -9  -5    6.30    7.30
  -2  -9  -5    2.80    4.20
   2   9   5    6.00    9.90
   2   9   5    1.00    5.20
  -3  -9  -5    0.90   17.60
  -3  -9  -5   -9.40    4.40
  -3  -9  -5    5.80    9.40
  -3  -9  -5   -2.70    5.00
   3   9   5   -2.60    2.70
   3   9   5    1.30   11.70
   3   9   5   -3.20    5.10
   2 -10  -5    5.50    8.50
   2 -10  -5    4.10    4.90
  -2  10   5   -6.80    9.70
  -2  10   5  -10.50   12.80
  -2  10   5   14.70   10.90
   1 -10  -5   36.20    8.90
   1 -10  -5   61.39   12.30
   1 -10  -5   29.30    4.20
  -1  10   5   42.50   10.80
  -1  10   5   42.60   14.10
  -1  10   5   36.90    5.50
  -1  10   5   29.10   11.40
   0 -10  -5   59.79   11.00
   0  10   5   66.29   11.20
   0  10   5   63.09   15.20
  -1 -10  -5   11.20    5.90
  -1 -10  -5   15.40    8.00
   1  10   5   16.50    7.50
   1  10   5   15.80   11.80
  -2 -10  -5   -2.90    5.00
  -2 -10  -5    4.80    8.00
   2  10   5    3.30   11.70
   2  10   5   -1.80    5.60
  -3 -10  -5    1.80    5.20
  -3 -10  -5   -7.90   18.40
  -3 -10  -5   -1.20    9.40
   3  10   5    6.70   13.20
   3  10   5   -1.00    2.30
   3  10   5   11.90    6.80
   2 -11  -5   52.49   12.40
   2 -11  -5   43.20    7.30
  -2  11   5   18.10   16.80
  -2  11   5   46.90    9.10
   1 -11  -5   98.89    8.20
   1 -11  -5  114.99   16.10
   1 -11  -5  134.59   16.40
  -1  11   5  118.69   20.90
  -1  11   5  102.29    9.90
  -1  11   5  126.59   16.90
  -1  11   5   88.99   15.90
   0 -11  -5    2.70    6.50
   0 -11  -5    1.70    8.50
   0  11   5  -13.60    9.90
   0  11   5    1.40    8.60
   0  11   5    4.10    8.10
  -1 -11  -5   41.80    8.30
  -1 -11  -5   67.89   12.20
   1  11   5   48.10   15.00
   1  11   5   45.10   10.40
  -2 -11  -5   99.39   15.40
  -2 -11  -5   77.29   12.50
   2  11   5   60.69   10.70
   2  11   5   71.79   17.10
  -3 -11  -5  -12.90   19.90
  -3 -11  -5   27.20   12.00
   3  11   5    5.90   16.20
   3  11   5    1.80    8.00
   1 -12  -5    0.70    3.30
   1 -12  -5   13.00    9.10
  -1  12   5  -13.10   10.80
  -1  12   5   19.00   11.50
  -1  12   5   -6.70    4.80
  -1  12   5    2.50   13.70
   0 -12  -5  111.39   15.80
   0  12   5   96.89   19.80
   0  12   5  115.59   16.40
   0  12   5   79.19   15.20
  -1 -12  -5   33.30    8.70
   1  12   5   31.80   15.60
   1  12   5   28.10   10.10
  -2 -12  -5   18.40   10.30
  -2 -12  -5   -5.30    6.50
   2  12   5    0.10    8.30
   2  12   5    6.90   14.70
   0 -13  -5   10.70    9.20
   0  13   5   -1.70   11.90
   0  13   5   19.60   11.80
   0  13   5   -9.00   13.10
  -1 -13  -5   -2.80    8.00
   1  13   5    6.10   15.00
   1  13   5    1.10   10.40
   1  10  -6   28.90   12.50
   1  10  -6   25.80    7.00
   1  10  -6   11.80    9.70
   1  10  -6   28.50   15.10
   1  10  -6   15.10    7.80
  -1 -10   6   -9.90   11.40
   0  10  -6   11.50    5.70
   0  10  -6    6.80    9.60
   0  10  -6   29.30   11.50
   0  10  -6   26.70   11.00
   2   9  -6   35.50   11.10
   2   9  -6   40.80   13.60
  -2  -9   6   29.20   13.00
   1   9  -6   -1.10    9.10
   1   9  -6    7.70    6.30
   1   9  -6   -3.00    6.80
   1   9  -6    3.00    6.40
   1   9  -6    0.80    4.50
  -1  -9   6   -5.80    9.50
   0   9  -6    6.80    7.90
   0   9  -6   16.40    8.90
   0   9  -6   27.80    9.50
   0  -9   6   19.70    9.50
   0  -9   6   -2.60    9.20
  -1   9  -6    3.00    6.70
  -1   9  -6   23.70   11.30
  -1   9  -6   10.80    9.60
   1  -9   6   17.60   13.60
   2   8  -6   72.79   12.10
   2   8  -6   67.39   14.60
   2   8  -6   48.10    8.20
  -2  -8   6   40.10   12.30
   1   8  -6    8.50    5.80
   1   8  -6    2.10    8.60
   1   8  -6   11.50    4.60
   1   8  -6    8.40    5.60
   1   8  -6   11.00    7.30
  -1  -8   6   -3.80    7.90
  -1  -8   6   27.80    7.40
   0   8  -6    3.50    4.50
   0   8  -6    7.20    6.30
   0   8  -6    9.70    6.70
   0   8  -6    0.50    7.40
   0  -8   6   24.30    8.30
   0  -8   6   -4.40    7.60
  -1   8  -6   13.30    8.00
  -1   8  -6   23.70    9.90
  -1   8  -6    4.20    5.10
   1  -8   6   17.40   12.30
   1  -8   6   -6.30    7.70
  -2   8  -6   11.30   10.40
  -2   8  -6    1.80    7.10
   2  -8   6  -17.20   16.20
   2  -8   6  -14.90    9.30
   2  -8   6   -8.20    6.20
   3   7  -6   65.79   16.60
   3   7  -6   62.79    9.80
   3   7  -6   50.29   11.50
  -3  -7   6   52.19    5.20
  -3  -7   6   44.10   12.20
   2   7  -6   50.79    7.70
   2   7  -6   66.09   13.20
   2   7  -6   40.30    9.50
  -2  -7   6   42.90   11.40
   1   7  -6    1.80    7.10
   1   7  -6   -1.40    3.70
   1   7  -6   -5.60    5.60
   1   7  -6    2.10    4.70
   1   7  -6    0.50    4.10
  -1  -7   6   -1.30    7.70
  -1  -7   6    3.60    5.00
   0   7  -6    0.20    5.40
   0   7  -6    6.50    6.10
   0   7  -6    0.20    3.70
   0  -7   6    0.00    6.60
   0  -7   6    8.50    7.60
  -1   7  -6   15.50    8.30
  -1   7  -6   11.70    6.70
  -1   7  -6   16.90    5.90
   1  -7   6   13.40   11.20
   1  -7   6    6.20    7.20
  -2   7  -6   14.30    9.30
  -2   7  -6   30.40   11.30
  -2   7  -6   -5.50    5.80
   2  -7   6   -0.50    7.80
   2  -7   6    1.20   16.00
   2  -7   6    5.40    5.90
   3   6  -6   45.80    8.50
   3   6  -6   64.39   16.00
   3   6  -6   45.10   10.70
  -3  -6   6   58.59   11.70
   2   6  -6   -1.10    6.30
   2   6  -6   -3.90    4.20
   2   6  -6   14.10    9.40
  -2  -6   6    8.10    3.30
  -2  -6   6   -3.50    7.00
   1   6  -6    1.90    3.40
   1   6  -6    5.40    7.30
   1   6  -6    7.40    4.40
   1   6  -6    6.50    6.60
  -1  -6   6    5.50    7.10
  -1  -6   6    8.20    5.10
   0   6  -6   28.80    4.90
   0   6  -6   31.60    7.50
   0   6  -6   43.30    7.50
   0   6  -6   37.80    7.90
   0  -6   6   28.20    7.90
   0  -6   6   30.30    8.50
  -1   6  -6   -0.90    5.20
  -1   6  -6    3.60    4.30
  -1   6  -6   -1.50    6.20
   1  -6   6   -0.50    9.80
   1  -6   6   -5.10    5.50
  -2   6  -6   41.70   11.50
  -2   6  -6   18.40    6.60
  -2   6  -6   16.70    7.50
   2  -6   6    8.00    7.10
   2  -6   6   28.40    6.30
   2  -6   6   20.70   15.80
  -3   6  -6   12.50    9.40
  -3   6  -6   15.10   11.50
   3  -6   6   33.90    8.70
   3  -6   6    4.70    8.70
   3   5  -6    6.70    8.70
   3   5  -6    9.60    6.40
   3   5  -6   37.40   14.20
   2   5  -6   32.30    8.80
   2   5  -6   41.50   11.50
   2   5  -6   35.10    6.20
  -2  -5   6   32.00    5.60
  -2  -5   6   44.60    4.20
  -2  -5   6   23.40    8.70
   1   5  -6   27.50    4.60
   1   5  -6   23.90    6.70
   1   5  -6   31.20    8.20
   1   5  -6   20.80    5.40
  -1  -5   6   27.20    7.70
  -1  -5   6   35.00    6.00
   0   5  -6   21.50    5.60
   0   5  -6   13.50    5.60
   0   5  -6   14.80    3.80
   0   5  -6   10.50    5.30
   0  -5   6   10.60    7.30
   0  -5   6   12.30    6.20
  -1   5  -6  155.58   13.70
  -1   5  -6  162.98   11.20
  -1   5  -6  129.49   13.50
   1  -5   6  150.58   14.60
   1  -5   6  140.59   10.40
   1  -5   6  122.09   17.20
  -2   5  -6   -0.70    5.60
  -2   5  -6    8.10    8.40
  -2   5  -6   -4.50    5.00
   2  -5   6   -4.30   13.60
   2  -5   6   -1.80    5.40
   2  -5   6    4.70    4.30
  -3   5  -6   88.79   11.80
  -3   5  -6   69.19   15.00
   3  -5   6   64.99   10.80
   3  -5   6   88.89   24.70
   3  -5   6  108.79   12.50
   3  -5   6   66.89   11.30
   3   4  -6  116.89   12.90
   3   4  -6  129.19   19.10
  -3  -4   6  126.49   15.30
   2   4  -6    0.80    4.20
   2   4  -6    0.60    6.20
   2   4  -6   23.10   10.10
  -2  -4   6    7.20    7.30
   1   4  -6  187.98   13.90
   1   4  -6  163.18   12.40
   1   4  -6  169.58   10.30
   1   4  -6  179.28   15.00
  -1  -4   6  194.08   16.20
  -1  -4   6  175.28   11.40
   0   4  -6  172.38   11.10
   0   4  -6  178.98   14.20
   0   4  -6  168.68   12.20
   0   4  -6  184.78   11.10
   0  -4   6  184.48   14.60
   0  -4   6  178.58   14.80
  -1   4  -6   32.70    4.90
  -1   4  -6   30.00    7.90
  -1   4  -6   15.00    5.20
   1  -4   6   23.10    4.30
   1  -4   6   22.10    5.90
   1  -4   6   29.30   10.80
  -2   4  -6  285.27   20.40
  -2   4  -6  307.57   18.40
  -2   4  -6  310.37   22.20
   2  -4   6  290.97   17.80
   2  -4   6  291.47   19.70
   2  -4   6  259.27   15.60
   2  -4   6  286.57   27.50
  -3   4  -6    6.50    6.50
  -3   4  -6   25.90   11.00
  -3   4  -6    6.00    8.20
   3  -4   6  -27.00   17.30
   3  -4   6  -11.70    7.20
   3  -4   6   -9.70    5.30
   3  -4   6    4.90    5.80
   3   3  -6   33.50   14.70
   3   3  -6    3.70    5.30
  -3  -3   6    7.00    3.10
  -3  -3   6    6.40    7.50
   2   3  -6   28.90    7.50
   2   3  -6   20.40    5.10
  -2  -3   6   19.60    7.30
  -2  -3   6   17.30    6.20
   1   3  -6   15.50    2.30
   1   3  -6   35.00    8.10
   1   3  -6   14.40    4.30
   1   3  -6   16.10    5.30
  -1  -3   6   18.50    6.00
  -1  -3   6   15.70    3.60
   0   3  -6   39.40    5.80
   0   3  -6   54.99    5.10
   0   3  -6   54.79    5.40
   0   3  -6   53.99    8.10
   0  -3   6   68.29    9.30
   0  -3   6   55.99    8.60
  -1   3  -6  182.08   13.60
  -1   3  -6  177.78   14.60
  -1   3  -6  205.18   12.30
   1  -3   6  200.18   18.10
   1  -3   6  193.48   14.30
   1  -3   6  186.38   11.80
  -2   3  -6    6.40    4.80
  -2   3  -6   11.30    8.10
  -2   3  -6   13.50    4.80
   2  -3   6   16.40    5.00
   2  -3   6    9.90    4.90
   2  -3   6   18.20    4.40
   2  -3   6    3.40   13.50
  -3   3  -6   -5.80    5.70
  -3   3  -6   27.20   10.10
  -3   3  -6   12.50    7.30
   3  -3   6    9.40    5.50
   3  -3   6    0.10   18.60
   3  -3   6   -0.30    7.30
   3  -3   6   -1.10    4.60
   4   2  -6   42.10   23.40
   4   2  -6    9.00    8.80
  -4  -2   6   20.70   11.80
   3   2  -6  137.49   18.00
   3   2  -6  158.78   13.50
   3   2  -6  209.68   22.40
  -3  -2   6  168.38    9.60
  -3  -2   6  152.98   15.50
   2   2  -6   -1.20    3.40
   2   2  -6    4.10    5.90
  -2  -2   6   -2.80    4.60
   1   2  -6   83.89   10.30
   1   2  -6   86.09   10.60
   1   2  -6   77.19    7.60
  -1  -2   6   82.39   10.20
   0   2  -6   46.30    5.10
   0   2  -6   49.30    7.30
   0   2  -6   51.59    5.00
   0  -2   6   49.30    8.20
   0  -2   6   66.69    8.30
  -1   2  -6   -1.70    3.00
  -1   2  -6   -3.10    5.00
  -1   2  -6    0.60    2.00
   1  -2   6    1.80    7.80
   1  -2   6    4.50    2.60
   1  -2   6    8.90    3.90
  -2   2  -6   74.49    8.20
  -2   2  -6   61.19    8.70
  -2   2  -6   82.29   12.80
   2  -2   6   80.19   17.30
   2  -2   6   85.19    8.90
   2  -2   6   79.49    7.70
   2  -2   6   75.99    8.10
  -3   2  -6    4.60    6.10
  -3   2  -6    8.00    9.60
  -3   2  -6   -4.60    5.60
   3  -2   6    1.50    4.80
   3  -2   6   -7.80    7.40
   3  -2   6    3.30    4.00
   3  -2   6  -13.90   16.20
   4   1  -6    4.10    8.70
   4   1  -6  -26.00   13.80
  -4  -1   6    9.90   11.30
   3   1  -6  208.68   24.40
   3   1  -6  159.08   17.60
   3   1  -6  178.38   14.00
  -3  -1   6  150.18   15.40
  -3  -1   6  180.68   10.70
   2   1  -6  203.88   17.60
   2   1  -6  230.68   21.80
   2   1  -6  196.18   13.60
  -2  -1   6  196.68   14.80
   1   1  -6   37.20    8.70
   1   1  -6   35.20    5.10
   1   1  -6   24.50    5.80
  -1  -1   6   27.20    5.20
   0   1  -6  196.88   11.10
   0   1  -6  190.18   12.90
   0   1  -6  173.88   11.90
   0   1  -6  186.18   10.80
   0  -1   6  180.68   13.00
   0  -1   6  173.88   13.20
  -1   1  -6  183.58   12.30
  -1   1  -6  196.08   11.70
  -1   1  -6  192.18   15.10
   1  -1   6  193.88   10.00
   1  -1   6  206.98   11.60
   1  -1   6  186.38   12.50
   1  -1   6  187.88   16.90
  -2   1  -6   -8.70    8.20
  -2   1  -6   -0.80    3.30
  -2   1  -6   -3.60    2.70
   2  -1   6   -1.90   11.90
   2  -1   6   -0.20    2.20
   2  -1   6    5.20    3.20
  -3   1  -6   67.79   10.60
  -3   1  -6   88.29   10.60
  -3   1  -6  113.99   15.80
   3  -1   6   95.19   21.90
   3  -1   6   79.79   11.60
   3  -1   6   82.39    8.00
   3  -1   6   88.49    9.80
  -4   1  -6   -6.70    9.20
   4  -1   6    1.80    8.00
   4  -1   6  -13.80    9.90
   4  -1   6   -0.90   24.40
  -4   0   6    1.90   10.60
   3   0  -6   86.69   15.70
   3   0  -6   90.79   12.60
   3   0  -6  154.18   22.90
   3   0  -6  109.79   11.00
  -3   0   6  104.89    8.40
  -3   0   6   92.49   12.10
   2   0  -6    8.50    6.20
   2   0  -6   -0.20    3.50
   2   0  -6   25.60   11.60
   2   0  -6    2.00    4.00
  -2   0   6   -0.20    4.20
   1   0  -6   46.40    5.60
   1   0  -6   55.79    8.80
   1   0  -6   43.40    8.60
   0   0  -6   49.10    7.10
   0   0  -6   43.50    7.10
   0   0   6   49.30    7.10
   0   0   6   38.90    7.40
  -1   0  -6  128.19   13.40
  -1   0  -6  134.29    9.30
  -1   0  -6  137.99    8.90
   1   0   6  131.09    8.90
   1   0   6  136.49    8.70
   1   0   6  137.79   14.30
   1   0   6  153.08   10.00
  -2   0  -6   47.60    5.80
  -2   0  -6   49.10    6.50
  -2   0  -6   58.49   12.30
   2   0   6   61.09    8.20
   2   0   6   55.99    6.10
   2   0   6   62.49    6.40
   2   0   6   67.69   15.30
  -3   0  -6   14.50    5.60
  -3   0  -6   26.10   11.20
   3   0   6   -7.60   15.50
   3   0   6    5.00    7.70
   3   0   6    5.50    2.60
   3   0   6    8.40    4.70
  -4   0  -6   36.60   10.50
   4   0   6   24.30   25.00
   4   0   6   37.10   12.40
   4   0   6   33.30    8.50
   4  -1  -6  -13.70    9.70
   4  -1  -6   -9.70   12.30
   4  -1  -6   -0.30   13.30
   4  -1  -6   -3.90    8.10
  -4   1   6   -4.40   10.50
   3  -1  -6   12.90    9.10
   3  -1  -6    7.80    5.50
   3  -1  -6    6.30    7.20
   3  -1  -6   48.20   18.00
   3  -1  -6    5.50    9.00
  -3   1   6   12.30    6.60
   2  -1  -6   70.89   14.00
   2  -1  -6   68.09   11.40
   2  -1  -6   54.59    7.60
   2  -1  -6   62.29    7.10
  -2   1   6   50.29    5.00
  -2   1   6   55.19    7.60
   1  -1  -6 1981.70   97.39
   1  -1  -6 2159.38   99.39
   1  -1  -6 2096.39  100.69
  -1   1   6 1897.91   99.49
   0  -1  -6  160.08   12.50
   0  -1  -6  174.18   11.90
  -1  -1  -6  245.28   18.40
  -1  -1  -6  237.68   13.70
  -1  -1  -6  235.78   13.40
   1   1   6  243.38   14.40
   1   1   6  241.68   13.80
   1   1   6  249.38   13.40
   1   1   6  224.58   18.50
  -2  -1  -6   18.70    2.70
  -2  -1  -6   27.20    9.80
  -2  -1  -6   30.90    4.70
   2   1   6   31.80    4.50
   2   1   6   37.40   11.40
   2   1   6   28.50    7.00
  -3  -1  -6    2.90    4.50
  -3  -1  -6   -3.70   10.80
   3   1   6    0.50   14.70
   3   1   6    4.10    7.30
   3   1   6   -1.60    3.70
  -4  -1  -6   14.60   13.80
  -4  -1  -6    9.70    8.90
   4   1   6   -8.20   21.50
   4   1   6    1.70   10.20
   4   1   6   -5.60    6.80
   4  -2  -6   34.60   16.60
   4  -2  -6   16.90   10.90
   4  -2  -6   31.50    9.50
   4  -2  -6   18.90   13.70
  -4   2   6   31.80   11.80
   3  -2  -6    2.90    8.90
   3  -2  -6   17.20    7.90
   3  -2  -6   20.10    6.00
   3  -2  -6   38.00   17.20
   3  -2  -6   18.50    9.80
  -3   2   6   20.00    6.40
  -3   2   6   17.50    6.60
   2  -2  -6  829.32   42.20
   2  -2  -6  785.02   41.90
  -2   2   6  836.32   41.40
  -2   2   6  803.82   42.80
   1  -2  -6  173.88   10.50
   1  -2  -6  194.58   11.50
  -1   2   6  170.98   11.80
  -1   2   6  176.58   10.40
   0  -2  -6  957.40   48.60
   0   2   6  959.70   49.99
  -1  -2  -6   66.89   12.10
  -1  -2  -6   71.39    6.20
  -1  -2  -6   69.99    5.30
   1   2   6   63.49    5.00
   1   2   6   68.49    8.60
  -2  -2  -6    0.20    2.60
  -2  -2  -6    0.90   10.10
   2   2   6    2.00   11.10
   2   2   6    2.90    2.50
   2   2   6    6.00    6.30
  -3  -2  -6    2.30   12.10
   3   2   6    4.60   14.80
   3   2   6    2.20    8.20
   3   2   6    0.00    4.20
  -4  -2  -6  109.49   14.30
   4   2   6   89.39   11.30
   4   2   6   93.59   16.00
   4  -3  -6   -3.20   10.70
   4  -3  -6   -2.80   18.20
   4  -3  -6   -8.30    8.30
   4  -3  -6   13.60   23.40
   4  -3  -6    4.20   12.30
  -4   3   6   -0.30   11.00
   3  -3  -6   71.69    9.70
   3  -3  -6   45.30   13.10
   3  -3  -6   66.69   18.00
   3  -3  -6   55.89   12.20
  -3   3   6   59.99    9.40
  -3   3   6   70.19    9.30
   2  -3  -6   20.80    8.20
   2  -3  -6    4.10    4.80
   2  -3  -6   11.70    4.20
  -2   3   6    9.10    4.20
  -2   3   6   10.00    4.60
   1  -3  -6  826.92   40.70
   1  -3  -6  751.32   44.30
   1  -3  -6  843.42   40.90
  -1   3   6  748.73   41.00
  -1   3   6  839.22   40.80
   0  -3  -6    5.90    2.80
   0  -3  -6    2.00    2.00
   0   3   6    1.70    4.90
  -1  -3  -6   84.99    7.50
  -1  -3  -6   85.49    5.70
  -1  -3  -6   74.09   12.80
  -1  -3  -6   77.49    6.70
   1   3   6   82.99    9.30
   1   3   6   88.09    5.70
  -2  -3  -6   70.49   14.60
  -2  -3  -6   54.59    6.00
   2   3   6   72.69    5.80
  -3  -3  -6    5.60    4.50
  -3  -3  -6   -0.10   12.50
   3   3   6    5.90    8.00
   3   3   6    6.20    3.80
  -4  -3  -6   20.60   15.60
  -4  -3  -6    4.00    7.30
   4   3   6    9.10   12.10
   4   3   6    7.80    7.00
   3  -4  -6   -7.10    8.30
   3  -4  -6   -4.20   13.40
   3  -4  -6   -2.60    8.90
   3  -4  -6   -1.60    5.30
  -3   4   6   -1.80    6.20
  -3   4   6    9.80    7.30
   2  -4  -6  121.49   11.70
   2  -4  -6  155.78   16.90
   2  -4  -6  136.39   10.30
  -2   4   6  133.79   11.10
  -2   4   6  136.09   11.20
   1  -4  -6    8.30    3.70
   1  -4  -6    8.80    2.90
   1  -4  -6   12.70    5.80
  -1   4   6    9.40    3.50
  -1   4   6    7.30    3.40
   0  -4  -6  361.56   20.90
   0  -4  -6  373.26   22.50
   0  -4  -6  363.06   19.50
   0   4   6  374.86   22.90
  -1  -4  -6  106.99    6.60
  -1  -4  -6  108.29    8.20
   1   4   6  100.79   10.80
  -2  -4  -6    4.60    2.90
  -2  -4  -6    5.20   11.40
   2   4   6   13.10    7.90
   2   4   6    5.10    2.30
  -3  -4  -6   40.80   15.50
  -3  -4  -6   56.69    7.70
   3   4   6   50.79    6.60
   3   4   6   64.19   12.30
  -4  -4  -6   51.49   19.90
  -4  -4  -6   56.99   10.10
   4   4   6   63.79   15.30
   4   4   6   46.40    8.60
   3  -5  -6   -4.40   13.30
   3  -5  -6   10.40    6.10
   3  -5  -6   11.80   10.60
   3  -5  -6   10.50    9.30
  -3   5   6   18.80    8.80
  -3   5   6    6.70    7.10
   2  -5  -6   36.30    9.90
   2  -5  -6   48.20    6.60
   2  -5  -6   54.79    9.50
  -2   5   6   50.79    7.30
  -2   5   6   44.70    8.20
   1  -5  -6   28.20    4.10
   1  -5  -6   23.10    6.80
   1  -5  -6   28.20    6.10
  -1   5   6   34.70    5.90
  -1   5   6   25.50    4.30
   0  -5  -6   73.19    7.70
   0  -5  -6   89.59    9.80
   0  -5  -6   81.39    5.80
   0   5   6   68.09   10.30
  -1  -5  -6    6.20    2.70
  -1  -5  -6    6.00    1.60
   1   5   6    3.30    6.80
  -2  -5  -6   67.79   15.10
  -2  -5  -6   53.59    3.70
  -2  -5  -6   43.60    5.40
   2   5   6   54.69    4.80
   2   5   6   56.09   11.40
  -3  -5  -6   95.29   19.60
  -3  -5  -6   91.29    9.30
   3   5   6   82.59   13.40
   3   5   6   90.89    8.40
  -4  -5  -6    5.90   18.90
  -4  -5  -6    1.20    7.70
   4   5   6    7.60    6.90
   4   5   6   -0.70   11.90
   3  -6  -6    2.60    6.00
   3  -6  -6    4.00   10.10
   3  -6  -6   11.90    9.60
  -3   6   6    7.80    7.20
  -3   6   6   29.20   11.20
   2  -6  -6   43.60   10.40
   2  -6  -6   60.79   10.10
   2  -6  -6   45.70    6.50
  -2   6   6   56.99    7.80
  -2   6   6   67.09   10.60
   1  -6  -6    0.00    4.90
   1  -6  -6    4.00    2.50
   1  -6  -6   -2.30    4.30
  -1   6   6    4.80    8.80
  -1   6   6   13.60    7.70
  -1   6   6    2.80    3.00
  -1   6   6    1.50    4.00
   0  -6  -6   25.30    3.00
   0  -6  -6   25.50    5.80
   0  -6  -6   23.70    5.60
   0   6   6   18.00    8.80
   0   6   6   25.90    5.60
   0   6   6   31.30    6.80
  -1  -6  -6    2.70    3.70
  -1  -6  -6    3.40    1.50
  -1  -6  -6    2.20    2.80
   1   6   6    0.40    7.30
   1   6   6    7.80    4.60
  -2  -6  -6   76.09    6.20
  -2  -6  -6   79.89    6.40
  -2  -6  -6   84.59   17.60
   2   6   6   85.09    5.90
   2   6   6   86.09   13.00
  -3  -6  -6    5.70    4.30
  -3  -6  -6   -8.10   14.10
   3   6   6    2.60    9.00
   3   6   6   -4.00    3.20
  -4  -6  -6    4.80    8.50
  -4  -6  -6  -15.80   18.40
   4   6   6   -2.50   12.80
   4   6   6   -0.90    6.70
   3  -7  -6    6.20    9.30
   3  -7  -6   15.50   11.40
   3  -7  -6    2.40    6.20
  -3   7   6  -11.60    7.20
   2  -7  -6   96.29   12.10
   2  -7  -6   91.49    9.00
   2  -7  -6  107.29   15.30
  -2   7   6  110.49   12.20
  -2   7   6   91.69   10.20
   1  -7  -6    5.90    6.00
   1  -7  -6   -4.80    5.20
   1  -7  -6    4.10    2.40
  -1   7   6    3.10    5.00
  -1   7   6   13.40    8.10
  -1   7   6    3.70    3.10
  -1   7   6    6.50    9.70
   0  -7  -6    0.30    4.00
   0  -7  -6    1.50    1.40
   0  -7  -6   -1.50    4.30
   0   7   6    5.40    6.50
   0   7   6    0.80    3.10
   0   7   6   -4.00    7.60
  -1  -7  -6    0.10    1.30
  -1  -7  -6   -3.00    4.30
  -1  -7  -6   -0.30    2.90
  -1  -7  -6    0.40    1.00
   1   7   6    3.00    5.10
   1   7   6    0.30    8.70
  -2  -7  -6    7.20    2.70
  -2  -7  -6    7.10    6.20
  -2  -7  -6    4.00    2.80
  -2  -7  -6    6.10   12.70
   2   7   6    8.30    4.50
   2   7   6    9.40    9.60
   2   7   6    6.50    2.00
  -3  -7  -6   10.60   16.20
  -3  -7  -6   -2.20    4.20
   3   7   6   -7.90    9.10
   3   7   6    5.10    3.40
   3  -8  -6   14.90    8.00
   3  -8  -6   16.80   11.20
  -3   8   6   29.60    9.70
   2  -8  -6    9.70    7.10
   2  -8  -6    6.70    4.00
   2  -8  -6   15.90    8.10
  -2   8   6   10.20    8.40
  -2   8   6    4.60    5.80
   1  -8  -6   -2.30    2.30
   1  -8  -6   -8.90    6.40
   1  -8  -6   -2.00    5.70
  -1   8   6    1.20    3.30
  -1   8   6    6.40    8.10
  -1   8   6   -1.50    5.20
  -1   8   6    6.20   11.50
   0  -8  -6   31.50    7.60
   0  -8  -6   23.10    6.30
   0  -8  -6   28.40    2.70
   0   8   6   26.80    8.50
   0   8   6   27.30   11.10
   0   8   6   34.40    7.90
  -1  -8  -6    2.00    5.60
  -1  -8  -6    5.40    4.00
   1   8   6   -1.70    9.80
   1   8   6    1.00    6.10
  -2  -8  -6   17.30    3.10
  -2  -8  -6   16.00    4.30
   2   8   6    9.60    5.50
   2   8   6   20.80   11.40
   2   8   6   15.00    2.10
  -3  -8  -6   11.30    5.20
  -3  -8  -6    2.40   17.70
   3   8   6    0.50   10.70
   3   8   6    5.30    3.20
   2  -9  -6   20.50    5.30
   2  -9  -6   19.50    9.60
  -2   9   6   27.70   10.80
  -2   9   6    1.80   12.40
  -2   9   6   19.20    7.00
   1  -9  -6    4.00    2.80
   1  -9  -6    3.50    7.20
   1  -9  -6    1.70    5.80
  -1   9   6   -3.40    7.60
  -1   9   6   -3.50    3.60
  -1   9   6    2.20    7.80
  -1   9   6    1.30   11.00
   0  -9  -6   30.40    7.40
   0  -9  -6   34.70    9.10
   0  -9  -6   32.40    2.40
   0   9   6   22.20   12.20
   0   9   6   42.50    8.40
   0   9   6   35.70    9.50
  -1  -9  -6    4.20    4.40
  -1  -9  -6    2.40    6.30
   1   9   6    0.60    6.50
   1   9   6    0.60   11.20
  -2  -9  -6   -1.20    3.70
  -2  -9  -6    2.40    2.00
  -2  -9  -6    0.50    7.10
   2   9   6   -0.10    9.30
   2   9   6   -0.70    5.80
  -3  -9  -6    6.30    5.40
  -3  -9  -6   14.60   18.80
  -3  -9  -6   18.00   10.30
  -3  -9  -6    5.80    4.30
   3   9   6    5.90   12.30
   3   9   6   -1.30    5.40
   3   9   6   13.60    3.20
   2 -10  -6   42.30   11.30
   2 -10  -6   46.90    8.00
  -2  10   6   46.40   13.10
  -2  10   6   19.60   14.90
   1 -10  -6   -1.80    2.60
   1 -10  -6    3.40    8.10
   1 -10  -6    8.40    7.30
  -1  10   6    8.60   12.30
  -1  10   6   -5.10    6.40
  -1  10   6   -2.80    4.00
  -1  10   6   -2.80   10.20
   0 -10  -6  202.88   17.30
   0  10   6  200.68   16.50
   0  10   6  152.18   19.70
   0  10   6  183.48   22.40
  -1 -10  -6    9.50    7.80
  -1 -10  -6   17.80    6.10
   1  10   6   14.00   12.20
   1  10   6   13.30    8.20
  -2 -10  -6   53.19   12.20
  -2 -10  -6   63.89   10.40
   2  10   6   42.90    9.50
   2  10   6   60.89   16.40
  -3 -10  -6   41.10    7.70
  -3 -10  -6  105.89   16.70
  -3 -10  -6   66.99    9.00
  -3 -10  -6   68.09   23.80
   3  10   6   46.60    9.20
   3  10   6   77.99    5.60
   3  10   6   52.19   17.40
   2 -11  -6   11.50   10.00
   2 -11  -6    1.80    5.60
  -2  11   6  -24.10   15.10
  -2  11   6    9.80   12.00
  -2  11   6    2.60    7.70
   1 -11  -6  200.28   13.30
   1 -11  -6  260.17   21.80
  -1  11   6  275.87   22.30
  -1  11   6  253.97   15.60
  -1  11   6  206.68   26.00
  -1  11   6  188.28   25.00
   0 -11  -6   19.10    9.50
   0 -11  -6   14.30    6.80
   0  11   6   -1.70    8.50
   0  11   6    3.40   12.00
   0  11   6   -7.70    6.60
  -1 -11  -6  248.88   20.10
   1  11   6  189.88   23.00
   1  11   6  178.98   22.10
  -2 -11  -6   64.39   13.10
  -2 -11  -6   42.80    8.40
   2  11   6   51.89   16.20
   2  11   6   44.70   10.20
  -3 -11  -6    6.90   12.20
  -3 -11  -6  -10.10   21.00
   3  11   6   -3.70    8.50
   3  11   6   -8.10   12.60
   1 -12  -6   11.40    3.70
   1 -12  -6   21.00    9.70
  -1  12   6    5.20   13.60
  -1  12   6   11.60    5.60
  -1  12   6   17.10   11.60
  -1  12   6   11.40   14.80
   0 -12  -6  395.46   27.40
   0 -12  -6  346.97   26.20
   0  12   6  303.17   29.40
   0  12   6  352.96   27.30
   0  12   6  298.77   29.40
  -1 -12  -6    7.90    6.90
  -1 -12  -6   17.80    9.70
   1  12   6    5.40   13.10
   1  12   6   -2.40    9.60
  -2 -12  -6   39.20   11.90
  -2 -12  -6   16.10    7.90
   2  12   6   14.30   15.10
   2  12   6    8.20    9.10
   0 -13  -6    3.60    9.00
   0  13   6    8.10   15.80
   0  13   6   11.00   12.30
   0  13   6    4.30   11.80
  -1 -13  -6    3.80    8.50
  -1 -13  -6   26.20   11.70
   1  13   6   -7.50   11.00
   1  13   6   -0.60   15.60
   2   9  -7    5.10   11.50
   2   9  -7    8.30    7.90
   2   9  -7   -5.20   10.20
   2   9  -7   11.30    6.50
  -2  -9   7  -15.20   11.30
   1   9  -7    6.40    8.30
   1   9  -7    3.20    5.40
   1   9  -7   -7.10    8.80
   1   9  -7    5.20    6.90
   1   9  -7   -1.20   10.20
  -1  -9   7  -12.40   10.40
   0   9  -7   15.00    9.00
   0   9  -7   20.80    9.20
   0   9  -7    3.30    8.40
   0   9  -7   -4.20    5.50
   0  -9   7  -13.50    9.60
   0  -9   7   23.30   11.90
  -1   9  -7    1.20    6.90
  -1   9  -7   17.80   10.70
  -1   9  -7   45.50   13.00
   1  -9   7   -3.40   10.10
   1  -9   7   20.40   15.90
   2   8  -7   -9.40    9.90
   2   8  -7    6.50    7.20
   2   8  -7    0.80    8.50
  -2  -8   7  -19.80   10.60
   1   8  -7  290.57   24.10
   1   8  -7  335.17   25.40
   1   8  -7  314.27   20.60
   1   8  -7  336.87   22.10
  -1  -8   7  271.07   26.40
  -1  -8   7  352.76   22.10
   0   8  -7   17.10    8.10
   0   8  -7   18.80    5.50
   0   8  -7   24.10    8.80
   0  -8   7   33.60   11.30
   0  -8   7   -4.40    8.50
  -1   8  -7    7.70    9.50
  -1   8  -7    1.40    7.60
  -1   8  -7   10.60    6.30
   1  -8   7    1.30   12.50
   1  -8   7   -2.10    8.80
   3   7  -7   24.80   15.10
   3   7  -7   11.90    8.70
   3   7  -7   18.50   10.60
  -3  -7   7   18.90   11.90
   2   7  -7  151.28   14.20
   2   7  -7  138.09   16.90
   2   7  -7  164.48   18.30
  -2  -7   7  161.08   21.90
  -2  -7   7  189.08   11.70
   1   7  -7   -4.20    7.40
   1   7  -7    1.20    4.10
   1   7  -7    5.90    6.80
   1   7  -7   -1.30    5.40
   1   7  -7   -0.30    4.20
  -1  -7   7    8.00    6.00
  -1  -7   7   -5.10    7.90
   0   7  -7   72.89    8.40
   0   7  -7   95.09   10.40
   0   7  -7   87.49   11.30
   0   7  -7   86.59   13.70
   0  -7   7   56.89   11.20
   0  -7   7   91.09   14.10
  -1   7  -7    3.10    5.40
  -1   7  -7    9.20    8.70
  -1   7  -7    5.50    7.30
   1  -7   7    2.30   11.90
   1  -7   7   -1.80    7.90
  -2   7  -7   17.80    9.90
  -2   7  -7    1.30    6.80
   2  -7   7   -9.90    6.10
   2  -7   7   -5.80   17.10
   2  -7   7   -9.30    8.80
   3   6  -7   67.49   16.70
   3   6  -7   59.99   12.00
   3   6  -7  106.79   13.80
  -3  -6   7   67.69   13.10
   2   6  -7   36.20   11.90
  -2  -6   7   37.30    5.20
  -2  -6   7   19.90    9.50
  -2  -6   7   31.30    5.10
   1   6  -7  192.18   14.70
   1   6  -7  194.38   17.50
   1   6  -7  194.08   12.90
   1   6  -7  200.88   15.90
   1   6  -7  210.38   13.30
  -1  -6   7  187.78   14.30
  -1  -6   7  186.48   19.00
   0   6  -7   35.60    5.90
   0   6  -7   45.30    8.20
   0   6  -7   44.70    8.20
   0   6  -7   27.90    7.60
   0  -6   7   22.90    8.60
   0  -6   7   35.70    9.90
  -1   6  -7   62.99   13.00
  -1   6  -7   32.90    7.60
  -1   6  -7   36.80    6.30
   1  -6   7   29.00    8.60
  -2   6  -7   31.00    7.60
  -2   6  -7   36.70    9.40
   2  -6   7   39.70   18.30
   2  -6   7   15.60    9.20
   2  -6   7   35.40    7.30
   3   5  -7   32.80   14.30
   3   5  -7    3.80    8.90
   3   5  -7   26.50    8.00
   2   5  -7   24.70    8.00
   2   5  -7   34.70    6.90
   2   5  -7   63.39   12.40
  -2  -5   7   35.50    9.70
   1   5  -7    3.20    6.10
   1   5  -7   -1.10    2.60
   1   5  -7    2.80    6.90
   1   5  -7   -2.10    4.40
  -1  -5   7    6.80    7.60
  -1  -5   7   -1.80    4.80
   0   5  -7  165.98   14.70
   0   5  -7  135.99   11.70
   0   5  -7  130.59   10.20
   0   5  -7  140.99   10.40
   0  -5   7  143.19   15.10
   0  -5   7  135.39   15.20
  -1   5  -7  124.49   10.30
  -1   5  -7  123.19   13.30
  -1   5  -7  115.69   13.40
   1  -5   7  110.69   17.50
   1  -5   7  113.99   13.60
  -2   5  -7   33.00    7.30
  -2   5  -7   49.00   11.40
  -2   5  -7   22.00    7.60
   2  -5   7   37.30   17.30
   2  -5   7   27.60    6.30
   2  -5   7   24.00    7.60
  -3   5  -7   80.49   12.40
  -3   5  -7  107.19   18.30
   3  -5   7   46.60   10.70
   3  -5   7   80.39   11.20
   3  -5   7   56.19   26.50
   3   4  -7   24.40   14.30
   3   4  -7  -13.90    7.50
   3   4  -7    5.50    6.70
  -3  -4   7    6.30    8.90
   2   4  -7   31.70   11.60
   2   4  -7    6.80    5.20
  -2  -4   7    3.10    8.00
   1   4  -7  102.59   10.00
   1   4  -7   91.39   12.40
   1   4  -7   89.89    6.50
   1   4  -7   99.69   11.30
  -1  -4   7   93.79    8.90
  -1  -4   7  104.89   13.60
   0   4  -7   36.60    5.50
   0   4  -7   30.10    6.20
   0   4  -7   30.80    6.70
   0   4  -7   33.80    5.00
   0  -4   7   33.40    8.70
   0  -4   7   37.10    7.80
  -1   4  -7   83.49   11.00
  -1   4  -7   90.79    8.50
  -1   4  -7   93.59   11.10
   1  -4   7   94.09   11.80
   1  -4   7   85.19   15.90
  -2   4  -7   31.10    6.50
  -2   4  -7   35.80    9.70
  -2   4  -7   24.30    6.50
   2  -4   7   18.60   14.40
   2  -4   7   30.90    6.00
   2  -4   7   25.30    7.10
  -3   4  -7    4.10    8.40
  -3   4  -7   -0.30    7.70
   3  -4   7    3.70    6.30
   3  -4   7   -8.30   21.00
   3  -4   7    3.40    7.20
   3   3  -7   43.00    8.10
   3   3  -7   52.19   16.70
   3   3  -7   18.90    9.20
  -3  -3   7   26.40    9.60
   2   3  -7   30.90    8.20
   2   3  -7   53.99   13.30
   2   3  -7   29.60    6.10
  -2  -3   7   30.80    8.30
   1   3  -7   94.09   11.20
   1   3  -7   71.59    8.40
   1   3  -7   78.39    5.10
   1   3  -7   82.69   11.30
  -1  -3   7   88.49   12.50
  -1  -3   7   75.99    7.10
   0   3  -7   32.20    5.80
   0   3  -7   34.70    4.80
   0   3  -7   26.20    6.10
   0   3  -7   28.40    4.50
   0  -3   7   40.90    8.60
   0  -3   7   31.70    6.80
  -1   3  -7   16.30    7.20
  -1   3  -7   20.00    5.50
  -1   3  -7   18.80    4.30
   1  -3   7   16.50   10.90
   1  -3   7   20.70    5.90
   1  -3   7   20.40    4.30
  -2   3  -7    5.30    7.80
  -2   3  -7   -2.40    4.20
  -2   3  -7    5.90    4.40
   2  -3   7   -6.30   13.30
   2  -3   7   -4.10    4.60
   2  -3   7    0.00    3.00
   2  -3   7    3.70    3.90
  -3   3  -7    0.60    6.80
  -3   3  -7   15.40    7.80
  -3   3  -7   30.60   10.70
   3  -3   7   -7.70    7.00
   3  -3   7   -4.60   19.70
   3  -3   7   -3.30    5.50
   3  -3   7    8.70    6.30
   3   2  -7   -0.90    5.40
   3   2  -7   30.70   15.70
  -3  -2   7   11.40    7.60
   2   2  -7  314.07   24.10
   2   2  -7  276.57   21.60
   2   2  -7  281.07   18.00
  -2  -2   7  253.47   18.90
   1   2  -7   82.69   12.20
   1   2  -7   82.29   11.20
   1   2  -7   83.09    8.30
  -1  -2   7   79.19   11.00
   0   2  -7   97.29    7.30
   0   2  -7   91.39    7.20
   0   2  -7  112.89   10.60
   0   2  -7   81.69    7.70
   0  -2   7   87.89   10.80
   0  -2   7  109.19   11.20
  -1   2  -7   59.69    9.50
  -1   2  -7   42.90    5.30
  -1   2  -7   46.00    7.20
   1  -2   7   49.20   11.90
   1  -2   7   45.30    5.60
   1  -2   7   60.19    9.20
  -2   2  -7   64.29   12.30
  -2   2  -7   59.09    7.90
  -2   2  -7   50.29    8.30
   2  -2   7   57.39    9.00
   2  -2   7   66.09   17.40
   2  -2   7   57.19    7.20
   2  -2   7   59.59    6.90
  -3   2  -7   -2.90    5.90
  -3   2  -7   -0.80   10.20
  -3   2  -7   -8.30    5.70
   3  -2   7   -7.00    6.90
   3  -2   7   -2.30    5.30
   3  -2   7   -7.50    4.30
   3  -2   7  -17.00   16.30
   4   1  -7    8.90    9.00
  -4  -1   7   -5.40   12.10
   3   1  -7   69.69   18.50
   3   1  -7   44.10    7.70
   3   1  -7   27.70    9.50
  -3  -1   7   64.09   10.30
  -3  -1   7   36.90    3.30
   2   1  -7    8.80    6.80
   2   1  -7    4.20    4.40
  -2  -1   7    9.50    5.60
   1   1  -7  199.08   14.60
   1   1  -7  252.07   16.70
   1   1  -7  231.48   17.10
  -1  -1   7  241.98   17.10
   0   1  -7  133.69   10.40
   0   1  -7  159.18   11.90
   0   1  -7  135.99    9.70
   0   1  -7  153.08    9.40
   0  -1   7  143.99   12.10
   0  -1   7  146.79   12.30
  -1   1  -7    4.00    6.40
  -1   1  -7    3.00    2.80
  -1   1  -7    3.40    3.10
   1  -1   7    8.90    4.10
   1  -1   7    2.90    2.60
   1  -1   7    7.40    8.70
  -2   1  -7   16.10   10.40
  -2   1  -7   19.00    4.80
   2  -1   7   25.00   12.20
   2  -1   7   22.30    4.90
   2  -1   7   19.30    4.50
   2  -1   7   31.60    6.00
  -3   1  -7    6.90   10.20
  -3   1  -7   -0.30    4.90
  -3   1  -7    3.60    6.00
   3  -1   7    0.90    3.70
   3  -1   7   -1.50    7.40
   3  -1   7  -13.40   15.90
   3  -1   7    2.70    5.30
   4   0  -7   74.19   12.40
   4   0  -7   88.09   24.30
  -4   0   7   75.49   14.90
   3   0  -7   63.49    9.20
   3   0  -7   90.49   19.80
   3   0  -7   49.00   11.40
  -3   0   7   82.49    6.10
  -3   0   7   49.30    9.80
   2   0  -7  233.48   19.60
   2   0  -7  230.98   15.30
   2   0  -7  254.17   22.40
  -2   0   7  202.88   16.10
   1   0  -7   83.69    7.90
   1   0  -7   94.09   10.90
   1   0  -7   92.69    4.60
   1   0  -7   72.19    4.30
   1   0  -7   96.99   11.40
   0   0  -7 1163.38   57.99
   0   0  -7 1125.49   57.59
   0   0   7 1133.19   57.89
  -1   0  -7   73.49   11.70
  -1   0  -7   75.09    6.40
  -1   0  -7   79.49    7.40
   1   0   7   74.29   12.90
   1   0   7   64.49    5.90
   1   0   7   76.99    8.00
   1   0   7   77.29    6.60
  -2   0  -7   30.70    5.50
  -2   0  -7   39.00    5.80
  -2   0  -7   36.60   10.20
   2   0   7   37.30   14.90
   2   0   7   37.40    5.30
   2   0   7   46.10    6.70
   2   0   7   39.90    7.00
  -3   0  -7    3.60   10.60
  -3   0  -7    1.20    5.60
   3   0   7    2.40   13.90
   3   0   7   -1.90    2.30
   3   0   7   -1.10    7.40
   3   0   7    4.40    4.60
   4  -1  -7  159.98   28.90
   4  -1  -7   90.69   13.30
   4  -1  -7   87.89   15.90
   4  -1  -7   47.50   18.00
  -4   1   7   89.79   15.30
   3  -1  -7   57.19   11.50
   3  -1  -7   73.39    9.90
   3  -1  -7   83.49   12.70
   3  -1  -7  145.19   23.80
  -3   1   7   90.79    7.70
  -3   1   7   74.59   10.90
   2  -1  -7  292.17   16.70
   2  -1  -7  327.47   21.90
   2  -1  -7  301.57   23.60
   2  -1  -7  266.57   17.70
  -2   1   7  289.17   15.30
  -2   1   7  254.87   18.60
   1  -1  -7  103.59    8.50
   1  -1  -7   94.09    6.10
   1  -1  -7  112.19   11.60
   0  -1  -7 1338.17   66.19
   0  -1  -7 1296.87   66.49
  -1  -1  -7  469.75   28.10
  -1  -1  -7  447.66   23.60
  -1  -1  -7  447.66   23.20
   1   1   7  407.96   23.70
   1   1   7  406.16   27.90
   1   1   7  449.76   23.70
   1   1   7  454.65   23.10
  -2  -1  -7   56.09    6.50
  -2  -1  -7   49.90    5.00
  -2  -1  -7   44.30   13.50
   2   1   7   52.39    6.10
   2   1   7   53.79    8.40
   2   1   7   64.29   15.80
  -3  -1  -7    0.50   11.80
  -3  -1  -7    6.40    5.40
   3   1   7   -2.70   15.50
   3   1   7    6.10    8.00
   3   1   7    0.70    4.40
  -4  -1  -7   23.10   15.20
  -4  -1  -7    6.80    9.30
   4   1   7   -1.30   10.30
   4   1   7    0.50   23.40
   4   1   7    8.10    7.80
   4  -2  -7   -4.20    8.30
  -4   2   7    1.50   10.90
   3  -2  -7    4.80    8.70
   3  -2  -7   24.30   17.10
   3  -2  -7   -1.40   10.10
   3  -2  -7    3.70    6.00
   3  -2  -7    0.10    7.70
  -3   2   7   -2.00    6.30
  -3   2   7   10.90    5.00
   2  -2  -7    0.80    3.70
   2  -2  -7   -2.40    4.30
   2  -2  -7    4.00    6.30
  -2   2   7    2.60    4.30
   1  -2  -7  357.86   21.60
   1  -2  -7  363.76   20.00
   1  -2  -7  341.57   18.50
  -1   2   7  333.07   20.30
   0  -2  -7 1000.80   51.99
   0  -2  -7  948.91   52.69
   0   2   7 1108.59   52.59
  -1  -2  -7  109.69   14.20
  -1  -2  -7  111.09    7.50
  -1  -2  -7  115.89    8.60
   1   2   7  106.19    7.30
   1   2   7  110.99   11.10
  -2  -2  -7   24.40    2.70
  -2  -2  -7   26.90    4.70
  -2  -2  -7   36.20   13.00
   2   2   7   38.10   11.50
   2   2   7   34.20    7.70
   2   2   7   23.80    4.20
  -3  -2  -7    1.30    4.90
  -3  -2  -7    2.90   13.00
   3   2   7    4.60    7.50
   3   2   7   -0.30    3.70
   3   2   7    6.20   15.40
  -4  -2  -7   12.60   15.20
  -4  -2  -7    1.10    8.30
   4   2   7   -0.40    7.10
   4   2   7  -11.60    9.90
   3  -3  -7   24.60   11.50
   3  -3  -7   36.50   10.70
   3  -3  -7   45.90   18.00
   3  -3  -7   30.60    7.10
  -3   3   7   27.30    8.40
  -3   3   7   53.99    9.00
   2  -3  -7   14.20    4.50
   2  -3  -7   13.70    9.00
   2  -3  -7    1.90    4.60
  -2   3   7    8.80    5.10
  -2   3   7    5.10    3.60
   1  -3  -7    8.40    3.10
   1  -3  -7    6.80    3.10
  -1   3   7    8.60    3.00
  -1   3   7   10.50    4.10
   0  -3  -7 1534.55   81.59
   0  -3  -7 1793.62   81.69
  -1  -3  -7   86.39    7.40
  -1  -3  -7   68.99   13.00
  -1  -3  -7   84.59    5.90
   1   3   7   62.79    8.70
  -2  -3  -7   39.00   13.60
  -2  -3  -7   36.40    4.90
   2   3   7   32.90    8.50
   2   3   7   34.80    4.70
  -3  -3  -7   -4.80   11.50
   3   3   7    5.00    7.70
   3   3   7   -3.70    4.30
  -4  -3  -7   33.60   17.30
  -4  -3  -7    5.90    8.00
   4   3   7   -0.70    7.20
   4   3   7    9.40   11.20
   3  -4  -7  115.39   15.90
   3  -4  -7  137.39   12.90
   3  -4  -7  124.89   20.30
   3  -4  -7  145.19   22.50
  -3   4   7  148.69   13.30
  -3   4   7   96.69   13.80
   2  -4  -7   -6.70    4.50
   2  -4  -7   -1.20    3.60
   2  -4  -7    7.00    7.80
  -2   4   7   -0.50    4.60
  -2   4   7   -6.80    3.70
   1  -4  -7  233.18   18.70
   1  -4  -7  213.38   13.80
   1  -4  -7  215.28   13.20
  -1   4   7  214.98   13.60
  -1   4   7  208.78   13.90
   0  -4  -7   14.30    4.10
   0  -4  -7   23.90    5.80
   0  -4  -7   19.00    3.40
   0   4   7   27.20    8.20
  -1  -4  -7   36.20    3.80
  -1  -4  -7   46.40   10.90
  -1  -4  -7   49.50    6.70
   1   4   7   41.80    8.90
  -2  -4  -7   29.30   12.00
  -2  -4  -7   25.70    4.20
   2   4   7   34.80    4.30
   2   4   7   28.90    8.70
  -3  -4  -7   26.10    5.60
  -3  -4  -7   30.20   16.30
   3   4   7   23.90    5.20
   3   4   7   31.50   10.60
  -4  -4  -7   38.50    9.30
  -4  -4  -7   54.89   20.30
   4   4   7   65.89   15.60
   4   4   7   54.99    9.30
   3  -5  -7   16.70   11.70
   3  -5  -7   33.60   11.80
   3  -5  -7   30.50    7.70
   3  -5  -7   21.40   15.40
  -3   5   7   34.70    9.10
  -3   5   7   40.70   10.80
   2  -5  -7   -0.10    7.80
   2  -5  -7    2.20    3.90
   2  -5  -7   -0.80    5.40
  -2   5   7   -0.30    5.00
  -2   5   7   -5.80    4.50
   1  -5  -7  140.39    9.60
   1  -5  -7  142.89   11.00
   1  -5  -7  146.89   15.40
  -1   5   7  143.79   10.70
  -1   5   7  133.99   10.60
   0  -5  -7    8.00    2.60
   0  -5  -7   12.40    5.20
   0  -5  -7    9.80    4.30
   0   5   7    7.30    7.40
  -1  -5  -7   83.69    7.90
  -1  -5  -7   84.29    5.60
   1   5   7   68.69   10.80
  -2  -5  -7   95.49    5.50
  -2  -5  -7  102.39    5.90
  -2  -5  -7   90.69    7.40
  -2  -5  -7  126.19   17.30
   2   5   7   85.49   12.70
   2   5   7   96.39    7.00
  -3  -5  -7   14.20   14.70
  -3  -5  -7   22.30    5.40
   3   5   7   19.70    4.70
   3   5   7   21.10   10.70
  -4  -5  -7   12.70   18.90
  -4  -5  -7    6.00    8.40
   4   5   7    4.00   11.80
   4   5   7    9.80    7.10
   3  -6  -7   10.20    6.70
   3  -6  -7   15.40   10.80
   3  -6  -7   10.90   10.10
  -3   6   7   17.00    8.20
  -3   6   7   33.50   12.70
   2  -6  -7  110.89   12.10
   2  -6  -7  130.59   10.90
  -2   6   7  133.99   11.80
  -2   6   7  129.79   12.10
   1  -6  -7   13.70    3.40
   1  -6  -7    4.30    6.10
   1  -6  -7   13.20    5.80
  -1   6   7   11.60    4.80
  -1   6   7   25.70   11.20
  -1   6   7   12.40    4.40
   0  -6  -7   -1.40    3.70
   0  -6  -7    1.20    1.80
   0  -6  -7   -1.80    4.20
   0   6   7   -2.30    7.60
  -1  -6  -7   44.50    7.20
  -1  -6  -7   56.49    6.90
  -1  -6  -7   45.50    4.00
   1   6   7   64.19   11.90
  -2  -6  -7    1.20   13.40
  -2  -6  -7    1.20    2.60
  -2  -6  -7    3.50    2.00
   2   6   7   -0.20    8.50
   2   6   7    2.50    2.00
  -3  -6  -7    8.70   15.70
  -3  -6  -7   23.80    5.50
   3   6   7   29.00    4.80
   3   6   7   30.40   11.60
  -4  -6  -7  -12.80   18.70
  -4  -6  -7    9.40    8.80
   4   6   7  -10.30    6.90
   4   6   7   -1.80   12.90
   3  -7  -7   91.79   16.00
   3  -7  -7   53.09   13.40
   3  -7  -7   57.29    9.40
  -3   7   7   95.09   17.20
  -3   7   7   43.90   10.90
   2  -7  -7   74.89    8.70
   2  -7  -7   95.09   12.00
   2  -7  -7   65.49   12.20
  -2   7   7   91.69   11.10
  -2   7   7   75.99    9.80
   1  -7  -7   33.10    8.00
   1  -7  -7   21.80    8.10
   1  -7  -7   31.30    4.40
  -1   7   7   30.00   12.50
  -1   7   7   22.60    5.00
  -1   7   7   26.40    7.20
   0  -7  -7    3.20    4.60
   0  -7  -7    1.80    4.80
   0  -7  -7    5.60    2.00
   0   7   7    4.30    6.50
   0   7   7    6.30    9.10
  -1  -7  -7   90.99    9.00
  -1  -7  -7   91.79    5.50
  -1  -7  -7   83.99   10.50
   1   7   7   90.79   11.80
   1   7   7   86.39   14.00
  -2  -7  -7    3.30    2.60
  -2  -7  -7    2.50    2.50
  -2  -7  -7    2.40   13.60
   2   7   7    3.60    2.00
   2   7   7   -1.00    8.80
  -3  -7  -7   16.70    5.40
  -3  -7  -7   29.20   18.50
   3   7   7   20.30    4.30
   3   7   7   14.90   10.90
   3  -8  -7  215.58   24.40
   3  -8  -7  196.28   17.40
   3  -8  -7  204.78   21.80
  -3   8   7  212.28   23.00
  -3   8   7  152.28   19.50
   2  -8  -7    6.40    8.20
   2  -8  -7   -2.80    4.30
   2  -8  -7   14.80    7.40
  -2   8   7    4.30    6.20
  -2   8   7   -7.50    7.00
   1  -8  -7   -4.90    6.30
   1  -8  -7    2.60    6.50
   1  -8  -7   -4.60    2.50
  -1   8   7   -7.70    8.10
  -1   8   7    1.80   10.40
  -1   8   7   -6.00    4.80
  -1   8   7   -0.60    3.90
   0  -8  -7  122.09    6.90
   0  -8  -7  106.69   11.90
   0  -8  -7   99.99   12.50
   0   8   7   95.99   16.80
   0   8   7  123.99   12.10
   0   8   7  125.19   16.30
  -1  -8  -7    2.40    1.00
  -1  -8  -7    0.80    1.00
  -1  -8  -7   -4.00    5.30
  -1  -8  -7   -0.70    3.60
   1   8   7    8.50    6.60
   1   8   7    5.50    9.50
  -2  -8  -7    0.20    3.00
  -2  -8  -7    0.50    2.30
  -2  -8  -7   -4.30    6.50
   2   8   7   -1.70    9.30
   2   8   7    6.40    5.30
  -3  -8  -7    7.30   17.50
  -3  -8  -7    7.10    4.80
   3   8   7    0.60   11.00
   3   8   7    0.10    3.10
   2  -9  -7  306.67   18.80
   2  -9  -7  310.67   25.70
   2  -9  -7  313.37   23.20
  -2   9   7  277.27   24.20
  -2   9   7  260.57   20.40
   1  -9  -7  137.59   14.20
   1  -9  -7  135.99   15.80
   1  -9  -7  114.59    8.70
  -1   9   7  102.39   17.70
  -1   9   7  124.09   13.90
  -1   9   7  123.39   10.60
  -1   9   7  114.49   19.60
   0  -9  -7   10.90    1.80
   0  -9  -7    0.10    6.90
   0  -9  -7    7.80    5.60
   0   9   7   18.20    7.30
   0   9   7    7.90   11.40
   0   9   7    3.00    8.00
  -1  -9  -7  186.48   14.90
   1   9   7  207.08   20.70
   1   9   7  193.98   18.40
  -2  -9  -7   43.00    4.40
  -2  -9  -7   41.10   10.70
  -2  -9  -7   40.60    6.00
   2   9   7   31.60    7.90
   2   9   7   37.90   13.30
  -3  -9  -7   44.50    6.80
  -3  -9  -7   55.99   13.70
  -3  -9  -7   59.29   22.30
  -3  -9  -7   33.80    4.60
   3   9   7   46.60    5.80
   3   9   7   44.30   15.30
   2 -10  -7   32.40   11.20
  -2  10   7   28.80   12.20
  -2  10   7   22.60    8.80
   1 -10  -7   24.30    4.20
   1 -10  -7   34.60    9.00
  -1  10   7   18.20   12.00
  -1  10   7   23.60    5.60
  -1  10   7   45.90   10.80
  -1  10   7   46.80   15.50
   0 -10  -7  146.69   15.20
   0  10   7  151.88   19.40
   0  10   7  143.99   15.20
   0  10   7  126.49   18.10
  -1 -10  -7   69.19   11.80
  -1 -10  -7   70.39   10.80
   1  10   7   64.29   11.50
   1  10   7   73.59   16.40
  -2 -10  -7  260.37   17.70
  -2 -10  -7  263.87   21.90
   2  10   7  226.08   24.60
   2  10   7  240.18   20.90
  -3 -10  -7   36.90    6.20
  -3 -10  -7   46.10   23.50
  -3 -10  -7   33.10   13.10
   3  10   7   42.80   16.40
   3  10   7   36.00    4.60
   2 -11  -7   51.29   12.60
   2 -11  -7   51.69    8.10
  -2  11   7   53.89   10.70
  -2  11   7   78.79   16.10
   1 -11  -7   38.20   10.80
   1 -11  -7   24.40    9.00
   1 -11  -7    4.90    3.30
  -1  11   7   14.80    9.20
  -1  11   7    9.80   13.80
  -1  11   7    2.90    5.30
  -1  11   7    4.60   11.10
   0 -11  -7   55.99   10.20
   0 -11  -7   83.29   13.50
   0  11   7   64.89   16.80
   0  11   7   77.59   13.90
   0  11   7   48.90   13.00
  -1 -11  -7  365.96   25.50
   1  11   7  280.47   35.70
   1  11   7  296.57   28.10
  -2 -11  -7    9.50    9.80
  -2 -11  -7    1.90    5.70
   2  11   7   19.70   13.20
   2  11   7   -4.80    8.40
   1 -12  -7   -0.10    8.90
   1 -12  -7    2.80    3.40
  -1  12   7   10.30    5.60
  -1  12   7    0.70   10.70
  -1  12   7   -9.30   13.30
  -1  12   7   -3.70   13.90
   0 -12  -7   27.90   10.90
   0 -12  -7    4.90    7.20
   0  12   7   -1.50   13.50
   0  12   7   -0.40    9.30
   0  12   7   -5.50   10.00
  -1 -12  -7   23.40    7.50
  -1 -12  -7   43.30   11.50
   1  12   7   23.60   11.00
   1  12   7   17.30   14.90
  -2 -12  -7   47.70   12.70
  -2 -12  -7    0.70    8.20
   2  12   7   24.50   14.90
   2  12   7    9.50   10.00
   0 -13  -7   16.10    9.30
   0 -13  -7   39.60   13.60
   0  13   7   -7.90   12.10
   0  13   7    9.30   11.60
   0  13   7   16.00   17.50
  -1 -13  -7    5.20    8.20
   1  13   7    6.10   14.90
   1   9  -8   14.50    7.60
   1   9  -8   12.50   11.10
   1   9  -8   -3.90   10.20
   1   9  -8    6.30    8.70
   1   9  -8    6.30    6.90
  -1  -9   8   16.20   10.00
   0   9  -8  154.68   13.70
   0   9  -8  196.58   22.30
   0  -9   8  109.49   18.10
   0  -9   8  155.98   21.40
   2   8  -8   66.69   15.00
   2   8  -8   54.69   10.70
   2   8  -8   42.50   12.20
  -2  -8   8   54.19    9.60
  -2  -8   8   44.80   14.10
   1   8  -8   34.00   11.00
   1   8  -8   39.20    9.40
   1   8  -8   26.50   10.10
   1   8  -8   30.70    7.30
   1   8  -8   25.90    6.50
  -1  -8   8    8.20   11.10
  -1  -8   8   30.10    9.40
   0   8  -8   44.60    7.70
   0   8  -8   46.40   11.00
   0  -8   8   19.80   11.10
  -1   8  -8  133.99   18.60
  -1   8  -8   91.29   12.90
   1  -8   8   72.59   14.80
   1  -8   8  122.99   21.00
   2   7  -8   12.30    9.20
   2   7  -8   15.20   11.00
   2   7  -8    9.30    7.80
  -2  -7   8   -3.10   10.60
  -2  -7   8    9.50    4.80
   1   7  -8   -0.10    4.80
   1   7  -8    5.80    7.10
   1   7  -8    4.90    4.60
   1   7  -8    0.50    8.10
   1   7  -8   -1.90    7.10
  -1  -7   8    0.30    9.20
  -1  -7   8    8.20    7.60
   0   7  -8  161.98   11.90
   0   7  -8  148.09   12.10
   0   7  -8  173.18   14.90
   0   7  -8  115.79   16.60
   0  -7   8  119.29   18.80
   0  -7   8  139.59   17.00
  -1   7  -8   17.70    9.30
  -1   7  -8   10.80    7.90
  -1   7  -8   10.30    6.10
   1  -7   8   -2.30    8.70
   1  -7   8  -13.00   12.70
  -2   7  -8    5.20    7.90
  -2   7  -8   10.20    9.80
   2  -7   8   -6.70    7.10
   2  -7   8   14.90   19.80
   2  -7   8  -16.30    9.80
   3   6  -8   17.40    8.90
   3   6  -8   18.90   14.50
   3   6  -8   -6.50   10.10
   2   6  -8    7.70    6.80
   2   6  -8   -9.70    7.50
   2   6  -8    3.00    9.90
  -2  -6   8   -7.90    8.40
   1   6  -8    0.00    7.30
   1   6  -8    3.70    3.70
   1   6  -8    6.50    6.20
   1   6  -8   -5.80    5.60
  -1  -6   8    7.00    6.30
  -1  -6   8   -0.20    8.30
   0   6  -8  140.09   12.80
   0   6  -8  136.39   15.60
   0   6  -8  144.79   10.60
   0  -6   8  121.29   16.00
   0  -6   8  124.19   16.90
  -1   6  -8    4.20    7.60
  -1   6  -8   -1.10    5.10
  -1   6  -8    1.30    6.30
   1  -6   8   -2.50   11.90
   1  -6   8   -4.40    6.90
  -2   6  -8   68.59   10.50
  -2   6  -8  110.19   17.20
   2  -6   8   83.59   22.70
   2  -6   8   64.09   12.30
   2  -6   8   82.09   10.60
   3   5  -8  267.77   25.50
   3   5  -8  248.18   25.00
   3   5  -8  280.47   20.60
   2   5  -8   28.20    9.30
   2   5  -8   33.50    7.50
   2   5  -8   59.39   12.70
  -2  -5   8   25.50    9.60
   1   5  -8    1.20    6.20
   1   5  -8    5.80    7.40
   1   5  -8   -0.20    2.60
   1   5  -8    6.30    5.40
  -1  -5   8    2.10    5.60
  -1  -5   8    1.90    7.10
   0   5  -8   28.60    7.20
   0   5  -8   29.00    5.50
   0   5  -8   37.30    6.60
   0  -5   8   38.00   10.70
  -1   5  -8   -1.00    6.00
  -1   5  -8   -2.40    4.40
  -1   5  -8    9.70    6.80
   1  -5   8    2.00   11.30
   1  -5   8   -5.50    5.90
  -2   5  -8    6.40    7.40
  -2   5  -8   -4.70    6.10
  -2   5  -8   21.70   10.20
   2  -5   8  -24.10   12.10
   2  -5   8    2.50    5.20
   2  -5   8    1.10   16.50
   3   4  -8   21.60    7.90
   3   4  -8   -0.40    9.40
   3   4  -8   23.10   14.80
   2   4  -8    0.50    7.10
   2   4  -8   10.50    9.50
   2   4  -8   17.00   11.40
  -2  -4   8   -0.80    7.50
   1   4  -8  166.08   16.20
   1   4  -8  173.58   13.70
   1   4  -8  155.78    9.70
   1   4  -8  165.88   14.20
  -1  -4   8  164.68   17.30
  -1  -4   8  159.28   12.20
   0   4  -8  116.39    9.50
   0   4  -8  112.39    8.30
   0   4  -8  110.19   10.10
   0   4  -8  129.49   13.50
   0  -4   8  119.39   14.80
   0  -4   8  115.79   14.70
  -1   4  -8   37.30    8.80
  -1   4  -8   30.60    6.00
  -1   4  -8   19.30    6.30
   1  -4   8   28.90   13.20
   1  -4   8   30.90    7.90
  -2   4  -8   12.30    6.10
  -2   4  -8   30.70    9.60
  -2   4  -8   15.70    6.70
   2  -4   8   10.70    6.90
   2  -4   8   -4.40   15.80
   2  -4   8    6.50    5.20
  -3   4  -8   -2.00    8.70
  -3   4  -8   -2.10    8.40
   3  -4   8   -2.20    6.70
   3  -4   8    6.50   23.30
   3   3  -8   21.20   15.50
   3   3  -8    9.20    7.00
   3   3  -8   -5.00    9.00
  -3  -3   8  -18.20    8.40
   2   3  -8  314.37   23.70
   2   3  -8  321.47   20.50
   2   3  -8  279.87   23.90
  -2  -3   8  312.77   26.20
   1   3  -8    4.90    6.10
   1   3  -8   21.10    8.70
   1   3  -8   11.90    5.30
  -1  -3   8   19.10    7.60
  -1  -3   8   15.90    4.50
   0   3  -8   28.90    6.70
   0   3  -8   36.10    5.20
   0   3  -8   23.00    5.90
   0   3  -8   27.30    4.90
   0  -3   8   38.20    7.80
   0  -3   8   32.70    9.00
  -1   3  -8   33.00    5.60
  -1   3  -8   43.50    9.50
  -1   3  -8   36.70    6.80
   1  -3   8   29.70   12.60
   1  -3   8   34.40    7.40
  -2   3  -8   65.59    8.50
  -2   3  -8   82.19   13.10
  -2   3  -8   65.59   10.40
   2  -3   8   53.89    8.80
   2  -3   8   71.69    8.50
   2  -3   8   77.79   18.80
  -3   3  -8   -7.80    7.60
  -3   3  -8    4.60    7.40
   3  -3   8  -28.60   21.00
   3  -3   8    4.30    6.50
   3   2  -8   14.90   10.30
   3   2  -8   65.29   18.40
   3   2  -8   20.10    7.40
  -3  -2   8   31.60   10.10
   2   2  -8  129.69   16.40
   2   2  -8  130.09   11.70
   1   2  -8  142.69   14.90
   1   2  -8  135.19   14.20
   1   2  -8  111.49   10.80
  -1  -2   8  130.59   13.80
   0   2  -8   11.30    4.40
   0   2  -8   19.20    5.50
   0   2  -8    8.30    4.70
   0   2  -8   10.80    3.50
   0  -2   8   17.70    7.50
   0  -2   8   17.80    6.30
  -1   2  -8   23.70    4.80
  -1   2  -8   14.60    4.80
  -1   2  -8   27.50    8.50
   1  -2   8   32.00   12.30
   1  -2   8   24.10    6.10
  -2   2  -8   10.40    4.80
  -2   2  -8   21.70   10.00
   2  -2   8    9.90    4.40
   2  -2   8   24.00   14.60
   2  -2   8   20.10    5.90
  -3   2  -8   -4.10    6.50
  -3   2  -8    8.60    6.60
  -3   2  -8   27.00   11.70
   3  -2   8   10.80    6.30
   3  -2   8    9.30    7.30
   3  -2   8   -3.70   18.60
   3   1  -8  322.77   30.00
   3   1  -8  292.07   20.30
   3   1  -8  249.18   25.30
  -3  -1   8  289.87   22.40
   2   1  -8    2.00    4.40
   2   1  -8   38.60   14.80
   2   1  -8   15.10    8.10
  -2  -1   8    0.00    5.30
   1   1  -8    5.60    4.00
   1   1  -8    9.50    6.00
   1   1  -8    8.70    8.80
  -1  -1   8    5.90    5.20
   0   1  -8  124.89    9.00
   0   1  -8  117.19    9.80
   0   1  -8  146.09   12.70
   0   1  -8  132.79   10.50
   0  -1   8  138.29   12.90
   0  -1   8  141.89   12.60
  -1   1  -8  115.99    9.10
  -1   1  -8  117.09   13.20
  -1   1  -8  116.79   10.30
   1  -1   8  117.29   11.10
   1  -1   8  139.49   17.70
  -2   1  -8   22.30    4.80
  -2   1  -8   19.80   10.70
  -2   1  -8   22.10    9.20
   2  -1   8   32.90   15.90
   2  -1   8   23.20    5.30
   2  -1   8   12.20    4.20
   2  -1   8   24.90    5.70
  -3   1  -8   16.20    5.80
  -3   1  -8   12.70    6.80
  -3   1  -8   21.00   10.20
   3  -1   8   14.90    6.40
   3  -1   8    3.10    4.40
   3  -1   8   17.80    7.80
   3  -1   8    8.60   18.70
   3   0  -8  103.19   12.70
   3   0  -8   89.29   14.10
   3   0  -8  163.08   25.50
  -3   0   8  120.59   14.70
   2   0  -8  446.06   31.80
   2   0  -8  416.86   28.20
   2   0  -8  425.86   24.70
  -2   0   8  387.96   25.60
   1   0  -8  774.32   37.90
   1   0  -8  804.92   41.70
   1   0  -8  753.32   42.00
   1   0  -8  788.12   43.30
   1   0  -8  821.92   38.10
   0   0  -8   94.09   10.20
   0   0  -8  103.89   10.70
   0   0   8   94.49   10.20
  -1   0  -8  249.58   15.50
  -1   0  -8  251.77   19.40
  -1   0  -8  235.88   14.40
   1   0   8  215.18   20.30
   1   0   8  258.77   16.20
   1   0   8  242.38   14.00
  -2   0  -8   33.00   12.40
  -2   0  -8   26.50    4.40
  -2   0  -8   32.50    5.60
   2   0   8   36.90   15.60
   2   0   8   33.70    5.30
   2   0   8   31.90    5.30
  -3   0  -8    7.40    4.50
  -3   0  -8   27.80   13.00
  -3   0  -8   15.90    6.40
   3   0   8   15.10    5.40
   3   0   8   -2.30   18.10
   3   0   8    9.50    3.00
   3   0   8   17.80    8.10
   3  -1  -8  123.39   13.10
   3  -1  -8  130.89   18.40
   3  -1  -8  163.98   14.00
   3  -1  -8  168.88   26.30
  -3   1   8  148.09   15.80
  -3   1   8  149.49    9.50
   2  -1  -8   28.40    8.80
   2  -1  -8   28.70    4.60
   2  -1  -8   28.60    5.90
   2  -1  -8   20.10   12.60
  -2   1   8   23.90    6.80
   1  -1  -8   52.99    4.30
   1  -1  -8   62.19    7.30
   1  -1  -8   46.70    8.20
   1  -1  -8   54.19    6.80
   0  -1  -8   12.90    6.30
   0  -1  -8   18.40    5.20
  -1  -1  -8   11.90    3.90
  -1  -1  -8   16.00    3.40
  -1  -1  -8    8.30    9.30
   1   1   8   12.80    5.40
   1   1   8   15.00    9.80
  -2  -1  -8  248.98   15.50
  -2  -1  -8  241.48   14.20
  -2  -1  -8  260.77   23.80
   2   1   8  236.68   15.10
   2   1   8  259.37   17.10
   2   1   8  250.87   26.00
  -3  -1  -8   11.70    5.70
  -3  -1  -8    7.30   13.40
   3   1   8   22.10   17.00
   3   1   8    1.30    7.60
   3   1   8    1.20    4.90
   3  -2  -8   60.19    9.40
   3  -2  -8   65.99   12.10
   3  -2  -8   98.69   21.80
   3  -2  -8   58.89   14.90
   3  -2  -8   75.69   11.50
  -3   2   8   82.39   11.70
   2  -2  -8   18.00    4.90
   2  -2  -8    8.40   11.30
   2  -2  -8   13.20    7.70
   2  -2  -8   18.40    5.10
  -2   2   8   16.50    3.40
  -2   2   8    9.30    5.90
   1  -2  -8   52.09    8.20
   1  -2  -8   61.09    6.80
   1  -2  -8   45.60    4.90
   0  -2  -8   60.09   10.50
   0  -2  -8   60.19    8.80
   0   2   8   52.69    9.00
  -1  -2  -8 1282.37   64.09
  -1  -2  -8 1342.47   64.89
  -1  -2  -8 1298.97   69.19
   1   2   8 1297.57   65.69
  -2  -2  -8   13.50   12.70
  -2  -2  -8   12.20    4.10
  -2  -2  -8    8.60    2.20
   2   2   8   18.00   13.70
   2   2   8    7.70    6.90
   2   2   8   11.70    3.70
  -3  -2  -8    5.40    5.60
  -3  -2  -8    6.40   12.30
   3   2   8    1.80    7.50
   3   2   8    1.50    4.40
   3   2   8    2.50   16.70
   3  -3  -8   45.20   11.40
   3  -3  -8   54.29   19.00
   3  -3  -8   43.90   11.00
   3  -3  -8   46.00    8.40
   3  -3  -8   35.40   13.80
  -3   3   8   29.30    9.30
  -3   3   8   60.19    8.40
   2  -3  -8   82.99   14.20
   2  -3  -8  107.39    9.70
   2  -3  -8   99.29    9.30
  -2   3   8   88.09   10.90
  -2   3   8   90.59    7.80
   1  -3  -8    3.50    3.00
   1  -3  -8    7.10    3.50
  -1   3   8    6.30    4.20
   0  -3  -8    4.20    3.10
   0  -3  -8   10.90    3.60
   0   3   8   11.40    6.40
  -1  -3  -8  160.28   11.40
  -1  -3  -8  147.09   17.20
  -1  -3  -8  159.48    9.70
   1   3   8  152.58   13.20
  -2  -3  -8   31.20    3.40
  -2  -3  -8   29.40    2.80
  -2  -3  -8   34.10   13.70
  -2  -3  -8   38.70    5.20
   2   3   8   39.50    9.40
   2   3   8   42.40    5.30
  -3  -3  -8   23.80    6.40
  -3  -3  -8   39.70   17.10
   3   3   8   39.40    6.20
   3   3   8   43.90   10.80
  -4  -3  -8   24.20   17.90
  -4  -3  -8    4.10    9.30
   4   3   8   23.10   12.30
   4   3   8   10.90    7.40
   3  -4  -8   47.70   11.40
   3  -4  -8   45.50   13.80
   3  -4  -8   47.30    8.60
   3  -4  -8   38.50   16.70
  -3   4   8   38.50    9.50
  -3   4   8   54.79    9.70
   2  -4  -8  457.45   25.70
   2  -4  -8  436.26   25.70
   2  -4  -8  427.76   32.30
  -2   4   8  430.56   26.60
  -2   4   8  476.85   25.50
   1  -4  -8    1.30    3.20
   1  -4  -8    8.90    7.40
   1  -4  -8    0.90    3.30
  -1   4   8    3.10    3.10
  -1   4   8   -1.30    3.60
   0  -4  -8   40.60    5.40
   0  -4  -8   34.10    5.80
   0  -4  -8   36.70    7.40
   0   4   8   56.09    9.40
  -1  -4  -8   19.20    4.80
  -1  -4  -8   13.90    4.10
  -1  -4  -8   19.60    3.20
  -1  -4  -8   13.60   10.40
   1   4   8   18.60    8.10
  -2  -4  -8   34.10    5.20
  -2  -4  -8   43.50   14.50
   2   4   8   35.70    9.80
   2   4   8   38.30    5.20
  -3  -4  -8   15.60   15.00
   3   4   8   21.80    9.80
   3   4   8   22.10    6.00
  -4  -4  -8   12.30    9.30
  -4  -4  -8    9.80   19.70
   4   4   8   21.00   12.10
   4   4   8    3.30    7.60
   3  -5  -8   70.29   15.30
   3  -5  -8   78.99   14.80
   3  -5  -8   84.39   19.20
   3  -5  -8   92.29   12.50
  -3   5   8   76.09   11.90
   2  -5  -8   23.70    6.60
   2  -5  -8   27.60   10.30
   2  -5  -8   20.30    5.20
  -2   5   8   26.80    6.70
  -2   5   8   18.10    6.20
   1  -5  -8  101.69   15.00
   1  -5  -8   87.39    9.20
   1  -5  -8  106.29    8.20
  -1   5   8  100.49    9.00
  -1   5   8   87.59    8.90
   0  -5  -8    1.70    2.60
   0  -5  -8    7.60    5.40
   0  -5  -8    0.50    3.60
   0   5   8    5.80    7.60
  -1  -5  -8  270.57   16.90
  -1  -5  -8  257.87   14.20
   1   5   8  249.78   19.20
  -2  -5  -8   53.89   14.40
  -2  -5  -8   44.00    6.00
  -2  -5  -8   57.29    4.70
  -2  -5  -8   50.79    3.80
   2   5   8   45.20    5.40
   2   5   8   66.09   12.90
  -3  -5  -8   15.00   16.10
  -3  -5  -8    8.20    5.00
   3   5   8    6.10    9.40
   3   5   8    6.40    3.90
   3  -6  -8    9.40   11.40
   3  -6  -8   12.80    7.30
  -3   6   8    9.20    8.80
  -3   6   8   26.60   16.80
   2  -6  -8   60.29   11.90
   2  -6  -8   70.69    9.50
   2  -6  -8   64.69    8.10
  -2   6   8   56.19    8.80
  -2   6   8   57.79    9.60
   1  -6  -8   46.40    6.00
   1  -6  -8   42.60    9.40
   1  -6  -8   52.89    8.20
  -1   6   8   36.60    6.80
  -1   6   8   43.20    6.30
   0  -6  -8    3.80    5.30
   0  -6  -8   -1.80    4.00
   0  -6  -8    1.10    2.30
   0   6   8   -5.60    7.90
  -1  -6  -8   13.20    5.90
  -1  -6  -8   12.60    4.40
  -1  -6  -8    9.00    2.40
   1   6   8    7.60    8.60
  -2  -6  -8   84.99    7.00
  -2  -6  -8   76.59    6.00
  -2  -6  -8   73.59   18.80
   2   6   8   82.79   13.70
   2   6   8   87.39    6.40
  -3  -6  -8   23.30    5.60
  -3  -6  -8   26.90   18.40
   3   6   8   11.50    4.40
   3   6   8   19.20   10.80
   3  -7  -8   42.40   12.30
   3  -7  -8   20.00    8.30
   3  -7  -8   25.80   12.80
  -3   7   8   24.30    9.80
  -3   7   8   59.29   13.70
   2  -7  -8   31.20    6.10
   2  -7  -8   45.00    9.20
   2  -7  -8   25.70   10.30
  -2   7   8   20.20    7.20
  -2   7   8   36.10    8.90
   1  -7  -8   43.70    5.50
   1  -7  -8   53.89    9.40
   1  -7  -8   27.50    8.70
  -1   7   8   49.00   14.50
  -1   7   8   46.50    8.20
  -1   7   8   26.70    5.80
   0  -7  -8   43.90    8.20
   0  -7  -8   47.00    4.80
   0  -7  -8   37.60    7.80
   0   7   8   48.30   13.20
  -1  -7  -8  105.19   10.40
  -1  -7  -8  104.79    6.70
  -1  -7  -8  110.19   12.00
   1   7   8  120.29   14.90
  -2  -7  -8   46.80    5.50
  -2  -7  -8   34.30    4.50
   2   7   8   47.80   13.00
  -3  -7  -8   14.30    5.30
  -3  -7  -8    9.50   18.80
   3   7   8   12.40   11.30
   3   7   8   14.40    4.30
  -3   8   8   48.10   14.10
   2  -8  -8  119.29   18.40
   2  -8  -8  104.69   10.10
   2  -8  -8  139.69   14.90
  -2   8   8  106.19   15.10
  -2   8   8  109.69   13.90
   1  -8  -8   28.60    4.70
   1  -8  -8   48.90   10.10
  -1   8   8   33.20    6.10
  -1   8   8   38.50    8.60
  -1   8   8   43.70   14.60
   0  -8  -8   11.60    5.90
   0  -8  -8    5.90    6.20
   0  -8  -8   11.20    2.40
   0   8   8   17.60    8.50
   0   8   8   17.40   12.50
  -1  -8  -8    5.20    2.00
  -1  -8  -8    1.70    4.00
  -1  -8  -8    5.30    1.80
  -1  -8  -8    4.20    6.40
   1   8   8    6.50    6.80
   1   8   8   11.50   11.30
  -2  -8  -8  108.89    7.80
  -2  -8  -8  129.09   22.20
  -2  -8  -8  111.29    9.10
  -2  -8  -8  111.49   14.20
   2   8   8  108.09   16.10
  -3  -8  -8   42.80    6.70
  -3  -8  -8   16.60   19.40
   3   8   8   42.30   14.60
   3   8   8   51.29    6.50
   2  -9  -8  234.58   24.10
   2  -9  -8  284.47   21.90
  -2   9   8  227.98   21.80
   1  -9  -8  355.56   26.50
   1  -9  -8  351.46   19.30
   1  -9  -8  380.86   24.70
  -1   9   8  299.17   28.00
  -1   9   8  339.27   20.80
  -1   9   8  289.97   28.50
  -1   9   8  393.06   25.00
   0  -9  -8  140.29   14.20
   0  -9  -8  108.19   15.10
   0  -9  -8  116.59    7.40
   0   9   8  150.98   18.90
   0   9   8  130.19   18.20
  -1  -9  -8  158.38   13.90
  -1  -9  -8  188.18   15.60
   1   9   8  154.88   17.80
   1   9   8  152.98   19.00
  -2  -9  -8   43.50    4.80
  -2  -9  -8   40.30   11.10
  -2  -9  -8   45.90    7.60
   2   9   8   38.90   13.80
  -3  -9  -8  176.98   13.00
  -3  -9  -8  141.99   19.70
  -3  -9  -8  176.18   29.20
   3   9   8  169.38   10.70
   3   9   8  151.78   21.40
   2 -10  -8  187.48   15.80
   2 -10  -8  221.68   24.20
   2 -10  -8  254.37   21.10
  -2  10   8  250.37   22.50
  -2  10   8  198.78   18.50
   1 -10  -8  136.29   17.40
   1 -10  -8  119.29    9.20
   1 -10  -8  140.69   15.90
  -1  10   8  127.09   20.20
  -1  10   8  134.09   15.80
  -1  10   8   78.29   16.60
  -1  10   8  124.69   11.60
   0 -10  -8   19.50    7.00
   0 -10  -8   24.70    2.60
   0 -10  -8   29.30    9.50
   0  10   8   14.20    9.80
   0  10   8   23.20   13.40
  -1 -10  -8   -3.30    7.30
  -1 -10  -8   -0.20    4.70
   1  10   8  -13.10    9.40
   1  10   8   -0.70    7.50
  -2 -10  -8  134.19   16.30
  -2 -10  -8  122.79   12.10
   2  10   8  131.89   19.70
  -3 -10  -8   21.80    5.80
  -3 -10  -8   32.10   12.40
  -3 -10  -8   41.10   22.80
   3  10   8   16.60   13.80
   2 -11  -8   68.59   13.50
   2 -11  -8   48.10    8.00
  -2  11   8   34.70   10.30
   1 -11  -8   10.70    3.80
   1 -11  -8   24.10   10.90
   1 -11  -8    7.70    8.70
  -1  11   8   -0.50   11.40
  -1  11   8   12.60   10.20
  -1  11   8   24.60   14.90
  -1  11   8   19.60    6.20
   0 -11  -8   90.29   14.80
   0 -11  -8  101.89   14.30
   0  11   8   83.29   14.00
   0  11   8   62.29   14.00
   0  11   8   95.89   19.50
  -1 -11  -8   29.90   10.30
   1  11   8   20.10   11.40
   1  11   8   11.80   13.20
  -2 -11  -8   42.80    8.00
  -2 -11  -8   84.49   15.20
   2  11   8   51.29   11.40
   2  11   8   77.59   19.00
   1 -12  -8   27.60    4.60
   1 -12  -8   41.10   11.60
  -1  12   8   -9.80   14.70
  -1  12   8   34.50   18.60
  -1  12   8   41.90   12.90
  -1  12   8   36.00    7.00
   0 -12  -8  105.69   16.30
   0 -12  -8   92.09   15.50
   0  12   8   82.39   15.40
   0  12   8   43.70   17.40
  -1 -12  -8    5.50   10.30
  -1 -12  -8   10.60    7.10
   1  12   8   -1.80   13.60
   1  12   8   -4.20   10.90
  -2 -12  -8   24.00   11.90
  -2 -12  -8   -1.40   11.50
   2  12   8    8.10   15.00
   2  12   8    1.90   17.60
   0 -13  -8   31.30   10.30
   0  13   8   19.60   14.90
   0  13   8   14.60   16.70
  -1 -13  -8   16.00    8.50
   1  13   8    6.50   15.30
   1  13   8   -4.80   12.40
   1   8  -9    1.20    9.40
   1   8  -9   12.40   10.30
   1   8  -9    9.40   10.00
   1   8  -9   11.00    6.60
   1   8  -9    2.80    6.60
  -1  -8   9    3.40    9.90
   0   8  -9   46.10   10.80
   0   8  -9   16.30    7.20
   0   8  -9   21.00   10.40
   0  -8   9   -1.90   10.80
   0  -8   9   27.40   13.80
  -1   8  -9   18.90    8.70
  -1   8  -9   48.10   12.30
   1  -8   9   48.20   19.20
   2   7  -9   53.89   10.60
   2   7  -9   44.10   14.10
   2   7  -9   51.19   12.70
  -2  -7   9   35.10   12.90
   1   7  -9    7.50    4.90
   1   7  -9    1.80    5.40
   1   7  -9    3.50    8.80
   1   7  -9    0.30    7.40
   1   7  -9    0.30    8.30
  -1  -7   9    2.00    8.50
  -1  -7   9  -12.80    9.50
   0   7  -9   19.10    7.70
   0   7  -9   -0.40    5.60
   0   7  -9   -4.80    7.70
   0  -7   9   -3.20   11.20
  -1   7  -9   57.79   11.60
  -1   7  -9   56.09    9.30
   1  -7   9   70.09   19.80
   1  -7   9   36.40   12.30
   2   6  -9  117.89   16.50
   2   6  -9  105.69   17.90
   2   6  -9  115.39   15.50
  -2  -6   9  114.49   19.90
   1   6  -9    0.30    3.60
   1   6  -9    3.90    4.70
   1   6  -9    2.50    7.20
   1   6  -9   -2.50    7.70
   1   6  -9   -1.90    6.80
  -1  -6   9   -9.90    6.90
  -1  -6   9  -10.00    7.90
   0   6  -9    9.80    7.10
   0   6  -9    0.10    0.40
   0   6  -9   -3.90    7.10
   0   6  -9   -2.30    5.00
   0  -6   9   -9.40    9.90
   0  -6   9   -4.00    7.90
  -1   6  -9   93.29   15.80
  -1   6  -9   68.79    9.60
   1  -6   9   59.29   12.00
   1  -6   9   74.79   18.10
  -2   6  -9   34.90   10.00
  -2   6  -9   35.20    9.00
   2  -6   9   -6.60   20.90
   3   5  -9   11.40    9.70
   3   5  -9   17.20   14.70
   3   5  -9  -15.40   10.90
   2   5  -9  241.18   18.80
   2   5  -9  227.48   21.10
   2   5  -9  267.77   22.80
  -2  -5   9  250.67   23.70
   1   5  -9   51.19   10.00
   1   5  -9   33.90    8.90
   1   5  -9   33.20    8.00
   1   5  -9   44.10    5.30
   1   5  -9   50.99    7.00
  -1  -5   9   46.20    8.30
  -1  -5   9   38.80   10.60
   0   5  -9   62.89   10.50
   0   5  -9   94.89    6.70
   0   5  -9   85.89   10.00
   0   5  -9   82.69    9.00
   0  -5   9   82.29   14.00
   0  -5   9   71.19   11.70
  -1   5  -9   60.79   10.20
  -1   5  -9   66.79    8.50
   1  -5   9   53.59   11.00
  -2   5  -9   26.00    8.40
   2  -5   9    7.80    6.60
   3   4  -9  -12.80    9.10
   3   4  -9   20.80   15.30
   3   4  -9   -8.50    8.10
   2   4  -9   28.70    7.80
   2   4  -9   12.50    8.70
   2   4  -9   30.10   12.50
  -2  -4   9   20.00    9.40
   1   4  -9  117.19   14.90
   1   4  -9  138.59   12.60
   1   4  -9  120.39    7.80
   1   4  -9  119.19   13.10
  -1  -4   9  115.89   10.70
  -1  -4   9  131.19   16.50
   0   4  -9   10.00    6.70
   0   4  -9   13.80    4.70
   0   4  -9   19.50    4.30
   0   4  -9   12.20    5.50
   0  -4   9    8.10    7.40
   0  -4   9   11.60    9.40
  -1   4  -9   15.60    7.20
  -1   4  -9    7.60    6.30
  -1   4  -9   12.00    5.10
   1  -4   9    2.90   12.30
   1  -4   9    7.70    7.50
  -2   4  -9  114.79   12.70
  -2   4  -9  133.89   15.10
   2  -4   9  108.39   23.10
   2  -4   9  122.49   11.70
   2  -4   9   91.49   15.10
   3   3  -9   66.69   11.20
   3   3  -9   62.79   18.30
   3   3  -9   48.80   12.40
   2   3  -9   74.29   15.10
   2   3  -9   71.89    9.80
   2   3  -9   60.19   11.30
   1   3  -9   18.30    2.50
   1   3  -9    9.80    7.40
   1   3  -9   14.50    5.90
   1   3  -9   29.70    9.70
  -1  -3   9   21.00    8.20
   0   3  -9  172.28   13.00
   0   3  -9  209.58   16.50
   0   3  -9  192.88   12.80
   0   3  -9  178.68   11.10
   0  -3   9  180.08   17.50
   0  -3   9  181.18   17.20
  -1   3  -9    1.80    6.80
  -1   3  -9    7.50    5.40
   1  -3   9    4.30    6.30
   1  -3   9    3.20   12.10
  -2   3  -9   -3.70    5.40
  -2   3  -9    9.70    5.60
  -2   3  -9    8.60    8.90
   2  -3   9    9.20   16.80
   2  -3   9   -5.30    6.30
   2  -3   9    2.60    5.00
  -3   3  -9   30.10    8.90
  -3   3  -9   22.60    9.60
   3  -3   9    2.20   24.50
   3  -3   9   29.00    7.80
   3   2  -9   42.40   18.10
   3   2  -9   29.00    8.70
  -3  -2   9   31.30   10.60
   2   2  -9  324.17   21.40
   2   2  -9  322.87   27.40
   2   2  -9  341.07   25.20
   1   2  -9   19.90    6.00
   1   2  -9   19.60    7.60
   1   2  -9   30.40   10.70
  -1  -2   9   19.40    7.10
   0   2  -9  128.99    9.40
   0   2  -9   98.49    9.60
   0   2  -9  100.19    9.10
   0   2  -9  134.09   13.50
   0  -2   9  139.39   14.10
   0  -2   9  108.39   14.00
  -1   2  -9   28.70    5.60
  -1   2  -9   32.50    8.90
  -1   2  -9   29.20    6.70
   1  -2   9   43.10   13.20
   1  -2   9   29.80    7.20
  -2   2  -9   11.90    5.60
  -2   2  -9   21.20   10.00
  -2   2  -9    8.80    4.80
   2  -2   9    5.60   14.80
   2  -2   9    2.40    5.60
   2  -2   9   12.20    4.90
  -3   2  -9   63.39   10.50
  -3   2  -9   58.99    9.20
   3  -2   9   37.50    8.70
   3  -2   9   67.79   24.40
   3  -2   9   39.60    8.00
   3   1  -9  106.09   22.10
   3   1  -9   78.69   13.90
   3   1  -9  111.19   13.40
  -3  -1   9   81.39   12.50
   2   1  -9  136.99   20.30
   2   1  -9  199.08   22.40
   2   1  -9  159.08   15.70
   1   1  -9   21.50    5.90
   1   1  -9   27.00    8.00
   1   1  -9   36.20   11.60
  -1  -1   9   11.90    6.80
   0   1  -9   28.60    4.60
   0   1  -9   32.80    7.00
   0   1  -9   31.10    6.80
   0   1  -9   27.00    6.20
   0  -1   9   26.20    6.70
   0  -1   9   33.70    8.90
  -1   1  -9   64.29    6.80
  -1   1  -9   68.49    9.70
  -1   1  -9   72.19   12.10
   1  -1   9   70.39   10.20
   1  -1   9   70.29   14.60
  -2   1  -9  136.59   11.60
  -2   1  -9  125.29   11.40
  -2   1  -9  153.98   17.10
   2  -1   9  142.49   12.60
   2  -1   9  119.39   10.70
   2  -1   9  135.89    9.30
   2  -1   9  155.68   23.00
  -3   1  -9    6.40    5.50
  -3   1  -9   -3.30    6.90
   3  -1   9    5.50    7.60
   3  -1   9  -12.40   19.70
   3  -1   9   -2.60    4.40
   3  -1   9   10.00    6.50
   3   0  -9  211.48   27.70
   3   0  -9  141.79   20.40
   3   0  -9  159.68   15.20
  -3   0   9  131.99   17.00
   2   0  -9  382.86   38.50
   2   0  -9  448.06   31.50
   1   0  -9    7.20    6.70
   1   0  -9    2.40    4.30
   1   0  -9   -2.90    8.50
   0   0  -9    0.80    2.90
   0   0  -9    6.30    5.40
   0   0  -9   -3.60    5.50
   0   0   9    5.40    5.00
  -1   0  -9  340.67   21.00
  -1   0  -9  343.07   19.80
  -1   0  -9  353.96   24.80
   1   0   9  356.96   21.70
   1   0   9  369.66   26.70
  -2   0  -9   40.70    6.90
  -2   0  -9   39.30   13.40
   2   0   9   45.40    7.90
   2   0   9   30.20    5.60
  -3   0  -9  202.08   23.00
  -3   0  -9  146.59   12.20
  -3   0  -9  169.78   14.70
   3   0   9  161.68   14.90
   3   0   9  166.98   29.80
   3   0   9  166.28   13.70
   3  -1  -9  594.14   32.80
   3  -1  -9  536.95   41.80
   3  -1  -9  545.25   37.70
  -3   1   9  526.25   34.30
   2  -1  -9    6.40    8.00
   2  -1  -9   -2.30    4.50
   2  -1  -9    9.10   13.10
   1  -1  -9    3.00    3.80
   1  -1  -9   10.20    6.30
   1  -1  -9    2.60    4.30
   0  -1  -9   92.99   11.70
   0  -1  -9   81.79   11.30
  -1  -1  -9  114.89   10.50
  -1  -1  -9  103.79   16.30
  -1  -1  -9  115.89    8.80
   1   1   9  125.99   16.40
   1   1   9  114.79   10.20
  -2  -1  -9  428.86   31.50
  -2  -1  -9  405.76   22.30
  -2  -1  -9  384.96   23.20
   2   1   9  430.36   33.80
   2   1   9  414.36   23.10
   2   1   9  409.86   24.40
  -3  -1  -9   16.70   11.40
  -3  -1  -9    7.30    6.50
   3   1   9   16.80   18.40
   3   1   9   19.70    6.10
   3   1   9    6.10    8.20
   3  -2  -9   43.40   19.40
   3  -2  -9   -6.20    8.40
   3  -2  -9   -2.10   12.60
   3  -2  -9    2.90    6.50
   3  -2  -9   -0.80    7.50
  -3   2   9    7.60    8.00
  -3   2   9    7.30    3.50
   2  -2  -9   63.29    8.60
   2  -2  -9   47.60    6.50
   2  -2  -9   54.39   10.70
   2  -2  -9   43.10   14.30
  -2   2   9   57.69   10.20
   1  -2  -9   87.39   12.40
   1  -2  -9   57.49    5.70
   1  -2  -9   68.69    8.20
   0  -2  -9   77.39   12.30
   0  -2  -9   89.09   10.80
  -1  -2  -9   30.00    5.40
  -1  -2  -9   35.20   11.60
  -1  -2  -9   30.70    4.60
   1   2   9   39.70    8.00
  -2  -2  -9    7.80   12.50
  -2  -2  -9    6.80    4.20
   2   2   9   -4.50    6.70
   2   2   9    7.10    3.60
  -3  -2  -9   -1.10    5.70
  -3  -2  -9   -1.50   14.40
   3   2   9    1.60    8.00
   3   2   9    1.00    5.20
   3   2   9   -0.10   16.50
   3  -3  -9  354.16   22.80
   3  -3  -9  314.37   30.80
   3  -3  -9  285.07   33.50
   3  -3  -9  342.87   27.60
   3  -3  -9  322.57   23.40
  -3   3   9  360.66   25.10
  -3   3   9  352.96   20.20
   2  -3  -9   56.59    7.30
   2  -3  -9   54.29    7.80
   2  -3  -9   60.69   12.40
   2  -3  -9   55.49   12.70
  -2   3   9   58.79    6.20
  -2   3   9   58.69    9.50
   1  -3  -9  450.65   26.40
   1  -3  -9  476.25   25.30
   1  -3  -9  484.75   29.20
   0  -3  -9   34.20    5.60
   0  -3  -9   28.70    6.40
   0  -3  -9   37.00    9.80
   0   3   9   41.80    9.50
  -1  -3  -9  146.19    9.50
  -1  -3  -9  157.28   18.00
  -1  -3  -9  148.99   11.80
   1   3   9  116.99   12.70
  -2  -3  -9   65.99    5.50
  -2  -3  -9   59.49    6.70
  -2  -3  -9   63.89    7.20
  -2  -3  -9   65.09   16.70
   2   3   9   65.69   11.70
   2   3   9   68.29    7.10
  -3  -3  -9   -3.30   14.40
  -3  -3  -9    4.80    5.70
   3   3   9    1.90    8.40
   3   3   9   -2.00    4.60
   3  -4  -9   33.20   14.50
   3  -4  -9   66.19    9.40
   3  -4  -9   45.20   10.70
   3  -4  -9   34.90   17.00
  -3   4   9   49.90    8.90
  -3   4   9   55.79   10.60
   2  -4  -9   -3.20    4.30
   2  -4  -9    1.60    4.50
  -2   4   9    4.10    5.90
  -2   4   9    0.90    3.50
   1  -4  -9  322.17   18.90
   1  -4  -9  340.37   19.20
   1  -4  -9  288.27   24.70
   0  -4  -9   72.29   11.70
   0  -4  -9   48.80    6.90
   0  -4  -9   60.99    7.30
   0   4   9   63.89   10.40
  -1  -4  -9   54.89    5.50
  -1  -4  -9   70.39   14.60
  -1  -4  -9   69.99   10.00
  -1  -4  -9   63.89    8.50
   1   4   9   68.09   11.70
  -2  -4  -9  148.99   10.60
  -2  -4  -9  154.58    8.80
  -2  -4  -9  167.98   22.80
  -2  -4  -9  153.38    9.00
   2   4   9  146.19   10.10
   2   4   9  132.39   15.20
  -3  -4  -9   -0.90   16.60
  -3  -4  -9   -5.80    5.20
   3   4   9   -6.70    8.00
   3   4   9    1.80    4.50
   3  -5  -9   48.60   11.50
   3  -5  -9   37.80    9.10
   3  -5  -9   28.60   16.90
   3  -5  -9   41.70   15.10
  -3   5   9   55.19   11.20
  -3   5   9   45.80    9.30
   2  -5  -9   72.19    9.20
   2  -5  -9   52.09   12.90
   2  -5  -9   73.09    9.20
  -2   5   9   92.49   12.90
  -2   5   9   68.09    8.50
   1  -5  -9  160.18   12.30
   1  -5  -9  142.89   18.00
   1  -5  -9  155.78   11.30
   0  -5  -9   84.09    7.80
   0  -5  -9   72.19    8.90
   0  -5  -9   89.89   13.50
   0   5   9  108.89   13.60
  -1  -5  -9   28.70   11.90
  -1  -5  -9   30.00    4.00
  -1  -5  -9   23.40    5.90
   1   5   9   23.40    9.70
  -2  -5  -9   68.69   17.40
  -2  -5  -9   65.89    6.00
  -2  -5  -9   61.99    6.70
  -2  -5  -9   64.59    5.10
   2   5   9   62.09    6.00
   2   5   9   74.19   13.50
  -3  -5  -9  186.88   27.00
   3   5   9  153.08   17.40
   3  -6  -9   98.29   12.90
   3  -6  -9  114.09   19.30
   3  -6  -9  157.78   18.00
  -3   6   9  146.29   15.20
  -3   6   9  141.89   17.40
   2  -6  -9   57.79    9.00
   2  -6  -9   44.00   12.30
   2  -6  -9   71.19   10.10
  -2   6   9   64.49    9.40
   1  -6  -9  309.37   20.80
   1  -6  -9  316.97   25.60
   1  -6  -9  346.17   19.10
  -1   6   9  311.77   20.00
  -1   6   9  337.77   20.50
   0  -6  -9    4.60    4.90
   0  -6  -9    2.80    5.90
   0  -6  -9    1.50    2.80
   0   6   9    0.30    8.80
  -1  -6  -9   62.99    5.30
  -1  -6  -9   49.50    8.90
  -1  -6  -9   64.09    9.80
   1   6   9   67.79   12.90
  -2  -6  -9   82.29    6.40
  -2  -6  -9   83.99   24.00
  -2  -6  -9   92.19    7.60
  -2  -6  -9   83.79    7.70
   2   6   9   99.49   16.00
   2   6   9   85.99    7.00
  -3  -6  -9    6.50   16.50
  -3  -6  -9   20.50    6.00
   3   6   9   13.40    4.60
   3   6   9   16.80   10.90
   3  -7  -9   -2.10    7.80
   3  -7  -9   15.50   13.30
   3  -7  -9   35.80   11.80
  -3   7   9   17.10   10.20
  -3   7   9   -2.60    9.80
   2  -7  -9   40.90   12.20
   2  -7  -9   73.59   10.60
  -2   7   9   68.49   10.80
  -2   7   9   38.30   13.70
   1  -7  -9  155.28   18.30
   1  -7  -9  158.98   13.80
   1  -7  -9  171.08   11.40
  -1   7   9  145.89   13.30
  -1   7   9  152.28   12.50
   0  -7  -9   37.00    8.50
   0  -7  -9   40.80    5.40
   0  -7  -9   44.60    8.40
   0   7   9   74.69   14.60
  -1  -7  -9   26.60    8.20
  -1  -7  -9   18.80    5.30
  -1  -7  -9   27.40    3.40
   1   7   9   28.60   11.70
  -2  -7  -9   78.19    6.90
  -2  -7  -9   83.69   19.10
  -2  -7  -9   67.29    6.60
   2   7   9   75.79   13.90
  -3  -7  -9   -0.70    5.00
  -3  -7  -9   -0.70   16.40
   3   7   9    1.00   11.20
   3   7   9    3.60    4.10
   2  -8  -9   84.09   12.50
   2  -8  -9   62.69   10.00
   2  -8  -9   85.79   15.00
  -2   8   9   96.99   12.70
  -2   8   9   92.59   11.90
   1  -8  -9  896.51   51.69
   1  -8  -9  929.41   44.80
   1  -8  -9 1016.80   49.20
  -1   8   9  879.31   48.20
  -1   8   9  734.73   51.69
  -1   8   9  799.02   45.70
   0  -8  -9   83.69   12.80
   0  -8  -9   86.89    7.00
   0  -8  -9   87.49   11.30
   0   8   9   89.69   16.60
  -1  -8  -9   16.90    3.70
  -1  -8  -9   21.80    2.90
  -1  -8  -9   19.80    8.00
  -1  -8  -9   26.30    6.10
   1   8   9   14.80   11.20
  -2  -8  -9  104.49    8.90
  -2  -8  -9  114.49    8.00
  -2  -8  -9  114.19   22.40
  -2  -8  -9  100.89   13.90
   2   8   9   99.99   16.20
  -3  -8  -9   31.70   21.30
  -3  -8  -9   27.00    6.40
   3   8   9   33.00    5.10
   3   8   9   30.90   14.10
   2  -9  -9  434.56   33.90
   2  -9  -9  465.75   30.00
   2  -9  -9  447.06   25.50
  -2   9   9  437.66   30.30
  -2   9   9  393.46   27.70
   1  -9  -9  324.77   19.40
   1  -9  -9  389.26   27.60
   1  -9  -9  389.46   25.00
  -1   9   9  338.07   21.30
  -1   9   9  268.87   27.50
  -1   9   9  350.56   24.30
   0  -9  -9  167.68    9.30
   0  -9  -9  151.48   16.00
   0  -9  -9  131.69   17.40
   0   9   9  109.09   18.30
  -1  -9  -9    2.30    1.60
  -1  -9  -9    2.30    1.90
  -1  -9  -9    2.60    4.70
  -1  -9  -9    0.10    6.50
   1   9   9  -11.30    9.90
  -2  -9  -9    9.60    4.20
  -2  -9  -9   15.00    8.90
  -2  -9  -9   11.60    3.10
   2   9   9   18.90   12.30
  -3  -9  -9   29.10   22.00
  -3  -9  -9   38.60   13.40
  -3  -9  -9   24.80    6.10
   3   9   9   30.20    4.80
   3   9   9   35.10   16.00
   2 -10  -9   60.09    8.60
   2 -10  -9   66.89   14.20
  -2  10   9   46.70   10.10
  -2  10   9   70.29   14.90
   1 -10  -9  101.09   14.40
   1 -10  -9   50.49   11.50
   1 -10  -9   65.69    7.60
  -1  10   9   78.79   13.40
  -1  10   9   66.49    8.70
  -1  10   9   61.69   18.80
   0 -10  -9    9.20    8.50
   0 -10  -9    4.40    2.00
   0 -10  -9   12.60    7.00
   0  10   9    6.60   11.80
   0  10   9   -6.40    9.30
  -1 -10  -9    9.10    5.30
  -1 -10  -9    5.90    8.60
   1  10   9   -0.20    8.40
   1  10   9   14.70   12.10
  -2 -10  -9    4.60    2.30
  -2 -10  -9    5.20    2.10
  -2 -10  -9    4.90    9.30
  -2 -10  -9   -0.50    4.60
   2  10   9    8.80   13.40
  -3 -10  -9   83.59   26.70
  -3 -10  -9   86.29   17.50
  -3 -10  -9  106.59   10.60
   1 -11  -9    4.20    4.00
   1 -11  -9   15.50    9.10
   1 -11  -9   34.60   11.90
  -1  11   9   -4.20   11.70
  -1  11   9   10.40   15.00
  -1  11   9   14.10   10.10
   0 -11  -9   64.99    3.90
   0 -11  -9   62.99   10.90
   0 -11  -9   58.39    3.70
   0 -11  -9   92.59   14.40
   0  11   9   64.29   18.20
   0  11   9   65.29   15.40
  -1 -11  -9   52.19   12.30
   1  11   9   24.90   11.70
   1  11   9   53.79   16.90
  -2 -11  -9   26.90   11.50
  -2 -11  -9   15.70    6.40
   2  11   9   10.40   14.80
   2  11   9   -3.50    9.30
   1 -12  -9    7.80   10.40
   1 -12  -9   11.10    4.10
  -1  12   9   12.00   12.20
  -1  12   9   13.20   17.00
   0 -12  -9  120.49   16.20
   0 -12  -9  139.79   18.00
   0  12   9   73.09   16.60
   0  12   9   82.79   20.00
  -1 -12  -9   19.10   10.30
  -1 -12  -9   24.90    8.10
   1  12   9    0.30   11.30
   1  12   9    5.30   15.40
  -2 -12  -9   25.10   13.50
  -2 -12  -9   17.00    8.40
   0 -13  -9   13.20    9.50
   0  13   9  -13.90   14.20
   0  13   9  -11.70   14.00
  -1 -13  -9   72.99   12.40
   1  13   9   42.10   15.70
   1   7 -10  106.89   10.20
   1   7 -10  119.99   16.20
   1   7 -10   81.69   10.50
   1   7 -10  117.79   18.90
   1   7 -10   94.79   14.40
  -1  -7  10   95.49   14.20
   0   7 -10    4.50    6.50
   0   7 -10   23.00    9.00
   0   7 -10   -5.00    9.00
   0  -7  10   -2.80   13.30
   0  -7  10  -19.50    9.50
  -1   7 -10   60.49   12.50
  -1   7 -10   24.80    9.30
   1  -7  10   24.30   12.90
   1  -7  10   48.70   20.20
   2   6 -10    8.60   11.20
   2   6 -10    7.10    9.50
   2   6 -10   16.10   11.00
  -2  -6  10    3.20   10.70
   1   6 -10   16.10    9.10
   1   6 -10   13.10    9.10
   1   6 -10   37.40    9.30
   1   6 -10   38.50    7.30
   1   6 -10   29.00    5.30
  -1  -6  10   15.40   11.10
  -1  -6  10   17.80    9.00
   0   6 -10   16.30    7.70
   0   6 -10   -2.80    7.40
   0   6 -10   -1.80    5.50
   0  -6  10   -1.70   11.30
   0  -6  10  -14.80    8.90
  -1   6 -10  117.69   16.70
  -1   6 -10   93.89   12.20
   1  -6  10   80.29   14.40
   1  -6  10   91.69   21.60
   2   5 -10  112.69   14.80
   2   5 -10  112.29   17.10
   2   5 -10   99.39   15.30
  -2  -5  10   88.69   15.60
   1   5 -10  154.58   12.90
   1   5 -10  144.49   17.70
   1   5 -10  172.38   16.60
   1   5 -10  131.79   14.20
   1   5 -10  146.49    9.60
  -1  -5  10  128.69   19.20
  -1  -5  10  124.39   13.20
   0   5 -10  115.79   10.80
   0   5 -10   99.59   11.20
   0   5 -10   99.99   14.90
   0  -5  10  100.09   16.10
   0  -5  10   67.89   12.80
  -1   5 -10    3.60    7.20
  -1   5 -10    4.90    6.20
  -1   5 -10   26.00    8.60
   1  -5  10  -11.80    8.50
   1  -5  10   -2.40   15.00
  -2   5 -10   18.40    8.90
  -2   5 -10    9.30    8.00
   2  -5  10   -8.30   20.90
   3   4 -10   98.09   20.00
   3   4 -10   55.09   14.50
   3   4 -10   95.99   13.80
   2   4 -10   83.59   15.00
   2   4 -10   45.90   11.30
   2   4 -10   64.59   11.30
  -2  -4  10   49.20   11.80
   1   4 -10   -3.10    7.10
   1   4 -10   -0.20    2.10
   1   4 -10    7.00    7.90
   1   4 -10   10.70    6.60
  -1  -4  10    3.30    5.30
  -1  -4  10    5.80    7.90
   0   4 -10   27.10    6.00
   0   4 -10   30.40    8.40
   0   4 -10   45.10    8.00
   0  -4  10   34.40   11.30
   0  -4  10   30.80    9.60
  -1   4 -10   18.20    7.30
  -1   4 -10   12.30    5.90
   1  -4  10   24.20    9.50
   1  -4  10   29.60   16.90
  -2   4 -10   16.20    7.60
  -2   4 -10    7.90    7.10
   2  -4  10   17.30    7.10
   2  -4  10   -2.60   18.00
   3   3 -10   66.09   11.80
   3   3 -10   43.60   13.80
   3   3 -10   75.49   19.40
   2   3 -10   71.89   13.00
   2   3 -10  112.69   18.10
   2   3 -10  110.69   13.00
   1   3 -10 1015.80   55.69
   1   3 -10  997.20   48.70
   1   3 -10 1036.40   54.09
  -1  -3  10  973.30   55.69
   0   3 -10  112.39    8.20
   0   3 -10  109.29   13.70
   0   3 -10   99.99   11.30
   0   3 -10  114.19   10.30
   0  -3  10  137.59   16.00
   0  -3  10  114.89   15.60
  -1   3 -10   55.59   10.20
  -1   3 -10   47.20    8.30
  -1   3 -10   47.60    7.40
   1  -3  10   46.60    9.20
   1  -3  10   66.29   15.90
  -2   3 -10   86.89   12.80
  -2   3 -10   51.79    9.10
   2  -3  10   49.90   10.30
   2  -3  10   75.29   21.90
   2  -3  10   61.59    8.60
   3   2 -10   13.00    8.70
   3   2 -10  -12.00   10.30
   3   2 -10   27.40   18.20
   2   2 -10  126.99   13.70
   2   2 -10  170.68   21.10
   2   2 -10  129.29   18.20
   1   2 -10   30.00   11.00
   1   2 -10   13.10    6.70
   0   2 -10  239.88   15.00
   0   2 -10  241.98   18.60
   0   2 -10  211.18   14.00
   0   2 -10  223.28   15.30
   0  -2  10  226.38   19.30
   0  -2  10  245.38   19.50
  -1   2 -10   99.99    9.90
  -1   2 -10  109.99   12.00
  -1   2 -10  113.99   13.10
   1  -2  10  108.99   18.50
   1  -2  10   95.59   13.20
  -2   2 -10   16.40   10.30
  -2   2 -10   14.00    5.60
  -2   2 -10   11.30    5.90
   2  -2  10    3.60    6.80
   2  -2  10    6.30    5.30
   2  -2  10   24.80   17.70
  -3   2 -10    0.40    7.20
  -3   2 -10   -8.50    8.70
   3  -2  10    4.90   23.10
   3  -2  10   -1.70    7.20
   3   1 -10   34.00   19.40
   3   1 -10  -13.20   10.60
   3   1 -10   -0.20    8.30
  -3  -1  10   -2.30    9.30
   2   1 -10   13.60    9.30
   2   1 -10   40.30   15.20
   2   1 -10   21.40    6.90
   1   1 -10 1631.64   78.89
   1   1 -10 1334.37   73.59
   1   1 -10 1690.93   79.59
   0   1 -10  266.27   16.70
   0   1 -10  282.67   18.10
   0   1 -10  297.27   20.80
   0   1 -10  269.97   17.60
   0  -1  10  289.47   20.70
   0  -1  10  267.67   20.60
  -1   1 -10   28.50    5.60
  -1   1 -10   26.60    9.50
  -1   1 -10   26.10    6.60
   1  -1  10   28.00   12.90
   1  -1  10   28.30    7.00
  -2   1 -10  171.18   19.30
  -2   1 -10  184.28   14.20
  -2   1 -10  183.38   14.00
   2  -1  10  156.88   25.50
   2  -1  10  172.98   13.10
   2  -1  10  173.88   15.20
  -3   1 -10   -1.30    5.70
  -3   1 -10    3.10    7.90
   3  -1  10    4.70   22.50
   3  -1  10   -6.40    4.90
   3  -1  10    0.30    6.60
   3   0 -10   59.89   20.70
   3   0 -10   32.10    9.30
   3   0 -10   16.60   11.80
  -3   0  10   39.80   11.80
   2   0 -10  717.13   39.00
   2   0 -10  683.63   42.30
   1   0 -10   45.90    7.70
   1   0 -10   33.50    3.60
   1   0 -10   43.80   11.10
   1   0 -10   33.50    3.40
   1   0 -10   45.00    9.60
   0   0 -10  287.57   17.00
   0   0 -10  308.27   20.70
   0   0 -10  267.97   19.10
   0   0  10  286.47   20.20
  -1   0 -10   77.29    9.80
  -1   0 -10   76.39    7.40
  -1   0 -10   90.19   14.40
   1   0  10   64.19   14.70
   1   0  10   82.79   11.00
  -2   0 -10   13.60   12.00
  -2   0 -10   20.10    6.00
  -2   0 -10   10.60    4.60
   2   0  10   18.10   14.80
   2   0  10   20.40    5.20
   2   0  10   17.40    6.20
   2   0  10   12.40    5.10
  -3   0 -10  180.28   16.90
  -3   0 -10  243.58   25.20
  -3   0 -10  219.08   14.60
   3   0  10  184.78   32.40
   3   0  10  216.98   16.50
   3   0  10  187.78   16.70
   3  -1 -10   88.59   16.10
   3  -1 -10  121.89   14.30
   3  -1 -10  145.89   25.80
  -3   1  10  119.39   15.80
   2  -1 -10    2.60    5.60
   2  -1 -10    0.10    8.00
   2  -1 -10    0.80   13.00
   1  -1 -10  262.37   18.10
   1  -1 -10  265.37   14.50
   1  -1 -10  264.77   16.10
   1  -1 -10  276.77   21.60
   0  -1 -10  120.19   13.70
   0  -1 -10  149.19   14.20
   0  -1 -10  125.09    9.50
  -1  -1 -10  107.09   17.40
  -1  -1 -10   91.19    8.50
  -1  -1 -10  106.39   10.90
   1   1  10   95.19   10.20
  -2  -1 -10  126.69   11.60
  -2  -1 -10  153.78   20.20
  -2  -1 -10  153.48   11.30
   2   1  10  178.88   13.30
   2   1  10  162.78   22.90
   2   1  10  141.79   11.40
  -3  -1 -10    5.80    6.70
  -3  -1 -10   19.60   14.80
   3   1  10    9.90    8.70
   3   1  10   -1.20    5.60
   3   1  10    1.50   18.90
   3  -2 -10   12.40   18.70
   3  -2 -10  -19.10   14.00
   3  -2 -10    2.40    6.40
   3  -2 -10    9.00    7.60
   3  -2 -10   -9.30    9.80
  -3   2  10   -3.20    8.10
   2  -2 -10   25.50    9.50
   2  -2 -10   40.70    5.60
   2  -2 -10   43.30   14.00
   2  -2 -10   56.59    8.40
  -2   2  10   41.10    8.60
   1  -2 -10    0.60    2.90
   1  -2 -10    2.60    4.20
   1  -2 -10    0.00    6.00
   1  -2 -10    4.30    7.00
   0  -2 -10  426.16   27.90
   0  -2 -10  453.05   27.10
  -1  -2 -10  145.99   10.00
  -1  -2 -10  145.39   12.30
  -1  -2 -10  147.99   18.40
   1   2  10  111.49   12.10
  -2  -2 -10   65.69    7.10
  -2  -2 -10   70.29    8.30
   2   2  10   75.39   11.20
   2   2  10   76.39    7.80
  -3  -2 -10   44.60    8.10
  -3  -2 -10   44.30   17.60
   3   2  10   53.59   11.40
   3   2  10   30.50    7.30
   3  -3 -10   47.60   17.90
   3  -3 -10   79.49   14.60
   3  -3 -10   98.49   22.20
   3  -3 -10   81.59   13.50
   3  -3 -10   81.19   11.70
  -3   3  10  104.49   13.90
  -3   3  10  102.29    8.70
   2  -3 -10   53.89    6.60
   2  -3 -10   48.90    7.80
   2  -3 -10   36.40   10.30
  -2   3  10   42.30    8.90
   1  -3 -10  187.98   13.90
   1  -3 -10  202.68   17.90
   1  -3 -10  173.38   12.00
   0  -3 -10  187.48   18.20
   0  -3 -10  205.18   16.90
   0  -3 -10  183.78   13.90
   0   3  10  212.18   17.20
  -1  -3 -10   23.30    5.80
  -1  -3 -10   34.30   13.10
   1   3  10   19.90    8.30
  -2  -3 -10   72.19    6.80
  -2  -3 -10   64.09    8.40
   2   3  10   97.29    7.80
   2   3  10   61.79   11.60
  -3  -3 -10   19.80   17.20
  -3  -3 -10   14.90    6.60
   3   3  10   -3.50    5.00
   3   3  10   13.90    9.40
   3  -4 -10    7.30    9.10
   3  -4 -10    1.10    9.70
   3  -4 -10   15.60   14.50
   3  -4 -10   -3.90    7.60
   3  -4 -10    7.50   16.50
  -3   4  10   13.50    9.00
  -3   4  10   19.40    6.00
   2  -4 -10   84.19    8.70
   2  -4 -10   60.19   14.40
   2  -4 -10   84.99   10.00
  -2   4  10   69.89   10.60
   1  -4 -10  109.09    9.30
   1  -4 -10   87.69    9.60
   1  -4 -10  117.29   17.70
   0  -4 -10   39.60    6.80
   0  -4 -10   45.60    8.10
   0  -4 -10   49.80    7.10
   0   4  10   55.49   11.60
  -1  -4 -10  206.98   12.70
  -1  -4 -10  187.08   22.60
  -1  -4 -10  209.08   15.20
  -1  -4 -10  190.68   16.50
   1   4  10  230.98   17.60
  -2  -4 -10   17.40    3.70
  -2  -4 -10   27.30   18.30
  -2  -4 -10   27.10    5.20
  -2  -4 -10   17.00    3.30
   2   4  10   34.90   10.10
   2   4  10   22.60    4.40
  -3  -4 -10    8.10   14.00
  -3  -4 -10    5.60    6.10
   3   4  10   -0.10    5.10
   3   4  10    6.40    9.30
   3  -5 -10   67.29   18.20
   3  -5 -10   75.69   20.40
   3  -5 -10   81.59   12.10
   3  -5 -10  108.59   15.20
  -3   5  10   76.69   13.10
  -3   5  10  103.89   11.90
   2  -5 -10  517.05   39.70
   2  -5 -10  585.94   32.10
   2  -5 -10  513.25   31.40
  -2   5  10  587.64   33.60
  -2   5  10  617.94   31.70
   1  -5 -10   60.09   12.40
   1  -5 -10   51.29    8.10
   1  -5 -10   66.59    8.10
   0  -5 -10   12.60    4.60
   0  -5 -10   23.90    6.20
   0  -5 -10   17.50    7.70
   0   5  10   30.50   10.50
  -1  -5 -10  127.59   13.60
  -1  -5 -10  130.89   12.00
  -1  -5 -10  131.89    8.90
  -1  -5 -10  139.89   19.90
   1   5  10  123.89   14.70
  -2  -5 -10   82.39    8.20
  -2  -5 -10   79.49   19.00
  -2  -5 -10   70.09    7.10
  -2  -5 -10   71.99    6.40
   2   5  10   90.09   13.80
  -3  -5 -10   10.60   18.60
  -3  -5 -10    7.00    5.90
   3   5  10   10.80   10.40
   3   5  10    9.00    5.10
   3  -6 -10   -3.20   13.40
   3  -6 -10   23.80   10.40
   3  -6 -10   14.40    8.20
  -3   6  10   15.80   10.30
  -3   6  10   11.20    8.00
   2  -6 -10   82.19    9.90
   2  -6 -10   93.39   10.90
   2  -6 -10   68.89   15.00
  -2   6  10   79.09   11.20
  -2   6  10   84.09   10.30
   1  -6 -10  161.78   19.20
   1  -6 -10  140.49   12.40
   1  -6 -10  145.69   11.30
   0  -6 -10 1183.18   57.79
   0  -6 -10 1083.59   61.79
   0  -6 -10 1008.40   59.09
   0   6  10 1310.17   63.49
  -1  -6 -10   62.39   10.50
  -1  -6 -10   57.09   10.10
  -1  -6 -10   54.59    5.60
   1   6  10   63.89   13.70
  -2  -6 -10  120.09    8.10
  -2  -6 -10  118.39    9.20
  -2  -6 -10  116.59   21.70
  -2  -6 -10  106.49    9.30
   2   6  10  118.79   15.00
  -3  -6 -10  132.49   26.20
  -3  -6 -10  111.59   12.60
   3   6  10  132.39   17.30
   3  -7 -10    1.10   13.60
   3  -7 -10   46.50   12.20
   3  -7 -10   -1.70    8.40
  -3   7  10   12.80   11.60
  -3   7  10   15.30   10.30
   2  -7 -10   13.40   11.10
   2  -7 -10   35.40    7.10
  -2   7  10   32.30    9.00
  -2   7  10   37.90    8.50
   1  -7 -10  437.56   23.60
   1  -7 -10  352.76   32.70
   1  -7 -10  423.76   25.70
   0  -7 -10  933.81   51.69
   0  -7 -10  957.80   46.70
   0  -7 -10  848.42   49.30
   0   7  10  928.71   53.09
  -1  -7 -10  325.97   23.20
  -1  -7 -10  324.87   18.00
  -1  -7 -10  343.77   22.10
   1   7  10  358.16   26.30
  -2  -7 -10   86.79   21.00
  -2  -7 -10   69.19    7.50
  -2  -7 -10   87.69    7.10
   2   7  10   81.79   15.40
  -3  -7 -10   93.89   10.60
  -3  -7 -10  100.79   25.30
   3   7  10   78.79    9.00
   3   7  10   97.89   18.60
   2  -8 -10    7.50    5.90
   2  -8 -10   -0.60   10.00
   2  -8 -10   36.70    9.20
  -2   8  10   17.20    8.50
  -2   8  10   18.20    8.30
   1  -8 -10   87.69    8.50
   1  -8 -10   88.49   11.80
   1  -8 -10   71.89   13.10
  -1   8  10   90.79   11.80
   0  -8 -10 1723.43   94.59
   0  -8 -10 1824.42   93.79
   0  -8 -10 1999.60   89.79
   0   8  10 1779.92   96.99
  -1  -8 -10  615.34   34.40
  -1  -8 -10  597.44   36.10
  -1  -8 -10  561.74   31.30
  -1  -8 -10  615.44   30.30
   1   8  10  624.64   39.20
  -2  -8 -10    4.10    3.00
  -2  -8 -10    7.60    3.60
  -2  -8 -10    6.30    9.00
  -2  -8 -10   -0.20   16.60
   2   8  10   -5.70    9.80
  -3  -8 -10    2.10    5.50
  -3  -8 -10   -4.80   18.90
   3   8  10    3.30   11.60
   3   8  10   -1.70    4.20
   2  -9 -10   44.80   13.30
   2  -9 -10   37.30    7.80
  -2   9  10   49.30   10.60
  -2   9  10   70.09   13.10
   1  -9 -10  283.97   17.80
   1  -9 -10  296.87   25.70
   1  -9 -10  328.57   22.90
  -1   9  10  312.67   28.40
  -1   9  10  280.57   21.90
   0  -9 -10   90.49   15.90
   0  -9 -10  109.39   13.30
   0  -9 -10  111.29    8.00
   0   9  10   82.19   17.10
  -1  -9 -10   32.50   10.20
  -1  -9 -10   26.90    6.90
  -1  -9 -10   33.40    4.20
  -1  -9 -10   29.20    3.90
   1   9  10   36.70   12.80
  -2  -9 -10   12.20   17.10
  -2  -9 -10   14.60    4.40
  -2  -9 -10    9.80    3.50
  -2  -9 -10    4.60    9.30
   2   9  10    6.70   11.50
  -3  -9 -10    7.80   12.60
  -3  -9 -10  -18.60   21.00
  -3  -9 -10   -2.40    5.40
   3   9  10   -1.10   13.70
   2 -10 -10   11.70    6.80
   2 -10 -10   15.60   11.20
  -2  10  10   22.20   10.50
  -2  10  10   37.10   12.50
   1 -10 -10   14.80    9.50
   1 -10 -10   16.50    4.80
  -1  10  10   26.10   14.80
  -1  10  10   17.20   10.00
   0 -10 -10  168.58   17.20
   0 -10 -10  182.48   10.30
   0 -10 -10  168.38   18.50
   0  10  10  132.19   20.80
  -1 -10 -10   83.79   12.00
  -1 -10 -10   78.59    4.80
  -1 -10 -10  100.89   14.50
  -1 -10 -10   77.59    5.00
   1  10  10   62.29   17.00
  -2 -10 -10  208.68   11.90
  -2 -10 -10  213.58   21.00
  -2 -10 -10  206.98   12.50
  -2 -10 -10  235.08   16.10
   2  10  10  190.78   23.50
   1 -11 -10    6.30   10.20
   1 -11 -10    6.70    4.60
  -1  11  10   29.40   17.40
  -1  11  10   15.20   11.20
   0 -11 -10   -4.10    7.10
   0 -11 -10    8.10    9.10
   0 -11 -10    2.60    2.10
   0 -11 -10   -0.90    1.90
   0  11  10   -3.70   12.80
  -1 -11 -10  140.99   17.20
   1  11  10  109.79   20.10
  -2 -11 -10   76.49   16.20
  -2 -11 -10   70.19   11.90
   2  11  10   75.29   19.60
  -1  12  10   17.60   12.40
   0 -12 -10   88.19   15.90
   0 -12 -10   65.99   12.20
   0  12  10   42.70   18.20
  -1 -12 -10   23.60    8.20
  -1 -12 -10   58.89   13.80
   1  12  10   22.90   16.90
   1  12  10    2.80   12.90
  -2 -12 -10   19.20    7.70
  -2 -12 -10    8.50   13.30
   2  12  10   15.80   16.90
   0 -13 -10   23.10   10.40
   0  13  10  -18.90   15.30
   0  13  10   12.10   16.60
   1  13  10   48.90   19.70
   1  13  10   12.40   14.10
   0   7 -11    9.30    8.20
   0   7 -11   -3.40   10.20
   0  -7  11  -19.90   11.80
   0  -7  11   -0.30   17.60
   1   6 -11   22.10   10.00
   1   6 -11   20.70   10.70
   1   6 -11   29.70   10.20
   1   6 -11   18.80    7.50
   1   6 -11   17.30    4.60
  -1  -6  11   18.90    9.10
  -1  -6  11    3.60   11.20
   0   6 -11   -1.00    8.60
   0   6 -11    1.20    6.80
   0   6 -11   15.50    8.20
   0  -6  11  -20.50   10.30
   0  -6  11  -20.00   12.50
  -1   6 -11   29.90   10.60
  -1   6 -11   10.80    8.60
   2   5 -11   -0.40    9.60
   2   5 -11   11.20   10.70
   2   5 -11    5.40   11.50
  -2  -5  11  -16.30   10.30
   1   5 -11   45.80   10.50
   1   5 -11   32.10   11.00
   1   5 -11   53.29    8.50
   1   5 -11   41.20   10.30
   1   5 -11   47.80    5.60
  -1  -5  11   47.10    8.70
  -1  -5  11   35.60   12.10
   0   5 -11   11.80    8.50
   0   5 -11    8.90    6.00
   0   5 -11   20.10    7.40
   0  -5  11    5.40   10.10
   0  -5  11  -10.20   11.10
  -1   5 -11    3.10    7.80
  -1   5 -11   -3.20    6.60
   1  -5  11  -19.50   16.30
   2   4 -11  222.28   23.90
   2   4 -11  223.58   20.30
   2   4 -11  239.58   22.80
  -2  -4  11  281.37   25.30
   1   4 -11   43.60    7.50
   1   4 -11   55.09   10.40
   1   4 -11   27.50    9.50
   1   4 -11   44.80   10.30
   1   4 -11   39.10    4.20
  -1  -4  11   23.10   10.40
   0   4 -11   77.19   12.20
   0   4 -11   99.79   10.60
   0   4 -11   72.29   10.00
   0  -4  11   88.39   15.30
   0  -4  11   53.99   12.10
  -1   4 -11   42.40    9.80
  -1   4 -11   38.40    8.00
   1  -4  11   48.70   17.20
   1  -4  11   38.80   11.50
  -2   4 -11    5.70    7.40
  -2   4 -11    3.70    7.90
   2  -4  11  -11.00   10.20
   2  -4  11    5.10   20.40
   2   3 -11   60.89   10.80
   2   3 -11   61.79   15.80
   1   3 -11   48.00   11.10
   1   3 -11   37.40   10.20
   1   3 -11   44.50    3.50
   1   3 -11   44.40    9.30
  -1  -3  11   36.60   10.20
   0   3 -11  401.46   27.80
   0   3 -11  454.65   24.80
   0   3 -11  442.26   24.50
   0   3 -11  388.66   21.30
   0  -3  11  424.86   29.10
   0  -3  11  391.76   28.20
  -1   3 -11  237.28   21.40
  -1   3 -11  281.47   20.20
  -1   3 -11  218.28   16.70
   1  -3  11  215.48   25.80
  -2   3 -11   23.90    9.30
  -2   3 -11    6.50    7.40
   2  -3  11   10.90   19.10
   2  -3  11   -0.50    8.50
   3   2 -11    5.00    9.40
   3   2 -11   26.60   19.00
   2   2 -11   21.90   14.00
   2   2 -11    7.20    7.70
   2   2 -11   -5.50    8.60
   1   2 -11   48.10   10.30
   1   2 -11   55.39   12.40
   1   2 -11   47.10    8.80
  -1  -2  11   58.19   10.70
   0   2 -11 1309.37   78.49
   0   2 -11 1440.56   66.59
   0   2 -11 1145.99   63.89
   0   2 -11 1353.66   65.89
   0  -2  11 1324.77   70.19
   0  -2  11 1273.97   68.79
  -1   2 -11   22.00    6.90
  -1   2 -11   15.80    5.70
  -1   2 -11   35.30    9.00
   1  -2  11   11.90    7.20
   1  -2  11   27.30   13.80
  -2   2 -11  161.98   18.60
  -2   2 -11  126.29   12.80
  -2   2 -11  116.89   13.80
   2  -2  11  104.19   23.90
   2  -2  11   92.59   15.70
   3   1 -11  -22.20   11.30
   3   1 -11    2.60    8.80
   3   1 -11   35.20   19.50
   2   1 -11   19.20    7.70
   2   1 -11    3.40    9.40
   2   1 -11   46.10   16.80
   1   1 -11  380.86   24.80
   1   1 -11  379.56   26.80
   1   1 -11  429.36   28.10
   1   1 -11  368.56   18.90
   0   1 -11  861.31   44.20
   0   1 -11  743.43   43.10
   0   1 -11  909.61   46.80
   0  -1  11  819.82   46.50
  -1   1 -11 1183.18   62.39
  -1   1 -11 1358.26   64.79
  -1   1 -11 1307.87   66.29
   1  -1  11 1212.28   64.79
   1  -1  11 1100.89   68.19
  -2   1 -11  162.18   19.70
  -2   1 -11  120.99   13.20
  -2   1 -11  166.38   13.60
   2  -1  11  143.89   12.40
   2  -1  11  155.78   25.20
   2  -1  11  135.39   15.10
  -3   1 -11   -1.70    9.10
  -3   1 -11    5.90    6.50
   3  -1  11   -4.70    7.50
   3  -1  11    0.30   24.60
   3  -1  11   -8.90    5.20
   3   0 -11   95.29   23.80
   3   0 -11   68.09   12.00
   2   0 -11  338.07   30.30
   2   0 -11  351.66   22.90
   2   0 -11  314.47   27.00
   1   0 -11    5.90    2.20
   1   0 -11    0.20    2.20
   1   0 -11    7.10    9.60
   0   0 -11  402.26   22.40
   0   0 -11  397.96   26.00
   0   0 -11  381.46   24.40
  -1   0 -11   11.90    9.60
  -1   0 -11    6.90    5.60
   1   0  11   11.30    5.90
   1   0  11   20.90   12.50
  -2   0 -11   25.80    5.90
  -2   0 -11   46.60    7.50
  -2   0 -11   29.80   13.40
   2   0  11   23.90    6.20
   2   0  11   41.20    6.80
   2   0  11   33.50   16.80
  -3   0 -11    6.60    5.10
  -3   0 -11   -1.40    8.40
  -3   0 -11   42.90   15.30
   3   0  11   11.50    9.30
   3   0  11    3.30    6.60
   3   0  11   14.50   22.90
   3  -1 -11   -8.00    8.30
   3  -1 -11  -15.20   10.70
   3  -1 -11   43.50   21.80
  -3   1  11    0.50   10.00
   2  -1 -11   11.40   14.40
   2  -1 -11   13.10    9.90
   2  -1 -11    4.60    6.00
   1  -1 -11   62.29    5.60
   1  -1 -11   69.19    7.80
   1  -1 -11   67.69    9.60
   1  -1 -11   68.69   11.50
   0  -1 -11   88.19   13.10
   0  -1 -11   75.69   13.00
   0  -1 -11   62.09    7.40
  -1  -1 -11    3.40    4.10
  -1  -1 -11    9.40   10.80
  -1  -1 -11    3.50    5.20
  -2  -1 -11  496.05   27.70
  -2  -1 -11  479.35   27.00
  -2  -1 -11  474.35   35.30
   2   1  11  482.95   27.60
   2   1  11  487.85   38.10
   2   1  11  487.25   27.20
  -3  -1 -11  111.09   14.40
  -3  -1 -11  164.68   24.40
  -3  -1 -11  128.59    9.50
   3   1  11  127.09   13.30
   3   1  11  145.99   27.30
   3   1  11  126.59   15.00
   3  -2 -11   16.00   12.60
   3  -2 -11   12.40   16.80
   3  -2 -11   71.69   23.40
   3  -2 -11   45.10   10.50
  -3   2  11   27.40   10.90
   2  -2 -11   14.20    6.80
   2  -2 -11    9.90    3.50
   2  -2 -11   14.20    3.20
   2  -2 -11    8.20   12.30
   2  -2 -11    4.20    9.00
   1  -2 -11   16.00    8.60
   1  -2 -11   20.10    5.90
   1  -2 -11   20.70    7.60
   1  -2 -11   15.60    4.00
   0  -2 -11  374.36   26.10
   0  -2 -11  388.56   21.50
   0  -2 -11  388.66   25.40
  -1  -2 -11   62.99    7.10
  -1  -2 -11   45.00    7.60
  -1  -2 -11   61.89   14.60
   1   2  11   55.59   10.10
  -2  -2 -11    5.70   13.60
  -2  -2 -11   16.90    4.30
  -2  -2 -11   13.60    5.20
   2   2  11   21.20    5.10
   2   2  11   31.10    8.80
  -3  -2 -11    1.50   16.10
  -3  -2 -11    0.80    7.10
   3   2  11    4.40    6.30
   3   2  11   17.30   10.00
   3  -3 -11   -9.50    7.30
   3  -3 -11  -20.80   15.20
   3  -3 -11   -9.50   10.50
   3  -3 -11  -13.10    7.50
   3  -3 -11    7.90   19.00
  -3   3  11   -4.60    9.50
   2  -3 -11   14.50    6.40
   2  -3 -11   16.60    4.40
   2  -3 -11    2.10    8.30
   1  -3 -11    0.10    3.40
   1  -3 -11    9.40    7.70
   1  -3 -11   -0.80    4.90
   0  -3 -11    7.30   10.10
   0  -3 -11   13.80    7.10
   0  -3 -11    3.60    5.00
  -1  -3 -11    3.80   12.10
  -1  -3 -11   11.60    5.80
  -1  -3 -11    3.10    3.30
   1   3  11    1.20    7.70
  -2  -3 -11    7.10   14.30
  -2  -3 -11   -1.30    3.10
   2   3  11    4.60    7.70
  -3  -3 -11   11.30   14.00
  -3  -3 -11   21.50    7.40
   3   3  11    8.70    6.30
   3   3  11   34.10   10.90
   3  -4 -11   19.60   19.20
   3  -4 -11   15.80    9.30
   3  -4 -11    5.90   11.90
   3  -4 -11   -8.50   15.10
   3  -4 -11   12.90    8.70
  -3   4  11   35.60   11.40
   2  -4 -11   13.80    6.70
   2  -4 -11   32.90    6.10
   2  -4 -11   32.70   10.30
   2  -4 -11   12.90   12.20
  -2   4  11   34.00    9.00
   1  -4 -11   27.00    8.30
   1  -4 -11   27.20    6.30
   1  -4 -11   23.80    5.80
   0  -4 -11   80.79   14.80
   0  -4 -11   83.59   13.30
   0  -4 -11   76.19    9.30
   0  -4 -11   65.49    8.90
   0   4  11   59.99   12.70
  -1  -4 -11    0.30    3.10
  -1  -4 -11    8.60   13.40
  -1  -4 -11    4.40    5.50
   1   4  11   -1.50    8.00
  -2  -4 -11  134.19    9.70
  -2  -4 -11  143.19   10.80
  -2  -4 -11  119.49   22.90
  -2  -4 -11  115.99   10.60
   2   4  11  134.29   14.90
  -3  -4 -11  -14.70   18.20
  -3  -4 -11    6.90    6.20
   3   4  11    1.10    5.60
   3   4  11   -4.10    9.30
   3  -5 -11   43.90   10.30
   3  -5 -11   33.40   13.00
   3  -5 -11   39.00   10.80
   3  -5 -11   37.50   17.00
  -3   5  11   33.80   12.10
  -3   5  11   55.69    9.30
   2  -5 -11  122.39   12.10
   2  -5 -11   90.29   17.10
  -2   5  11   89.99   12.50
   1  -5 -11  150.88   12.50
   1  -5 -11  162.38   12.50
   1  -5 -11  119.29   19.80
   0  -5 -11    9.20    5.80
   0  -5 -11    4.80    4.50
   0  -5 -11    3.20    7.90
   0   5  11    9.80    9.80
  -1  -5 -11  229.08   18.10
  -1  -5 -11  207.98   16.40
  -1  -5 -11  185.68   23.70
  -1  -5 -11  213.38   13.10
   1   5  11  198.68   19.10
  -2  -5 -11   10.10   15.70
  -2  -5 -11   -4.30    3.30
  -2  -5 -11   -0.10    3.80
  -2  -5 -11    1.30    3.00
   2   5  11   -7.50    8.50
  -3  -5 -11   16.40   19.80
  -3  -5 -11    9.20    6.20
   3   5  11   12.90   10.60
   3   5  11   15.50    5.70
   3  -6 -11   40.40   18.20
   3  -6 -11   43.00   10.30
  -3   6  11   57.49   13.50
  -3   6  11   63.09   11.90
   2  -6 -11    0.10   12.00
   2  -6 -11    2.30    5.60
  -2   6  11   13.00    7.90
  -2   6  11   10.30    6.30
   1  -6 -11   53.99    7.90
   1  -6 -11   35.10   11.80
   1  -6 -11   69.49    9.50
   0  -6 -11   23.80    9.10
   0  -6 -11   19.20    5.50
   0  -6 -11   28.20    7.30
   0   6  11   25.80   11.50
  -1  -6 -11   34.90    7.50
  -1  -6 -11   37.10   16.00
  -1  -6 -11   41.70    9.50
  -1  -6 -11   37.00    4.90
   1   6  11   61.99   13.60
  -2  -6 -11  272.67   16.00
  -2  -6 -11  236.28   15.80
  -2  -6 -11  273.57   15.40
  -2  -6 -11  244.08   28.80
   2   6  11  248.98   21.60
  -3  -6 -11    2.60    6.10
  -3  -6 -11   15.40   20.00
   3   6  11   12.10   10.60
   3   6  11    7.60    5.30
   2  -7 -11  125.09   12.10
   2  -7 -11  130.29   13.00
   2  -7 -11   91.59   17.30
  -2   7  11  106.29   14.70
  -2   7  11   92.79   11.90
   1  -7 -11  350.46   21.70
   1  -7 -11  380.76   23.90
   1  -7 -11  359.56   29.60
   0  -7 -11   -1.30    7.80
   0  -7 -11    9.60    4.20
   0  -7 -11   -0.80    5.90
   0   7  11    5.00   10.00
  -1  -7 -11 1194.98   57.39
  -1  -7 -11 1150.88   61.19
   1   7  11 1137.09   64.49
  -2  -7 -11    7.90    4.50
  -2  -7 -11   15.00   17.70
  -2  -7 -11   12.20    3.40
  -2  -7 -11   14.70    4.60
   2   7  11   11.90   10.70
  -3  -7 -11   43.60   22.80
  -3  -7 -11   36.20    7.60
   3   7  11   50.09   16.10
   3   7  11   27.60    6.80
   2  -8 -11   25.40    8.40
   2  -8 -11    6.70    6.60
   2  -8 -11  -14.40   10.50
  -2   8  11    2.60    9.20
  -2   8  11    2.90    7.90
   1  -8 -11   67.69   11.60
   1  -8 -11   53.49    7.00
   1  -8 -11   47.10   12.20
   0  -8 -11   57.49    7.20
   0  -8 -11   57.49   10.60
   0  -8 -11   54.19   10.20
   0   8  11   52.09   13.80
  -1  -8 -11  197.48   15.80
  -1  -8 -11  184.68   11.10
  -1  -8 -11  169.18   16.90
   1   8  11  157.78   19.20
  -2  -8 -11  353.46   28.40
  -2  -8 -11  408.66   22.50
  -2  -8 -11  446.66   22.10
  -2  -8 -11  409.06   37.10
   2   8  11  356.66   30.20
  -3  -8 -11  -26.70   20.60
  -3  -8 -11    9.60    6.10
   3   8  11   -8.80   11.80
   2  -9 -11   91.09   17.50
   2  -9 -11  124.49   13.40
  -2   9  11  142.79   18.10
  -2   9  11  127.49   16.60
   1  -9 -11   20.00   10.40
   1  -9 -11   37.00   10.10
   1  -9 -11   10.20    5.10
   0  -9 -11   71.29   12.00
   0  -9 -11   79.09    7.70
   0  -9 -11   54.39   10.50
   0   9  11   69.19   16.30
  -1  -9 -11  573.14   35.30
  -1  -9 -11  544.75   27.90
  -1  -9 -11  582.64   33.40
  -1  -9 -11  584.64   29.20
   1   9  11  458.15   36.60
  -2  -9 -11   14.30    4.50
  -2  -9 -11   13.80    4.10
  -2  -9 -11   15.10    9.60
  -2  -9 -11    9.00   14.90
   2   9  11   10.50   13.00
  -3  -9 -11    1.10   12.90
  -3  -9 -11   -2.40   22.50
  -3  -9 -11   -3.70    5.90
   3   9  11    3.10   14.40
   2 -10 -11   11.50   13.40
   2 -10 -11    9.40    7.50
  -2  10  11    4.80   12.10
  -2  10  11   27.20   11.00
   1 -10 -11    3.00    9.60
   1 -10 -11   -0.30    4.80
  -1  10  11   -7.90   13.40
   0 -10 -11   10.20    9.20
   0 -10 -11    5.40    7.50
   0 -10 -11    3.10    3.30
   0  10  11   -6.30   12.60
  -1 -10 -11  123.39   16.30
  -1 -10 -11  109.09    7.40
  -1 -10 -11  113.09    8.00
  -1 -10 -11  118.09   14.00
   1  10  11  129.29   19.90
  -2 -10 -11   52.49   22.30
  -2 -10 -11   41.30   13.30
  -2 -10 -11   34.70    4.60
  -2 -10 -11   26.50    6.00
   2  10  11   48.00   16.80
   1 -11 -11   13.00    5.40
  -1  11  11   11.90   11.70
  -1  11  11   10.20   16.00
   0 -11 -11   32.60    4.60
   0 -11 -11   38.20   10.20
   0 -11 -11   43.80    5.20
   0  11  11   27.30   15.30
  -1 -11 -11   21.60    7.40
  -1 -11 -11   35.70   12.50
   1  11  11   31.40   15.90
  -2 -11 -11   81.69   16.50
  -2 -11 -11   85.59   12.30
   2  11  11   77.39   19.80
   0 -12 -11   28.10   13.00
   0 -12 -11   10.70    8.80
   0  12  11    4.80   14.90
  -1 -12 -11    5.50    7.70
  -1 -12 -11   16.10   12.00
   1  12  11   -3.00   14.40
   0   6 -12    3.40   10.20
   0   6 -12  -18.10    7.20
   0  -6  12  -23.00   11.40
   0  -6  12   -7.60   14.00
   1   5 -12   25.00   10.60
   1   5 -12   15.40    3.50
   1   5 -12    6.00    9.40
   1   5 -12   17.70   10.80
   1   5 -12   18.30    7.60
  -1  -5  12   13.60   11.80
   0   5 -12    4.30    9.80
   0   5 -12   11.70    7.30
   0  -5  12  -10.40   12.10
   0  -5  12   -1.10   11.50
  -1   5 -12   -2.30    8.90
   2   4 -12   -1.70   12.20
   2   4 -12    0.00   10.20
   2   4 -12   -8.90   10.40
   1   4 -12    8.70    9.90
   1   4 -12   20.40    9.60
   1   4 -12   16.40    6.30
   1   4 -12   24.50   10.10
   1   4 -12   13.80    2.70
  -1  -4  12    5.20   10.10
   0   4 -12    7.70    8.50
   0   4 -12    1.80    5.70
   0  -4  12   -1.70    9.10
   0  -4  12    3.00   11.80
  -1   4 -12   39.70    9.00
  -1   4 -12   36.70   10.50
   1  -4  12   26.40   11.80
   1  -4  12   40.00   17.70
   2   3 -12    7.60   11.00
   2   3 -12   20.60    9.90
   2   3 -12   26.40   14.20
   1   3 -12   27.60    9.70
   1   3 -12   17.50   10.00
   1   3 -12   12.40    9.20
  -1  -3  12    8.70    9.20
   0   3 -12   12.20    5.70
   0   3 -12   11.40    8.20
   0  -3  12   -2.80    8.80
   0  -3  12   19.90   11.00
  -1   3 -12  311.07   22.00
  -1   3 -12  343.07   25.50
  -1   3 -12  376.76   24.60
   1  -3  12  333.47   32.00
   1  -3  12  347.37   26.60
  -2   3 -12   51.29   10.30
  -2   3 -12   48.30    9.50
   2  -3  12   27.00   10.80
   2  -3  12   37.30   23.20
   2   2 -12   19.70   15.80
   2   2 -12    5.70   10.30
   2   2 -12   12.70    8.80
   1   2 -12  122.69   17.90
   1   2 -12   92.49   16.10
   1   2 -12  155.18   15.20
  -1  -2  12  119.59   17.10
   0   2 -12  281.67   18.90
   0   2 -12  313.57   23.80
   0   2 -12  318.97   19.30
   0  -2  12  268.27   23.10
  -1   2 -12  215.48   16.00
  -1   2 -12  262.07   19.70
  -1   2 -12  172.98   20.00
   1  -2  12  191.58   25.60
  -2   2 -12  208.08   17.40
  -2   2 -12  204.18   18.40
  -2   2 -12  230.48   21.50
   2  -2  12  156.28   29.50
   2   1 -12    5.70   15.50
   2   1 -12   12.00    8.20
   2   1 -12   -7.10    9.50
   1   1 -12  159.68   15.30
   1   1 -12  148.79   18.30
   1   1 -12  125.39   17.90
   0   1 -12    8.20    5.60
   0   1 -12    6.00    8.00
   0   1 -12    0.80    4.40
  -1   1 -12   -3.10    4.80
  -1   1 -12    9.90    6.90
  -1   1 -12   10.60    8.00
   1  -1  12    8.10   12.70
   1  -1  12   -3.50    5.70
  -2   1 -12   68.19   12.00
  -2   1 -12   62.99    9.60
   2  -1  12   40.10    8.50
   2  -1  12   66.59   21.30
   3   0 -12   52.59   22.70
   3   0 -12   29.00   10.50
   2   0 -12  104.49   14.20
   2   0 -12  150.98   22.80
   2   0 -12   93.79   15.20
   1   0 -12   55.99    4.50
   1   0 -12   46.40    4.40
   1   0 -12   31.00   10.30
   1   0 -12   49.50   12.70
   1   0 -12   48.20    9.60
   0   0 -12    2.50    7.00
   0   0 -12    6.80    6.70
   0   0 -12    7.70    7.50
   0   0 -12    7.00    4.00
  -1   0 -12  140.09   14.60
  -1   0 -12  139.19   11.70
  -1   0 -12  138.59   16.60
   1   0  12  134.39   13.90
  -2   0 -12   15.90   12.90
  -2   0 -12    9.30    6.60
  -2   0 -12   15.20    5.90
   2   0  12   15.90   17.40
   3  -1 -12   83.79   12.70
   3  -1 -12   73.69   24.90
   2  -1 -12   84.59   18.50
   2  -1 -12   76.99   11.20
   2  -1 -12   61.89   13.20
   1  -1 -12    8.60    3.20
   1  -1 -12   -0.30    7.70
   1  -1 -12    6.20    4.10
   1  -1 -12    2.70    6.20
   0  -1 -12    5.30    8.40
   0  -1 -12    8.00    7.40
  -1  -1 -12  427.36   23.80
  -1  -1 -12  379.56   25.60
  -1  -1 -12  430.96   30.00
  -2  -1 -12   85.89   18.00
  -2  -1 -12   83.49   10.80
  -2  -1 -12  102.99   11.10
  -3  -1 -12  155.68   24.40
  -3  -1 -12  122.69   10.40
  -3  -1 -12   98.79   13.40
   3   1  12  126.69   28.80
   3   1  12   98.99   13.70
   3   1  12  127.29   15.10
   3  -2 -12   36.30   23.10
   3  -2 -12   -3.70    8.70
  -3   2  12    6.20   11.50
   2  -2 -12  133.99   14.20
   2  -2 -12  108.69   19.30
   2  -2 -12  112.79   20.60
   1  -2 -12  104.19   12.10
   1  -2 -12  121.69   17.80
   1  -2 -12  112.99    8.70
   1  -2 -12  125.79   12.80
   0  -2 -12   55.69   12.30
   0  -2 -12   43.90    9.40
   0  -2 -12   49.90    6.90
   0  -2 -12   48.50    8.40
  -1  -2 -12    8.70   12.60
  -1  -2 -12   -3.10    5.30
   1   2  12   -0.60    7.20
  -2  -2 -12   -2.40    5.20
  -2  -2 -12    3.50    4.20
  -2  -2 -12   -8.90   14.20
   2   2  12    9.60    7.60
  -3  -2 -12   34.70   17.00
  -3  -2 -12   41.50    9.80
   3   2  12   30.30    8.30
   3   2  12   48.40   12.00
   3  -3 -12   -8.10   12.60
   3  -3 -12   16.40   22.70
   3  -3 -12   -3.20    5.70
   3  -3 -12    1.50    9.10
   3  -3 -12  -31.40   16.10
  -3   3  12   20.00   11.90
   2  -3 -12    8.30    3.90
   2  -3 -12    0.20    6.30
   2  -3 -12   -2.10    9.30
   1  -3 -12   52.09    7.20
   1  -3 -12   54.39   10.30
   1  -3 -12   53.89   10.70
   0  -3 -12   37.30    5.60
   0  -3 -12   37.60   11.90
   0  -3 -12   45.10    9.30
   0  -3 -12   35.20    7.40
  -1  -3 -12   38.10   14.90
  -1  -3 -12   39.10    6.00
  -1  -3 -12   32.80    7.30
   1   3  12   38.90   10.00
  -2  -3 -12   22.30    6.20
  -2  -3 -12   34.70   16.80
  -2  -3 -12   20.00    4.90
   2   3  12   48.00   10.70
  -3  -3 -12  305.67   20.70
  -3  -3 -12  256.37   32.70
   3   3  12  286.37   19.80
   3   3  12  288.17   22.80
   3  -4 -12  -30.60   16.30
   3  -4 -12   -5.70    8.20
   3  -4 -12  -14.50    9.00
   3  -4 -12   -9.50   11.90
  -3   4  12   19.50   12.10
   2  -4 -12   20.40    7.40
   2  -4 -12   -5.60   12.30
   2  -4 -12   16.90    9.50
   1  -4 -12    6.00    7.80
   1  -4 -12   14.30    6.30
   1  -4 -12    3.70    4.60
   0  -4 -12    8.90    7.00
   0  -4 -12    6.70   11.60
   0  -4 -12    4.80    5.60
   0  -4 -12    4.90    5.40
  -1  -4 -12   76.69    7.90
  -1  -4 -12   69.69   11.90
  -1  -4 -12   98.79   18.50
   1   4  12   93.39   13.40
  -2  -4 -12   25.90   16.00
  -2  -4 -12   28.90    6.10
  -2  -4 -12   17.70    4.60
  -2  -4 -12   21.40    5.80
   2   4  12   24.70    9.40
  -3  -4 -12   31.40   21.10
  -3  -4 -12   40.40    8.40
   3   4  12   37.20    8.30
   3   4  12   36.80   12.30
   2  -5 -12   45.10    9.00
   2  -5 -12   29.90   15.10
   2  -5 -12   30.40   10.90
   1  -5 -12    7.20    7.60
   1  -5 -12    5.50    5.20
   1  -5 -12   11.70    5.90
   1  -5 -12   -1.60    9.50
   0  -5 -12    3.70   10.80
   0  -5 -12    5.10    5.30
   0  -5 -12    3.80    5.80
   0  -5 -12    9.60    9.30
   0  -5 -12    6.10    7.10
   0   5  12    9.40   10.70
  -1  -5 -12   -1.40    3.50
  -1  -5 -12   -1.00   12.30
  -1  -5 -12   -3.60    5.70
  -1  -5 -12   -7.30    6.10
   1   5  12    1.10    8.50
  -2  -5 -12   11.70   16.70
  -2  -5 -12    7.10    4.10
  -2  -5 -12    2.20    4.10
  -2  -5 -12   16.00    5.30
   2   5  12    5.80    9.50
  -3  -5 -12  186.18   16.30
  -3  -5 -12  182.98   30.90
   3   5  12  206.38   15.50
   3   5  12  199.58   20.50
   2  -6 -12   -3.70   12.90
   2  -6 -12   30.70    7.70
   2  -6 -12   12.00    7.00
   1  -6 -12   29.10   11.80
   1  -6 -12   54.49    9.10
   1  -6 -12   45.10    7.80
   0  -6 -12   15.20    9.20
   0  -6 -12   29.30    7.70
   0  -6 -12   26.80    6.30
   0   6  12   22.10   11.10
  -1  -6 -12   85.59   12.30
  -1  -6 -12  103.29   23.00
  -1  -6 -12   81.29   13.50
  -1  -6 -12   89.79   20.00
  -1  -6 -12   95.29    7.80
   1   6  12   86.39   14.90
  -2  -6 -12  435.86   24.00
  -2  -6 -12  414.86   24.00
  -2  -6 -12  437.26   37.70
  -2  -6 -12  438.56   24.20
   2   6  12  410.86   30.30
  -3  -6 -12   15.20    7.30
  -3  -6 -12   20.00   21.70
   3   6  12   13.60   12.50
   3   6  12   20.30    6.40
   2  -7 -12   25.10    8.00
   2  -7 -12   10.30   13.80
  -2   7  12   18.50    9.50
   1  -7 -12   13.70   11.50
   1  -7 -12   16.50    5.90
   1  -7 -12   29.70    8.10
   0  -7 -12  124.09   10.80
   0  -7 -12   81.39   13.90
   0  -7 -12  132.59   12.90
   0   7  12   91.69   15.40
  -1  -7 -12  212.48   18.00
  -1  -7 -12  206.18   12.80
  -1  -7 -12  183.18   24.50
  -1  -7 -12  217.78   18.20
   1   7  12  178.78   19.50
  -2  -7 -12   20.00    5.30
  -2  -7 -12   31.10   20.00
  -2  -7 -12   18.00    5.60
   2   7  12   32.30   13.00
  -3  -7 -12  166.68   31.30
   3   7  12  176.68   22.10
   2  -8 -12    3.40   13.20
   2  -8 -12    9.40    7.00
  -2   8  12    0.10   10.60
  -2   8  12   -0.30    9.00
   1  -8 -12   14.70   10.80
   1  -8 -12   20.10    6.20
   1  -8 -12   13.80   12.80
   0  -8 -12   56.19    7.40
   0  -8 -12   62.69   11.00
   0  -8 -12   43.30   12.30
   0   8  12   46.40   14.10
  -1  -8 -12   12.20    6.90
  -1  -8 -12   21.40    9.10
  -1  -8 -12   22.70    5.50
  -1  -8 -12   15.50    4.00
   1   8  12   23.50   12.80
  -2  -8 -12  108.39   17.10
  -2  -8 -12  152.08   11.20
  -2  -8 -12  135.99   12.90
  -2  -8 -12  154.88   28.30
  -2  -8 -12  161.48   11.60
   2   8  12  112.29   19.20
  -3  -8 -12   -9.80    6.10
  -3  -8 -12  -10.50   23.60
   3   8  12    9.30   14.10
   2  -9 -12    1.20   13.50
   2  -9 -12    5.60    8.00
  -2   9  12    2.50    9.50
   1  -9 -12   11.30   10.80
   1  -9 -12   25.70    9.70
   1  -9 -12    9.90    5.30
   0  -9 -12   49.90   11.00
   0  -9 -12   68.69   12.40
   0  -9 -12   60.29    8.20
   0   9  12   69.89   16.60
  -1  -9 -12   11.10    6.40
  -1  -9 -12    6.20    5.00
  -1  -9 -12    3.60    8.70
  -1  -9 -12   13.40    3.50
   1   9  12   12.20   12.90
  -2  -9 -12   40.40    6.00
  -2  -9 -12   60.19   13.90
  -2  -9 -12   56.69    9.00
  -2  -9 -12   44.10   21.90
   2   9  12   57.59   16.50
   1 -10 -12   58.99   14.30
   1 -10 -12   76.19   10.10
   0 -10 -12   -3.40    4.00
   0 -10 -12    0.10    3.30
   0 -10 -12   21.70    9.90
   0 -10 -12    6.40    8.00
   0  10  12   -1.70   12.90
  -1 -10 -12   82.39    8.60
  -1 -10 -12  119.99   16.20
  -1 -10 -12   89.99    7.30
  -1 -10 -12   94.79   15.30
   1  10  12  114.89   21.30
  -2 -10 -12  212.68   22.80
  -2 -10 -12  197.68   13.20
  -2 -10 -12  252.17   16.70
  -2 -10 -12  215.28   33.10
   2  10  12  181.88   24.40
   1 -11 -12  205.28   15.90
   1 -11 -12  227.08   25.60
   1 -11 -12  263.57   23.40
   0 -11 -12   -1.20    3.60
   0 -11 -12    4.70    9.00
   0 -11 -12   12.00   10.00
   0 -11 -12    5.30    3.30
   0  11  12    0.00   14.80
  -1 -11 -12   26.30    3.40
  -1 -11 -12   32.00    4.20
  -1 -11 -12   47.20   13.20
  -1 -11 -12   26.20    7.70
   1  11  12   14.30   15.70
  -2 -11 -12   46.20   25.70
  -2 -11 -12   51.89   15.10
  -2 -11 -12   69.39   12.10
  -2 -11 -12   46.70    6.10
   0 -12 -12   16.00   10.60
   0 -12 -12    3.40    2.90
   0 -12 -12    7.90    3.00
  -1 -12 -12   23.00   13.20
  -1 -12 -12   23.40    8.70
   0   5 -13   24.50   11.60
   0   5 -13   23.90    8.80
   0  -5  13   15.90   13.60
   0  -5  13   15.70   14.80
   1   4 -13   70.29   12.60
   1   4 -13   95.39   14.10
   1   4 -13   76.69   10.60
   1   4 -13   63.79   13.70
  -1  -4  13   56.49   14.30
   0   4 -13   -4.80    6.50
   0   4 -13    6.90    9.60
   0  -4  13   11.10   12.20
   0  -4  13  -11.90   10.60
  -1   4 -13   43.90   12.00
  -1   4 -13   46.60   10.60
   1  -4  13   27.70   12.80
   1  -4  13   40.30   19.80
   2   3 -13  156.78   19.30
   2   3 -13  116.79   19.70
   2   3 -13  102.09   17.80
   1   3 -13    9.10    6.80
   1   3 -13  -10.20    9.80
   1   3 -13   21.70   10.50
   1   3 -13   -3.00    9.50
  -1  -3  13   11.00   10.20
   0   3 -13   14.80    9.40
   0   3 -13   22.60    7.00
   0  -3  13   13.40   11.50
   0  -3  13   16.90   10.30
  -1   3 -13  328.87   24.80
  -1   3 -13  269.27   20.50
   1  -3  13  282.97   31.30
   1  -3  13  230.88   26.30
   2   2 -13   14.30   10.30
   2   2 -13   23.60   16.10
   1   2 -13   28.60    9.60
   1   2 -13    7.90   11.60
   1   2 -13   13.10    9.50
   0   2 -13   34.70   10.10
   0   2 -13   62.59    8.40
   0   2 -13   38.30    6.90
   0  -2  13   44.10   10.70
  -1   2 -13   84.29   10.80
  -1   2 -13   95.79   14.50
   1  -2  13   96.19   20.30
  -2   2 -13  151.08   16.00
   2  -2  13  134.99   27.30
   2  -2  13  110.39   18.60
   2   1 -13  -13.10   10.60
   2   1 -13    1.90    9.50
   2   1 -13   14.90   15.70
   1   1 -13   38.40   11.30
   1   1 -13   41.40   14.30
   1   1 -13   43.10   10.30
   0   1 -13   43.70   10.40
   0   1 -13   56.69    8.10
   0   1 -13   63.79    9.40
   0  -1  13   37.10    9.70
  -1   1 -13   49.99   11.10
  -1   1 -13   71.29    9.60
  -2   1 -13   48.80    9.10
  -2   1 -13   42.30    9.60
   2  -1  13   56.39   20.90
   2  -1  13   40.30    9.50
   2   0 -13    3.20    8.90
   2   0 -13   10.80   16.50
   2   0 -13   -2.40   11.10
   1   0 -13   20.10    8.50
   1   0 -13   31.90   13.20
   1   0 -13   41.40    3.70
   1   0 -13   28.70    4.00
   1   0 -13    4.10    9.60
   0   0 -13   -3.00    7.30
   0   0 -13   -2.20    4.60
   0   0 -13    1.70    6.40
   0   0 -13   -8.10    7.50
  -1   0 -13   14.20    5.50
  -1   0 -13    6.80    6.50
  -1   0 -13    0.10    9.00
  -2   0 -13   60.19   15.40
  -2   0 -13   42.00    8.20
  -2   0 -13   36.80    8.70
   2   0  13   44.50   19.50
   2  -1 -13    2.10    8.10
   2  -1 -13   -3.10   10.70
   2  -1 -13   30.20   16.40
   1  -1 -13   37.20    9.00
   1  -1 -13   46.10    5.80
   1  -1 -13   28.30   10.90
   1  -1 -13   39.10    5.40
   1  -1 -13   47.30   12.20
   0  -1 -13    7.90    8.20
   0  -1 -13    7.20    5.00
  -1  -1 -13   67.79   14.20
  -1  -1 -13   44.40    8.40
  -2  -1 -13  133.79   20.90
  -2  -1 -13  113.19   12.90
  -2  -1 -13  113.79   12.90
   2  -2 -13   35.30   12.90
   2  -2 -13   44.20   10.20
   2  -2 -13   40.90   16.40
   1  -2 -13  144.19   10.10
   1  -2 -13  124.99   12.70
   1  -2 -13  114.19   18.90
   1  -2 -13  167.58   15.10
   0  -2 -13    0.70    4.00
   0  -2 -13    1.20    7.50
   0  -2 -13    7.50    9.60
   0  -2 -13    3.30    6.10
  -1  -2 -13   -2.70    4.50
  -1  -2 -13   -5.40    5.60
  -1  -2 -13    9.90   12.90
  -2  -2 -13   95.39   11.20
  -2  -2 -13   87.39   20.10
  -2  -2 -13   87.19   11.30
   2   2  13   77.49   12.40
   2  -3 -13   -1.00   13.20
   2  -3 -13   24.70    8.90
   2  -3 -13   13.30    5.40
   2  -3 -13    5.00   10.50
   1  -3 -13   11.80    8.80
   1  -3 -13   15.80    5.10
   1  -3 -13   16.70    7.50
   1  -3 -13    7.80    9.20
   0  -3 -13   13.90    5.90
   0  -3 -13   16.10    5.40
   0  -3 -13   13.00    8.20
   0  -3 -13   18.40   11.40
  -1  -3 -13   28.70    5.80
  -1  -3 -13   21.80   14.10
  -1  -3 -13   21.70    7.40
   1   3  13   23.50    9.90
  -2  -3 -13   97.19   21.00
  -2  -3 -13  104.69   12.00
  -2  -3 -13   84.89   10.60
   2   3  13   93.79   13.40
  -3  -3 -13   64.39   11.00
   3   3  13   54.39    9.80
   3   3  13   56.19   12.80
   2  -4 -13   25.20    8.50
   2  -4 -13   -0.40   13.90
   2  -4 -13    3.70   10.70
   1  -4 -13  147.59   17.10
   1  -4 -13  172.88   15.00
   1  -4 -13  175.68   19.70
   1  -4 -13  164.68   12.80
   0  -4 -13  171.28   14.80
   0  -4 -13  163.48   18.90
   0  -4 -13  157.38   17.90
   0  -4 -13  152.18   13.60
   0  -4 -13  161.48   11.80
  -1  -4 -13   36.60    8.50
  -1  -4 -13   45.20    7.40
  -1  -4 -13   47.70   16.40
   1   4  13   41.50   10.80
  -2  -4 -13    5.50    5.40
  -2  -4 -13   -6.30    5.80
  -2  -4 -13   -3.60    4.40
  -2  -4 -13   11.30   16.20
   2   4  13    3.60    8.70
  -3  -4 -13    8.50    8.50
  -3  -4 -13    0.50   20.40
   3   4  13   12.40   10.80
   2  -5 -13  -15.10   13.00
   2  -5 -13    0.40    9.90
   2  -5 -13    7.60    7.90
   1  -5 -13    2.10    6.10
   1  -5 -13  -12.90   11.20
   1  -5 -13    5.80    5.80
   1  -5 -13    3.80    8.20
   0  -5 -13   27.60   11.10
   0  -5 -13   47.50    8.80
   0  -5 -13   38.60    8.00
   0  -5 -13   33.60   13.60
   0  -5 -13   38.50    5.80
   0  -5 -13   32.00    9.40
  -1  -5 -13   78.59    8.30
  -1  -5 -13   52.79   10.60
  -1  -5 -13   58.39    9.70
   1   5  13   77.09   13.80
  -2  -5 -13   -5.50    4.30
  -2  -5 -13    4.00   17.80
  -2  -5 -13   -5.10    5.20
  -2  -5 -13    3.20    5.00
   2   5  13    3.90    9.80
  -3  -5 -13  165.58   31.60
   3   5  13  188.68   20.40
   2  -6 -13   -6.10    7.30
   2  -6 -13    0.50    9.60
   2  -6 -13  -18.50   12.10
   1  -6 -13  101.09   11.70
   1  -6 -13   89.59   11.20
   1  -6 -13   68.99   15.50
   0  -6 -13    9.80   10.30
   0  -6 -13   13.80    8.30
   0  -6 -13   15.50    7.00
   0  -6 -13    7.70    6.20
   0   6  13   13.70   11.70
  -1  -6 -13   -4.40   14.80
  -1  -6 -13    4.30    4.10
  -1  -6 -13   -6.10    6.80
  -1  -6 -13   -2.50    7.50
  -1  -6 -13   -3.10    6.20
   1   6  13  -10.20    8.50
  -2  -6 -13  397.36   22.90
  -2  -6 -13  416.86   37.20
  -2  -6 -13  356.86   22.50
  -2  -6 -13  358.46   24.20
   2   6  13  387.46   28.40
   2  -7 -13   22.50    8.20
   2  -7 -13    8.80   15.30
   1  -7 -13   15.30    7.70
   1  -7 -13    6.00   11.80
   1  -7 -13   26.20    8.60
   0  -7 -13    3.20    6.70
   0  -7 -13   17.70    6.40
   0  -7 -13   -0.40    8.60
   0   7  13   -9.20    9.70
  -1  -7 -13   -2.80    8.10
  -1  -7 -13    8.20    4.10
  -1  -7 -13    1.80   15.80
  -1  -7 -13    9.30    7.00
  -1  -7 -13    7.10    7.60
   1   7  13    1.70   10.70
  -2  -7 -13    4.20    5.70
  -2  -7 -13    1.60    5.20
  -2  -7 -13    0.00   17.70
  -2  -7 -13   11.20    4.50
   2   7  13    8.50   11.80
   2  -8 -13   20.50    8.60
   1  -8 -13    1.30   11.40
   1  -8 -13   -5.90   11.10
   1  -8 -13   13.50    8.20
   0  -8 -13   19.80    4.70
   0  -8 -13   25.90   10.60
   0  -8 -13   33.50    9.40
   0  -8 -13   17.80    6.00
   0   8  13   16.00   11.80
  -1  -8 -13   -4.10   15.90
  -1  -8 -13    3.10    3.80
  -1  -8 -13    2.60    6.50
  -1  -8 -13   -8.10    5.40
  -1  -8 -13   -0.70    7.70
   1   8  13   -5.00    9.80
  -2  -8 -13   65.29   23.30
  -2  -8 -13   29.10   12.90
  -2  -8 -13   67.49    9.20
  -2  -8 -13   59.89    7.60
   2   8  13   68.99   16.50
   1  -9 -13   32.10   12.50
   1  -9 -13   59.79   12.20
   0  -9 -13   53.49   12.50
   0  -9 -13   54.19    7.30
   0  -9 -13   62.89   12.30
   0  -9 -13   63.19    8.20
   0   9  13   38.40   15.20
  -1  -9 -13    0.70    3.50
  -1  -9 -13   19.60    7.80
  -1  -9 -13    4.60    5.50
  -1  -9 -13    8.90    9.00
   1   9  13   11.90   13.80
  -2  -9 -13   24.30   12.90
  -2  -9 -13   25.20    5.70
  -2  -9 -13    8.90    6.70
  -2  -9 -13   55.39   22.80
  -2  -9 -13   19.90    5.60
   2   9  13   34.30   14.50
   1 -10 -13    0.70   11.00
   1 -10 -13    0.00    6.30
   1 -10 -13   36.20   11.60
   0 -10 -13  108.09   15.50
   0 -10 -13   86.19   10.20
   0 -10 -13   85.59   14.60
   0  10  13  110.49   21.00
  -1 -10 -13   -1.00    4.90
  -1 -10 -13   19.90   11.00
  -1 -10 -13    4.80    3.80
  -1 -10 -13    5.60    7.40
   1  10  13    8.60   13.60
  -2 -10 -13   11.40    5.60
  -2 -10 -13   24.40   12.40
  -2 -10 -13    3.00    4.70
  -2 -10 -13  -19.00   19.10
  -2 -10 -13   15.50    6.70
   2  10  13    0.20   14.80
   0 -11 -13   11.80    4.10
   0 -11 -13    9.60    5.00
   0 -11 -13   33.90   12.40
   0 -11 -13   22.80   10.50
   0  11  13    7.30   15.20
  -1 -11 -13   49.10    9.80
  -1 -11 -13   28.40    5.20
  -1 -11 -13   45.30    5.80
  -1 -11 -13   47.80   14.30
   1  11  13   38.10   18.20
   1   3 -14    8.30   11.70
   1   3 -14   25.80    8.50
   1   3 -14   17.90   12.50
   1   3 -14    1.30   10.40
   0   3 -14   90.89   11.60
   0   3 -14   81.39   14.50
   0  -3  14   74.99   14.50
  -1   3 -14   11.50   10.10
   1  -3  14   13.40   18.50
   1   2 -14    3.20    6.90
   1   2 -14  -16.40   11.00
   1   2 -14   10.70   10.90
   1   2 -14   -3.60   10.70
   0  -2  14    9.30   10.00
  -1   2 -14   -3.30    7.20
  -1   2 -14    9.00    9.30
   1  -2  14    8.70   15.60
   1  -2  14    5.60    9.90
   2   1 -14   56.09   19.60
   2   1 -14   21.10   13.40
   2   1 -14   53.59   12.50
   1   1 -14   15.10   13.90
   1   1 -14   13.80   10.60
   1   1 -14   38.50   11.20
   0   1 -14   21.60    7.10
   0   1 -14   41.10   10.50
  -1   1 -14    5.60    6.70
  -1   1 -14   -9.70    7.60
   1  -1  14    6.60    8.30
   2   0 -14   29.90   19.70
   2   0 -14   30.80   14.00
   2   0 -14   13.20   10.00
   1   0 -14   49.10    4.60
   1   0 -14   29.00   11.60
   1   0 -14   36.50   11.20
   1   0 -14   45.90   15.30
   0   0 -14   27.10    7.70
   0   0 -14    7.20    6.00
   0   0 -14  -13.60    9.40
   0   0 -14   12.00    8.90
  -1   0 -14   10.60   10.00
  -1   0 -14   -0.50    7.20
  -1   0 -14    4.00    6.10
  -2   0 -14   12.10    8.00
  -2   0 -14   48.50   14.70
  -2   0 -14   12.20    7.60
   2  -1 -14   19.20   18.60
   2  -1 -14   -4.70    9.10
   1  -1 -14    6.30    8.60
   1  -1 -14  -15.10    9.40
   1  -1 -14    3.00    3.70
   1  -1 -14    6.00    3.10
   1  -1 -14    1.60   10.80
   0  -1 -14   24.90    6.50
   0  -1 -14   31.50   10.10
   0  -1 -14   20.90    8.50
   0  -1 -14   14.10    9.50
  -1  -1 -14   28.20   15.40
  -1  -1 -14   24.50    6.70
  -1  -1 -14    8.20    7.40
  -2  -1 -14   28.10   15.20
  -2  -1 -14   -2.60    6.20
  -2  -1 -14    0.20    7.70
   2  -2 -14   -8.90    8.20
   2  -2 -14  -21.50   11.10
   2  -2 -14    9.80   15.90
   1  -2 -14   14.60    4.80
   1  -2 -14    1.30    9.90
   1  -2 -14    9.30    6.20
   1  -2 -14   24.40    9.20
   0  -2 -14   65.79    8.40
   0  -2 -14   59.69   11.00
   0  -2 -14   56.29   11.90
   0  -2 -14   69.39   13.80
  -1  -2 -14    4.00    5.50
  -1  -2 -14    7.40    7.10
  -2  -2 -14    7.30    7.50
  -2  -2 -14    1.70    5.70
  -2  -2 -14    0.10   15.30
   2   2  14   12.80    9.40
   2  -3 -14  -18.20   11.40
   2  -3 -14    5.40   14.60
   2  -3 -14    3.10    8.10
   1  -3 -14   35.00    9.60
   1  -3 -14   31.30    6.50
   1  -3 -14    5.30    9.60
   1  -3 -14   20.00    9.20
   0  -3 -14    2.60    8.80
   0  -3 -14   12.60   12.20
   0  -3 -14    8.10    4.90
   0  -3 -14   13.40    7.80
   0  -3 -14   12.00    6.70
  -1  -3 -14  -13.80   14.20
  -1  -3 -14   -2.10    5.00
  -1  -3 -14   -7.90    6.90
  -2  -3 -14   -3.50    6.40
  -2  -3 -14   -1.00    5.40
  -2  -3 -14    3.80   16.60
   2   3  14   11.50    9.00
   2  -4 -14  -12.50   10.20
   2  -4 -14   -1.90    8.70
   2  -4 -14  -13.00   15.40
   2  -4 -14    0.90    7.50
   1  -4 -14   26.30    8.50
   1  -4 -14   13.10   10.30
   1  -4 -14   21.30   10.90
   1  -4 -14   35.90    7.40
   0  -4 -14  123.59   10.80
   0  -4 -14  121.89   14.60
   0  -4 -14  129.49   20.30
   0  -4 -14  121.79   12.60
   0  -4 -14  107.09   18.00
  -1  -4 -14   84.49   14.80
  -1  -4 -14  117.89   10.70
  -1  -4 -14  118.29   22.00
   1   4  14  119.89   15.40
  -2  -4 -14   12.80    8.10
  -2  -4 -14   26.40    7.10
  -2  -4 -14   13.50    5.90
  -2  -4 -14   25.30   18.80
   2   4  14   32.50   10.90
   2  -5 -14   14.40    9.70
   2  -5 -14   -6.50   10.90
   2  -5 -14   -0.30   15.40
   1  -5 -14   21.30    7.30
   1  -5 -14   10.90    7.50
   1  -5 -14    7.90   10.80
   1  -5 -14   -1.90   12.40
   1  -5 -14    9.70   10.00
   0  -5 -14  136.19   14.10
   0  -5 -14   98.89   17.90
   0  -5 -14  158.48   14.30
   0  -5 -14  136.19   11.10
   0  -5 -14  128.39   21.40
  -1  -5 -14   13.50    7.90
  -1  -5 -14   15.50   16.00
  -1  -5 -14    7.90    9.70
  -1  -5 -14   17.70    5.60
   1   5  14   36.70   11.60
  -2  -5 -14   61.39   21.80
  -2  -5 -14   42.70    7.80
  -2  -5 -14   36.60    8.30
  -2  -5 -14   40.20    7.10
   2   5  14   74.19   14.40
   2  -6 -14   -7.90   11.30
   2  -6 -14  -11.00   15.60
   2  -6 -14    2.50    8.70
   1  -6 -14   30.60   14.50
   1  -6 -14   52.89   12.20
   1  -6 -14   43.70    8.80
   0  -6 -14   74.59   12.50
   0  -6 -14  106.39   19.60
   0  -6 -14  103.89   12.30
   0  -6 -14   67.39   15.10
   0   6  14  126.09   17.70
  -1  -6 -14  157.98   17.20
  -1  -6 -14  177.58   17.50
  -1  -6 -14  146.29   19.70
  -1  -6 -14  165.38   25.50
   1   6  14  160.18   17.80
  -2  -6 -14   37.40    7.00
  -2  -6 -14   48.40   21.80
  -2  -6 -14   40.90    8.10
  -2  -6 -14   25.80    6.80
   2   6  14   57.49   14.30
   1  -7 -14  -20.00   11.20
   1  -7 -14   -3.50    7.00
   1  -7 -14   21.70    8.50
   0  -7 -14  -10.10    9.80
   0  -7 -14   -0.50    4.40
   0  -7 -14    3.30    6.50
   0  -7 -14    9.40    8.40
   0  -7 -14    1.80    6.70
   0   7  14    4.30   11.20
  -1  -7 -14   24.00    8.80
  -1  -7 -14   51.89   12.20
  -1  -7 -14   48.40   18.40
  -1  -7 -14   48.30    9.40
  -1  -7 -14   45.30    6.70
  -1  -7 -14   34.90   10.00
   1   7  14   49.00   14.00
  -2  -7 -14   14.10    5.50
  -2  -7 -14  -14.20   18.90
  -2  -7 -14    2.90    5.80
   2   7  14   23.50   12.40
   1  -8 -14   25.40    8.00
   1  -8 -14   25.80   14.10
   0  -8 -14   60.29    8.30
   0  -8 -14   65.59   13.40
   0  -8 -14   78.39    9.80
   0  -8 -14   78.39   13.10
   0   8  14   61.29   16.80
  -1  -8 -14   14.20    7.00
  -1  -8 -14   13.60    8.20
  -1  -8 -14   12.30    8.00
  -1  -8 -14   15.60    9.40
  -1  -8 -14   27.00   17.90
  -1  -8 -14   23.60    5.60
   1   8  14   15.90   12.80
  -2  -8 -14  113.99   12.60
  -2  -8 -14   83.89   10.90
  -2  -8 -14  105.29   26.60
  -2  -8 -14  136.19   12.40
  -2  -8 -14  116.69   19.30
   2   8  14  112.19   20.50
   1  -9 -14   49.30   12.10
   1  -9 -14   22.70   13.60
   1  -9 -14   24.10    7.80
   0  -9 -14   92.29    9.30
   0  -9 -14  115.39   16.00
   0  -9 -14   62.19   14.10
   0  -9 -14   84.09   10.40
   0   9  14   74.69   18.30
  -1  -9 -14   51.29   12.60
  -1  -9 -14   51.39    8.70
  -1  -9 -14   68.29   22.40
  -1  -9 -14   50.59    6.50
  -1  -9 -14   50.69   12.20
   1   9  14   40.90   16.20
  -2  -9 -14   21.50   13.50
  -2  -9 -14   -6.80    5.50
  -2  -9 -14    8.40    5.60
  -2  -9 -14    0.00   22.30
   2   9  14    3.80   13.30
   0 -10 -14    0.60    4.50
   0 -10 -14    2.90   10.40
   0 -10 -14   24.60   11.50
   0 -10 -14   11.90    6.50
   0  10  14    8.00   15.60
  -1 -10 -14   16.60   12.00
  -1 -10 -14    7.80    8.20
  -1 -10 -14   -2.40    4.20
  -1 -10 -14   12.50    6.50
   1  10  14   -7.70   14.80
   0 -11 -14    5.70    4.60
   0 -11 -14   10.30    5.90
   0 -11 -14   27.70   13.10
   0 -11 -14   21.80   11.20
  -1 -11 -14   29.60    9.70
  -1 -11 -14   24.00   14.50
  -1 -11 -14   25.60    4.90
  -1 -11 -14   16.90    5.80
   1   2 -15   -6.70   11.80
   1   2 -15   13.40   12.40
   1   2 -15   15.60    8.40
   0   2 -15   28.00   13.20
   0   2 -15    2.50    8.10
   0   2 -15   -0.90   10.50
   1   1 -15  -19.00   13.40
   1   1 -15  -15.20   10.60
   1   1 -15   31.50    8.00
   1   1 -15   19.00   12.10
   0   1 -15    4.20    7.30
   0   1 -15    0.30    9.20
   0   1 -15   12.00   11.80
   1   0 -15   21.00   10.50
   1   0 -15   -9.70   14.00
   1   0 -15  -22.00   10.30
   0   0 -15   61.29   12.50
   0   0 -15   49.10   13.50
   0   0 -15   99.49   12.10
  -1   0 -15   36.70   11.50
  -1   0 -15   -0.10    7.40
  -1   0 -15   -4.50    7.90
   1  -1 -15   -5.70   10.90
   1  -1 -15    3.90   10.10
   1  -1 -15    7.60   12.80
   0  -1 -15    9.40    9.00
   0  -1 -15    3.10    6.00
   0  -1 -15   -5.40    9.30
   0  -1 -15   21.30   10.40
  -1  -1 -15   -5.80    6.30
  -1  -1 -15   25.60   13.20
  -1  -1 -15   -8.00    8.00
   2  -2 -15    5.80   16.60
   2  -2 -15   10.90   11.30
   2  -2 -15  -23.30   12.50
   1  -2 -15  -20.40   10.00
   1  -2 -15    4.60   10.40
   1  -2 -15   10.00    4.80
   1  -2 -15   10.70    5.50
   0  -2 -15    0.00    5.40
   0  -2 -15   -2.00   10.50
   0  -2 -15   -5.10    8.80
   0  -2 -15   -2.90    8.90
  -1  -2 -15   30.40    7.30
  -1  -2 -15   11.20    8.30
  -1  -2 -15   24.60   14.70
  -2  -2 -15   43.50   10.10
  -2  -2 -15   23.90    7.60
  -2  -2 -15   46.80   18.30
   2  -3 -15   -9.60   13.80
   2  -3 -15   24.50   11.20
   2  -3 -15  -12.60   15.30
   1  -3 -15    0.90    8.80
   1  -3 -15   -6.60   10.90
   1  -3 -15   22.10    9.90
   1  -3 -15   15.00    6.00
   0  -3 -15    9.80    5.90
   0  -3 -15    5.90    6.90
   0  -3 -15   -3.10    9.20
   0  -3 -15   19.10   12.40
   0  -3 -15    8.60    9.40
  -1  -3 -15   73.49   18.20
  -1  -3 -15   52.39    8.30
  -1  -3 -15   34.90    9.70
  -2  -3 -15    4.40    6.70
  -2  -3 -15   18.30    8.70
  -2  -3 -15   18.70   19.00
   2   3  15   12.70   10.40
   2  -4 -15  -25.90   12.60
   2  -4 -15   -5.00    6.80
   2  -4 -15    0.10   10.30
   1  -4 -15   24.70   12.00
   1  -4 -15   19.10    9.00
   1  -4 -15   12.30   11.20
   0  -4 -15  -11.40    5.00
   0  -4 -15    8.60    8.30
   0  -4 -15   -8.10    8.90
   0  -4 -15   -2.10   12.80
   0  -4 -15   -4.30    6.30
  -1  -4 -15   37.80    7.50
  -1  -4 -15   21.00    9.40
  -1  -4 -15   27.30   17.90
   1   4  15   49.90   12.50
  -2  -4 -15   70.19   12.50
  -2  -4 -15   73.89   22.60
  -2  -4 -15   80.89   10.50
   2   4  15   81.99   14.60
   2  -5 -15   44.60   11.90
   2  -5 -15   36.40   15.60
   2  -5 -15   46.70   11.70
   2  -5 -15    8.80   18.20
   1  -5 -15  -14.10   13.80
   1  -5 -15    7.50    8.70
   1  -5 -15   -3.60   10.40
   1  -5 -15   16.30    7.00
   1  -5 -15    3.50   12.10
   0  -5 -15   63.19   13.10
   0  -5 -15   73.69    9.40
   0  -5 -15   68.49   10.90
   0  -5 -15   46.30   14.50
   0  -5 -15   79.79   17.70
   0  -5 -15   69.19   11.90
  -1  -5 -15   27.30   18.20
  -1  -5 -15   33.20   10.20
  -1  -5 -15   41.50    7.50
   1   5  15   49.20   12.40
  -2  -5 -15   29.70    7.60
  -2  -5 -15   52.39    9.10
  -2  -5 -15   54.89   21.80
  -2  -5 -15   28.00    9.20
   2   5  15   57.49   13.80
   1  -6 -15    5.30   10.70
   1  -6 -15    0.40   13.90
   1  -6 -15   -1.00    7.70
   0  -6 -15    4.20    5.50
   0  -6 -15   -1.20    9.20
   0  -6 -15  -12.00   10.50
   0  -6 -15   14.00    8.10
  -1  -6 -15    8.70    9.60
  -1  -6 -15   12.40    5.70
  -1  -6 -15   -8.80    8.40
  -1  -6 -15   -6.60    9.30
  -1  -6 -15   -3.80   17.10
   1   6  15   14.40   11.30
  -2  -6 -15    9.80    6.90
  -2  -6 -15  -12.90    6.00
  -2  -6 -15   -2.70    6.50
  -2  -6 -15  -29.90   19.10
   2   6  15    3.70   10.60
   1  -7 -15   -0.70   11.00
   1  -7 -15    2.70   14.30
   1  -7 -15    2.60    7.90
   0  -7 -15   31.50   16.70
   0  -7 -15   32.70    6.50
   0  -7 -15   10.40   11.70
   0  -7 -15   31.50    8.90
   0  -7 -15   24.30   10.00
   0  -7 -15   21.50    9.30
   0   7  15   19.40   14.20
  -1  -7 -15   39.30    9.20
  -1  -7 -15   16.50   19.40
  -1  -7 -15   16.90    9.20
  -1  -7 -15   34.30   12.90
  -1  -7 -15   44.60   11.60
  -1  -7 -15   48.80    7.40
   1   7  15   64.19   15.50
  -2  -7 -15   12.90    6.70
  -2  -7 -15   23.30    7.50
  -2  -7 -15    0.50   22.10
   2   7  15    7.40   12.50
   1  -8 -15   36.60   16.40
   1  -8 -15   61.29   10.50
   0  -8 -15   11.70    9.00
   0  -8 -15    5.30   11.50
   0  -8 -15    1.00    4.70
   0  -8 -15   17.80    8.10
   0  -8 -15   -2.50    9.10
   0   8  15    6.90   13.70
  -1  -8 -15   55.39   11.20
  -1  -8 -15   92.19   22.90
  -1  -8 -15   70.49   14.20
  -1  -8 -15   53.69   12.70
   1   8  15   71.79   17.40
   1  -9 -15   22.90   15.60
   0  -9 -15   -0.60   11.60
   0  -9 -15  -10.00    5.40
   0  -9 -15   17.30   10.10
   0   9  15    1.40   14.60
  -1  -9 -15    6.70    5.30
  -1  -9 -15   11.50   11.10
  -1  -9 -15    4.80    8.80
  -1  -9 -15  -22.30   19.30
  -1  -9 -15   21.90    8.30
  -1  -9 -15    4.60    8.40
   1   9  15  -12.70   12.00
   0 -10 -15   42.30   12.20
   0 -10 -15   21.50    6.00
   0 -10 -15   37.80    8.70
   0 -10 -15   27.30   12.60
   0  10  15   33.40   19.10
  -1 -10 -15   -8.90    4.80
  -1 -10 -15    9.20    9.20
  -1 -10 -15   10.40   21.20
  -1 -10 -15   19.50   13.50
  -1 -10 -15   -0.30    7.60
   1  10  15  -12.20   13.40
   0   0 -16   14.60   12.80
   0   0 -16   11.60    8.20
   0   0 -16  -13.80   10.40
   1  -1 -16   -9.60   12.00
   1  -1 -16   -1.90   14.30
   1  -1 -16   23.60   12.10
   0  -1 -16  -16.20    9.80
   0  -1 -16   -0.10    7.40
   0  -1 -16   -9.70    9.90
   0  -1 -16   16.50    8.90
   0  -1 -16   -9.30   11.00
  -1  -1 -16    2.40    8.50
  -1  -1 -16   14.00   12.30
  -1  -1 -16  -18.30    8.60
   1  -2 -16   23.50   12.20
   1  -2 -16   18.00    5.00
   1  -2 -16    5.30   12.50
   0  -2 -16   23.90    8.10
   0  -2 -16   31.70   12.30
   0  -2 -16   25.20   11.80
  -1  -2 -16   12.90   14.40
  -1  -2 -16    7.10    8.00
  -1  -2 -16  -13.30    8.70
   1  -3 -16   21.70    6.60
   1  -3 -16    4.60   10.20
   1  -3 -16   -2.60    8.00
   0  -3 -16   24.50   11.90
   0  -3 -16   13.60   13.50
   0  -3 -16   18.00    8.10
   0  -3 -16   15.60    7.30
   0  -3 -16   -2.20   11.00
  -1  -3 -16   13.40    7.40
  -1  -3 -16  -12.20    8.10
  -1  -3 -16    4.70   16.00
   1  -4 -16   53.89   13.70
   1  -4 -16   60.09   12.80
   1  -4 -16   23.80   14.70
   0  -4 -16    6.70    7.80
   0  -4 -16    2.30    9.40
   0  -4 -16   -3.30   13.70
   0  -4 -16   -7.40    5.90
   0  -4 -16  -14.40    9.50
  -1  -4 -16   89.49   20.60
  -1  -4 -16   63.69    9.20
  -1  -4 -16   42.10   11.60
   1  -5 -16  -14.40   12.40
   1  -5 -16   18.30   10.50
   0  -5 -16  -25.60   12.10
   0  -5 -16   -7.30    5.60
   0  -5 -16   -9.20   10.10
   0  -5 -16    5.30    9.70
   0  -5 -16   10.70    8.70
  -1  -5 -16   -5.30   17.40
  -1  -5 -16    4.80    6.20
  -1  -5 -16  -15.20   10.60
   1   5  16    6.60   12.00
   1  -6 -16   -5.10   11.30
   1  -6 -16  -14.40    9.40
   1  -6 -16    2.40   13.80
   1  -6 -16   -0.80   15.90
   0  -6 -16   29.50    9.60
   0  -6 -16   16.30    9.10
   0  -6 -16   -3.30    5.90
   0  -6 -16   14.20   15.60
   0  -6 -16  -16.10    9.80
   0  -6 -16  -24.10   11.30
  -1  -6 -16    0.50   11.30
  -1  -6 -16   -6.30    9.80
  -1  -6 -16   14.60   10.40
  -1  -6 -16    0.30   18.90
  -1  -6 -16   -1.20    6.00
  -1  -6 -16   23.10   10.60
   1   6  16   37.70   13.30
   1  -7 -16   33.60   13.60
   1  -7 -16   61.09   12.80
   1  -7 -16   19.30   17.20
   0  -7 -16   50.69   10.90
   0  -7 -16   37.90   18.20
   0  -7 -16   52.79    8.30
   0  -7 -16   36.00   11.70
   0  -7 -16   25.60   15.20
  -1  -7 -16  -26.70   17.80
  -1  -7 -16  -13.60    9.30
  -1  -7 -16   11.70   10.40
  -1  -7 -16   -4.80   10.10
  -1  -7 -16    1.80    6.20
   1   7  16   -3.40   12.00
   0  -8 -16   -0.20   10.40
   0  -8 -16   26.90   18.30
   0  -8 -16   19.90    6.60
   0  -8 -16   38.00   10.60
   0  -8 -16   32.70   11.20
   0  -8 -16   16.80   14.40
  -1  -8 -16   13.10    9.80
  -1  -8 -16    4.40    6.50
  -1  -8 -16  -11.30    9.40
  -1  -8 -16   -3.00   10.50
  -1  -8 -16   -3.10   19.70
  -1  -8 -16    7.60   11.60
   1   8  16    8.70   12.80
   0  -9 -16   13.20    6.80
   0  -9 -16   -0.10   10.80
   0  -9 -16   10.40   13.90
   0  -9 -16   12.50    9.00
   0  -9 -16   44.20   12.10
   0   9  16   17.60   17.20
   0  -2 -17   25.70   13.60
   0  -2 -17    8.20    8.80
   0  -3 -17   28.00   13.00
   0  -3 -17   47.70    9.50
   0  -3 -17   25.90   14.80
   0  -3 -17   57.99   14.40
   0  -3 -17   43.10   10.00
   0  -4 -17  -11.30    7.20
   0  -4 -17    8.10    8.70
   0  -4 -17    1.80   11.30
   0  -5 -17   21.60   11.20
   0  -5 -17    2.20    8.40
   0  -5 -17  -21.80   14.20
   0  -5 -17   -0.80    6.70
   0  -5 -17   -1.90   16.20
   0  -6 -17   27.30    8.50
   0  -6 -17   49.80   13.30
   0  -6 -17  -10.20   12.90
   0  -6 -17   -6.30   15.80
   0  -6 -17   13.40   18.10
   0  -6 -17   39.80   11.00
   0   0   0    0.00    0.00
_computing_structure_solution     'SHELXT 2014/5 (Sheldrick, 2014)'
;
_shelx_hkl_checksum              57357
_shelx_res_file
;
    a.res created by SHELXL-2014/7
TITL a_a.res in P-1
CELL 0.71073 3.7072 11.4251 14.3713 70.748 88.425 83.284
ZERR 2.00 0.0003 0.0009 0.0013 0.004 0.005 0.005
LATT 1
SFAC C H N O
UNIT 24 24 4 10
LIST 4 ! automatically inserted. Change 6 to 4 for CHECKCIF!!
TEMP -173.190
ACTA
L.S. 4
FMAP 2
PLAN -10 0 0.00
HTAB
BOND $H
CONF
REM #####
REM #####
REM #####
REM #####
REM #####
REM #####
REM #####
REM #####
REM #####
WGHT    0.058100    0.262100
FVAR       0.87254
O1    4    0.538418    0.728978   -0.071157    11.00000    0.03215    0.01948 =
         0.00966   -0.00521    0.00259    0.00203
O2    4    0.169458    0.536396    0.384405    11.00000    0.03034    0.01385 =
         0.01315   -0.00538    0.00623   -0.00900
O1W   4    0.275891    0.938675   -0.213230    11.00000    0.03339    0.01644 =
         0.01451   -0.00379    0.00069   -0.00576
O3    4    0.023745    0.680914    0.655259    11.00000    0.02520    0.01458 =
         0.01160   -0.00560    0.00587   -0.00577
O4    4    0.204880    0.872795    0.612924    11.00000    0.03129    0.01505 =
         0.01523   -0.00688    0.00139   -0.00614
N1    3    0.166459    0.657464    0.481598    11.00000    0.01646    0.01024 =
         0.01033   -0.00260    0.00256   -0.00251
N2    3    0.413322    0.845343    0.329768    11.00000    0.01691    0.01172 =
         0.01134   -0.00257   -0.00103   -0.00036
C1    1    0.304071    0.843290    0.134264    11.00000    0.01313    0.01168 =
         0.01515   -0.00470   -0.00067   -0.00038
AFIX  43
H1    2    0.210632    0.918259    0.145823    11.00000   -1.20000
AFIX   0
C2    1    0.344108    0.842300    0.038874    11.00000    0.01615    0.01299 =
         0.01131   -0.00081   -0.00094   -0.00109
AFIX  43
H2    2    0.272992    0.915743   -0.014890    11.00000   -1.20000
AFIX   0
C3    1    0.488675    0.733686    0.021488    11.00000    0.01504    0.01870 =
         0.01051   -0.00538    0.00112   -0.00339
C4    1    0.588273    0.626176    0.099900    11.00000    0.01560    0.01397 =
         0.01670   -0.00660    0.00268    0.00181
AFIX  43
H4    2    0.689726    0.552293    0.087853    11.00000   -1.20000
AFIX   0
C5    1    0.540469    0.626155    0.195441    11.00000    0.01567    0.01267 =
         0.01315   -0.00079   -0.00062   -0.00116
AFIX  43
H5    2    0.603786    0.551554    0.248857    11.00000   -1.20000
AFIX   0
C6    1    0.399655    0.734959    0.214354    11.00000    0.01091    0.01422 =
         0.01162   -0.00293    0.00168   -0.00453
C7    1    0.354823    0.741259    0.314352    11.00000    0.01084    0.01273 =
         0.01313   -0.00190    0.00040   -0.00117
C8    1    0.227865    0.636178    0.394243    11.00000    0.01166    0.01164 =
         0.01044   -0.00293    0.00095   -0.00069
C9    1    0.227823    0.766281    0.496032    11.00000    0.01123    0.01236 =
         0.01293   -0.00469   -0.00144    0.00017
C10   1    0.351759    0.858024    0.420302    11.00000    0.01512    0.01197 =
         0.01521   -0.00603   -0.00060   -0.00138
AFIX  43
H10   2    0.397173    0.933176    0.430284    11.00000   -1.20000
AFIX   0
C11   1    0.153707    0.780859    0.593609    11.00000    0.01446    0.01260 =
         0.01355   -0.00417   -0.00040   -0.00030
C12   1   -0.073310    0.684572    0.752526    11.00000    0.02121    0.02168 =
         0.01104   -0.00606    0.00529   -0.00275
AFIX 137
H12A  2   -0.190326    0.610303    0.788571    11.00000   -1.50000
H12B  2   -0.241520    0.759588    0.746589    11.00000   -1.50000
H12C  2    0.146166    0.686303    0.788314    11.00000   -1.50000
AFIX   0
H1N   2    0.069710    0.593479    0.531316    11.00000    0.04308
H1O   2    0.450707    0.807214   -0.113583    11.00000    0.05572
H1W   2    0.224041    0.913650   -0.261215    11.00000    0.04919
H2W   2    0.387516    1.008305   -0.237985    11.00000    0.04821
HKLF 4 1 1 0 0 0 1 0 0 0 1
REM  a_a.res in P-1
REM R1 =  0.0486 for    1556 Fo > 4sig(Fo)  and  0.0740 for all    2091 data
REM    189 parameters refined using      0 restraints
END
WGHT      0.0581      0.2621
REM Instructions for potential hydrogen bonds
EQIV $1 -x, -y+1, -z+1
HTAB N1 O2_$1
HTAB O1 O1W
EQIV $2 x, y, z-1
HTAB O1W O4_$2
EQIV $3 -x+1, -y+2, -z
HTAB O1W N2_$3
REM Highest difference peak  0.272,  deepest hole -0.341,  1-sigma level  0.066
Q1    1   0.2877  0.2363  0.5007  11.00000  0.05    0.27
Q2    1  -0.0473  0.9360 -0.2249  11.00000  0.05    0.25
Q3    1   0.6049  0.6793  0.6597  11.00000  0.05    0.24
Q4    1   0.0626  0.2598  0.0610  11.00000  0.05    0.24
Q5    1   0.5586  0.8547  0.6359  11.00000  0.05    0.22
Q6    1   0.4060  0.6930  0.6606  11.00000  0.05    0.21
Q7    1  -0.3352  0.9248 -0.2070  11.00000  0.05    0.21
Q8    1   0.7986  0.8218  0.3383  11.00000  0.05    0.21
Q9    1  -0.1676  0.5444  0.3878  11.00000  0.05    0.20
Q10   1   0.0043  0.8262  0.0420  11.00000  0.05    0.20
;
_shelx_res_checksum              14970
loop_
_space_group_symop_operation_xyz
'x, y, z'
'-x, -y, -z'
loop_
_atom_site_type_symbol
_atom_site_label
_atom_site_fract_x
_atom_site_fract_y
_atom_site_fract_z
_atom_site_U_iso_or_equiv
_atom_site_adp_type
_atom_site_calc_flag
_atom_site_occupancy
O O1 0.5384(5) 0.72898(15) -0.07116(12) 0.0208(4) Uani d 1
O O2 0.1695(4) 0.53640(13) 0.38440(11) 0.0185(4) Uani d 1
O O1W 0.2759(5) 0.93868(16) -0.21323(13) 0.0215(4) Uani d 1
O O3 0.0237(4) 0.68091(13) 0.65526(11) 0.0166(4) Uani d 1
O O4 0.2049(5) 0.87280(14) 0.61292(11) 0.0198(4) Uani d 1
N N1 0.1665(5) 0.65746(16) 0.48160(14) 0.0125(4) Uani d 1
N N2 0.4133(5) 0.84534(16) 0.32977(13) 0.0137(4) Uani d 1
C C1 0.3041(6) 0.84329(19) 0.13426(16) 0.0133(5) Uani d 1
H H1 0.2106 0.9183 0.1458 0.016 Uiso calc 1
C C2 0.3441(6) 0.84230(19) 0.03887(16) 0.0143(5) Uani d 1
H H2 0.2730 0.9157 -0.0149 0.017 Uiso calc 1
C C3 0.4887(6) 0.7337(2) 0.02149(16) 0.0145(5) Uani d 1
C C4 0.5883(6) 0.6262(2) 0.09990(16) 0.0154(5) Uani d 1
H H4 0.6897 0.5523 0.0879 0.018 Uiso calc 1
C C5 0.5405(6) 0.62616(19) 0.19544(16) 0.0147(5) Uani d 1
H H5 0.6038 0.5516 0.2489 0.018 Uiso calc 1
C C6 0.3997(6) 0.73496(19) 0.21435(16) 0.0123(5) Uani d 1
C C7 0.3548(6) 0.74126(19) 0.31435(16) 0.0128(5) Uani d 1
C C8 0.2279(6) 0.63618(19) 0.39424(16) 0.0115(5) Uani d 1
C C9 0.2278(6) 0.76628(19) 0.49603(16) 0.0121(5) Uani d 1
C C10 0.3518(6) 0.85802(19) 0.42030(16) 0.0137(5) Uani d 1
H H10 0.3972 0.9332 0.4303 0.016 Uiso calc 1
C C11 0.1537(6) 0.78086(19) 0.59361(16) 0.0137(5) Uani d 1
C C12 -0.0733(6) 0.6846(2) 0.75253(17) 0.0179(5) Uani d 1
H H12A -0.1903 0.6103 0.7886 0.027 Uiso calc 1
H H12B -0.2415 0.7596 0.7466 0.027 Uiso calc 1
H H12C 0.1462 0.6863 0.7883 0.027 Uiso calc 1
H H1N 0.070(8) 0.593(3) 0.531(2) 0.043(9) Uiso d 1
H H1O 0.451(9) 0.807(3) -0.114(2) 0.056(10) Uiso d 1
H H1W 0.224(9) 0.914(3) -0.261(3) 0.049(10) Uiso d 1
H H2W 0.388(9) 1.008(3) -0.238(2) 0.048(9) Uiso d 1
loop_
_atom_site_aniso_label
_atom_site_aniso_U_11
_atom_site_aniso_U_22
_atom_site_aniso_U_33
_atom_site_aniso_U_12
_atom_site_aniso_U_13
_atom_site_aniso_U_23
O1 0.0321(10) 0.0195(9) 0.0097(9) 0.0020(7) 0.0026(7) -0.0052(7)
O2 0.0303(10) 0.0138(8) 0.0131(9) -0.0090(7) 0.0062(7) -0.0054(7)
O1W 0.0334(11) 0.0164(9) 0.0145(10) -0.0058(7) 0.0007(8) -0.0038(7)
O3 0.0252(9) 0.0146(8) 0.0116(9) -0.0058(7) 0.0059(7) -0.0056(6)
O4 0.0313(10) 0.0151(9) 0.0152(9) -0.0061(7) 0.0014(7) -0.0069(7)
N1 0.0165(10) 0.0102(9) 0.0103(10) -0.0025(7) 0.0026(8) -0.0026(8)
N2 0.0169(10) 0.0117(9) 0.0113(10) -0.0004(7) -0.0010(8) -0.0026(8)
C1 0.0131(12) 0.0117(11) 0.0152(12) -0.0004(8) -0.0007(9) -0.0047(9)
C2 0.0162(12) 0.0130(11) 0.0113(12) -0.0011(9) -0.0009(9) -0.0008(9)
C3 0.0150(12) 0.0187(12) 0.0105(12) -0.0034(9) 0.0011(9) -0.0054(9)
C4 0.0156(12) 0.0140(11) 0.0167(13) 0.0018(9) 0.0027(9) -0.0066(10)
C5 0.0157(12) 0.0127(11) 0.0132(12) -0.0012(9) -0.0006(9) -0.0008(9)
C6 0.0109(11) 0.0142(11) 0.0116(12) -0.0045(8) 0.0017(9) -0.0029(9)
C7 0.0108(11) 0.0127(11) 0.0131(12) -0.0012(8) 0.0004(9) -0.0019(9)
C8 0.0117(11) 0.0116(11) 0.0104(12) -0.0007(9) 0.0009(9) -0.0029(9)
C9 0.0112(11) 0.0124(11) 0.0129(12) 0.0002(8) -0.0014(9) -0.0047(9)
C10 0.0151(12) 0.0120(11) 0.0152(13) -0.0014(9) -0.0006(9) -0.0060(9)
C11 0.0145(12) 0.0126(12) 0.0136(12) -0.0003(9) -0.0004(9) -0.0042(9)
C12 0.0212(13) 0.0217(13) 0.0110(12) -0.0027(10) 0.0053(10) -0.0061(10)
loop_
_atom_type_symbol
_atom_type_description
_atom_type_scat_dispersion_real
_atom_type_scat_dispersion_imag
_atom_type_scat_source
C C 0.0033 0.0016 'International Tables Vol C Tables 4.2.6.8 and 6.1.1.4'
H H 0.0000 0.0000 'International Tables Vol C Tables 4.2.6.8 and 6.1.1.4'
N N 0.0061 0.0033 'International Tables Vol C Tables 4.2.6.8 and 6.1.1.4'
O O 0.0106 0.0060 'International Tables Vol C Tables 4.2.6.8 and 6.1.1.4'
loop_
_geom_angle_atom_site_label_1
_geom_angle_atom_site_label_2
_geom_angle_atom_site_label_3
_geom_angle
C3 O1 H1O 106(2)
H1W O1W H2W 108(3)
C11 O3 C12 116.91(16)
C8 N1 C9 123.15(19)
C8 N1 H1N 115.4(18)
C9 N1 H1N 121.4(18)
C7 N2 C10 120.27(19)
C2 C1 C6 120.7(2)
C2 C1 H1 119.6
C6 C1 H1 119.6
C1 C2 C3 119.9(2)
C1 C2 H2 120.1
C3 C2 H2 120.1
O1 C3 C4 118.0(2)
O1 C3 C2 121.90(19)
C4 C3 C2 120.1(2)
C5 C4 C3 120.1(2)
C5 C4 H4 119.9
C3 C4 H4 119.9
C4 C5 C6 120.6(2)
C4 C5 H5 119.7
C6 C5 H5 119.7
C5 C6 C1 118.6(2)
C5 C6 C7 122.84(19)
C1 C6 C7 118.6(2)
N2 C7 C6 118.44(19)
N2 C7 C8 121.0(2)
C6 C7 C8 120.44(18)
O2 C8 N1 121.07(19)
O2 C8 C7 124.0(2)
N1 C8 C7 114.90(18)
C10 C9 N1 119.0(2)
C10 C9 C11 121.71(19)
N1 C9 C11 119.30(19)
C9 C10 N2 121.63(19)
C9 C10 H10 119.2
N2 C10 H10 119.2
O4 C11 O3 125.3(2)
O4 C11 C9 123.6(2)
O3 C11 C9 111.11(18)
O3 C12 H12A 109.5
O3 C12 H12B 109.5
H12A C12 H12B 109.5
O3 C12 H12C 109.5
H12A C12 H12C 109.5
H12B C12 H12C 109.5
loop_
_geom_bond_atom_site_label_1
_geom_bond_atom_site_label_2
_geom_bond_distance
O1 C3 1.357(3)
O1 H1O 0.93(3)
O2 C8 1.238(2)
O1W H1W 0.86(4)
O1W H2W 0.90(3)
O3 C11 1.326(3)
O3 C12 1.447(3)
O4 C11 1.208(3)
N1 C8 1.364(3)
N1 C9 1.371(3)
N1 H1N 0.94(3)
N2 C7 1.322(3)
N2 C10 1.366(3)
C1 C2 1.378(3)
C1 C6 1.401(3)
C1 H1 0.9500
C2 C3 1.390(3)
C2 H2 0.9500
C3 C4 1.385(3)
C4 C5 1.380(3)
C4 H4 0.9500
C5 C6 1.398(3)
C5 H5 0.9500
C6 C7 1.466(3)
C7 C8 1.475(3)
C9 C10 1.352(3)
C9 C11 1.480(3)
C10 H10 0.9500
C12 H12A 0.9800
C12 H12B 0.9800
C12 H12C 0.9800
loop_
_geom_hbond_atom_site_label_D
_geom_hbond_atom_site_label_H
_geom_hbond_atom_site_label_A
_geom_hbond_site_symmetry_A
_geom_hbond_distance_DH
_geom_hbond_distance_HA
_geom_hbond_distance_DA
_geom_hbond_angle_DHA
_geom_hbond_publ_flag
N1 H1N O2 2_566 0.94(3) 1.88(3) 2.805(2) 172(3) yes
O1 H1O O1W 1_555 0.93(3) 1.77(3) 2.682(3) 168(3) yes
O1W H1W O4 1_554 0.86(4) 2.02(4) 2.864(2) 167(3) yes
O1W H2W N2 2_675 0.90(3) 1.97(3) 2.838(3) 163(3) yes
loop_
_geom_torsion_atom_site_label_1
_geom_torsion_atom_site_label_2
_geom_torsion_atom_site_label_3
_geom_torsion_atom_site_label_4
_geom_torsion
C6 C1 C2 C3 -1.5(3)
C1 C2 C3 O1 -178.9(2)
C1 C2 C3 C4 0.8(3)
O1 C3 C4 C5 -179.5(2)
C2 C3 C4 C5 0.7(3)
C3 C4 C5 C6 -1.5(3)
C4 C5 C6 C1 0.8(3)
C4 C5 C6 C7 -177.9(2)
C2 C1 C6 C5 0.7(3)
C2 C1 C6 C7 179.5(2)
C10 N2 C7 C6 175.74(19)
C10 N2 C7 C8 -0.9(3)
C5 C6 C7 N2 143.9(2)
C1 C6 C7 N2 -34.8(3)
C5 C6 C7 C8 -39.4(3)
C1 C6 C7 C8 141.9(2)
C9 N1 C8 O2 179.85(19)
C9 N1 C8 C7 -2.0(3)
N2 C7 C8 O2 -179.8(2)
C6 C7 C8 O2 3.6(3)
N2 C7 C8 N1 2.1(3)
C6 C7 C8 N1 -174.48(19)
C8 N1 C9 C10 0.7(3)
C8 N1 C9 C11 -179.89(19)
N1 C9 C10 N2 0.7(3)
C11 C9 C10 N2 -178.7(2)
C7 N2 C10 C9 -0.5(3)
C12 O3 C11 O4 1.8(3)
C12 O3 C11 C9 -177.80(18)
C10 C9 C11 O4 -1.6(3)
N1 C9 C11 O4 179.0(2)
C10 C9 C11 O3 178.00(19)
N1 C9 C11 O3 -1.4(3)

_cod_database_fobs_code 1544581
