#------------------------------------------------------------------------------
#$Date: 2016-09-10 04:54:41 +0300 (Sat, 10 Sep 2016) $
#$Revision: 186498 $
#$URL: file:///home/coder/svn-repositories/cod/cif/1/54/40/1544061.cif $
#------------------------------------------------------------------------------
#
# This file is available in the Crystallography Open Database (COD),
# http://www.crystallography.net/. The original data for this entry
# were provided by IUCr Journals, http://journals.iucr.org/.
#
# The file may be used within the scientific community so long as
# proper attribution is given to the journal article from which the
# data were obtained.
#
data_1544061
loop_
_publ_author_name
'Haslinger, Simone'
'Laus, Gerhard'
'Wurst, Klaus'
'Schottenberger, Herwig'
_publ_section_title
;
 2-(2-Azabicyclo[3.2.1]octa-3,6-dien-2-yl)-1,3-dimethoxyimidazolium
 hexafluoridophosphate
;
_journal_coeditor_code           HB4076
_journal_issue                   9
_journal_name_full               IUCrData
_journal_page_first              x161410
_journal_paper_doi               10.1107/S2414314616014103
_journal_volume                  1
_journal_year                    2016
_chemical_formula_iupac          'C12 H16 N3 O2 +, P F6 -'
_chemical_formula_moiety         'C12 H16 N3 O2, F6 P'
_chemical_formula_sum            'C12 H16 F6 N3 O2 P'
_chemical_formula_weight         379.25
_chemical_name_systematic
;
2-(2-Azabicyclo[3.2.1]octa-3,6-dien-2-yl)-1,3-dimethoxyimidazolium
hexafluoridophosphate
;
_space_group_crystal_system      triclinic
_space_group_IT_number           2
_space_group_name_Hall           '-P 1'
_space_group_name_H-M_alt        'P -1'
_symmetry_space_group_name_Hall  '-P 1'
_symmetry_space_group_name_H-M   'P -1'
_atom_sites_solution_hydrogens   geom
_audit_creation_method           SHELXL-2014/7
_cell_angle_alpha                86.873(3)
_cell_angle_beta                 87.735(3)
_cell_angle_gamma                77.166(3)
_cell_formula_units_Z            2
_cell_length_a                   7.4207(6)
_cell_length_b                   8.8159(7)
_cell_length_c                   12.5246(10)
_cell_measurement_reflns_used    4024
_cell_measurement_temperature    173(2)
_cell_measurement_theta_max      25.3
_cell_measurement_theta_min      2.8
_cell_volume                     797.39(11)
_computing_cell_refinement
;
SAINT (Bruker, 2014)
;
_computing_data_collection
;
APEX2 (Bruker, 2014)
;
_computing_data_reduction
;
SAINT (Bruker, 2014)
;
_computing_molecular_graphics
;
ORTEP-3 for Windows (Farrugia, 2012)
;
_computing_publication_material
;
Mercury (Macrae <i>et al.</i>,  2006)
;
_computing_structure_refinement
;
SHELXL2014/7 (Sheldrick, 2015)
;
_computing_structure_solution
;
SHELXS2014/7 (Sheldrick, 2008)
;
_diffrn_ambient_temperature      173(2)
_diffrn_detector_area_resol_mean 10.4
_diffrn_measured_fraction_theta_full 0.995
_diffrn_measured_fraction_theta_max 0.995
_diffrn_measurement_device_type  'Bruker D8 QUEST PHOTON 100'
_diffrn_measurement_method       '\f and \w scans'
_diffrn_radiation_monochromator  'multi layered optics'
_diffrn_radiation_type           MoK\a
_diffrn_radiation_wavelength     0.71073
_diffrn_reflns_limit_h_max       8
_diffrn_reflns_limit_h_min       -8
_diffrn_reflns_limit_k_max       10
_diffrn_reflns_limit_k_min       -10
_diffrn_reflns_limit_l_max       14
_diffrn_reflns_limit_l_min       0
_diffrn_reflns_number            2774
_diffrn_reflns_theta_full        24.999
_diffrn_reflns_theta_max         24.999
_diffrn_reflns_theta_min         2.372
_exptl_absorpt_coefficient_mu    0.249
_exptl_absorpt_correction_T_max  0.862
_exptl_absorpt_correction_T_min  0.792
_exptl_absorpt_correction_type   multi-scan
_exptl_absorpt_process_details
;
(DIFABS; Bruker, 2014)
;
_exptl_crystal_colour            brown
_exptl_crystal_density_diffrn    1.580
_exptl_crystal_description       prism
_exptl_crystal_F_000             388
_exptl_crystal_size_max          0.18
_exptl_crystal_size_mid          0.17
_exptl_crystal_size_min          0.09
_refine_diff_density_max         0.403
_refine_diff_density_min         -0.305
_refine_ls_extinction_method     none
_refine_ls_goodness_of_fit_ref   1.115
_refine_ls_hydrogen_treatment    constr
_refine_ls_matrix_type           full
_refine_ls_number_parameters     273
_refine_ls_number_reflns         2774
_refine_ls_number_restraints     0
_refine_ls_restrained_S_all      1.115
_refine_ls_R_factor_all          0.0627
_refine_ls_R_factor_gt           0.0538
_refine_ls_shift/su_max          0.000
_refine_ls_shift/su_mean         0.000
_refine_ls_structure_factor_coef Fsqd
_refine_ls_weighting_details
'w=1/[\s^2^(Fo^2^)+(0.0310P)^2^+0.8970P] where P=(Fo^2^+2Fc^2^)/3'
_refine_ls_weighting_scheme      calc
_refine_ls_wR_factor_gt          0.1178
_refine_ls_wR_factor_ref         0.1239
_reflns_number_gt                2501
_reflns_number_total             2774
_reflns_threshold_expression     'I > 2\s(I)'
_cod_data_source_file            hb4076sup1.cif
_cod_data_source_block           I
_cod_database_code               1544061
_shelx_space_group_comment
;
The symmetry employed for this shelxl refinement is uniquely defined
by the following loop, which should always be used as a source of
symmetry information in preference to the above space-group names.
They are only intended as comments.
;
_shelx_estimated_absorpt_t_min   0.957
_shelx_estimated_absorpt_t_max   0.978
_shelx_hkl_file
;
   1   0   0 3.40786 0.29546   1
   2   0   0 1531.41 43.5334   1
   3   0   0 162.129 4.21317   1
   4   0   0 117.925 2.92924   1
   5   0   0 51.6752 1.85169   1
   6   0   1 194.907 4.80123  -2
   6   0   0 194.907 4.80123   1
   7   0   1 25.5778 1.83585  -2
   7   0   0 25.5778 1.83585   1
   8   0   1 18.4405 1.85782  -2
   8   0   0 18.4405 1.85782   1
   8  -1   1 25.2073 3.33793  -2
  -8   1   0 25.2073 3.33793   1
  -6   1   0 10.6234 1.73988  -2
  -6   1   0 10.6234 1.73988   1
  -5   1   0 574.866 20.5378  -2
  -5   1   0 574.866 20.5378   1
  -4   1   0 163.991 5.18170  -2
  -4   1   0 163.991 5.18170   1
  -3   1   0 167.279 5.11124  -2
  -3   1   0 167.279 5.11124   1
  -2   1   0 73.1806 2.35834  -2
  -2   1   0 73.1806 2.35834   1
  -1   1   0 113.698 2.97270  -2
  -1   1   0 113.698 2.97270   1
   0   1   0 1.86094 0.14497   1
   1   1   0 3.04154 0.17930   1
   2   1   0 89.7771 1.76681   1
   3   1   0 13.2585 0.50076   1
   4   1   0 179.561 4.18296   1
   5   1   1 874.295 25.0678  -2
   5   1   0 874.295 25.0678   1
   6   1   1 80.4695 2.77090  -2
   6   1   0 80.4695 2.77090   1
   7   1   1 31.8188 1.86502  -2
   7   1   0 31.8188 1.86502   1
   8   1   1 23.9945 1.66848  -2
   8   1   0 23.9945 1.66848   1
  -7   2   0 0.66546 2.46893  -2
  -7   2   0 0.66546 2.46893   1
  -6   2   0 137.834 4.88879  -2
  -6   2   0 137.834 4.88879   1
  -5   2   0 32.8585 2.50455  -2
  -5   2   0 32.8585 2.50455   1
  -4   2   0 191.864 5.96376  -2
  -4   2   0 191.864 5.96376   1
  -3   2   0 115.292 3.20452  -2
  -3   2   0 115.292 3.20452   1
  -2   2   0 193.417 5.78061  -2
  -2   2   0 193.417 5.78061   1
  -1   2   0 1.07759 0.87802  -2
  -1   2   0 1.07759 0.87802   1
   0   2   0 9183.47 326.778   1
   1   2   0 162.837 9.77301  -2
   1   2   0 162.837 9.77301   1
   2   2   0 334.356 6.39193   1
   3   2   0 5.34444 0.32172   1
   4   2   1 62.1243 2.68632  -2
   4   2   0 62.1243 2.68632   1
   5   2   1 6.27325 0.95350  -2
   5   2   0 6.27325 0.95350   1
   6   2   1 370.757 9.59714  -2
   6   2   0 370.757 9.59714   1
   7   2   1 23.5684 1.25857  -2
   7   2   0 23.5684 1.25857   1
   8   2   1 24.3830 1.50131  -2
   8   2   0 24.3830 1.50131   1
  -7   3   0 9.07863 1.91157  -2
  -7   3   0 9.07863 1.91157   1
  -6   3   0 -0.9805 3.06459  -2
  -6   3   0 -0.9805 3.06459   1
  -5   3   0 133.785 5.59030  -2
  -5   3   0 133.785 5.59030   1
  -4   3   0 116.052 3.41265  -2
  -4   3   0 116.052 3.41265   1
  -3   3   0 125.796 4.09010  -2
  -3   3   0 125.796 4.09010   1
  -2   3   0 38.4826 1.41732  -2
  -2   3   0 38.4826 1.41732   1
  -1   3   0 665.658 14.5989   1
   0   3   0 89.9210 1.79609   1
   1   3   0 477.777 8.47695   1
   2   3   1 58.1492 3.71017  -2
   2   3   0 58.1492 3.71017   1
   3   3   1 63.2380 2.13299  -2
   3   3   0 63.2380 2.13299   1
   4   3   1 13.6276 0.64140  -2
   4   3   0 13.6276 0.64140   1
   5   3   1 740.678 16.5547  -2
   5   3   0 740.678 16.5547   1
   6   3   1 44.7099 1.57583  -2
   6   3   0 44.7099 1.57583   1
   7   3   1 39.9873 1.61647  -2
   7   3   0 39.9873 1.61647   1
   8   3   1 8.28287 1.47072  -2
   8   3   0 8.28287 1.47072   1
  -7   4   0 10.1944 2.11310  -2
  -7   4   0 10.1944 2.11310   1
  -6   4   0 41.1032 2.41182  -2
  -6   4   0 41.1032 2.41182   1
  -5   4   0 13.3830 1.73080  -2
  -5   4   0 13.3830 1.73080   1
  -4   4   0 17.8928 1.72580  -2
  -4   4   0 17.8928 1.72580   1
  -3   4   0 11.9957 1.54902  -2
  -3   4   0 11.9957 1.54902   1
  -2   4   0 81.9724 2.89009  -2
  -2   4   0 81.9724 2.89009   1
  -1   4   0 44.6169 1.17912   1
   0   4   0 1693.73 31.5227   1
   1   4   1 389.517 19.0312  -2
   1   4   0 389.517 19.0312   1
   2   4   1 147.383 5.92042  -2
   2   4   0 147.383 5.92042   1
   3   4   1 6.99115 0.52882  -2
   3   4   0 6.99115 0.52882   1
   4   4   1 154.797 3.39892  -2
   4   4   0 154.797 3.39892   1
   5   4   1 3.46165 0.51484  -2
   5   4   0 3.46165 0.51484   1
   6   4   1 163.563 4.11060  -2
   6   4   0 163.563 4.11060   1
   7   4   1 79.2940 2.38464  -2
   7   4   0 79.2940 2.38464   1
   8   4   1 6.46003 1.76800  -2
   8   4   0 6.46003 1.76800   1
  -6   5   0 3.95934 1.59742  -2
  -6   5   0 3.95934 1.59742   1
  -5   5   0 2.97013 1.62069  -2
  -5   5   0 2.97013 1.62069   1
  -4   5   0 131.898 4.59306  -2
  -4   5   0 131.898 4.59306   1
  -3   5   0 2.75015 1.76414  -2
  -3   5   0 2.75015 1.76414   1
  -2   5   0 3.08373 0.62206   1
  -1   5   0 86.7988 2.05836   1
   0   5   1 142.812 3.16376  -2
   0   5   0 142.812 3.16376   1
   1   5   1 13.4738 0.96371  -2
   1   5   0 13.4738 0.96371   1
   2   5   1 121.869 2.99932  -2
   2   5   0 121.869 2.99932   1
   3   5   1 32.3800 1.28650  -2
   3   5   0 32.3800 1.28650   1
   4   5   1 35.2667 1.11626  -2
   4   5   0 35.2667 1.11626   1
   5   5   1 338.116 6.61866  -2
   5   5   0 338.116 6.61866   1
   6   5   1 50.6971 1.99125  -2
   6   5   0 50.6971 1.99125   1
   7   5   1 54.3109 2.44049  -2
   7   5   0 54.3109 2.44049   1
   8   5   1 -0.4565 2.43013  -2
   8   5   0 -0.4565 2.43013   1
  -6   6   0 35.1719 3.35025  -2
  -6   6   0 35.1719 3.35025   1
  -5   6   0 7.56354 1.95872  -2
  -5   6   0 7.56354 1.95872   1
  -4   6   0 75.6791 3.97849  -2
  -4   6   0 75.6791 3.97849   1
  -3   6   1 54.2691 4.73447  -2
  -3   6   0 54.2691 4.73447   1
  -2   6   1 242.695 6.43308  -2
  -2   6   0 242.695 6.43308   1
  -1   6   1 28.8998 1.33986  -2
  -1   6   0 28.8998 1.33986   1
   0   6   1 763.840 15.5850  -2
   0   6   0 763.840 15.5850   1
   1   6   1 545.819 19.0214  -2
   1   6   0 545.819 19.0214   1
   2   6   1 203.825 4.48159  -2
   2   6   0 203.825 4.48159   1
   3   6   1 85.7935 3.11621  -2
   3   6   0 85.7935 3.11621   1
   4   6   1 198.434 7.66017  -2
   4   6   0 198.434 7.66017   1
   5   6   1 15.9605 1.27823  -2
   5   6   0 15.9605 1.27823   1
   6   6   1 66.8271 2.29305  -2
   6   6   0 66.8271 2.29305   1
   7   6   0 10.0183 2.94210   1
   8   6   2 16.9823 2.64744  -2
   8   6   0 16.9823 2.64744   1
  -5   7   0 -1.5657 1.96950   1
  -4   7   0 15.1596 1.81809   1
  -3   7   1 28.0756 2.00765  -2
  -3   7   0 28.0756 2.00765   1
  -2   7   1 16.9538 1.38990  -2
  -2   7   0 16.9538 1.38990   1
  -1   7   1 66.5013 2.27983  -2
  -1   7   0 66.5013 2.27983   1
   0   7   1 48.2889 1.56557  -2
   0   7   0 48.2889 1.56557   1
   1   7   1 37.4201 1.43720  -2
   1   7   0 37.4201 1.43720   1
   2   7   1 165.844 4.43303  -2
   2   7   0 165.844 4.43303   1
   3   7   1 28.1373 1.85370  -2
   3   7   0 28.1373 1.85370   1
   4   7   1 46.9421 2.49652  -2
   4   7   0 46.9421 2.49652   1
   5   7   1 184.688 6.29869  -2
   5   7   0 184.688 6.29869   1
   6   7   2 36.1324 3.64320  -2
   6   7   0 36.1324 3.64320   1
   7   7   2 16.6224 1.74439  -2
   7   7   0 16.6224 1.74439   1
  -4   8   1 8.53064 2.63062  -2
  -4   8   0 8.53064 2.63062   1
  -3   8   1 15.6729 1.63147  -2
  -3   8   0 15.6729 1.63147   1
  -2   8   1 4.53015 1.30171  -2
  -2   8   0 4.53015 1.30171   1
  -1   8   1 15.5993 1.16165  -2
  -1   8   0 15.5993 1.16165   1
   0   8   1 46.7815 1.61247  -2
   0   8   0 46.7815 1.61247   1
   1   8   1 160.881 6.25808  -2
   1   8   0 160.881 6.25808   1
   2   8   1 73.6822 2.62251  -2
   2   8   0 73.6822 2.62251   1
   3   8   1 11.9331 1.81021  -2
   3   8   0 11.9331 1.81021   1
   4   8   1 88.2170 7.23877  -2
   4   8   0 88.2170 7.23877   1
   5   8   2 -0.4846 2.10804  -2
   5   8   0 -0.4846 2.10804   1
   6   8   2 22.8573 2.34311  -2
   6   8   0 22.8573 2.34311   1
   7   8   2 24.4085 3.47329  -2
   7   8   0 24.4085 3.47329   1
  -2   9   1 9.06248 1.27396  -2
  -2   9   0 9.06248 1.27396   1
  -1   9   1 25.5266 2.52674  -2
  -1   9   0 25.5266 2.52674   1
   0   9   1 9.34454 1.38743  -2
   0   9   0 9.34454 1.38743   1
   1   9   1 19.9104 1.89446  -2
   1   9   0 19.9104 1.89446   1
   2   9   0 4.29477 2.20753   1
   3   9   0 8.55057 1.74037   1
   4   9   2 5.89787 1.82162  -2
   4   9   0 5.89787 1.82162   1
   5   9   2 27.6964 2.49364  -2
   5   9   0 27.6964 2.49364   1
   6   9   2 26.2051 2.32822  -2
   6   9   0 26.2051 2.32822   1
  -1  10   1 15.6401 2.62433  -2
  -1  10   0 15.6401 2.62433   1
   0  10   1 54.9757 2.78245  -2
   0  10   0 54.9757 2.78245   1
   1  10   1 52.8922 4.55333  -2
   1  10   0 52.8922 4.55333   1
   2  10   2 96.2436 4.30690  -2
   2  10   0 96.2436 4.30690   1
   3  10   2 7.73342 3.19619  -2
   3  10   0 7.73342 3.19619   1
   4  10   2 28.4020 2.32426  -2
   4  10   0 28.4020 2.32426   1
   4  10   3 1.59961 1.90388  -2
  -4 -10   1 1.59961 1.90388   1
   3  10   3 8.93900 2.22920  -2
  -3 -10   1 8.93900 2.22920   1
   2  10   3 14.6102 4.25874  -2
  -2 -10   1 14.6102 4.25874   1
   1  10   2 64.8777 4.81696  -2
  -1 -10   1 64.8777 4.81696   1
   0  10   2 37.4945 2.43254  -2
   0 -10   1 37.4945 2.43254   1
   6   9   3 31.3044 2.16028  -2
  -6  -9   1 31.3044 2.16028   1
   5   9   3 25.5955 2.06094  -2
  -5  -9   1 25.5955 2.06094   1
   4   9   3 7.60000 2.10447  -2
  -4  -9   1 7.60000 2.10447   1
   3   9   3 60.6541 5.35294  -2
  -3  -9   1 60.6541 5.35294   1
   2   9   2 16.9095 3.70415  -2
  -2  -9   1 16.9095 3.70415   1
   1   9   2 2.20759 3.16932  -2
  -1  -9   1 2.20759 3.16932   1
   0   9   2 3.22356 1.29896  -2
   0  -9   1 3.22356 1.29896   1
  -1   9   2 1.52265 1.57203  -2
   1  -9   1 1.52265 1.57203   1
  -2   9   2 1.12912 1.19850  -2
   2  -9   1 1.12912 1.19850   1
   7   8   3 22.7285 3.57031  -2
  -7  -8   1 22.7285 3.57031   1
   6   8   3 5.78424 1.99829  -2
  -6  -8   1 5.78424 1.99829   1
   5   8   3 9.33600 1.79048  -2
  -5  -8   1 9.33600 1.79048   1
   4   8   2 32.1603 3.14077  -2
  -4  -8   1 32.1603 3.14077   1
   3   8   2 46.4378 3.12745  -2
  -3  -8   1 46.4378 3.12745   1
   2   8   2 27.3843 1.34879  -2
  -2  -8   1 27.3843 1.34879   1
   1   8   2 325.757 11.6755  -2
  -1  -8   1 325.757 11.6755   1
   0   8   2 78.0993 2.46512  -2
   0  -8   1 78.0993 2.46512   1
  -1   8   2 18.5037 1.00887  -2
   1  -8   1 18.5037 1.00887   1
  -2   8   2 26.5593 1.53513  -2
   2  -8   1 26.5593 1.53513   1
  -3   8   2 6.00587 1.59473  -2
   3  -8   1 6.00587 1.59473   1
  -4   8   2 9.79601 3.67289  -2
   4  -8   1 9.79601 3.67289   1
   6   7   3 22.1994 5.23242  -2
  -6  -7   1 22.1994 5.23242   1
   5   7   2 29.9229 3.23143  -2
  -5  -7   1 29.9229 3.23143   1
   4   7   2 69.0431 3.78863  -2
  -4  -7   1 69.0431 3.78863   1
   3   7   2 28.6143 1.91820  -2
  -3  -7   1 28.6143 1.91820   1
   2   7   2 43.7368 1.49757  -2
  -2  -7   1 43.7368 1.49757   1
   1   7   2 0.12858 0.75245  -2
  -1  -7   1 0.12858 0.75245   1
   0   7   2 18.0818 0.98519  -2
   0  -7   1 18.0818 0.98519   1
  -1   7   2 2.69519 1.12067  -2
   1  -7   1 2.69519 1.12067   1
  -2   7   2 1.25703 1.22410  -2
   2  -7   1 1.25703 1.22410   1
  -3   7   2 141.929 3.84164  -2
   3  -7   1 141.929 3.84164   1
   4  -7   1 -0.1203 1.16056   1
   5  -7   1 12.9420 1.73694   1
  -7  -6   1 76.9911 4.32025   1
   6   6   2 15.7294 1.45386  -2
  -6  -6   1 15.7294 1.45386   1
   5   6   2 149.712 5.24537  -2
  -5  -6   1 149.712 5.24537   1
   4   6   2 48.7594 3.73783  -2
  -4  -6   1 48.7594 3.73783   1
   3   6   2 396.418 12.0309  -2
  -3  -6   1 396.418 12.0309   1
   2   6   2 54.6510 2.13078  -2
  -2  -6   1 54.6510 2.13078   1
   1   6   2 1222.99 30.6819  -2
  -1  -6   1 1222.99 30.6819   1
   0   6   2 358.597 7.36460  -2
   0  -6   1 358.597 7.36460   1
  -1   6   2 2.41659 1.06939  -2
   1  -6   1 2.41659 1.06939   1
  -2   6   2 110.529 2.98074  -2
   2  -6   1 110.529 2.98074   1
   3  -6   1 35.1499 2.03634   1
  -4   6   1 26.3475 2.91172  -2
   4  -6   1 26.3475 2.91172   1
  -5   6   1 52.9280 2.33057  -2
   5  -6   1 52.9280 2.33057   1
  -6   6   1 10.7108 3.11751  -2
   6  -6   1 10.7108 3.11751   1
   8   5   2 8.75215 2.95760  -2
  -8  -5   1 8.75215 2.95760   1
   7   5   2 22.4848 2.16179  -2
  -7  -5   1 22.4848 2.16179   1
   6   5   2 103.168 2.80481  -2
  -6  -5   1 103.168 2.80481   1
   5   5   2 82.4467 2.28923  -2
  -5  -5   1 82.4467 2.28923   1
   4   5   2 213.524 5.88173  -2
  -4  -5   1 213.524 5.88173   1
   3   5   2 57.6750 1.90836  -2
  -3  -5   1 57.6750 1.90836   1
   2   5   2 44.1992 2.31957  -2
  -2  -5   1 44.1992 2.31957   1
   1   5   2 32.8973 1.17528  -2
  -1  -5   1 32.8973 1.17528   1
   0   5   2 22.0418 1.30686  -2
   0  -5   1 22.0418 1.30686   1
   1  -5   1 25.5700 0.99723   1
   2  -5   1 14.9648 0.87548   1
  -3   5   1 336.402 10.1326  -2
   3  -5   1 336.402 10.1326   1
  -4   5   1 167.450 4.81216  -2
   4  -5   1 167.450 4.81216   1
  -5   5   1 25.9091 1.73382  -2
   5  -5   1 25.9091 1.73382   1
  -6   5   1 8.32526 1.46903  -2
   6  -5   1 8.32526 1.46903   1
   8   4   2 2.42869 1.50685  -2
  -8  -4   1 2.42869 1.50685   1
   7   4   2 179.005 4.42759  -2
  -7  -4   1 179.005 4.42759   1
   6   4   2 15.8059 1.13930  -2
  -6  -4   1 15.8059 1.13930   1
   5   4   2 42.3558 1.31332  -2
  -5  -4   1 42.3558 1.31332   1
   4   4   2 91.7510 2.25444  -2
  -4  -4   1 91.7510 2.25444   1
   3   4   2 45.3476 2.23139  -2
  -3  -4   1 45.3476 2.23139   1
   2   4   2 143.073 5.59859  -2
  -2  -4   1 143.073 5.59859   1
  -1  -4   1 221.020 4.01050   1
   0  -4   1 127.454 2.74405   1
   1  -4   1 76.1988 1.77611   1
  -2   4   1 103.296 2.98535  -2
   2  -4   1 103.296 2.98535   1
  -3   4   1 501.520 12.5866  -2
   3  -4   1 501.520 12.5866   1
  -4   4   1 60.2068 2.65460  -2
   4  -4   1 60.2068 2.65460   1
  -5   4   1 89.8764 3.48291  -2
   5  -4   1 89.8764 3.48291   1
  -6   4   1 8.24200 1.57412  -2
   6  -4   1 8.24200 1.57412   1
  -7   4   1 10.0584 2.12384  -2
   7  -4   1 10.0584 2.12384   1
   8   3   2 16.5001 1.55015  -2
  -8  -3   1 16.5001 1.55015   1
   7   3   2 8.64531 1.14222  -2
  -7  -3   1 8.64531 1.14222   1
   6   3   2 36.8803 1.40341  -2
  -6  -3   1 36.8803 1.40341   1
   5   3   2 69.7702 1.79257  -2
  -5  -3   1 69.7702 1.79257   1
   4   3   2 67.0815 1.82372  -2
  -4  -3   1 67.0815 1.82372   1
   3   3   2 313.832 9.33004  -2
  -3  -3   1 313.832 9.33004   1
  -2  -3   1 14.9160 0.71607   1
  -1  -3   1 154.154 2.95636   1
   0  -3   1 48.3672 1.05434   1
  -1   3   1 58.1985 3.43445  -2
   1  -3   1 58.1985 3.43445   1
  -2   3   1 57.4840 2.14711  -2
   2  -3   1 57.4840 2.14711   1
  -3   3   1 195.918 6.02863  -2
   3  -3   1 195.918 6.02863   1
  -4   3   1 356.759 10.6220  -2
   4  -3   1 356.759 10.6220   1
  -5   3   1 49.1197 2.87753  -2
   5  -3   1 49.1197 2.87753   1
  -6   3   1 69.4439 2.77333  -2
   6  -3   1 69.4439 2.77333   1
  -7   3   1 5.65644 2.10174  -2
   7  -3   1 5.65644 2.10174   1
   8   2   2 3.16336 1.26042  -2
  -8  -2   1 3.16336 1.26042   1
   7   2   2 90.7602 2.43321  -2
  -7  -2   1 90.7602 2.43321   1
   6   2   2 53.5305 2.35144  -2
  -6  -2   1 53.5305 2.35144   1
   5   2   2 127.462 3.17416  -2
  -5  -2   1 127.462 3.17416   1
   4   2   2 107.095 4.11968  -2
  -4  -2   1 107.095 4.11968   1
  -3  -2   1 94.4828 1.78190   1
  -2  -2   1 72.0096 1.44482   1
  -1  -2   1 3821.85 77.3562   1
   0  -2   1 222.945 3.74396   1
  -1   2   1 1099.40 31.4596  -2
   1  -2   1 1099.40 31.4596   1
  -2   2   1 138.141 4.22809  -2
   2  -2   1 138.141 4.22809   1
  -3   2   1 456.129 13.2568  -2
   3  -2   1 456.129 13.2568   1
  -4   2   1 32.0708 1.72563  -2
   4  -2   1 32.0708 1.72563   1
  -5   2   1 9.28476 1.99706  -2
   5  -2   1 9.28476 1.99706   1
  -6   2   1 48.1185 2.42776  -2
   6  -2   1 48.1185 2.42776   1
  -7   2   1 11.5111 3.20604  -2
   7  -2   1 11.5111 3.20604   1
   8   1   2 17.5790 1.56934  -2
  -8  -1   1 17.5790 1.56934   1
   7   1   2 3.65556 1.04521  -2
  -7  -1   1 3.65556 1.04521   1
   6   1   2 22.9733 1.38383  -2
  -6  -1   1 22.9733 1.38383   1
   5   1   2 3.63036 0.97785  -2
  -5  -1   1 3.63036 0.97785   1
  -4  -1   1 690.444 14.0180   1
  -3  -1   1 8.06062 0.43013   1
  -2  -1   1 740.240 13.8390   1
  -1  -1   1 485.198 9.07430   1
   0   1   1 80.9145 2.95189  -2
   0  -1   1 80.9145 2.95189   1
  -1   1   1 2309.97 66.8132  -2
   1  -1   1 2309.97 66.8132   1
  -2   1   1 159.832 5.86252  -2
   2  -1   1 159.832 5.86252   1
  -3   1   1 662.112 19.0263  -2
   3  -1   1 662.112 19.0263   1
  -4   1   1 688.077 19.8440  -2
   4  -1   1 688.077 19.8440   1
  -5   1   1 311.683 11.5530  -2
   5  -1   1 311.683 11.5530   1
  -6   1   1 24.7558 1.91984  -2
   6  -1   1 24.7558 1.91984   1
  -8   1   0 19.0072 2.75982  -2
   8  -1   1 19.0072 2.75982   1
   8   0   2 15.3470 1.40006  -2
  -8   0   1 15.3470 1.40006   1
   7   0   2 107.342 3.03835  -2
  -7   0   1 107.342 3.03835   1
   6   0   2 41.4440 2.33571  -2
  -6   0   1 41.4440 2.33571   1
  -5   0   1 239.456 5.66015   1
  -4   0   1 75.3024 2.02029   1
  -3   0   1 197.725 5.11208   1
  -2   0   1 1.67474 0.27959   1
   1   0   1 5948.21 136.951  -2
  -1   0   1 5948.21 136.951   1
  -1   0   1 5419.40 137.136  -2
   1   0   1 5419.40 137.136   1
  -2   0   1 154.591 8.01830  -2
   2   0   1 154.591 8.01830   1
   3   0   1 928.632 22.8532   1
   4   0   1 87.1475 2.30510   1
   5   0   1 49.5045 1.51108   1
   6   0   0 162.452 4.22851  -2
   6   0   1 162.452 4.22851   1
   7   0   0 35.4717 2.14760  -2
   7   0   1 35.4717 2.14760   1
   8   0   0 17.7683 1.83025  -2
   8   0   1 17.7683 1.83025   1
   8  -1   2 33.5086 2.35201  -2
  -8   1   1 33.5086 2.35201   1
   7  -1   2 4.39091 3.98288  -2
  -7   1   1 4.39091 3.98288   1
   6  -1   1 18.4570 2.05284  -2
  -6   1   1 18.4570 2.05284   1
   5  -1   1 211.638 6.69590  -2
  -5   1   1 211.638 6.69590   1
   4  -1   1 819.446 20.5281  -2
  -4   1   1 819.446 20.5281   1
   3  -1   1 520.437 13.0205  -2
  -3   1   1 520.437 13.0205   1
   2  -1   1 119.753 3.17205  -2
  -2   1   1 119.753 3.17205   1
   1  -1   1 2119.29 53.0322  -2
  -1   1   1 2119.29 53.0322   1
   0  -1   1 59.7938 2.26107  -2
   0   1   1 59.7938 2.26107   1
  -1  -1   1 1397.92 51.1192  -2
   1   1   1 1397.92 51.1192   1
   2   1   1 1300.36 24.8969   1
   3   1   1 27.9178 0.82959   1
   4   1   1 420.789 8.79803   1
   5   1   0 917.406 22.7718  -2
   5   1   1 917.406 22.7718   1
   6   1   0 57.2211 2.25557  -2
   6   1   1 57.2211 2.25557   1
   7   1   0 35.3739 1.74885  -2
   7   1   1 35.3739 1.74885   1
   8   1   0 21.4894 1.98801  -2
   8   1   1 21.4894 1.98801   1
   7  -2   1 0.52504 4.07730  -2
  -7   2   1 0.52504 4.07730   1
   6  -2   1 32.1601 2.09440  -2
  -6   2   1 32.1601 2.09440   1
   5  -2   1 16.3763 2.85051  -2
  -5   2   1 16.3763 2.85051   1
   4  -2   1 33.7907 1.76101  -2
  -4   2   1 33.7907 1.76101   1
   3  -2   1 320.569 8.17577  -2
  -3   2   1 320.569 8.17577   1
   2  -2   1 123.565 3.31657  -2
  -2   2   1 123.565 3.31657   1
   1  -2   1 1337.62 29.4777  -2
  -1   2   1 1337.62 29.4777   1
   0   2   1 90.0876 1.88521   1
  -1  -2   1 5425.95 195.732  -2
   1   2   1 5425.95 195.732   1
   2   2   1 211.628 3.86516   1
   3   2   1 168.848 3.31320   1
   4   2   0 52.9772 1.71770  -2
   4   2   1 52.9772 1.71770   1
   5   2   0 8.13181 1.01890  -2
   5   2   1 8.13181 1.01890   1
   6   2   0 284.260 7.50124  -2
   6   2   1 284.260 7.50124   1
   7   2   0 32.6565 1.68212  -2
   7   2   1 32.6565 1.68212   1
   8   2   0 19.2964 1.49961  -2
   8   2   1 19.2964 1.49961   1
   7  -3   1 4.88579 2.01182  -2
  -7   3   1 4.88579 2.01182   1
   6  -3   1 56.9489 2.48381  -2
  -6   3   1 56.9489 2.48381   1
   5  -3   1 34.7545 2.47049  -2
  -5   3   1 34.7545 2.47049   1
   4  -3   1 445.776 11.3698  -2
  -4   3   1 445.776 11.3698   1
   3  -3   1 156.818 3.78804  -2
  -3   3   1 156.818 3.78804   1
   2  -3   1 39.9252 1.31355  -2
  -2   3   1 39.9252 1.31355   1
   1  -3   1 52.2036 2.19961  -2
  -1   3   1 52.2036 2.19961   1
   0   3   1 476.389 8.93002   1
   1   3   1 172.320 3.14384   1
   2   3   0 87.5765 3.29459  -2
   2   3   1 87.5765 3.29459   1
   3   3   0 85.5402 2.73691  -2
   3   3   1 85.5402 2.73691   1
   4   3   0 11.0833 0.62597  -2
   4   3   1 11.0833 0.62597   1
   5   3   0 776.385 16.0830  -2
   5   3   1 776.385 16.0830   1
   6   3   0 31.3269 1.20324  -2
   6   3   1 31.3269 1.20324   1
   7   3   0 32.7578 1.42245  -2
   7   3   1 32.7578 1.42245   1
   8   3   0 8.90355 1.45305  -2
   8   3   1 8.90355 1.45305   1
   7  -4   1 5.17850 1.75596  -2
  -7   4   1 5.17850 1.75596   1
   6  -4   1 6.88010 1.31931  -2
  -6   4   1 6.88010 1.31931   1
   5  -4   1 112.787 3.45779  -2
  -5   4   1 112.787 3.45779   1
   4  -4   1 82.1032 2.68503  -2
  -4   4   1 82.1032 2.68503   1
   3  -4   1 524.606 11.7777  -2
  -3   4   1 524.606 11.7777   1
   2  -4   1 96.0636 5.41630  -2
  -2   4   1 96.0636 5.41630   1
  -1   4   1 63.0541 1.51889   1
   0   4   1 260.133 4.98547   1
   1   4   0 631.844 22.3216  -2
   1   4   1 631.844 22.3216   1
   2   4   0 213.441 5.03676  -2
   2   4   1 213.441 5.03676   1
   3   4   0 10.2043 1.01773  -2
   3   4   1 10.2043 1.01773   1
   4   4   0 114.574 2.62556  -2
   4   4   1 114.574 2.62556   1
   5   4   0 1.64961 0.51323  -2
   5   4   1 1.64961 0.51323   1
   6   4   0 113.520 3.02623  -2
   6   4   1 113.520 3.02623   1
   7   4   0 119.647 3.02811  -2
   7   4   1 119.647 3.02811   1
   8   4   0 4.34112 1.71435  -2
   8   4   1 4.34112 1.71435   1
   6  -5   1 5.13606 1.59711  -2
  -6   5   1 5.13606 1.59711   1
   5  -5   1 23.5551 1.81602  -2
  -5   5   1 23.5551 1.81602   1
   4  -5   1 203.175 7.82162  -2
  -4   5   1 203.175 7.82162   1
   3  -5   1 258.286 6.83084  -2
  -3   5   1 258.286 6.83084   1
  -2   5   1 -0.4994 0.58925   1
  -1   5   1 3.03023 0.47024   1
   0   5   0 170.583 3.71676  -2
   0   5   1 170.583 3.71676   1
   1   5   0 7.22117 0.62283  -2
   1   5   1 7.22117 0.62283   1
   2   5   0 174.848 3.77312  -2
   2   5   1 174.848 3.77312   1
   3   5   0 31.7074 0.85031  -2
   3   5   1 31.7074 0.85031   1
   4   5   0 32.2959 0.88395  -2
   4   5   1 32.2959 0.88395   1
   5   5   0 424.279 9.84669  -2
   5   5   1 424.279 9.84669   1
   6   5   0 45.5198 1.65417  -2
   6   5   1 45.5198 1.65417   1
   7   5   0 41.8445 1.66643  -2
   7   5   1 41.8445 1.66643   1
   8   5   0 -0.6563 3.12894  -2
   8   5   1 -0.6563 3.12894   1
   6  -6   1 2.95736 2.37072  -2
  -6   6   1 2.95736 2.37072   1
   5  -6   1 56.8987 2.68799  -2
  -5   6   1 56.8987 2.68799   1
   4  -6   1 42.3840 2.58024  -2
  -4   6   1 42.3840 2.58024   1
  -3   6   0 71.1795 5.34524  -2
  -3   6   1 71.1795 5.34524   1
  -2   6   0 186.670 6.10059  -2
  -2   6   1 186.670 6.10059   1
  -1   6   0 39.4157 1.53327  -2
  -1   6   1 39.4157 1.53327   1
   0   6   0 595.521 12.2712  -2
   0   6   1 595.521 12.2712   1
   1   6   0 859.247 19.2844  -2
   1   6   1 859.247 19.2844   1
   2   6   0 161.434 3.30462  -2
   2   6   1 161.434 3.30462   1
   3   6   0 114.505 3.21381  -2
   3   6   1 114.505 3.21381   1
   4   6   0 139.694 4.32501  -2
   4   6   1 139.694 4.32501   1
   5   6   0 20.7398 0.95562  -2
   5   6   1 20.7398 0.95562   1
   6   6   0 50.2038 3.13162  -2
   6   6   1 50.2038 3.13162   1
   7   6   1 76.9483 5.67846   1
   8   6   1 19.0371 2.87506  -2
   8   6   1 19.0371 2.87506   1
   5  -7   1 5.72234 4.07648  -2
  -5   7   1 5.72234 4.07648   1
  -4   7   0 26.9496 3.92368  -2
  -4   7   1 26.9496 3.92368   1
  -3   7   0 22.4501 1.74802  -2
  -3   7   1 22.4501 1.74802   1
  -2   7   0 24.0786 1.53911  -2
  -2   7   1 24.0786 1.53911   1
  -1   7   0 54.3129 1.84470  -2
  -1   7   1 54.3129 1.84470   1
   0   7   0 48.9097 1.80183  -2
   0   7   1 48.9097 1.80183   1
   1   7   0 33.4213 1.01259  -2
   1   7   1 33.4213 1.01259   1
   2   7   0 236.678 5.59661  -2
   2   7   1 236.678 5.59661   1
   3   7   0 29.0796 1.30444  -2
   3   7   1 29.0796 1.30444   1
   4   7   0 44.3672 3.03799  -2
   4   7   1 44.3672 3.03799   1
   5   7   0 209.043 13.2898  -2
   5   7   1 209.043 13.2898   1
   6   7   1 5.21139 4.41136  -2
   6   7   1 5.21139 4.41136   1
   7   7   1 6.26647 1.42723  -2
   7   7   1 6.26647 1.42723   1
  -4   8   0 7.04555 2.30202  -2
  -4   8   1 7.04555 2.30202   1
  -3   8   0 16.9659 2.06074  -2
  -3   8   1 16.9659 2.06074   1
  -2   8   0 4.33108 1.31323  -2
  -2   8   1 4.33108 1.31323   1
  -1   8   0 17.3398 1.16768  -2
  -1   8   1 17.3398 1.16768   1
   0   8   0 49.1946 1.56028  -2
   0   8   1 49.1946 1.56028   1
   1   8   0 223.171 6.05514  -2
   1   8   1 223.171 6.05514   1
   2   8   0 49.2692 1.98193  -2
   2   8   1 49.2692 1.98193   1
   3   8   0 6.35649 1.26287  -2
   3   8   1 6.35649 1.26287   1
   4   8   1 0.30274 1.06276   1
   5   8   1 2.75009 1.96707  -2
   5   8   1 2.75009 1.96707   1
   6   8   1 5.67061 2.94714  -2
   6   8   1 5.67061 2.94714   1
   7   8   1 88.4652 5.76932  -2
   7   8   1 88.4652 5.76932   1
  -2   9   0 6.37430 1.57719  -2
  -2   9   1 6.37430 1.57719   1
  -1   9   0 25.5533 1.87809  -2
  -1   9   1 25.5533 1.87809   1
   0   9   0 6.14730 1.37640  -2
   0   9   1 6.14730 1.37640   1
   1   9   0 15.7970 1.89834  -2
   1   9   1 15.7970 1.89834   1
   2   9   0 4.32181 1.19197  -2
   2   9   1 4.32181 1.19197   1
   3   9   1 6.32506 2.05666   1
   4   9   1 4.68109 2.73647  -2
   4   9   1 4.68109 2.73647   1
   5   9   1 21.1505 1.95887  -2
   5   9   1 21.1505 1.95887   1
   6   9   1 7.64569 2.12617  -2
   6   9   1 7.64569 2.12617   1
  -1  10   0 9.40886 3.75451  -2
  -1  10   1 9.40886 3.75451   1
   0  10   0 48.0178 4.28965  -2
   0  10   1 48.0178 4.28965   1
   1  10   0 94.7908 6.26731  -2
   1  10   1 94.7908 6.26731   1
   2  10   1 10.5410 2.99097  -2
   2  10   1 10.5410 2.99097   1
   3  10   1 1.06466 3.95995  -2
   3  10   1 1.06466 3.95995   1
   4  10   1 11.2543 3.28592  -2
   4  10   1 11.2543 3.28592   1
   4  10   4 1.56856 2.30477  -2
  -4 -10   2 1.56856 2.30477   1
   3  10   4 4.26616 2.18477  -2
  -3 -10   2 4.26616 2.18477   1
   2  10   4 16.8715 4.44801  -2
  -2 -10   2 16.8715 4.44801   1
   1  10   3 13.0616 2.07103  -2
  -1 -10   2 13.0616 2.07103   1
   0  10   3 10.2268 3.65496  -2
   0 -10   2 10.2268 3.65496   1
   6   9   4 11.9201 2.88652  -2
  -6  -9   2 11.9201 2.88652   1
   5   9   4 17.4861 1.99549  -2
  -5  -9   2 17.4861 1.99549   1
   4   9   4 12.9019 1.89343  -2
  -4  -9   2 12.9019 1.89343   1
   3   9   4 15.3434 3.86097  -2
  -3  -9   2 15.3434 3.86097   1
   2   9   3 19.0831 1.86904  -2
  -2  -9   2 19.0831 1.86904   1
   1   9   3 8.13475 1.32511  -2
  -1  -9   2 8.13475 1.32511   1
   0   9   3 12.1773 1.35875  -2
   0  -9   2 12.1773 1.35875   1
  -1   9   3 24.2084 1.46565  -2
   1  -9   2 24.2084 1.46565   1
  -2   9   3 12.4112 1.25362  -2
   2  -9   2 12.4112 1.25362   1
   7   8   4 31.5466 4.03670  -2
  -7  -8   2 31.5466 4.03670   1
   6   8   4 43.5035 2.58391  -2
  -6  -8   2 43.5035 2.58391   1
   5   8   4 16.6745 1.94527  -2
  -5  -8   2 16.6745 1.94527   1
   4   8   3 67.7932 5.36343  -2
  -4  -8   2 67.7932 5.36343   1
   3   8   3 14.5719 1.87877  -2
  -3  -8   2 14.5719 1.87877   1
   2   8   3 10.2520 1.27235  -2
  -2  -8   2 10.2520 1.27235   1
   1   8   3 80.0481 2.71577  -2
  -1  -8   2 80.0481 2.71577   1
   0   8   3 1.94055 1.04772  -2
   0  -8   2 1.94055 1.04772   1
  -1   8   3 42.3985 1.45586  -2
   1  -8   2 42.3985 1.45586   1
  -2   8   3 4.84888 1.73110  -2
   2  -8   2 4.84888 1.73110   1
  -3   8   3 25.4244 1.78203  -2
   3  -8   2 25.4244 1.78203   1
  -4   8   3 9.99523 4.85155  -2
   4  -8   2 9.99523 4.85155   1
   7   7   4 9.70573 5.77344  -2
  -7  -7   2 9.70573 5.77344   1
   6   7   4 18.9563 2.92516  -2
  -6  -7   2 18.9563 2.92516   1
   5   7   3 90.5222 3.22059  -2
  -5  -7   2 90.5222 3.22059   1
   4   7   3 157.147 4.65008  -2
  -4  -7   2 157.147 4.65008   1
   3   7   3 111.633 3.48008  -2
  -3  -7   2 111.633 3.48008   1
   2   7   3 213.988 6.61854  -2
  -2  -7   2 213.988 6.61854   1
   1   7   3 4.52163 0.58025  -2
  -1  -7   2 4.52163 0.58025   1
   0   7   3 35.8894 1.40214  -2
   0  -7   2 35.8894 1.40214   1
  -1   7   3 43.6183 1.80018  -2
   1  -7   2 43.6183 1.80018   1
  -2   7   3 53.2475 1.93731  -2
   2  -7   2 53.2475 1.93731   1
  -3   7   3 27.7566 1.81999  -2
   3  -7   2 27.7566 1.81999   1
   4  -7   2 41.0570 3.68618   1
   5  -7   2 3.86743 2.46572   1
   8   6   4 17.4291 1.69025  -2
  -8  -6   2 17.4291 1.69025   1
  -7  -6   2 14.0723 3.00173   1
   6   6   3 88.1502 3.45310  -2
  -6  -6   2 88.1502 3.45310   1
   5   6   3 28.9572 2.14941  -2
  -5  -6   2 28.9572 2.14941   1
   4   6   3 121.976 7.10439  -2
  -4  -6   2 121.976 7.10439   1
   3   6   3 16.3008 1.38029  -2
  -3  -6   2 16.3008 1.38029   1
   2   6   3 35.5155 1.27880  -2
  -2  -6   2 35.5155 1.27880   1
   1   6   3 431.072 12.8723  -2
  -1  -6   2 431.072 12.8723   1
   0   6   3 209.442 4.86695  -2
   0  -6   2 209.442 4.86695   1
  -1   6   3 46.3404 2.50359  -2
   1  -6   2 46.3404 2.50359   1
  -2   6   3 81.1339 3.14761  -2
   2  -6   2 81.1339 3.14761   1
   3  -6   2 4.57603 1.35768   1
  -4   6   2 37.6802 4.58080  -2
   4  -6   2 37.6802 4.58080   1
  -5   6   2 6.22691 1.83082  -2
   5  -6   2 6.22691 1.83082   1
   8   5   3 -1.5512 2.73052  -2
  -8  -5   2 -1.5512 2.73052   1
   7   5   3 20.4414 3.12880  -2
  -7  -5   2 20.4414 3.12880   1
   6   5   3 34.5327 2.34847  -2
  -6  -5   2 34.5327 2.34847   1
   5   5   3 138.170 3.77443  -2
  -5  -5   2 138.170 3.77443   1
   4   5   3 258.475 9.67739  -2
  -4  -5   2 258.475 9.67739   1
   3   5   3 246.898 6.56776  -2
  -3  -5   2 246.898 6.56776   1
   2   5   3 72.5595 2.63337  -2
  -2  -5   2 72.5595 2.63337   1
   1   5   3 192.885 4.50635  -2
  -1  -5   2 192.885 4.50635   1
   0   5   3 198.660 4.25421  -2
   0  -5   2 198.660 4.25421   1
   1  -5   2 84.6533 1.86932   1
   2  -5   2 50.7947 1.31387   1
  -3   5   2 111.952 3.42687  -2
   3  -5   2 111.952 3.42687   1
  -4   5   2 294.075 6.97577  -2
   4  -5   2 294.075 6.97577   1
  -5   5   2 17.3245 1.62374  -2
   5  -5   2 17.3245 1.62374   1
  -6   5   2 2.58628 1.51090  -2
   6  -5   2 2.58628 1.51090   1
   8   4   3 3.17953 1.76190  -2
  -8  -4   2 3.17953 1.76190   1
   7   4   3 3.07045 1.19779  -2
  -7  -4   2 3.07045 1.19779   1
   6   4   3 129.198 3.63113  -2
  -6  -4   2 129.198 3.63113   1
   5   4   3 60.2949 2.04850  -2
  -5  -4   2 60.2949 2.04850   1
   4   4   3 131.590 3.14881  -2
  -4  -4   2 131.590 3.14881   1
   3   4   3 30.2264 1.81427  -2
  -3  -4   2 30.2264 1.81427   1
   2   4   3 70.5954 2.97855  -2
  -2  -4   2 70.5954 2.97855   1
   1   4   3 390.551 13.7741  -2
  -1  -4   2 390.551 13.7741   1
   0  -4   2 27.0511 0.70042   1
   1  -4   2 0.46729 0.35600   1
  -2   4   2 34.5544 1.35676  -2
   2  -4   2 34.5544 1.35676   1
  -3   4   2 5.78649 1.50398  -2
   3  -4   2 5.78649 1.50398   1
  -4   4   2 57.8698 2.58445  -2
   4  -4   2 57.8698 2.58445   1
  -5   4   2 19.9659 1.59473  -2
   5  -4   2 19.9659 1.59473   1
  -6   4   2 74.7309 2.43664  -2
   6  -4   2 74.7309 2.43664   1
  -7   4   2 12.4289 1.66057  -2
   7  -4   2 12.4289 1.66057   1
   8   3   3 3.16487 1.61202  -2
  -8  -3   2 3.16487 1.61202   1
   7   3   3 12.6245 1.19518  -2
  -7  -3   2 12.6245 1.19518   1
   6   3   3 17.4771 1.02617  -2
  -6  -3   2 17.4771 1.02617   1
   5   3   3 361.764 8.31768  -2
  -5  -3   2 361.764 8.31768   1
   4   3   3 171.406 4.02696  -2
  -4  -3   2 171.406 4.02696   1
   3   3   3 341.502 8.73225  -2
  -3  -3   2 341.502 8.73225   1
   2   3   3 68.0887 3.75429  -2
  -2  -3   2 68.0887 3.75429   1
  -1  -3   2 20.7628 0.50874   1
   0  -3   2 408.524 7.18064   1
  -1   3   2 16.4017 1.80304  -2
   1  -3   2 16.4017 1.80304   1
  -2   3   2 173.217 4.58809  -2
   2  -3   2 173.217 4.58809   1
  -3   3   2 26.6592 1.33561  -2
   3  -3   2 26.6592 1.33561   1
  -4   3   2 461.224 11.7400  -2
   4  -3   2 461.224 11.7400   1
  -5   3   2 9.23975 1.59800  -2
   5  -3   2 9.23975 1.59800   1
  -6   3   2 41.1649 2.22159  -2
   6  -3   2 41.1649 2.22159   1
  -7   3   2 4.49026 1.57235  -2
   7  -3   2 4.49026 1.57235   1
   8   2   3 22.8467 1.82203  -2
  -8  -2   2 22.8467 1.82203   1
   7   2   3 -0.2045 1.25595  -2
  -7  -2   2 -0.2045 1.25595   1
   6   2   3 356.446 10.7044  -2
  -6  -2   2 356.446 10.7044   1
   5   2   3 46.7220 1.54681  -2
  -5  -2   2 46.7220 1.54681   1
   4   2   3 127.980 2.84505  -2
  -4  -2   2 127.980 2.84505   1
  -3  -2   2 13.5498 0.49794   1
  -2  -2   2 39.1638 0.80691   1
   1   2   2 3301.05 178.361  -2
  -1  -2   2 3301.05 178.361   1
   0   2   2 175.127 8.68930  -2
   0  -2   2 175.127 8.68930   1
  -1   2   2 18.1646 0.92325  -2
   1  -2   2 18.1646 0.92325   1
  -2   2   2 8.17065 0.84486  -2
   2  -2   2 8.17065 0.84486   1
  -3   2   2 64.4961 1.77469  -2
   3  -2   2 64.4961 1.77469   1
  -4   2   2 78.3887 2.50925  -2
   4  -2   2 78.3887 2.50925   1
  -5   2   2 19.6375 2.24117  -2
   5  -2   2 19.6375 2.24117   1
  -6   2   2 169.344 4.99505  -2
   6  -2   2 169.344 4.99505   1
  -7   2   2 6.90996 1.45004  -2
   7  -2   2 6.90996 1.45004   1
   8   1   3 7.77216 1.23970  -2
  -8  -1   2 7.77216 1.23970   1
   7   1   3 5.15808 1.18602  -2
  -7  -1   2 5.15808 1.18602   1
   6   1   3 51.7280 2.43650  -2
  -6  -1   2 51.7280 2.43650   1
   5   1   3 355.427 9.06741  -2
  -5  -1   2 355.427 9.06741   1
  -4  -1   2 264.709 5.14686   1
  -3  -1   2 312.951 5.97782   1
   2   1   2 385.731 19.4318  -2
  -2  -1   2 385.731 19.4318   1
   1   1   2 1767.38 44.8814  -2
  -1  -1   2 1767.38 44.8814   1
   0   1   2 328.295 6.83288  -2
   0  -1   2 328.295 6.83288   1
  -1   1   2 2507.69 58.5617  -2
   1  -1   2 2507.69 58.5617   1
  -2   1   2 484.210 11.0736  -2
   2  -1   2 484.210 11.0736   1
  -3   1   2 8.98828 1.06737  -2
   3  -1   2 8.98828 1.06737   1
  -4   1   2 812.013 18.1037  -2
   4  -1   2 812.013 18.1037   1
  -5   1   2 34.3335 2.13091  -2
   5  -1   2 34.3335 2.13091   1
  -6   1   2 -0.9099 2.51004  -2
   6  -1   2 -0.9099 2.51004   1
  -7   1   1 3.38843 3.17953  -2
   7  -1   2 3.38843 3.17953   1
  -8   1   1 39.1064 2.86108  -2
   8  -1   2 39.1064 2.86108   1
   8   0   3 16.6704 1.68117  -2
  -8   0   2 16.6704 1.68117   1
   7   0   3 0.51221 1.38358  -2
  -7   0   2 0.51221 1.38358   1
   6   0   3 167.094 4.79825  -2
  -6   0   2 167.094 4.79825   1
  -5   0   2 0.29469 0.60814   1
  -4   0   2 56.5777 1.63653   1
   3   0   2 85.7186 4.87791  -2
  -3   0   2 85.7186 4.87791   1
   2   0   2 46.1558 1.25673  -2
  -2   0   2 46.1558 1.25673   1
   1   0   2 857.462 21.6828  -2
  -1   0   2 857.462 21.6828   1
   0   0   2 2068.12 52.6225  -2
   0   0   2 2068.12 52.6225   1
  -1   0   2 1230.42 25.8309  -2
   1   0   2 1230.42 25.8309   1
  -2   0   2 39.0754 1.25472  -2
   2   0   2 39.0754 1.25472   1
   3   0   2 85.0905 2.42274   1
   4   0   2 21.3865 0.99099   1
   5   0   2 319.998 7.52500   1
  -6   0   1 66.2113 2.61187  -2
   6   0   2 66.2113 2.61187   1
  -7   0   1 82.6646 3.56149  -2
   7   0   2 82.6646 3.56149   1
  -8   0   1 17.5730 1.77890  -2
   8   0   2 17.5730 1.77890   1
   8  -1   3 6.85838 2.19201  -2
  -8   1   2 6.85838 2.19201   1
   7  -1   3 10.2110 3.62959  -2
  -7   1   2 10.2110 3.62959   1
   6  -1   2 5.29855 1.91348  -2
  -6   1   2 5.29855 1.91348   1
   5  -1   2 48.8448 2.40615  -2
  -5   1   2 48.8448 2.40615   1
   4  -1   2 603.995 13.6173  -2
  -4   1   2 603.995 13.6173   1
   3  -1   2 13.7012 0.85640  -2
  -3   1   2 13.7012 0.85640   1
   2  -1   2 368.134 8.31449  -2
  -2   1   2 368.134 8.31449   1
   1  -1   2 2643.17 54.0917  -2
  -1   1   2 2643.17 54.0917   1
   0  -1   2 326.571 8.25223  -2
   0   1   2 326.571 8.25223   1
  -1  -1   2 1766.70 50.9628  -2
   1   1   2 1766.70 50.9628   1
   2   1   2 285.006 5.98406   1
   3   1   2 311.796 8.00766   1
   4   1   2 743.781 16.7760   1
  -5  -1   1 3.27441 2.05031  -2
   5   1   2 3.27441 2.05031   1
  -6  -1   1 27.7596 1.60450  -2
   6   1   2 27.7596 1.60450   1
  -7  -1   1 4.71104 1.29019  -2
   7   1   2 4.71104 1.29019   1
  -8  -1   1 12.3241 1.89911  -2
   8   1   2 12.3241 1.89911   1
   7  -2   2 0.61185 2.82591  -2
  -7   2   2 0.61185 2.82591   1
   6  -2   2 170.254 5.00637  -2
  -6   2   2 170.254 5.00637   1
   5  -2   2 15.4585 1.70492  -2
  -5   2   2 15.4585 1.70492   1
   4  -2   2 101.304 2.71733  -2
  -4   2   2 101.304 2.71733   1
   3  -2   2 46.1500 1.42045  -2
  -3   2   2 46.1500 1.42045   1
   2  -2   2 8.41928 0.61801  -2
  -2   2   2 8.41928 0.61801   1
   1  -2   2 15.1305 0.58587  -2
  -1   2   2 15.1305 0.58587   1
   0  -2   2 195.231 6.94075  -2
   0   2   2 195.231 6.94075   1
  -1  -2   2 3967.86 98.9825  -2
   1   2   2 3967.86 98.9825   1
   2   2   2 9.19717 0.40199   1
   3   2   2 5.89490 0.40921   1
  -4  -2   1 141.209 4.38785  -2
   4   2   2 141.209 4.38785   1
  -5  -2   1 116.238 2.80726  -2
   5   2   2 116.238 2.80726   1
  -6  -2   1 83.1516 2.76224  -2
   6   2   2 83.1516 2.76224   1
  -7  -2   1 72.4985 2.35079  -2
   7   2   2 72.4985 2.35079   1
  -8  -2   1 4.83552 1.25535  -2
   8   2   2 4.83552 1.25535   1
   7  -3   2 5.47535 2.25044  -2
  -7   3   2 5.47535 2.25044   1
   6  -3   2 50.5574 2.34228  -2
  -6   3   2 50.5574 2.34228   1
   5  -3   2 11.8043 1.61421  -2
  -5   3   2 11.8043 1.61421   1
   4  -3   2 381.014 9.79843  -2
  -4   3   2 381.014 9.79843   1
   3  -3   2 26.4034 1.14416  -2
  -3   3   2 26.4034 1.14416   1
   2  -3   2 155.678 3.70956  -2
  -2   3   2 155.678 3.70956   1
   1  -3   2 16.2286 1.26503  -2
  -1   3   2 16.2286 1.26503   1
   0   3   2 9.42939 0.45746   1
   1   3   2 27.7689 0.68024   1
  -2  -3   1 164.119 4.87720  -2
   2   3   2 164.119 4.87720   1
  -3  -3   1 463.735 10.4209  -2
   3   3   2 463.735 10.4209   1
  -4  -3   1 91.9475 2.17599  -2
   4   3   2 91.9475 2.17599   1
  -5  -3   1 61.8972 1.66389  -2
   5   3   2 61.8972 1.66389   1
  -6  -3   1 36.6957 1.34757  -2
   6   3   2 36.6957 1.34757   1
  -7  -3   1 10.6183 1.27387  -2
   7   3   2 10.6183 1.27387   1
  -8  -3   1 16.9847 1.75965  -2
   8   3   2 16.9847 1.75965   1
   7  -4   2 6.23025 1.80801  -2
  -7   4   2 6.23025 1.80801   1
   6  -4   2 79.7007 2.32025  -2
  -6   4   2 79.7007 2.32025   1
   5  -4   2 16.5096 1.42146  -2
  -5   4   2 16.5096 1.42146   1
   4  -4   2 81.8147 3.09588  -2
  -4   4   2 81.8147 3.09588   1
   3  -4   2 3.78314 1.20651  -2
  -3   4   2 3.78314 1.20651   1
   2  -4   2 42.4275 1.68378  -2
  -2   4   2 42.4275 1.68378   1
  -1   4   2 48.0443 1.24939   1
   0   4   2 454.848 8.58928   1
  -1  -4   1 717.940 17.6959  -2
   1   4   2 717.940 17.6959   1
  -2  -4   1 180.774 3.97183  -2
   2   4   2 180.774 3.97183   1
  -3  -4   1 69.0669 1.87185  -2
   3   4   2 69.0669 1.87185   1
  -4  -4   1 132.629 3.26899  -2
   4   4   2 132.629 3.26899   1
  -5  -4   1 28.5736 0.93694  -2
   5   4   2 28.5736 0.93694   1
  -6  -4   1 22.1896 1.14850  -2
   6   4   2 22.1896 1.14850   1
  -7  -4   1 145.782 3.54227  -2
   7   4   2 145.782 3.54227   1
  -8  -4   1 4.42885 1.88830  -2
   8   4   2 4.42885 1.88830   1
   6  -5   2 6.66961 1.91839  -2
  -6   5   2 6.66961 1.91839   1
   5  -5   2 10.1970 1.62565  -2
  -5   5   2 10.1970 1.62565   1
   4  -5   2 259.897 9.71119  -2
  -4   5   2 259.897 9.71119   1
   3  -5   2 163.634 4.61051  -2
  -3   5   2 163.634 4.61051   1
  -2   5   2 19.1291 1.00470   1
  -1   5   2 208.850 4.43004   1
   0  -5   1 21.4880 0.98843  -2
   0   5   2 21.4880 0.98843   1
  -1  -5   1 50.1097 1.36203  -2
   1   5   2 50.1097 1.36203   1
  -2  -5   1 40.6535 1.28417  -2
   2   5   2 40.6535 1.28417   1
  -3  -5   1 41.5684 1.08509  -2
   3   5   2 41.5684 1.08509   1
  -4  -5   1 303.878 7.99847  -2
   4   5   2 303.878 7.99847   1
  -5  -5   1 80.6995 2.04999  -2
   5   5   2 80.6995 2.04999   1
  -6  -5   1 133.979 3.17419  -2
   6   5   2 133.979 3.17419   1
  -7  -5   1 29.0991 1.55940  -2
   7   5   2 29.0991 1.55940   1
  -8  -5   1 15.2208 3.39307  -2
   8   5   2 15.2208 3.39307   1
   6  -6   2 23.3435 3.89436  -2
  -6   6   2 23.3435 3.89436   1
   5  -6   2 5.08638 1.97387  -2
  -5   6   2 5.08638 1.97387   1
   4  -6   2 52.1976 2.80410  -2
  -4   6   2 52.1976 2.80410   1
   3  -6   1 26.6931 3.43900  -2
  -3   6   2 26.6931 3.43900   1
   2  -6   1 158.721 5.22079  -2
  -2   6   2 158.721 5.22079   1
   1  -6   1 3.15100 1.09348  -2
  -1   6   2 3.15100 1.09348   1
   0  -6   1 394.079 8.24452  -2
   0   6   2 394.079 8.24452   1
  -1  -6   1 1219.30 24.8158  -2
   1   6   2 1219.30 24.8158   1
  -2  -6   1 70.1749 1.62635  -2
   2   6   2 70.1749 1.62635   1
  -3  -6   1 296.595 7.54509  -2
   3   6   2 296.595 7.54509   1
  -4  -6   1 50.9050 1.91156  -2
   4   6   2 50.9050 1.91156   1
  -5  -6   1 107.441 3.07671  -2
   5   6   2 107.441 3.07671   1
  -6  -6   1 12.6493 2.06340  -2
   6   6   2 12.6493 2.06340   1
   7   6   2 45.6605 4.30133   1
   8   6   0 18.3680 2.62705  -2
   8   6   2 18.3680 2.62705   1
   5  -7   2 4.58594 3.90492  -2
  -5   7   2 4.58594 3.90492   1
   4  -7   1 14.2651 3.85367  -2
  -4   7   2 14.2651 3.85367   1
   3  -7   1 124.608 3.93348  -2
  -3   7   2 124.608 3.93348   1
   2  -7   1 0.53769 1.62546  -2
  -2   7   2 0.53769 1.62546   1
   1  -7   1 2.09119 0.96967  -2
  -1   7   2 2.09119 0.96967   1
   0  -7   1 13.1426 0.98997  -2
   0   7   2 13.1426 0.98997   1
  -1  -7   1 0.77541 0.63104  -2
   1   7   2 0.77541 0.63104   1
  -2  -7   1 43.7180 1.46337  -2
   2   7   2 43.7180 1.46337   1
  -3  -7   1 21.3472 1.00319  -2
   3   7   2 21.3472 1.00319   1
  -4  -7   1 85.5619 2.68435  -2
   4   7   2 85.5619 2.68435   1
  -5  -7   1 29.1931 1.73642  -2
   5   7   2 29.1931 1.73642   1
   6   7   0 38.5304 5.71195  -2
   6   7   2 38.5304 5.71195   1
   7   7   0 26.3903 1.78088  -2
   7   7   2 26.3903 1.78088   1
   4  -8   1 1.11129 2.72556  -2
  -4   8   2 1.11129 2.72556   1
   3  -8   1 5.24902 1.99070  -2
  -3   8   2 5.24902 1.99070   1
   2  -8   1 30.0483 1.67831  -2
  -2   8   2 30.0483 1.67831   1
   1  -8   1 24.4588 1.30596  -2
  -1   8   2 24.4588 1.30596   1
   0  -8   1 79.9719 2.33330  -2
   0   8   2 79.9719 2.33330   1
  -1  -8   1 282.986 7.30438  -2
   1   8   2 282.986 7.30438   1
  -2  -8   1 27.7198 1.84300  -2
   2   8   2 27.7198 1.84300   1
  -3  -8   1 31.6947 1.80874  -2
   3   8   2 31.6947 1.80874   1
   4   8   2 41.6992 1.65466   1
   5   8   0 0.27318 4.43846  -2
   5   8   2 0.27318 4.43846   1
   6   8   0 23.5795 2.83222  -2
   6   8   2 23.5795 2.83222   1
   2  -9   1 5.05491 1.87445  -2
  -2   9   2 5.05491 1.87445   1
   1  -9   1 2.04834 1.74157  -2
  -1   9   2 2.04834 1.74157   1
   0  -9   1 1.11939 1.51021  -2
   0   9   2 1.11939 1.51021   1
  -1  -9   1 3.77685 1.12524  -2
   1   9   2 3.77685 1.12524   1
  -2  -9   1 12.7890 1.80989  -2
   2   9   2 12.7890 1.80989   1
   3   9   2 3.49973 1.87079   1
   4   9   0 -4.2270 4.71023  -2
   4   9   2 -4.2270 4.71023   1
   5   9   0 14.8518 2.30738  -2
   5   9   2 14.8518 2.30738   1
   6   9   0 26.5573 2.42810  -2
   6   9   2 26.5573 2.42810   1
  -1  10   2 -0.0842 2.02746   1
   0 -10   1 48.5913 2.53145  -2
   0  10   2 48.5913 2.53145   1
  -1 -10   1 62.8255 3.69957  -2
   1  10   2 62.8255 3.69957   1
   2  10   0 66.2190 2.57415  -2
   2  10   2 66.2190 2.57415   1
   3  10   0 2.60830 1.76511  -2
   3  10   2 2.60830 1.76511   1
   3  10   5 0.99375 2.74488  -2
  -3 -10   3 0.99375 2.74488   1
   2  10   5 26.7015 4.43316  -2
  -2 -10   3 26.7015 4.43316   1
   1  10   4 33.1868 2.52356  -2
  -1 -10   3 33.1868 2.52356   1
   0  10   4 17.4265 3.88303  -2
   0 -10   3 17.4265 3.88303   1
   5   9   5 30.4025 2.20833  -2
  -5  -9   3 30.4025 2.20833   1
   4   9   5 16.3919 1.97227  -2
  -4  -9   3 16.3919 1.97227   1
   3   9   5 41.5134 4.86153  -2
  -3  -9   3 41.5134 4.86153   1
   2   9   4 8.26927 1.10229  -2
  -2  -9   3 8.26927 1.10229   1
   1   9   4 19.9379 1.47156  -2
  -1  -9   3 19.9379 1.47156   1
   0   9   4 12.0221 1.40572  -2
   0  -9   3 12.0221 1.40572   1
  -1   9   4 24.0200 1.48317  -2
   1  -9   3 24.0200 1.48317   1
  -2   9   4 20.3331 1.54091  -2
   2  -9   3 20.3331 1.54091   1
   6   8   5 21.1726 2.45712  -2
  -6  -8   3 21.1726 2.45712   1
   5   8   5 21.3427 3.20628  -2
  -5  -8   3 21.3427 3.20628   1
   4   8   4 22.3322 1.95014  -2
  -4  -8   3 22.3322 1.95014   1
   3   8   4 1.54354 2.95835  -2
  -3  -8   3 1.54354 2.95835   1
   2   8   4 4.91492 0.81903  -2
  -2  -8   3 4.91492 0.81903   1
   1   8   4 30.9766 1.33469  -2
  -1  -8   3 30.9766 1.33469   1
   0   8   4 14.8539 1.19332  -2
   0  -8   3 14.8539 1.19332   1
  -1   8   4 2.08630 1.00750  -2
   1  -8   3 2.08630 1.00750   1
  -2   8   4 13.7577 1.34033  -2
   2  -8   3 13.7577 1.34033   1
  -3   8   4 7.44495 1.63058  -2
   3  -8   3 7.44495 1.63058   1
   7   7   5 26.0392 6.04050  -2
  -7  -7   3 26.0392 6.04050   1
   6   7   5 2.55702 2.55791  -2
  -6  -7   3 2.55702 2.55791   1
   5   7   4 123.716 3.97746  -2
  -5  -7   3 123.716 3.97746   1
   4   7   4 13.7888 1.67095  -2
  -4  -7   3 13.7888 1.67095   1
   3   7   4 67.1413 4.97004  -2
  -3  -7   3 67.1413 4.97004   1
   2   7   4 257.266 6.07277  -2
  -2  -7   3 257.266 6.07277   1
   1   7   4 30.0039 0.93525  -2
  -1  -7   3 30.0039 0.93525   1
   0   7   4 105.620 3.47680  -2
   0  -7   3 105.620 3.47680   1
  -1   7   4 99.5846 2.68849  -2
   1  -7   3 99.5846 2.68849   1
  -2   7   4 23.7982 1.65029  -2
   2  -7   3 23.7982 1.65029   1
  -3   7   4 50.2872 2.14313  -2
   3  -7   3 50.2872 2.14313   1
   4  -7   3 5.72800 2.14684   1
  -8  -6   3 7.84727 2.13006   1
  -7  -6   3 39.6275 2.93604   1
   6   6   4 34.9729 4.53608  -2
  -6  -6   3 34.9729 4.53608   1
   5   6   4 66.2871 5.20946  -2
  -5  -6   3 66.2871 5.20946   1
   4   6   4 6.60048 1.62891  -2
  -4  -6   3 6.60048 1.62891   1
   3   6   4 40.9213 1.94701  -2
  -3  -6   3 40.9213 1.94701   1
   2   6   4 25.8691 1.12203  -2
  -2  -6   3 25.8691 1.12203   1
   1   6   4 250.381 5.31805  -2
  -1  -6   3 250.381 5.31805   1
   0   6   4 325.318 7.36106  -2
   0  -6   3 325.318 7.36106   1
  -1   6   4 3.07430 1.55924  -2
   1  -6   3 3.07430 1.55924   1
  -2   6   4 115.676 3.12155  -2
   2  -6   3 115.676 3.12155   1
   3  -6   3 1.54023 1.19235   1
  -4   6   3 16.2334 3.82337  -2
   4  -6   3 16.2334 3.82337   1
  -5   6   3 32.9191 2.09445  -2
   5  -6   3 32.9191 2.09445   1
   7   5   4 29.7332 2.05403  -2
  -7  -5   3 29.7332 2.05403   1
   6   5   4 16.3454 1.95813  -2
  -6  -5   3 16.3454 1.95813   1
   5   5   4 174.071 4.65682  -2
  -5  -5   3 174.071 4.65682   1
   4   5   4 10.6305 1.10803  -2
  -4  -5   3 10.6305 1.10803   1
   3   5   4 72.5676 2.62308  -2
  -3  -5   3 72.5676 2.62308   1
   2   5   4 410.953 11.9642  -2
  -2  -5   3 410.953 11.9642   1
   1   5   4 123.627 2.77037  -2
  -1  -5   3 123.627 2.77037   1
   0   5   4 142.846 2.94045  -2
   0  -5   3 142.846 2.94045   1
  -1   5   4 164.637 5.11996  -2
   1  -5   3 164.637 5.11996   1
   2  -5   3 6.81087 0.66980   1
  -3   5   3 137.688 3.60353  -2
   3  -5   3 137.688 3.60353   1
  -4   5   3 61.4189 2.49629  -2
   4  -5   3 61.4189 2.49629   1
  -5   5   3 0.64322 1.53564  -2
   5  -5   3 0.64322 1.53564   1
  -6   5   3 5.36698 1.22486  -2
   6  -5   3 5.36698 1.22486   1
   8   4   4 7.82123 1.68164  -2
  -8  -4   3 7.82123 1.68164   1
   7   4   4 106.272 3.16460  -2
  -7  -4   3 106.272 3.16460   1
   6   4   4 69.4071 2.56709  -2
  -6  -4   3 69.4071 2.56709   1
   5   4   4 21.3704 0.99237  -2
  -5  -4   3 21.3704 0.99237   1
   4   4   4 11.6637 0.56671  -2
  -4  -4   3 11.6637 0.56671   1
   3   4   4 65.2458 1.71356  -2
  -3  -4   3 65.2458 1.71356   1
   2   4   4 43.6919 1.36904  -2
  -2  -4   3 43.6919 1.36904   1
   1   4   4 191.223 6.88163  -2
  -1  -4   3 191.223 6.88163   1
   0  -4   3 369.977 7.04369   1
   1  -4   3 0.87266 0.39637   1
  -2   4   3 54.0052 1.72470  -2
   2  -4   3 54.0052 1.72470   1
  -3   4   3 112.445 3.89801  -2
   3  -4   3 112.445 3.89801   1
  -4   4   3 4.79772 0.84558  -2
   4  -4   3 4.79772 0.84558   1
  -5   4   3 117.871 3.26577  -2
   5  -4   3 117.871 3.26577   1
  -6   4   3 36.3955 1.56117  -2
   6  -4   3 36.3955 1.56117   1
  -7   4   3 13.5473 1.64738  -2
   7  -4   3 13.5473 1.64738   1
   8   3   4 4.01189 1.67923  -2
  -8  -3   3 4.01189 1.67923   1
   7   3   4 8.76364 1.25240  -2
  -7  -3   3 8.76364 1.25240   1
   6   3   4 8.11715 0.70132  -2
  -6  -3   3 8.11715 0.70132   1
   5   3   4 350.330 8.86575  -2
  -5  -3   3 350.330 8.86575   1
   4   3   4 27.7959 0.93972  -2
  -4  -3   3 27.7959 0.93972   1
   3   3   4 31.6262 1.07104  -2
  -3  -3   3 31.6262 1.07104   1
   2   3   4 260.350 13.2465  -2
  -2  -3   3 260.350 13.2465   1
  -1  -3   3 2.78586 0.26575   1
   0  -3   3 77.4677 1.50394   1
  -1   3   3 97.4137 3.77432  -2
   1  -3   3 97.4137 3.77432   1
  -2   3   3 29.8369 1.52699  -2
   2  -3   3 29.8369 1.52699   1
  -3   3   3 45.2605 1.62672  -2
   3  -3   3 45.2605 1.62672   1
  -4   3   3 25.9358 1.37704  -2
   4  -3   3 25.9358 1.37704   1
  -5   3   3 59.4058 1.95456  -2
   5  -3   3 59.4058 1.95456   1
  -6   3   3 38.3786 1.63885  -2
   6  -3   3 38.3786 1.63885   1
  -7   3   3 11.7015 1.72709  -2
   7  -3   3 11.7015 1.72709   1
   8   2   4 12.4313 1.69780  -2
  -8  -2   3 12.4313 1.69780   1
   7   2   4 25.6242 1.30070  -2
  -7  -2   3 25.6242 1.30070   1
   6   2   4 123.244 3.57256  -2
  -6  -2   3 123.244 3.57256   1
   5   2   4 86.8178 2.02911  -2
  -5  -2   3 86.8178 2.02911   1
   4   2   4 48.5127 1.29655  -2
  -4  -2   3 48.5127 1.29655   1
  -3  -2   3 197.312 3.83936   1
  -2  -2   3 523.375 9.12751   1
   1   2   3 240.280 6.08157  -2
  -1  -2   3 240.280 6.08157   1
   0   2   3 775.049 19.1360  -2
   0  -2   3 775.049 19.1360   1
  -1   2   3 90.8941 2.48031  -2
   1  -2   3 90.8941 2.48031   1
  -2   2   3 699.886 17.3962  -2
   2  -2   3 699.886 17.3962   1
  -3   2   3 125.164 2.82831  -2
   3  -2   3 125.164 2.82831   1
  -4   2   3 118.352 3.04421  -2
   4  -2   3 118.352 3.04421   1
  -5   2   3 111.956 4.97281  -2
   5  -2   3 111.956 4.97281   1
  -6   2   3 98.0861 2.65566  -2
   6  -2   3 98.0861 2.65566   1
  -7   2   3 6.62856 3.20038  -2
   7  -2   3 6.62856 3.20038   1
   8   1   4 2.20372 1.33154  -2
  -8  -1   3 2.20372 1.33154   1
   7   1   4 5.15063 1.22515  -2
  -7  -1   3 5.15063 1.22515   1
   6   1   4 1.13671 1.30371  -2
  -6  -1   3 1.13671 1.30371   1
   5   1   4 167.454 3.76426  -2
  -5  -1   3 167.454 3.76426   1
  -4  -1   3 3.08747 0.44370   1
  -3  -1   3 90.0025 1.88029   1
   2   1   3 8.04315 1.34079  -2
  -2  -1   3 8.04315 1.34079   1
   1   1   3 447.559 10.0459  -2
  -1  -1   3 447.559 10.0459   1
   0   1   3 105.806 2.26813  -2
   0  -1   3 105.806 2.26813   1
  -1   1   3 968.968 19.6642  -2
   1  -1   3 968.968 19.6642   1
  -2   1   3 295.763 6.21113  -2
   2  -1   3 295.763 6.21113   1
  -3   1   3 160.923 3.87015  -2
   3  -1   3 160.923 3.87015   1
  -4   1   3 79.1390 2.42378  -2
   4  -1   3 79.1390 2.42378   1
  -5   1   3 235.954 5.68567  -2
   5  -1   3 235.954 5.68567   1
  -6   1   3 49.2177 4.73289  -2
   6  -1   3 49.2177 4.73289   1
  -7   1   2 11.8609 3.31190  -2
   7  -1   3 11.8609 3.31190   1
  -8   1   2 7.71384 3.06839  -2
   8  -1   3 7.71384 3.06839   1
   8   0   4 17.4106 1.85669  -2
  -8   0   3 17.4106 1.85669   1
   7   0   4 23.7611 1.66290  -2
  -7   0   3 23.7611 1.66290   1
   6   0   4 54.9442 2.10700  -2
  -6   0   3 54.9442 2.10700   1
  -5   0   3 152.756 3.82590   1
  -4   0   3 14.5586 0.85337   1
   3   0   3 335.872 7.65024  -2
  -3   0   3 335.872 7.65024   1
   2   0   3 117.969 2.83217  -2
  -2   0   3 117.969 2.83217   1
   1   0   3 175.432 4.48822  -2
  -1   0   3 175.432 4.48822   1
   0   0   3 9999.99 351.060  -2
   0   0   3 9999.99 351.060   1
  -1   0   3 155.080 3.56990  -2
   1   0   3 155.080 3.56990   1
  -2   0   3 160.355 3.22950  -2
   2   0   3 160.355 3.22950   1
  -3   0   3 264.221 7.83338  -2
   3   0   3 264.221 7.83338   1
  -4   0   3 178.387 9.69186  -2
   4   0   3 178.387 9.69186   1
   5   0   3 4.61547 0.75923   1
  -6   0   2 151.914 4.07564  -2
   6   0   3 151.914 4.07564   1
  -7   0   2 5.55937 2.48630  -2
   7   0   3 5.55937 2.48630   1
  -8   0   2 12.4488 1.97365  -2
   8   0   3 12.4488 1.97365   1
   8  -1   4 20.3983 3.31959  -2
  -8   1   3 20.3983 3.31959   1
   6  -1   3 51.1963 2.71456  -2
  -6   1   3 51.1963 2.71456   1
   5  -1   3 181.022 5.87712  -2
  -5   1   3 181.022 5.87712   1
   4  -1   3 65.0626 1.99235  -2
  -4   1   3 65.0626 1.99235   1
   3  -1   3 108.473 2.73063  -2
  -3   1   3 108.473 2.73063   1
   2  -1   3 335.576 6.41205  -2
  -2   1   3 335.576 6.41205   1
   1  -1   3 945.686 17.8347  -2
  -1   1   3 945.686 17.8347   1
   0  -1   3 127.869 3.32402  -2
   0   1   3 127.869 3.32402   1
  -1  -1   3 310.114 7.98491  -2
   1   1   3 310.114 7.98491   1
  -2  -1   3 8.57230 1.05527  -2
   2   1   3 8.57230 1.05527   1
   3   1   3 1.09705 0.35618   1
   4   1   3 236.688 6.25362   1
  -5  -1   2 445.507 13.0767  -2
   5   1   3 445.507 13.0767   1
  -6  -1   2 77.8977 2.29654  -2
   6   1   3 77.8977 2.29654   1
  -7  -1   2 5.24782 1.34985  -2
   7   1   3 5.24782 1.34985   1
  -8  -1   2 4.12548 1.64400  -2
   8   1   3 4.12548 1.64400   1
   7  -2   3 -3.2148 3.71461  -2
  -7   2   3 -3.2148 3.71461   1
   6  -2   3 107.865 3.56959  -2
  -6   2   3 107.865 3.56959   1
   5  -2   3 155.887 4.50839  -2
  -5   2   3 155.887 4.50839   1
   4  -2   3 81.7374 2.31750  -2
  -4   2   3 81.7374 2.31750   1
   3  -2   3 175.520 3.78672  -2
  -3   2   3 175.520 3.78672   1
   2  -2   3 707.490 14.3402  -2
  -2   2   3 707.490 14.3402   1
   1  -2   3 93.1277 1.89546  -2
  -1   2   3 93.1277 1.89546   1
   0  -2   3 834.624 20.6779  -2
   0   2   3 834.624 20.6779   1
  -1  -2   3 314.250 7.90320  -2
   1   2   3 314.250 7.90320   1
   2   2   3 1569.47 32.4614   1
   3   2   3 150.543 3.31808   1
  -4  -2   2 94.2829 2.77893  -2
   4   2   3 94.2829 2.77893   1
  -5  -2   2 36.5513 1.59900  -2
   5   2   3 36.5513 1.59900   1
  -6  -2   2 313.144 8.23393  -2
   6   2   3 313.144 8.23393   1
  -7  -2   2 -0.3792 1.19044  -2
   7   2   3 -0.3792 1.19044   1
  -8  -2   2 18.0643 1.44353  -2
   8   2   3 18.0643 1.44353   1
   7  -3   3 7.91809 2.04974  -2
  -7   3   3 7.91809 2.04974   1
   6  -3   3 40.5965 2.19194  -2
  -6   3   3 40.5965 2.19194   1
   5  -3   3 49.8712 1.96436  -2
  -5   3   3 49.8712 1.96436   1
   4  -3   3 25.8668 1.09707  -2
  -4   3   3 25.8668 1.09707   1
   3  -3   3 47.0869 1.38696  -2
  -3   3   3 47.0869 1.38696   1
   2  -3   3 27.4044 1.00515  -2
  -2   3   3 27.4044 1.00515   1
   1  -3   3 130.024 3.48431  -2
  -1   3   3 130.024 3.48431   1
   0   3   3 155.825 3.25053   1
   1   3   3 0.84855 0.29468   1
  -2  -3   2 92.9703 2.54107  -2
   2   3   3 92.9703 2.54107   1
  -3  -3   2 344.296 7.23888  -2
   3   3   3 344.296 7.23888   1
  -4  -3   2 168.975 3.73978  -2
   4   3   3 168.975 3.73978   1
  -5  -3   2 456.302 9.67879  -2
   5   3   3 456.302 9.67879   1
  -6  -3   2 22.3638 1.12382  -2
   6   3   3 22.3638 1.12382   1
  -7  -3   2 13.1898 1.23882  -2
   7   3   3 13.1898 1.23882   1
  -8  -3   2 4.83148 1.49136  -2
   8   3   3 4.83148 1.49136   1
   7  -4   3 12.7483 1.87879  -2
  -7   4   3 12.7483 1.87879   1
   6  -4   3 31.8328 1.51052  -2
  -6   4   3 31.8328 1.51052   1
   5  -4   3 173.981 5.01582  -2
  -5   4   3 173.981 5.01582   1
   4  -4   3 11.1289 1.42458  -2
  -4   4   3 11.1289 1.42458   1
   3  -4   3 160.481 3.98313  -2
  -3   4   3 160.481 3.98313   1
   2  -4   3 42.4202 1.54937  -2
  -2   4   3 42.4202 1.54937   1
  -1   4   3 46.2952 1.23440   1
   0   4   3 625.961 12.5299   1
  -1  -4   2 320.914 9.34092  -2
   1   4   3 320.914 9.34092   1
  -2  -4   2 112.083 2.58344  -2
   2   4   3 112.083 2.58344   1
  -3  -4   2 30.4516 0.93630  -2
   3   4   3 30.4516 0.93630   1
  -4  -4   2 102.987 2.38922  -2
   4   4   3 102.987 2.38922   1
  -5  -4   2 42.1631 1.47349  -2
   5   4   3 42.1631 1.47349   1
  -6  -4   2 118.990 3.15345  -2
   6   4   3 118.990 3.15345   1
  -7  -4   2 9.58463 1.33370  -2
   7   4   3 9.58463 1.33370   1
  -8  -4   2 3.49952 1.88770  -2
   8   4   3 3.49952 1.88770   1
   6  -5   3 1.13299 1.45201  -2
  -6   5   3 1.13299 1.45201   1
   5  -5   3 0.08822 1.64847  -2
  -5   5   3 0.08822 1.64847   1
   4  -5   3 88.5266 3.12006  -2
  -4   5   3 88.5266 3.12006   1
   3  -5   3 171.634 4.33663  -2
  -3   5   3 171.634 4.33663   1
  -2   5   3 1.64186 0.62245   1
   1  -5   2 509.707 18.1577  -2
  -1   5   3 509.707 18.1577   1
   0  -5   2 203.953 4.42403  -2
   0   5   3 203.953 4.42403   1
  -1  -5   2 234.228 4.62290  -2
   1   5   3 234.228 4.62290   1
  -2  -5   2 52.0582 1.34349  -2
   2   5   3 52.0582 1.34349   1
  -3  -5   2 358.056 7.05078  -2
   3   5   3 358.056 7.05078   1
  -4  -5   2 177.856 3.88693  -2
   4   5   3 177.856 3.88693   1
  -5  -5   2 165.509 4.12156  -2
   5   5   3 165.509 4.12156   1
  -6  -5   2 27.7832 1.82102  -2
   6   5   3 27.7832 1.82102   1
  -7  -5   2 19.8322 1.49271  -2
   7   5   3 19.8322 1.49271   1
  -8  -5   2 2.33205 4.61619  -2
   8   5   3 2.33205 4.61619   1
   5  -6   3 46.7964 2.22536  -2
  -5   6   3 46.7964 2.22536   1
   4  -6   3 17.1309 2.59613  -2
  -4   6   3 17.1309 2.59613   1
  -3   6   3 37.5534 3.06278   1
   2  -6   2 101.767 3.25731  -2
  -2   6   3 101.767 3.25731   1
   1  -6   2 39.5361 1.44247  -2
  -1   6   3 39.5361 1.44247   1
   0  -6   2 274.942 5.88266  -2
   0   6   3 274.942 5.88266   1
  -1  -6   2 372.855 7.22631  -2
   1   6   3 372.855 7.22631   1
  -2  -6   2 37.8620 1.03025  -2
   2   6   3 37.8620 1.03025   1
  -3  -6   2 21.6603 0.83119  -2
   3   6   3 21.6603 0.83119   1
  -4  -6   2 109.960 4.25849  -2
   4   6   3 109.960 4.25849   1
  -5  -6   2 22.6272 1.66048  -2
   5   6   3 22.6272 1.66048   1
  -6  -6   2 87.9728 3.11337  -2
   6   6   3 87.9728 3.11337   1
   7   6   3 2.53671 2.49003   1
  -8  -6   1 17.6825 2.25323  -2
   8   6   3 17.6825 2.25323   1
   5  -7   3 6.50930 4.15105  -2
  -5   7   3 6.50930 4.15105   1
   4  -7   2 45.7831 4.76466  -2
  -4   7   3 45.7831 4.76466   1
   3  -7   2 35.9668 2.38444  -2
  -3   7   3 35.9668 2.38444   1
   2  -7   2 36.7209 1.60723  -2
  -2   7   3 36.7209 1.60723   1
   1  -7   2 64.9205 1.91794  -2
  -1   7   3 64.9205 1.91794   1
   0  -7   2 37.6112 1.58722  -2
   0   7   3 37.6112 1.58722   1
  -1  -7   2 3.33011 0.67575  -2
   1   7   3 3.33011 0.67575   1
  -2  -7   2 143.813 3.17603  -2
   2   7   3 143.813 3.17603   1
  -3  -7   2 150.791 3.78599  -2
   3   7   3 150.791 3.78599   1
  -4  -7   2 102.172 2.99796  -2
   4   7   3 102.172 2.99796   1
  -5  -7   2 117.092 5.13133  -2
   5   7   3 117.092 5.13133   1
  -6  -7   1 22.1146 2.67135  -2
   6   7   3 22.1146 2.67135   1
  -7  -7   1 3.27558 1.44992  -2
   7   7   3 3.27558 1.44992   1
   4  -8   2 12.4399 3.75993  -2
  -4   8   3 12.4399 3.75993   1
   3  -8   2 27.2519 2.11068  -2
  -3   8   3 27.2519 2.11068   1
   2  -8   2 6.42330 1.32040  -2
  -2   8   3 6.42330 1.32040   1
   1  -8   2 38.3554 1.53975  -2
  -1   8   3 38.3554 1.53975   1
   0  -8   2 5.11007 1.04871  -2
   0   8   3 5.11007 1.04871   1
  -1  -8   2 68.7245 2.07718  -2
   1   8   3 68.7245 2.07718   1
  -2  -8   2 10.1382 0.98497  -2
   2   8   3 10.1382 0.98497   1
  -3  -8   2 9.67776 1.76750  -2
   3   8   3 9.67776 1.76750   1
  -4  -8   1 8.83250 2.79426  -2
   4   8   3 8.83250 2.79426   1
  -5  -8   1 7.84138 2.33965  -2
   5   8   3 7.84138 2.33965   1
  -6  -8   1 10.7342 2.01031  -2
   6   8   3 10.7342 2.01031   1
  -7  -8   1 22.1724 3.19805  -2
   7   8   3 22.1724 3.19805   1
   2  -9   2 10.3048 1.28490  -2
  -2   9   3 10.3048 1.28490   1
   1  -9   2 44.2964 2.48490  -2
  -1   9   3 44.2964 2.48490   1
   0  -9   2 14.6301 1.54987  -2
   0   9   3 14.6301 1.54987   1
  -1  -9   2 10.0820 1.07848  -2
   1   9   3 10.0820 1.07848   1
  -2  -9   2 13.1466 1.48429  -2
   2   9   3 13.1466 1.48429   1
   3   9   3 63.9426 2.56620   1
  -4  -9   1 3.45726 1.93075  -2
   4   9   3 3.45726 1.93075   1
  -5  -9   1 21.1357 2.14693  -2
   5   9   3 21.1357 2.14693   1
  -6  -9   1 26.6834 3.71705  -2
   6   9   3 26.6834 3.71705   1
   0 -10   2 12.7391 1.80317  -2
   0  10   3 12.7391 1.80317   1
  -1 -10   2 29.7454 6.42986  -2
   1  10   3 29.7454 6.42986   1
  -2 -10   1 37.0601 2.52123  -2
   2  10   3 37.0601 2.52123   1
  -3 -10   1 3.85149 1.82721  -2
   3  10   3 3.85149 1.82721   1
  -3 -10   4 -0.3623 1.56787   1
  -2 -10   4 6.73728 2.61423   1
   1  10   5 21.2622 1.77708  -2
  -1 -10   4 21.2622 1.77708   1
   5   9   6 14.3092 2.01547  -2
  -5  -9   4 14.3092 2.01547   1
   4   9   6 1.19124 1.93052  -2
  -4  -9   4 1.19124 1.93052   1
   3   9   6 49.0335 5.05463  -2
  -3  -9   4 49.0335 5.05463   1
   2   9   5 17.3242 1.31104  -2
  -2  -9   4 17.3242 1.31104   1
   1   9   5 2.22254 1.33594  -2
  -1  -9   4 2.22254 1.33594   1
   0   9   5 8.99969 1.37824  -2
   0  -9   4 8.99969 1.37824   1
  -1   9   5 15.8403 1.32340  -2
   1  -9   4 15.8403 1.32340   1
  -2   9   5 15.7104 1.62242  -2
   2  -9   4 15.7104 1.62242   1
   6   8   6 22.2011 2.27130  -2
  -6  -8   4 22.2011 2.27130   1
   5   8   6 0.28319 2.14503  -2
  -5  -8   4 0.28319 2.14503   1
   4   8   5 61.1002 5.38859  -2
  -4  -8   4 61.1002 5.38859   1
   3   8   5 5.46875 2.18062  -2
  -3  -8   4 5.46875 2.18062   1
   2   8   5 32.5377 1.58541  -2
  -2  -8   4 32.5377 1.58541   1
   1   8   5 87.6985 2.76606  -2
  -1  -8   4 87.6985 2.76606   1
   0   8   5 6.50589 0.91207  -2
   0  -8   4 6.50589 0.91207   1
  -1   8   5 1.18847 0.93962  -2
   1  -8   4 1.18847 0.93962   1
  -2   8   5 1.20420 1.51501  -2
   2  -8   4 1.20420 1.51501   1
  -3   8   5 8.29196 1.59023  -2
   3  -8   4 8.29196 1.59023   1
   7   7   6 -1.6341 3.18947  -2
  -7  -7   4 -1.6341 3.18947   1
   6   7   6 11.5080 4.19423  -2
  -6  -7   4 11.5080 4.19423   1
   5   7   5 30.2175 2.04329  -2
  -5  -7   4 30.2175 2.04329   1
   4   7   5 45.6948 2.14991  -2
  -4  -7   4 45.6948 2.14991   1
   3   7   5 1.98810 2.00671  -2
  -3  -7   4 1.98810 2.00671   1
   2   7   5 185.541 4.49245  -2
  -2  -7   4 185.541 4.49245   1
   1   7   5 4.10393 0.60982  -2
  -1  -7   4 4.10393 0.60982   1
   0   7   5 62.5191 1.86536  -2
   0  -7   4 62.5191 1.86536   1
  -1   7   5 41.9530 1.61926  -2
   1  -7   4 41.9530 1.61926   1
  -2   7   5 29.9911 1.50239  -2
   2  -7   4 29.9911 1.50239   1
  -3   7   5 53.2717 2.03257  -2
   3  -7   4 53.2717 2.03257   1
  -4   7   5 16.4548 4.33960  -2
   4  -7   4 16.4548 4.33960   1
   6   6   5 11.7689 2.42477  -2
  -6  -6   4 11.7689 2.42477   1
   5   6   5 55.7081 3.09489  -2
  -5  -6   4 55.7081 3.09489   1
   4   6   5 64.4595 3.16782  -2
  -4  -6   4 64.4595 3.16782   1
   3   6   5 146.552 7.79428  -2
  -3  -6   4 146.552 7.79428   1
   2   6   5 10.8356 0.62412  -2
  -2  -6   4 10.8356 0.62412   1
   1   6   5 230.429 5.36215  -2
  -1  -6   4 230.429 5.36215   1
   0   6   5 37.5255 1.20739  -2
   0  -6   4 37.5255 1.20739   1
  -1   6   5 7.26391 1.12127  -2
   1  -6   4 7.26391 1.12127   1
  -2   6   5 49.8311 1.91345  -2
   2  -6   4 49.8311 1.91345   1
   3  -6   4 36.5827 2.42066   1
  -4   6   4 20.1401 4.28058  -2
   4  -6   4 20.1401 4.28058   1
  -5   6   4 33.6296 1.94972  -2
   5  -6   4 33.6296 1.94972   1
   8   5   5 5.27859 2.82606  -2
  -8  -5   4 5.27859 2.82606   1
   7   5   5 14.3122 1.72928  -2
  -7  -5   4 14.3122 1.72928   1
   6   5   5 24.3361 1.65617  -2
  -6  -5   4 24.3361 1.65617   1
   5   5   5 33.6491 2.01283  -2
  -5  -5   4 33.6491 2.01283   1
   4   5   5 154.830 5.85633  -2
  -4  -5   4 154.830 5.85633   1
   3   5   5 39.5710 1.37622  -2
  -3  -5   4 39.5710 1.37622   1
   2   5   5 374.550 9.50261  -2
  -2  -5   4 374.550 9.50261   1
   1   5   5 188.679 4.47768  -2
  -1  -5   4 188.679 4.47768   1
   0   5   5 107.570 2.50760  -2
   0  -5   4 107.570 2.50760   1
  -1   5   5 276.389 14.3199  -2
   1  -5   4 276.389 14.3199   1
   2  -5   4 57.0309 1.64349   1
  -3   5   4 89.4867 2.42927  -2
   3  -5   4 89.4867 2.42927   1
  -4   5   4 184.163 5.18722  -2
   4  -5   4 184.163 5.18722   1
  -5   5   4 8.35113 1.80697  -2
   5  -5   4 8.35113 1.80697   1
  -6   5   4 3.68665 1.91708  -2
   6  -5   4 3.68665 1.91708   1
   8   4   5 6.68183 2.05728  -2
  -8  -4   4 6.68183 2.05728   1
   7   4   5 59.7647 2.25715  -2
  -7  -4   4 59.7647 2.25715   1
   6   4   5 24.2899 1.59067  -2
  -6  -4   4 24.2899 1.59067   1
   5   4   5 38.0509 1.16846  -2
  -5  -4   4 38.0509 1.16846   1
   4   4   5 84.8432 2.13788  -2
  -4  -4   4 84.8432 2.13788   1
   3   4   5 4.58168 0.43005  -2
  -3  -4   4 4.58168 0.43005   1
   2   4   5 14.7198 0.78914  -2
  -2  -4   4 14.7198 0.78914   1
   1   4   5 43.2330 1.43907  -2
  -1  -4   4 43.2330 1.43907   1
   0  -4   4 4.55571 0.40129   1
   1  -4   4 96.4896 2.20750   1
  -2   4   4 8.87106 1.34678  -2
   2  -4   4 8.87106 1.34678   1
  -3   4   4 226.579 7.01429  -2
   3  -4   4 226.579 7.01429   1
  -4   4   4 25.2698 1.46242  -2
   4  -4   4 25.2698 1.46242   1
  -5   4   4 60.2180 2.11007  -2
   5  -4   4 60.2180 2.11007   1
  -6   4   4 14.3802 1.18676  -2
   6  -4   4 14.3802 1.18676   1
  -7   4   4 2.42746 2.67788  -2
   7  -4   4 2.42746 2.67788   1
   8   3   5 10.7481 1.84423  -2
  -8  -3   4 10.7481 1.84423   1
   7   3   5 22.0926 1.61535  -2
  -7  -3   4 22.0926 1.61535   1
   6   3   5 7.93720 0.81892  -2
  -6  -3   4 7.93720 0.81892   1
   5   3   5 71.5911 2.04391  -2
  -5  -3   4 71.5911 2.04391   1
   4   3   5 64.6162 1.81842  -2
  -4  -3   4 64.6162 1.81842   1
   3   3   5 118.761 2.64111  -2
  -3  -3   4 118.761 2.64111   1
   2   3   5 660.269 23.2943  -2
  -2  -3   4 660.269 23.2943   1
  -1  -3   4 18.0787 0.51942   1
   0  -3   4 98.9359 2.00895   1
  -1   3   4 87.0694 2.87526  -2
   1  -3   4 87.0694 2.87526   1
  -2   3   4 148.978 4.04585  -2
   2  -3   4 148.978 4.04585   1
  -3   3   4 39.1522 1.58134  -2
   3  -3   4 39.1522 1.58134   1
  -4   3   4 327.061 8.62804  -2
   4  -3   4 327.061 8.62804   1
  -5   3   4 0.15908 0.89260  -2
   5  -3   4 0.15908 0.89260   1
  -6   3   4 34.9153 1.59959  -2
   6  -3   4 34.9153 1.59959   1
  -7   3   4 0.62937 1.90968  -2
   7  -3   4 0.62937 1.90968   1
   8   2   5 1.43634 1.34769  -2
  -8  -2   4 1.43634 1.34769   1
   7   2   5 18.2761 1.29011  -2
  -7  -2   4 18.2761 1.29011   1
   6   2   5 48.7688 1.59957  -2
  -6  -2   4 48.7688 1.59957   1
   5   2   5 97.9265 2.90882  -2
  -5  -2   4 97.9265 2.90882   1
   4   2   5 24.2316 1.03473  -2
  -4  -2   4 24.2316 1.03473   1
  -3  -2   4 0.64867 0.28021   1
  -2  -2   4 21.4772 0.56551   1
   1   2   4 11.1733 0.63231  -2
  -1  -2   4 11.1733 0.63231   1
   0   2   4 26.4636 0.74939  -2
   0  -2   4 26.4636 0.74939   1
  -1   2   4 363.906 8.18611  -2
   1  -2   4 363.906 8.18611   1
  -2   2   4 29.3391 1.05214  -2
   2  -2   4 29.3391 1.05214   1
  -3   2   4 151.791 3.66485  -2
   3  -2   4 151.791 3.66485   1
  -4   2   4 37.9569 1.41083  -2
   4  -2   4 37.9569 1.41083   1
  -5   2   4 5.91909 1.82671  -2
   5  -2   4 5.91909 1.82671   1
  -6   2   4 28.9846 1.47117  -2
   6  -2   4 28.9846 1.47117   1
  -7   2   4 6.01373 3.00380  -2
   7  -2   4 6.01373 3.00380   1
   8   1   5 11.3997 1.37819  -2
  -8  -1   4 11.3997 1.37819   1
   7   1   5 14.2894 1.58155  -2
  -7  -1   4 14.2894 1.58155   1
   6   1   5 11.8930 1.38100  -2
  -6  -1   4 11.8930 1.38100   1
   5   1   5 81.4131 3.17655  -2
  -5  -1   4 81.4131 3.17655   1
  -4  -1   4 256.736 5.03207   1
  -3  -1   4 112.073 2.30541   1
   2   1   4 475.696 10.6940  -2
  -2  -1   4 475.696 10.6940   1
   1   1   4 30.2752 0.81067  -2
  -1  -1   4 30.2752 0.81067   1
   0   1   4 43.7830 1.17221  -2
   0  -1   4 43.7830 1.17221   1
  -1   1   4 52.1158 1.24617  -2
   1  -1   4 52.1158 1.24617   1
  -2   1   4 4.49276 0.43679  -2
   2  -1   4 4.49276 0.43679   1
  -3   1   4 232.312 4.98087  -2
   3  -1   4 232.312 4.98087   1
  -4   1   4 259.711 6.14732  -2
   4  -1   4 259.711 6.14732   1
  -5   1   4 57.5397 3.25848  -2
   5  -1   4 57.5397 3.25848   1
   6  -1   4 4.01337 2.07126   1
  -7   1   3 4.61253 4.44455  -2
   7  -1   4 4.61253 4.44455   1
  -8   1   3 20.9208 2.70760  -2
   8  -1   4 20.9208 2.70760   1
   8   0   5 7.61360 1.92611  -2
  -8   0   4 7.61360 1.92611   1
   7   0   5 45.0925 2.24175  -2
  -7   0   4 45.0925 2.24175   1
   6   0   5 16.9429 1.59487  -2
  -6   0   4 16.9429 1.59487   1
   5   0   5 171.329 9.85559  -2
  -5   0   4 171.329 9.85559   1
   4   0   4 63.3917 2.51517  -2
  -4   0   4 63.3917 2.51517   1
   3   0   4 128.331 3.15903  -2
  -3   0   4 128.331 3.15903   1
   2   0   4 55.7959 1.53342  -2
  -2   0   4 55.7959 1.53342   1
   1   0   4 406.737 10.1701  -2
  -1   0   4 406.737 10.1701   1
   0   0   4 1.76677 0.34750  -2
   0   0   4 1.76677 0.34750   1
  -1   0   4 314.809 7.08767  -2
   1   0   4 314.809 7.08767   1
  -2   0   4 42.1595 1.14653  -2
   2   0   4 42.1595 1.14653   1
  -3   0   4 155.172 3.70100  -2
   3   0   4 155.172 3.70100   1
  -4   0   4 42.4892 2.55299  -2
   4   0   4 42.4892 2.55299   1
   5   0   4 4.84469 0.86084   1
  -6   0   3 55.3095 2.20801  -2
   6   0   4 55.3095 2.20801   1
  -7   0   3 28.9030 2.17484  -2
   7   0   4 28.9030 2.17484   1
  -8   0   3 17.5763 2.09040  -2
   8   0   4 17.5763 2.09040   1
   8  -1   5 28.9042 4.79799  -2
  -8   1   4 28.9042 4.79799   1
   6  -1   4 20.4553 2.35174  -2
  -6   1   4 20.4553 2.35174   1
   5  -1   4 39.7166 1.93419  -2
  -5   1   4 39.7166 1.93419   1
   4  -1   4 250.810 5.93286  -2
  -4   1   4 250.810 5.93286   1
   3  -1   4 252.234 5.86572  -2
  -3   1   4 252.234 5.86572   1
   2  -1   4 4.98436 0.43199  -2
  -2   1   4 4.98436 0.43199   1
   1  -1   4 39.7227 0.98922  -2
  -1   1   4 39.7227 0.98922   1
   0  -1   4 67.0424 1.88331  -2
   0   1   4 67.0424 1.88331   1
  -1  -1   4 34.1386 1.16444  -2
   1   1   4 34.1386 1.16444   1
  -2  -1   4 536.522 12.1814  -2
   2   1   4 536.522 12.1814   1
  -3  -1   4 96.0231 5.09669  -2
   3   1   4 96.0231 5.09669   1
   4   1   4 244.442 5.33185   1
  -5  -1   3 147.516 5.93445  -2
   5   1   4 147.516 5.93445   1
  -6  -1   3 4.77860 1.56143  -2
   6   1   4 4.77860 1.56143   1
  -7  -1   3 7.84340 1.57315  -2
   7   1   4 7.84340 1.57315   1
  -8  -1   3 4.13843 1.65265  -2
   8   1   4 4.13843 1.65265   1
   7  -2   4 5.65930 3.98885  -2
  -7   2   4 5.65930 3.98885   1
   6  -2   4 32.1426 2.41033  -2
  -6   2   4 32.1426 2.41033   1
   5  -2   4 4.74581 1.26164  -2
  -5   2   4 4.74581 1.26164   1
   4  -2   4 38.2888 1.29180  -2
  -4   2   4 38.2888 1.29180   1
   3  -2   4 135.787 3.01453  -2
  -3   2   4 135.787 3.01453   1
   2  -2   4 21.9362 0.81075  -2
  -2   2   4 21.9362 0.81075   1
   1  -2   4 366.151 7.52450  -2
  -1   2   4 366.151 7.52450   1
   0  -2   4 30.2540 0.96160  -2
   0   2   4 30.2540 0.96160   1
  -1  -2   4 20.4713 1.10670  -2
   1   2   4 20.4713 1.10670   1
  -2  -2   4 23.5638 2.24975  -2
   2   2   4 23.5638 2.24975   1
  -3  -2   3 265.973 13.5797  -2
   3   2   4 265.973 13.5797   1
  -4  -2   3 33.0376 1.47738  -2
   4   2   4 33.0376 1.47738   1
  -5  -2   3 81.5241 4.02057  -2
   5   2   4 81.5241 4.02057   1
  -6  -2   3 118.585 3.59114  -2
   6   2   4 118.585 3.59114   1
  -7  -2   3 36.3308 1.56324  -2
   7   2   4 36.3308 1.56324   1
  -8  -2   3 11.9930 1.83133  -2
   8   2   4 11.9930 1.83133   1
   7  -3   4 4.38482 2.36609  -2
  -7   3   4 4.38482 2.36609   1
   6  -3   4 28.9452 1.80857  -2
  -6   3   4 28.9452 1.80857   1
   5  -3   4 0.43724 1.05037  -2
  -5   3   4 0.43724 1.05037   1
   4  -3   4 394.969 9.03110  -2
  -4   3   4 394.969 9.03110   1
   3  -3   4 28.5823 1.07924  -2
  -3   3   4 28.5823 1.07924   1
   2  -3   4 159.797 3.50138  -2
  -2   3   4 159.797 3.50138   1
   1  -3   4 125.737 3.06511  -2
  -1   3   4 125.737 3.06511   1
   0  -3   4 164.730 8.72197  -2
   0   3   4 164.730 8.72197   1
   1   3   4 4.00651 0.32336   1
  -2  -3   3 337.210 8.50401  -2
   2   3   4 337.210 8.50401   1
  -3  -3   3 45.7878 1.26786  -2
   3   3   4 45.7878 1.26786   1
  -4  -3   3 18.8815 0.95536  -2
   4   3   4 18.8815 0.95536   1
  -5  -3   3 262.432 7.08285  -2
   5   3   4 262.432 7.08285   1
  -6  -3   3 7.29207 0.83484  -2
   6   3   4 7.29207 0.83484   1
  -7  -3   3 14.7747 1.42662  -2
   7   3   4 14.7747 1.42662   1
  -8  -3   3 5.29032 2.05521  -2
   8   3   4 5.29032 2.05521   1
   7  -4   4 3.77270 2.96257  -2
  -7   4   4 3.77270 2.96257   1
   6  -4   4 17.2781 1.29051  -2
  -6   4   4 17.2781 1.29051   1
   5  -4   4 84.8430 2.98164  -2
  -5   4   4 84.8430 2.98164   1
   4  -4   4 26.0749 1.38341  -2
  -4   4   4 26.0749 1.38341   1
   3  -4   4 227.810 5.42357  -2
  -3   4   4 227.810 5.42357   1
   2  -4   4 7.00475 1.05558  -2
  -2   4   4 7.00475 1.05558   1
  -1   4   4 3.06778 0.40409   1
   0   4   4 2.19313 0.46307   1
  -1  -4   3 240.279 5.63881  -2
   1   4   4 240.279 5.63881   1
  -2  -4   3 70.2725 1.74203  -2
   2   4   4 70.2725 1.74203   1
  -3  -4   3 80.2137 1.84221  -2
   3   4   4 80.2137 1.84221   1
  -4  -4   3 9.39669 0.74649  -2
   4   4   4 9.39669 0.74649   1
  -5  -4   3 24.2543 1.44583  -2
   5   4   4 24.2543 1.44583   1
  -6  -4   3 70.8823 2.26482  -2
   6   4   4 70.8823 2.26482   1
  -7  -4   3 143.344 3.94800  -2
   7   4   4 143.344 3.94800   1
  -8  -4   3 7.91086 2.02445  -2
   8   4   4 7.91086 2.02445   1
   6  -5   4 7.97155 1.60477  -2
  -6   5   4 7.97155 1.60477   1
   5  -5   4 6.09107 1.64218  -2
  -5   5   4 6.09107 1.64218   1
   4  -5   4 213.885 5.38007  -2
  -4   5   4 213.885 5.38007   1
   3  -5   4 67.7238 2.03952  -2
  -3   5   4 67.7238 2.03952   1
  -2   5   4 32.7656 1.22177   1
   1  -5   3 124.748 3.62317  -2
  -1   5   4 124.748 3.62317   1
   0  -5   3 186.430 4.50940  -2
   0   5   4 186.430 4.50940   1
  -1  -5   3 110.756 2.57773  -2
   1   5   4 110.756 2.57773   1
  -2  -5   3 658.876 14.9368  -2
   2   5   4 658.876 14.9368   1
  -3  -5   3 54.1011 1.34289  -2
   3   5   4 54.1011 1.34289   1
  -4  -5   3 11.6910 0.80522  -2
   4   5   4 11.6910 0.80522   1
  -5  -5   3 150.685 3.81514  -2
   5   5   4 150.685 3.81514   1
  -6  -5   3 26.0142 1.57839  -2
   6   5   4 26.0142 1.57839   1
  -7  -5   3 23.4111 1.84682  -2
   7   5   4 23.4111 1.84682   1
  -8  -5   3 6.91943 2.91439  -2
   8   5   4 6.91943 2.91439   1
   5  -6   4 38.1829 1.93920  -2
  -5   6   4 38.1829 1.93920   1
   4  -6   4 25.5856 1.93731  -2
  -4   6   4 25.5856 1.93731   1
   3  -6   3 24.8913 3.82809  -2
  -3   6   4 24.8913 3.82809   1
   2  -6   3 96.3619 3.17471  -2
  -2   6   4 96.3619 3.17471   1
   1  -6   3 0.37931 1.41614  -2
  -1   6   4 0.37931 1.41614   1
   0  -6   3 242.075 6.46170  -2
   0   6   4 242.075 6.46170   1
  -1  -6   3 387.667 8.12024  -2
   1   6   4 387.667 8.12024   1
  -2  -6   3 23.0986 0.91090  -2
   2   6   4 23.0986 0.91090   1
  -3  -6   3 46.2244 1.83214  -2
   3   6   4 46.2244 1.83214   1
  -4  -6   3 5.23198 1.01505  -2
   4   6   4 5.23198 1.01505   1
  -5  -6   3 80.4143 2.41020  -2
   5   6   4 80.4143 2.41020   1
  -6  -6   3 35.0424 2.04752  -2
   6   6   4 35.0424 2.04752   1
   7   6   4 46.7972 4.42642   1
  -8  -6   2 22.8670 3.61377  -2
   8   6   4 22.8670 3.61377   1
   4  -7   3 8.27286 2.55844  -2
  -4   7   4 8.27286 2.55844   1
   3  -7   3 32.9996 2.37524  -2
  -3   7   4 32.9996 2.37524   1
   2  -7   3 34.7487 1.94759  -2
  -2   7   4 34.7487 1.94759   1
   1  -7   3 65.3848 1.95600  -2
  -1   7   4 65.3848 1.95600   1
   0  -7   3 157.725 3.60259  -2
   0   7   4 157.725 3.60259   1
  -1  -7   3 21.6120 0.99971  -2
   1   7   4 21.6120 0.99971   1
  -2  -7   3 346.211 8.05179  -2
   2   7   4 346.211 8.05179   1
  -3  -7   3 49.2517 2.24514  -2
   3   7   4 49.2517 2.24514   1
  -4  -7   3 9.46070 1.58972  -2
   4   7   4 9.46070 1.58972   1
  -5  -7   3 96.2542 7.77334  -2
   5   7   4 96.2542 7.77334   1
  -6  -7   2 18.1103 5.40549  -2
   6   7   4 18.1103 5.40549   1
  -7  -7   2 3.18567 1.52442  -2
   7   7   4 3.18567 1.52442   1
   3  -8   3 8.23117 1.73266  -2
  -3   8   4 8.23117 1.73266   1
   2  -8   3 15.7346 1.52211  -2
  -2   8   4 15.7346 1.52211   1
   1  -8   3 1.86696 0.89171  -2
  -1   8   4 1.86696 0.89171   1
   0  -8   3 14.3762 1.22173  -2
   0   8   4 14.3762 1.22173   1
  -1  -8   3 51.8671 1.70590  -2
   1   8   4 51.8671 1.70590   1
  -2  -8   3 5.64767 1.24847  -2
   2   8   4 5.64767 1.24847   1
  -3  -8   3 3.28635 2.29164  -2
   3   8   4 3.28635 2.29164   1
   4   8   4 4.02895 1.63860   1
  -5  -8   2 -2.3824 4.57394  -2
   5   8   4 -2.3824 4.57394   1
  -6  -8   2 27.7995 1.66273  -2
   6   8   4 27.7995 1.66273   1
   2  -9   3 20.0172 2.00009  -2
  -2   9   4 20.0172 2.00009   1
   1  -9   3 22.7858 1.93189  -2
  -1   9   4 22.7858 1.93189   1
   0  -9   3 19.8475 1.12036  -2
   0   9   4 19.8475 1.12036   1
  -1  -9   3 13.8036 1.59385  -2
   1   9   4 13.8036 1.59385   1
  -2  -9   3 4.74026 1.76559  -2
   2   9   4 4.74026 1.76559   1
   3   9   4 4.96776 1.26799   1
  -4  -9   2 1.40169 2.98240  -2
   4   9   4 1.40169 2.98240   1
  -5  -9   2 11.5877 2.36594  -2
   5   9   4 11.5877 2.36594   1
   0 -10   3 15.9838 3.34364  -2
   0  10   4 15.9838 3.34364   1
  -1 -10   3 53.0323 7.46700  -2
   1  10   4 53.0323 7.46700   1
  -2 -10   2 18.1123 6.25543  -2
   2  10   4 18.1123 6.25543   1
  -3 -10   2 2.18977 2.06849  -2
   3  10   4 2.18977 2.06849   1
  -4 -10   2 0.65604 3.12288  -2
   4  10   4 0.65604 3.12288   1
   4   9   7 6.71716 2.35567  -2
  -4  -9   5 6.71716 2.35567   1
   3   9   7 29.1802 4.66836  -2
  -3  -9   5 29.1802 4.66836   1
   2   9   6 1.04913 1.85264  -2
  -2  -9   5 1.04913 1.85264   1
   1   9   6 9.58363 1.45828  -2
  -1  -9   5 9.58363 1.45828   1
   0   9   6 10.8358 1.42156  -2
   0  -9   5 10.8358 1.42156   1
  -1   9   6 9.17583 1.44868  -2
   1  -9   5 9.17583 1.44868   1
   6   8   7 21.6414 2.95075  -2
  -6  -8   5 21.6414 2.95075   1
   5   8   7 7.21378 1.98028  -2
  -5  -8   5 7.21378 1.98028   1
  -4  -8   5 20.3764 2.27250   1
   3   8   6 4.83087 1.97042  -2
  -3  -8   5 4.83087 1.97042   1
   2   8   6 8.89439 1.08382  -2
  -2  -8   5 8.89439 1.08382   1
   1   8   6 41.2179 1.69671  -2
  -1  -8   5 41.2179 1.69671   1
   0   8   6 7.06231 0.93267  -2
   0  -8   5 7.06231 0.93267   1
  -1   8   6 8.07762 0.98843  -2
   1  -8   5 8.07762 0.98843   1
  -2   8   6 5.54337 1.41614  -2
   2  -8   5 5.54337 1.41614   1
  -3   8   6 16.7654 2.31146  -2
   3  -8   5 16.7654 2.31146   1
  -7  -7   5 6.37800 1.96412   1
   6   7   7 28.1714 4.97962  -2
  -6  -7   5 28.1714 4.97962   1
   5   7   6 70.6387 3.09407  -2
  -5  -7   5 70.6387 3.09407   1
   4   7   6 20.5870 1.79607  -2
  -4  -7   5 20.5870 1.79607   1
   3   7   6 46.0117 3.12114  -2
  -3  -7   5 46.0117 3.12114   1
   2   7   6 19.4204 0.96914  -2
  -2  -7   5 19.4204 0.96914   1
   1   7   6 3.23386 0.95126  -2
  -1  -7   5 3.23386 0.95126   1
   0   7   6 59.9214 1.83066  -2
   0  -7   5 59.9214 1.83066   1
  -1   7   6 54.9055 1.73233  -2
   1  -7   5 54.9055 1.73233   1
  -2   7   6 31.9843 1.58941  -2
   2  -7   5 31.9843 1.58941   1
  -3   7   6 12.7672 1.61099  -2
   3  -7   5 12.7672 1.61099   1
  -4   7   6 15.5832 3.65219  -2
   4  -7   5 15.5832 3.65219   1
   6   6   6 38.2323 2.40369  -2
  -6  -6   5 38.2323 2.40369   1
   5   6   6 2.95943 2.16501  -2
  -5  -6   5 2.95943 2.16501   1
   4   6   6 42.3863 2.11658  -2
  -4  -6   5 42.3863 2.11658   1
   3   6   6 24.5088 1.82341  -2
  -3  -6   5 24.5088 1.82341   1
   2   6   6 37.4760 1.00455  -2
  -2  -6   5 37.4760 1.00455   1
   1   6   6 136.543 3.39032  -2
  -1  -6   5 136.543 3.39032   1
   0   6   6 169.166 4.13001  -2
   0  -6   5 169.166 4.13001   1
  -1   6   6 20.1967 1.71748  -2
   1  -6   5 20.1967 1.71748   1
  -2   6   6 35.8137 1.73838  -2
   2  -6   5 35.8137 1.73838   1
  -3   6   6 25.3102 4.07821  -2
   3  -6   5 25.3102 4.07821   1
  -4   6   5 34.0807 3.41073  -2
   4  -6   5 34.0807 3.41073   1
  -5   6   5 22.1950 2.10926  -2
   5  -6   5 22.1950 2.10926   1
   7   5   6 -0.5672 1.86398  -2
  -7  -5   5 -0.5672 1.86398   1
   6   5   6 13.8789 1.14602  -2
  -6  -5   5 13.8789 1.14602   1
   5   5   6 137.279 3.75751  -2
  -5  -5   5 137.279 3.75751   1
   4   5   6 38.1962 1.45149  -2
  -4  -5   5 38.1962 1.45149   1
   3   5   6 146.797 3.49364  -2
  -3  -5   5 146.797 3.49364   1
   2   5   6 54.9810 1.36766  -2
  -2  -5   5 54.9810 1.36766   1
   1   5   6 224.072 5.17956  -2
  -1  -5   5 224.072 5.17956   1
   0   5   6 117.650 2.73124  -2
   0  -5   5 117.650 2.73124   1
  -1   5   6 250.180 7.54725  -2
   1  -5   5 250.180 7.54725   1
   2  -5   5 59.1628 1.83653   1
  -3   5   5 37.6147 1.75872  -2
   3  -5   5 37.6147 1.75872   1
  -4   5   5 41.6190 3.12977  -2
   4  -5   5 41.6190 3.12977   1
  -5   5   5 1.50487 1.83456  -2
   5  -5   5 1.50487 1.83456   1
  -6   5   5 0.60859 3.01924  -2
   6  -5   5 0.60859 3.01924   1
   8   4   6 6.63068 3.31530  -2
  -8  -4   5 6.63068 3.31530   1
   7   4   6 6.62389 1.39516  -2
  -7  -4   5 6.62389 1.39516   1
   6   4   6 73.8706 3.63915  -2
  -6  -4   5 73.8706 3.63915   1
   5   4   6 11.2870 0.75061  -2
  -5  -4   5 11.2870 0.75061   1
   4   4   6 121.910 3.27242  -2
  -4  -4   5 121.910 3.27242   1
   3   4   6 2.30962 0.62506  -2
  -3  -4   5 2.30962 0.62506   1
   2   4   6 32.0087 1.20638  -2
  -2  -4   5 32.0087 1.20638   1
   1   4   6 238.922 4.98759  -2
  -1  -4   5 238.922 4.98759   1
   0  -4   5 126.034 2.56856   1
  -1   4   5 91.4480 5.48270  -2
   1  -4   5 91.4480 5.48270   1
  -2   4   5 96.9720 2.95648  -2
   2  -4   5 96.9720 2.95648   1
  -3   4   5 78.5416 3.08404  -2
   3  -4   5 78.5416 3.08404   1
  -4   4   5 31.3772 2.06681  -2
   4  -4   5 31.3772 2.06681   1
  -5   4   5 45.2173 1.86013  -2
   5  -4   5 45.2173 1.86013   1
  -6   4   5 20.9382 1.54915  -2
   6  -4   5 20.9382 1.54915   1
   8   3   6 7.41093 2.34498  -2
  -8  -3   5 7.41093 2.34498   1
   7   3   6 8.99131 1.32493  -2
  -7  -3   5 8.99131 1.32493   1
   6   3   6 35.2619 1.20254  -2
  -6  -3   5 35.2619 1.20254   1
   5   3   6 273.393 6.38865  -2
  -5  -3   5 273.393 6.38865   1
   4   3   6 25.7936 0.90614  -2
  -4  -3   5 25.7936 0.90614   1
   3   3   6 50.8593 1.25964  -2
  -3  -3   5 50.8593 1.25964   1
   2   3   6 5.42063 0.74937  -2
  -2  -3   5 5.42063 0.74937   1
  -1  -3   5 129.212 2.56295   1
   0   3   5 36.7873 1.89985  -2
   0  -3   5 36.7873 1.89985   1
  -1   3   5 23.3334 1.20106  -2
   1  -3   5 23.3334 1.20106   1
  -2   3   5 21.7000 1.12196  -2
   2  -3   5 21.7000 1.12196   1
  -3   3   5 17.0931 1.26541  -2
   3  -3   5 17.0931 1.26541   1
  -4   3   5 79.8929 2.57558  -2
   4  -3   5 79.8929 2.57558   1
  -5   3   5 29.7381 1.71095  -2
   5  -3   5 29.7381 1.71095   1
  -6   3   5 14.6658 1.52897  -2
   6  -3   5 14.6658 1.52897   1
  -7   3   5 22.0039 2.45447  -2
   7  -3   5 22.0039 2.45447   1
   8   2   6 7.53224 1.30178  -2
  -8  -2   5 7.53224 1.30178   1
   7   2   6 7.50043 1.34831  -2
  -7  -2   5 7.50043 1.34831   1
   6   2   6 207.431 4.63318  -2
  -6  -2   5 207.431 4.63318   1
   5   2   6 18.0103 1.46080  -2
  -5  -2   5 18.0103 1.46080   1
   4   2   6 82.8199 2.10587  -2
  -4  -2   5 82.8199 2.10587   1
   3   2   6 14.8752 1.08508  -2
  -3  -2   5 14.8752 1.08508   1
   2   2   5 309.479 15.6496  -2
  -2  -2   5 309.479 15.6496   1
   1   2   5 269.231 5.55169  -2
  -1  -2   5 269.231 5.55169   1
   0   2   5 682.463 13.8507  -2
   0  -2   5 682.463 13.8507   1
  -1   2   5 148.386 3.22065  -2
   1  -2   5 148.386 3.22065   1
  -2   2   5 24.3381 0.86553  -2
   2  -2   5 24.3381 0.86553   1
  -3   2   5 2.14231 0.76572  -2
   3  -2   5 2.14231 0.76572   1
  -4   2   5 18.2395 1.26027  -2
   4  -2   5 18.2395 1.26027   1
  -5   2   5 37.6374 1.58880  -2
   5  -2   5 37.6374 1.58880   1
  -6   2   5 53.1403 2.26589  -2
   6  -2   5 53.1403 2.26589   1
  -7   2   5 20.9977 3.31554  -2
   7  -2   5 20.9977 3.31554   1
   8   1   6 6.52367 1.56706  -2
  -8  -1   5 6.52367 1.56706   1
   7   1   6 1.75792 1.26422  -2
  -7  -1   5 1.75792 1.26422   1
   6   1   6 12.5303 1.32935  -2
  -6  -1   5 12.5303 1.32935   1
   5   1   6 123.939 3.67183  -2
  -5  -1   5 123.939 3.67183   1
   4   1   6 35.3909 2.37060  -2
  -4  -1   5 35.3909 2.37060   1
   3   1   5 72.4380 3.20427  -2
  -3  -1   5 72.4380 3.20427   1
   2   1   5 29.2327 0.98576  -2
  -2  -1   5 29.2327 0.98576   1
   1   1   5 271.899 5.63208  -2
  -1  -1   5 271.899 5.63208   1
   0   1   5 28.2263 0.94365  -2
   0  -1   5 28.2263 0.94365   1
  -1   1   5 148.117 3.47879  -2
   1  -1   5 148.117 3.47879   1
  -2   1   5 15.3022 0.70594  -2
   2  -1   5 15.3022 0.70594   1
  -3   1   5 0.24367 0.96662  -2
   3  -1   5 0.24367 0.96662   1
  -4   1   5 193.958 5.35949  -2
   4  -1   5 193.958 5.35949   1
  -5   1   5 123.248 4.45144  -2
   5  -1   5 123.248 4.45144   1
  -6   1   5 7.93810 3.22424  -2
   6  -1   5 7.93810 3.22424   1
  -7   1   4 7.65786 4.17603  -2
   7  -1   5 7.65786 4.17603   1
  -8   1   4 25.1047 3.37082  -2
   8  -1   5 25.1047 3.37082   1
   8   0   6 6.46268 4.43660  -2
  -8   0   5 6.46268 4.43660   1
   7   0   6 5.50682 1.49641  -2
  -7   0   5 5.50682 1.49641   1
   6   0   6 68.6344 2.45194  -2
  -6   0   5 68.6344 2.45194   1
  -5   0   5 7.49985 1.02557   1
   4   0   5 1.87971 1.71604  -2
  -4   0   5 1.87971 1.71604   1
   3   0   5 102.314 2.64751  -2
  -3   0   5 102.314 2.64751   1
   2   0   5 153.776 3.65715  -2
  -2   0   5 153.776 3.65715   1
   1   0   5 41.6375 1.35373  -2
  -1   0   5 41.6375 1.35373   1
   0   0   5 1788.28 44.1932  -2
   0   0   5 1788.28 44.1932   1
  -1   0   5 34.6677 1.07971  -2
   1   0   5 34.6677 1.07971   1
  -2   0   5 151.740 3.33264  -2
   2   0   5 151.740 3.33264   1
  -3   0   5 99.5206 2.37376  -2
   3   0   5 99.5206 2.37376   1
  -4   0   5 1.35365 1.38674  -2
   4   0   5 1.35365 1.38674   1
  -5   0   5 164.474 9.43823  -2
   5   0   5 164.474 9.43823   1
  -6   0   4 19.8968 2.19640  -2
   6   0   5 19.8968 2.19640   1
  -7   0   4 41.7364 2.42491  -2
   7   0   5 41.7364 2.42491   1
  -8   0   4 -1.6582 2.69056  -2
   8   0   5 -1.6582 2.69056   1
   6  -1   5 11.0195 2.41484  -2
  -6   1   5 11.0195 2.41484   1
   5  -1   5 127.057 3.46045  -2
  -5   1   5 127.057 3.46045   1
   4  -1   5 125.950 4.25512  -2
  -4   1   5 125.950 4.25512   1
   3  -1   5 -0.6713 0.54688  -2
  -3   1   5 -0.6713 0.54688   1
   2  -1   5 19.7445 0.88144  -2
  -2   1   5 19.7445 0.88144   1
   1  -1   5 214.445 4.49299  -2
  -1   1   5 214.445 4.49299   1
   0  -1   5 37.7319 1.28878  -2
   0   1   5 37.7319 1.28878   1
  -1  -1   5 227.497 5.84028  -2
   1   1   5 227.497 5.84028   1
  -2  -1   5 39.8089 1.35055  -2
   2   1   5 39.8089 1.35055   1
  -3  -1   5 87.6366 2.96161  -2
   3   1   5 87.6366 2.96161   1
  -4  -1   4 324.659 16.7908  -2
   4   1   5 324.659 16.7908   1
  -5  -1   4 125.494 5.52373  -2
   5   1   5 125.494 5.52373   1
  -6  -1   4 22.8442 1.81013  -2
   6   1   5 22.8442 1.81013   1
  -7  -1   4 16.1304 2.07180  -2
   7   1   5 16.1304 2.07180   1
  -8  -1   4 5.77702 1.74488  -2
   8   1   5 5.77702 1.74488   1
   7  -2   5 11.7744 4.02855  -2
  -7   2   5 11.7744 4.02855   1
   6  -2   5 62.1295 2.08651  -2
  -6   2   5 62.1295 2.08651   1
   5  -2   5 23.1089 1.38559  -2
  -5   2   5 23.1089 1.38559   1
   4  -2   5 18.1407 1.03679  -2
  -4   2   5 18.1407 1.03679   1
   3  -2   5 1.64135 0.54683  -2
  -3   2   5 1.64135 0.54683   1
   2  -2   5 26.0136 1.00150  -2
  -2   2   5 26.0136 1.00150   1
   1  -2   5 158.355 3.40511  -2
  -1   2   5 158.355 3.40511   1
   0  -2   5 559.489 13.9503  -2
   0   2   5 559.489 13.9503   1
  -1  -2   5 231.727 5.97369  -2
   1   2   5 231.727 5.97369   1
  -2  -2   5 440.194 15.6366  -2
   2   2   5 440.194 15.6366   1
  -3  -2   4 62.4954 2.91673  -2
   3   2   5 62.4954 2.91673   1
  -4  -2   4 22.9070 1.27530  -2
   4   2   5 22.9070 1.27530   1
  -5  -2   4 135.521 5.85895  -2
   5   2   5 135.521 5.85895   1
  -6  -2   4 69.1926 2.83610  -2
   6   2   5 69.1926 2.83610   1
  -7  -2   4 16.4275 1.31418  -2
   7   2   5 16.4275 1.31418   1
  -8  -2   4 0.46072 1.54150  -2
   8   2   5 0.46072 1.54150   1
   7  -3   5 24.6546 2.09918  -2
  -7   3   5 24.6546 2.09918   1
   6  -3   5 11.9195 1.59367  -2
  -6   3   5 11.9195 1.59367   1
   5  -3   5 33.0443 1.41795  -2
  -5   3   5 33.0443 1.41795   1
   4  -3   5 57.4568 2.02018  -2
  -4   3   5 57.4568 2.02018   1
   3  -3   5 14.3412 0.89974  -2
  -3   3   5 14.3412 0.89974   1
   2  -3   5 14.8249 0.84911  -2
  -2   3   5 14.8249 0.84911   1
   1  -3   5 31.5315 1.24692  -2
  -1   3   5 31.5315 1.24692   1
   0  -3   5 59.4115 1.98265  -2
   0   3   5 59.4115 1.98265   1
   1   3   5 5.75569 0.62353   1
  -2  -3   4 488.286 12.2091  -2
   2   3   5 488.286 12.2091   1
  -3  -3   4 104.047 2.52693  -2
   3   3   5 104.047 2.52693   1
  -4  -3   4 59.5885 1.60416  -2
   4   3   5 59.5885 1.60416   1
  -5  -3   4 95.9226 2.69379  -2
   5   3   5 95.9226 2.69379   1
  -6  -3   4 8.82672 1.03324  -2
   6   3   5 8.82672 1.03324   1
  -7  -3   4 33.5743 1.73148  -2
   7   3   5 33.5743 1.73148   1
  -8  -3   4 7.43155 1.67919  -2
   8   3   5 7.43155 1.67919   1
   6  -4   5 25.0668 1.42021  -2
  -6   4   5 25.0668 1.42021   1
   5  -4   5 32.1634 1.58391  -2
  -5   4   5 32.1634 1.58391   1
   4  -4   5 46.6852 1.73091  -2
  -4   4   5 46.6852 1.73091   1
   3  -4   5 60.2201 2.12405  -2
  -3   4   5 60.2201 2.12405   1
   2  -4   5 136.033 3.42090  -2
  -2   4   5 136.033 3.42090   1
   1  -4   5 74.2553 4.93511  -2
  -1   4   5 74.2553 4.93511   1
   0   4   5 541.963 12.0171   1
  -1  -4   4 63.9502 1.90904  -2
   1   4   5 63.9502 1.90904   1
  -2  -4   4 18.2706 1.03362  -2
   2   4   5 18.2706 1.03362   1
  -3  -4   4 4.97713 0.72396  -2
   3   4   5 4.97713 0.72396   1
  -4  -4   4 122.879 2.70482  -2
   4   4   5 122.879 2.70482   1
  -5  -4   4 50.9002 1.70746  -2
   5   4   5 50.9002 1.70746   1
  -6  -4   4 30.9713 1.57651  -2
   6   4   5 30.9713 1.57651   1
  -7  -4   4 58.2750 2.28805  -2
   7   4   5 58.2750 2.28805   1
  -8  -4   4 4.03048 2.45474  -2
   8   4   5 4.03048 2.45474   1
   6  -5   5 12.7745 1.86824  -2
  -6   5   5 12.7745 1.86824   1
   5  -5   5 2.67403 1.51900  -2
  -5   5   5 2.67403 1.51900   1
   4  -5   5 32.5328 1.84030  -2
  -4   5   5 32.5328 1.84030   1
   3  -5   5 59.0216 2.24679  -2
  -3   5   5 59.0216 2.24679   1
   2  -5   5 60.4117 3.51930  -2
  -2   5   5 60.4117 3.51930   1
   1  -5   4 374.498 9.54019  -2
  -1   5   5 374.498 9.54019   1
   0  -5   4 123.538 3.13754  -2
   0   5   5 123.538 3.13754   1
  -1  -5   4 241.218 5.18983  -2
   1   5   5 241.218 5.18983   1
  -2  -5   4 283.845 7.46849  -2
   2   5   5 283.845 7.46849   1
  -3  -5   4 29.6257 1.00659  -2
   3   5   5 29.6257 1.00659   1
  -4  -5   4 212.819 5.12927  -2
   4   5   5 212.819 5.12927   1
  -5  -5   4 43.3356 1.87258  -2
   5   5   5 43.3356 1.87258   1
  -6  -5   4 20.0995 1.57559  -2
   6   5   5 20.0995 1.57559   1
  -7  -5   4 23.5480 2.16926  -2
   7   5   5 23.5480 2.16926   1
  -8  -5   4 8.61772 3.79144  -2
   8   5   5 8.61772 3.79144   1
   5  -6   5 19.2613 1.74229  -2
  -5   6   5 19.2613 1.74229   1
   4  -6   5 50.1406 2.36530  -2
  -4   6   5 50.1406 2.36530   1
  -3   6   5 1.25693 1.00300   1
   2  -6   4 70.7871 2.69268  -2
  -2   6   5 70.7871 2.69268   1
   1  -6   4 4.42773 1.34208  -2
  -1   6   5 4.42773 1.34208   1
   0  -6   4 60.0468 2.20715  -2
   0   6   5 60.0468 2.20715   1
  -1  -6   4 198.386 4.79257  -2
   1   6   5 198.386 4.79257   1
  -2  -6   4 14.6557 0.97246  -2
   2   6   5 14.6557 0.97246   1
  -3  -6   4 112.007 3.84820  -2
   3   6   5 112.007 3.84820   1
  -4  -6   4 88.1547 2.81304  -2
   4   6   5 88.1547 2.81304   1
  -5  -6   4 53.4106 1.76728  -2
   5   6   5 53.4106 1.76728   1
  -6  -6   4 9.37123 2.08527  -2
   6   6   5 9.37123 2.08527   1
   7   6   5 46.2204 4.35208   1
   4  -7   4 10.1166 2.39993  -2
  -4   7   5 10.1166 2.39993   1
   3  -7   4 50.0192 1.91481  -2
  -3   7   5 50.0192 1.91481   1
   2  -7   4 24.2189 1.40798  -2
  -2   7   5 24.2189 1.40798   1
   1  -7   4 42.2654 1.59885  -2
  -1   7   5 42.2654 1.59885   1
   0  -7   4 49.4336 1.72113  -2
   0   7   5 49.4336 1.72113   1
  -1  -7   4 5.31566 0.85650  -2
   1   7   5 5.31566 0.85650   1
  -2  -7   4 132.325 3.45265  -2
   2   7   5 132.325 3.45265   1
  -3  -7   4 1.61685 1.25522  -2
   3   7   5 1.61685 1.25522   1
  -4  -7   4 57.6152 2.25457  -2
   4   7   5 57.6152 2.25457   1
   5   7   5 31.7700 1.84438   1
  -6  -7   3 -2.5448 3.44911  -2
   6   7   5 -2.5448 3.44911   1
  -7  -7   3 11.3264 2.05794  -2
   7   7   5 11.3264 2.05794   1
   3  -8   4 4.08076 1.82578  -2
  -3   8   5 4.08076 1.82578   1
   2  -8   4 -0.6740 2.19525  -2
  -2   8   5 -0.6740 2.19525   1
   1  -8   4 0.91058 1.02758  -2
  -1   8   5 0.91058 1.02758   1
   0  -8   4 5.49521 1.09940  -2
   0   8   5 5.49521 1.09940   1
  -1  -8   4 72.4692 2.13290  -2
   1   8   5 72.4692 2.13290   1
  -2  -8   4 34.7626 1.54588  -2
   2   8   5 34.7626 1.54588   1
  -3  -8   4 3.19217 1.75355  -2
   3   8   5 3.19217 1.75355   1
   4   8   5 66.1602 3.70453   1
   5   8   5 1.38584 2.01930   1
  -6  -8   3 21.9418 2.19722  -2
   6   8   5 21.9418 2.19722   1
   2  -9   4 10.8539 2.02683  -2
  -2   9   5 10.8539 2.02683   1
   1  -9   4 19.5276 2.01024  -2
  -1   9   5 19.5276 2.01024   1
   0  -9   4 9.40527 1.55722  -2
   0   9   5 9.40527 1.55722   1
  -1  -9   4 0.11727 2.32341  -2
   1   9   5 0.11727 2.32341   1
  -2  -9   4 10.0093 1.80931  -2
   2   9   5 10.0093 1.80931   1
   3   9   5 1.82992 1.18430   1
  -4  -9   3 10.9173 3.48979  -2
   4   9   5 10.9173 3.48979   1
  -5  -9   3 19.0580 1.96963  -2
   5   9   5 19.0580 1.96963   1
  -1 -10   4 23.1894 3.68097  -2
   1  10   5 23.1894 3.68097   1
   2  10   5 29.9301 3.88443   1
  -3 -10   3 0.13356 3.03283  -2
   3  10   5 0.13356 3.03283   1
  -4  -9   6 4.07996 1.36642   1
  -3  -9   6 4.95718 1.82735   1
   2   9   7 4.02968 2.13083  -2
  -2  -9   6 4.02968 2.13083   1
   1   9   7 6.04145 1.58110  -2
  -1  -9   6 6.04145 1.58110   1
   0   9   7 -0.2132 1.70378  -2
   0  -9   6 -0.2132 1.70378   1
  -1   9   7 2.86851 2.69468  -2
   1  -9   6 2.86851 2.69468   1
   5   8   8 20.0955 4.63055  -2
  -5  -8   6 20.0955 4.63055   1
  -4  -8   6 9.75961 3.00940   1
   3   8   7 27.4558 2.24250  -2
  -3  -8   6 27.4558 2.24250   1
   2   8   7 6.80983 1.32828  -2
  -2  -8   6 6.80983 1.32828   1
   1   8   7 78.9358 2.55849  -2
  -1  -8   6 78.9358 2.55849   1
   0   8   7 16.6030 1.10393  -2
   0  -8   6 16.6030 1.10393   1
  -1   8   7 8.02830 1.09026  -2
   1  -8   6 8.02830 1.09026   1
  -2   8   7 13.9823 1.41957  -2
   2  -8   6 13.9823 1.41957   1
  -6  -7   6 8.34911 3.51758   1
   5   7   7 30.4634 2.28797  -2
  -5  -7   6 30.4634 2.28797   1
   4   7   7 15.7287 2.56930  -2
  -4  -7   6 15.7287 2.56930   1
   3   7   7 3.71104 2.81973  -2
  -3  -7   6 3.71104 2.81973   1
   2   7   7 13.8929 1.04447  -2
  -2  -7   6 13.8929 1.04447   1
   1   7   7 26.6248 1.06623  -2
  -1  -7   6 26.6248 1.06623   1
   0   7   7 2.07333 0.81007  -2
   0  -7   6 2.07333 0.81007   1
  -1   7   7 17.3848 1.20191  -2
   1  -7   6 17.3848 1.20191   1
  -2   7   7 1.50530 1.31828  -2
   2  -7   6 1.50530 1.31828   1
  -3   7   7 37.9787 1.95209  -2
   3  -7   6 37.9787 1.95209   1
  -4   7   7 17.8629 3.73742  -2
   4  -7   6 17.8629 3.73742   1
  -7  -6   6 4.94053 4.18241   1
   5   6   7 14.6283 2.52721  -2
  -5  -6   6 14.6283 2.52721   1
   4   6   7 9.16864 0.99864  -2
  -4  -6   6 9.16864 0.99864   1
   3   6   7 57.2368 1.81942  -2
  -3  -6   6 57.2368 1.81942   1
   2   6   7 19.5589 0.79933  -2
  -2  -6   6 19.5589 0.79933   1
   1   6   7 329.932 6.95082  -2
  -1  -6   6 329.932 6.95082   1
   0   6   7 160.623 4.47858  -2
   0  -6   6 160.623 4.47858   1
  -1   6   7 13.0041 1.31448  -2
   1  -6   6 13.0041 1.31448   1
  -2   6   7 90.4756 3.59367  -2
   2  -6   6 90.4756 3.59367   1
  -3   6   7 16.0412 4.11519  -2
   3  -6   6 16.0412 4.11519   1
  -4   6   6 17.2423 2.44435  -2
   4  -6   6 17.2423 2.44435   1
  -5   6   6 16.3596 3.00537  -2
   5  -6   6 16.3596 3.00537   1
   7   5   7 13.6980 1.34714  -2
  -7  -5   6 13.6980 1.34714   1
   6   5   7 88.1460 2.69583  -2
  -6  -5   6 88.1460 2.69583   1
   5   5   7 24.0843 2.04637  -2
  -5  -5   6 24.0843 2.04637   1
   4   5   7 52.1395 1.34664  -2
  -4  -5   6 52.1395 1.34664   1
   3   5   7 30.5505 0.88012  -2
  -3  -5   6 30.5505 0.88012   1
   2   5   7 27.0535 1.24995  -2
  -2  -5   6 27.0535 1.24995   1
   1   5   7 110.296 3.06152  -2
  -1  -5   6 110.296 3.06152   1
   0   5   7 4.70209 1.59677  -2
   0  -5   6 4.70209 1.59677   1
  -1   5   7 56.4972 3.01685  -2
   1  -5   6 56.4972 3.01685   1
  -2   5   6 11.8863 3.17350  -2
   2  -5   6 11.8863 3.17350   1
  -3   5   6 116.224 3.67532  -2
   3  -5   6 116.224 3.67532   1
  -4   5   6 31.9940 2.43185  -2
   4  -5   6 31.9940 2.43185   1
  -5   5   6 14.9127 1.80035  -2
   5  -5   6 14.9127 1.80035   1
   7   4   7 28.9448 1.73231  -2
  -7  -4   6 28.9448 1.73231   1
   6   4   7 72.8089 2.01627  -2
  -6  -4   6 72.8089 2.01627   1
   5   4   7 27.4466 1.22050  -2
  -5  -4   6 27.4466 1.22050   1
   4   4   7 32.1642 1.12336  -2
  -4  -4   6 32.1642 1.12336   1
   3   4   7 90.0469 2.11096  -2
  -3  -4   6 90.0469 2.11096   1
   2   4   7 171.002 4.08652  -2
  -2  -4   6 171.002 4.08652   1
   1   4   7 657.754 13.3082  -2
  -1  -4   6 657.754 13.3082   1
   0   4   7 446.328 15.8516  -2
   0  -4   6 446.328 15.8516   1
  -1   4   6 37.8528 3.51218  -2
   1  -4   6 37.8528 3.51218   1
  -2   4   6 27.4616 1.80572  -2
   2  -4   6 27.4616 1.80572   1
  -3   4   6 181.666 5.06532  -2
   3  -4   6 181.666 5.06532   1
  -4   4   6 20.2669 2.24739  -2
   4  -4   6 20.2669 2.24739   1
  -5   4   6 51.2426 1.98350  -2
   5  -4   6 51.2426 1.98350   1
  -6   4   6 21.3789 1.63908  -2
   6  -4   6 21.3789 1.63908   1
   8   3   7 15.1146 2.16029  -2
  -8  -3   6 15.1146 2.16029   1
   7   3   7 7.98137 1.35996  -2
  -7  -3   6 7.98137 1.35996   1
   6   3   7 42.7880 1.29463  -2
  -6  -3   6 42.7880 1.29463   1
   5   3   7 56.3310 1.47037  -2
  -5  -3   6 56.3310 1.47037   1
   4   3   7 57.2663 1.51393  -2
  -4  -3   6 57.2663 1.51393   1
   3   3   7 59.6882 1.53403  -2
  -3  -3   6 59.6882 1.53403   1
   2   3   7 54.1538 1.60033  -2
  -2  -3   6 54.1538 1.60033   1
  -1  -3   6 94.6017 1.97266   1
   0   3   6 57.0551 1.72705  -2
   0  -3   6 57.0551 1.72705   1
  -1   3   6 117.348 3.30009  -2
   1  -3   6 117.348 3.30009   1
  -2   3   6 51.0373 1.67425  -2
   2  -3   6 51.0373 1.67425   1
  -3   3   6 184.395 5.78342  -2
   3  -3   6 184.395 5.78342   1
  -4   3   6 72.7253 2.24490  -2
   4  -3   6 72.7253 2.24490   1
  -5   3   6 33.0002 1.82475  -2
   5  -3   6 33.0002 1.82475   1
  -6   3   6 4.86380 1.50199  -2
   6  -3   6 4.86380 1.50199   1
  -7   3   6 -1.9459 2.74861  -2
   7  -3   6 -1.9459 2.74861   1
   8   2   7 10.1335 1.73173  -2
  -8  -2   6 10.1335 1.73173   1
   7   2   7 8.97501 1.40107  -2
  -7  -2   6 8.97501 1.40107   1
   6   2   7 72.9033 2.32272  -2
  -6  -2   6 72.9033 2.32272   1
   5   2   7 74.1109 2.57778  -2
  -5  -2   6 74.1109 2.57778   1
   4   2   7 23.2273 1.34017  -2
  -4  -2   6 23.2273 1.34017   1
   3   2   7 206.847 6.31552  -2
  -3  -2   6 206.847 6.31552   1
   2   2   6 71.3181 3.14306  -2
  -2  -2   6 71.3181 3.14306   1
   1   2   6 597.143 12.0871  -2
  -1  -2   6 597.143 12.0871   1
   0   2   6 516.523 10.5561  -2
   0  -2   6 516.523 10.5561   1
  -1   2   6 283.817 5.93547  -2
   1  -2   6 283.817 5.93547   1
  -2   2   6 4.51047 0.62245  -2
   2  -2   6 4.51047 0.62245   1
  -3   2   6 111.006 2.83392  -2
   3  -2   6 111.006 2.83392   1
  -4   2   6 109.578 4.54102  -2
   4  -2   6 109.578 4.54102   1
  -5   2   6 30.2666 2.75290  -2
   5  -2   6 30.2666 2.75290   1
  -6   2   6 56.8493 3.13796  -2
   6  -2   6 56.8493 3.13796   1
  -7   2   6 7.34093 5.09238  -2
   7  -2   6 7.34093 5.09238   1
   8   1   7 17.4094 2.18647  -2
  -8  -1   6 17.4094 2.18647   1
   7   1   7 3.29166 1.96495  -2
  -7  -1   6 3.29166 1.96495   1
   6   1   7 22.5146 2.17882  -2
  -6  -1   6 22.5146 2.17882   1
   5   1   7 31.8131 1.55620  -2
  -5  -1   6 31.8131 1.55620   1
   4   1   7 303.664 9.09814  -2
  -4  -1   6 303.664 9.09814   1
   3   1   6 13.3558 1.09240  -2
  -3  -1   6 13.3558 1.09240   1
   2   1   6 39.8894 1.34005  -2
  -2  -1   6 39.8894 1.34005   1
   1   1   6 211.750 4.45009  -2
  -1  -1   6 211.750 4.45009   1
   0   1   6 427.466 9.59830  -2
   0  -1   6 427.466 9.59830   1
  -1   1   6 53.1388 1.50200  -2
   1  -1   6 53.1388 1.50200   1
  -2   1   6 95.6868 2.24859  -2
   2  -1   6 95.6868 2.24859   1
  -3   1   6 176.325 3.91401  -2
   3  -1   6 176.325 3.91401   1
  -4   1   6 80.7368 2.71176  -2
   4  -1   6 80.7368 2.71176   1
  -5   1   6 38.4136 4.22083  -2
   5  -1   6 38.4136 4.22083   1
  -6   1   6 9.73751 3.09238  -2
   6  -1   6 9.73751 3.09238   1
  -7   1   5 -0.1667 4.45822  -2
   7  -1   6 -0.1667 4.45822   1
   7   0   7 13.2035 2.20013  -2
  -7   0   6 13.2035 2.20013   1
   6   0   7 46.8921 2.40481  -2
  -6   0   6 46.8921 2.40481   1
  -5   0   6 43.4939 1.69817   1
   4   0   6 70.2474 2.48717  -2
  -4   0   6 70.2474 2.48717   1
   3   0   6 59.8171 1.84480  -2
  -3   0   6 59.8171 1.84480   1
   2   0   6 26.9694 1.08676  -2
  -2   0   6 26.9694 1.08676   1
   1   0   6 162.194 4.27824  -2
  -1   0   6 162.194 4.27824   1
   0   0   6 877.408 21.7073  -2
   0   0   6 877.408 21.7073   1
  -1   0   6 201.782 4.68844  -2
   1   0   6 201.782 4.68844   1
  -2   0   6 47.8254 1.36103  -2
   2   0   6 47.8254 1.36103   1
  -3   0   6 78.1937 2.00479  -2
   3   0   6 78.1937 2.00479   1
  -4   0   6 109.781 3.37846  -2
   4   0   6 109.781 3.37846   1
   5   0   6 7.30572 1.49040   1
  -6   0   5 57.0733 2.95816  -2
   6   0   6 57.0733 2.95816   1
  -7   0   5 4.83853 2.31970  -2
   7   0   6 4.83853 2.31970   1
  -8   0   5 6.96809 2.86069  -2
   8   0   6 6.96809 2.86069   1
   6  -1   6 8.92488 2.56454  -2
  -6   1   6 8.92488 2.56454   1
   5  -1   6 27.6964 1.46895  -2
  -5   1   6 27.6964 1.46895   1
   4  -1   6 117.475 3.35703  -2
  -4   1   6 117.475 3.35703   1
   3  -1   6 126.221 2.86330  -2
  -3   1   6 126.221 2.86330   1
   2  -1   6 129.931 3.18598  -2
  -2   1   6 129.931 3.18598   1
   1  -1   6 61.6729 1.48664  -2
  -1   1   6 61.6729 1.48664   1
   0  -1   6 442.686 11.1124  -2
   0   1   6 442.686 11.1124   1
  -1  -1   6 176.938 4.67154  -2
   1   1   6 176.938 4.67154   1
  -2  -1   6 37.8393 1.40077  -2
   2   1   6 37.8393 1.40077   1
  -3  -1   6 11.1318 0.97472  -2
   3   1   6 11.1318 0.97472   1
   4   1   6 0.66554 0.49730   1
  -5  -1   5 113.851 3.59873  -2
   5   1   6 113.851 3.59873   1
  -6  -1   5 20.0853 2.19260  -2
   6   1   6 20.0853 2.19260   1
  -7  -1   5 2.04219 2.01123  -2
   7   1   6 2.04219 2.01123   1
  -8  -1   5 -1.0979 2.38744  -2
   8   1   6 -1.0979 2.38744   1
   7  -2   6 8.55801 3.36229  -2
  -7   2   6 8.55801 3.36229   1
   6  -2   6 66.6012 2.17611  -2
  -6   2   6 66.6012 2.17611   1
   5  -2   6 34.4053 1.87950  -2
  -5   2   6 34.4053 1.87950   1
   4  -2   6 80.0530 2.25207  -2
  -4   2   6 80.0530 2.25207   1
   3  -2   6 120.219 2.74612  -2
  -3   2   6 120.219 2.74612   1
   2  -2   6 3.95851 0.91755  -2
  -2   2   6 3.95851 0.91755   1
   1  -2   6 296.762 6.17594  -2
  -1   2   6 296.762 6.17594   1
   0  -2   6 523.190 13.1063  -2
   0   2   6 523.190 13.1063   1
  -1  -2   6 595.948 14.8747  -2
   1   2   6 595.948 14.8747   1
  -2  -2   6 112.390 4.54813  -2
   2   2   6 112.390 4.54813   1
  -3  -2   5 18.0760 1.36109  -2
   3   2   6 18.0760 1.36109   1
  -4  -2   5 90.0487 2.40619  -2
   4   2   6 90.0487 2.40619   1
  -5  -2   5 15.2387 1.55587  -2
   5   2   6 15.2387 1.55587   1
  -6  -2   5 165.634 5.45300  -2
   6   2   6 165.634 5.45300   1
  -7  -2   5 7.09606 1.73270  -2
   7   2   6 7.09606 1.73270   1
  -8  -2   5 6.07900 1.65296  -2
   8   2   6 6.07900 1.65296   1
   7  -3   6 3.02507 2.21220  -2
  -7   3   6 3.02507 2.21220   1
   6  -3   6 8.03274 1.33788  -2
  -6   3   6 8.03274 1.33788   1
   5  -3   6 21.9317 1.40625  -2
  -5   3   6 21.9317 1.40625   1
   4  -3   6 104.964 3.07657  -2
  -4   3   6 104.964 3.07657   1
   3  -3   6 148.135 3.66587  -2
  -3   3   6 148.135 3.66587   1
   2  -3   6 50.1113 1.94737  -2
  -2   3   6 50.1113 1.94737   1
   1  -3   6 155.774 3.77728  -2
  -1   3   6 155.774 3.77728   1
   0  -3   6 39.9633 1.71678  -2
   0   3   6 39.9633 1.71678   1
   1   3   6 25.3879 1.12085   1
  -2  -3   5 6.02804 0.98778  -2
   2   3   6 6.02804 0.98778   1
  -3  -3   5 72.8099 2.13182  -2
   3   3   6 72.8099 2.13182   1
  -4  -3   5 33.0683 1.72959  -2
   4   3   6 33.0683 1.72959   1
  -5  -3   5 280.837 7.33675  -2
   5   3   6 280.837 7.33675   1
  -6  -3   5 29.4809 1.50753  -2
   6   3   6 29.4809 1.50753   1
  -7  -3   5 7.90372 1.58407  -2
   7   3   6 7.90372 1.58407   1
  -8  -3   5 1.47470 2.46202  -2
   8   3   6 1.47470 2.46202   1
   6  -4   6 19.0363 1.50517  -2
  -6   4   6 19.0363 1.50517   1
   5  -4   6 71.9781 2.34586  -2
  -5   4   6 71.9781 2.34586   1
   4  -4   6 13.5013 1.14592  -2
  -4   4   6 13.5013 1.14592   1
   3  -4   6 200.803 6.16264  -2
  -3   4   6 200.803 6.16264   1
   2  -4   6 19.2734 1.90728  -2
  -2   4   6 19.2734 1.90728   1
   1  -4   6 46.8507 2.82307  -2
  -1   4   6 46.8507 2.82307   1
   0  -4   5 416.227 14.9791  -2
   0   4   6 416.227 14.9791   1
  -1  -4   5 233.273 5.57136  -2
   1   4   6 233.273 5.57136   1
  -2  -4   5 45.8252 1.50997  -2
   2   4   6 45.8252 1.50997   1
  -3  -4   5 1.14258 0.78944  -2
   3   4   6 1.14258 0.78944   1
  -4  -4   5 105.561 3.05902  -2
   4   4   6 105.561 3.05902   1
  -5  -4   5 8.26394 0.88732  -2
   5   4   6 8.26394 0.88732   1
  -6  -4   5 59.8564 2.15629  -2
   6   4   6 59.8564 2.15629   1
  -7  -4   5 11.5483 1.72787  -2
   7   4   6 11.5483 1.72787   1
  -8  -4   5 4.58679 2.43462  -2
   8   4   6 4.58679 2.43462   1
   5  -5   6 7.37509 1.62771  -2
  -5   5   6 7.37509 1.62771   1
   4  -5   6 50.3676 1.87355  -2
  -4   5   6 50.3676 1.87355   1
   3  -5   6 106.006 3.43153  -2
  -3   5   6 106.006 3.43153   1
   2  -5   6 9.20018 3.06856  -2
  -2   5   6 9.20018 3.06856   1
   1  -5   5 246.403 7.48302  -2
  -1   5   6 246.403 7.48302   1
   0  -5   5 147.398 4.11873  -2
   0   5   6 147.398 4.11873   1
  -1  -5   5 199.236 4.83006  -2
   1   5   6 199.236 4.83006   1
  -2  -5   5 56.2733 1.99972  -2
   2   5   6 56.2733 1.99972   1
  -3  -5   5 178.382 4.73695  -2
   3   5   6 178.382 4.73695   1
  -4  -5   5 25.8760 1.35723  -2
   4   5   6 25.8760 1.35723   1
  -5  -5   5 155.325 3.64472  -2
   5   5   6 155.325 3.64472   1
  -6  -5   5 9.22402 1.98820  -2
   6   5   6 9.22402 1.98820   1
  -7  -5   5 4.13616 2.64732  -2
   7   5   6 4.13616 2.64732   1
   8   5   6 7.37154 1.75966   1
   5  -6   6 15.6752 2.53007  -2
  -5   6   6 15.6752 2.53007   1
   4  -6   6 12.1640 1.88445  -2
  -4   6   6 12.1640 1.88445   1
  -3   6   6 11.8421 1.35876   1
   2  -6   5 30.0200 2.38326  -2
  -2   6   6 30.0200 2.38326   1
   1  -6   5 11.8867 1.36705  -2
  -1   6   6 11.8867 1.36705   1
   0  -6   5 182.565 4.96450  -2
   0   6   6 182.565 4.96450   1
  -1  -6   5 165.399 5.21760  -2
   1   6   6 165.399 5.21760   1
  -2  -6   5 51.6863 1.71986  -2
   2   6   6 51.6863 1.71986   1
  -3  -6   5 32.4170 1.79129  -2
   3   6   6 32.4170 1.79129   1
  -4  -6   5 30.5031 1.43460  -2
   4   6   6 30.5031 1.43460   1
  -5  -6   5 -0.3457 1.38572  -2
   5   6   6 -0.3457 1.38572   1
  -6  -6   5 46.6438 2.37157  -2
   6   6   6 46.6438 2.37157   1
   7   6   6 5.04873 2.78884   1
   4  -7   5 18.3992 6.13436  -2
  -4   7   6 18.3992 6.13436   1
   3  -7   5 15.9993 2.13263  -2
  -3   7   6 15.9993 2.13263   1
   2  -7   5 21.4087 1.39100  -2
  -2   7   6 21.4087 1.39100   1
   1  -7   5 40.9013 1.61311  -2
  -1   7   6 40.9013 1.61311   1
   0  -7   5 63.2873 1.88215  -2
   0   7   6 63.2873 1.88215   1
  -1  -7   5 4.14180 0.91764  -2
   1   7   6 4.14180 0.91764   1
  -2  -7   5 16.1208 1.13677  -2
   2   7   6 16.1208 1.13677   1
  -3  -7   5 58.8671 2.25992  -2
   3   7   6 58.8671 2.25992   1
  -4  -7   5 17.3474 1.49594  -2
   4   7   6 17.3474 1.49594   1
   5   7   6 47.3815 2.73336   1
  -6  -7   4 4.36159 4.04954  -2
   6   7   6 4.36159 4.04954   1
  -7  -7   4 7.68035 1.87592  -2
   7   7   6 7.68035 1.87592   1
   3  -8   5 16.9233 1.96054  -2
  -3   8   6 16.9233 1.96054   1
   2  -8   5 2.68362 1.78025  -2
  -2   8   6 2.68362 1.78025   1
   1  -8   5 5.76307 1.12936  -2
  -1   8   6 5.76307 1.12936   1
   0  -8   5 4.86584 1.12589  -2
   0   8   6 4.86584 1.12589   1
  -1  -8   5 52.9528 2.09950  -2
   1   8   6 52.9528 2.09950   1
  -2  -8   5 6.24871 1.31512  -2
   2   8   6 6.24871 1.31512   1
  -3  -8   5 2.97594 1.46643  -2
   3   8   6 2.97594 1.46643   1
  -4  -8   5 20.1133 5.44897  -2
   4   8   6 20.1133 5.44897   1
  -5  -8   4 9.60793 2.36433  -2
   5   8   6 9.60793 2.36433   1
  -6  -8   4 29.4547 2.63173  -2
   6   8   6 29.4547 2.63173   1
   1  -9   5 11.4768 1.79542  -2
  -1   9   6 11.4768 1.79542   1
   0  -9   5 16.2014 1.81010  -2
   0   9   6 16.2014 1.81010   1
  -1  -9   5 6.65776 1.79916  -2
   1   9   6 6.65776 1.79916   1
  -2  -9   5 1.25073 3.24833  -2
   2   9   6 1.25073 3.24833   1
  -3  -9   4 51.6801 6.65162  -2
   3   9   6 51.6801 6.65162   1
  -4  -9   4 11.1027 2.71540  -2
   4   9   6 11.1027 2.71540   1
  -5  -9   4 11.4212 2.25085  -2
   5   9   6 11.4212 2.25085   1
  -3  -9   7 10.0385 3.02594   1
   2   9   8 14.7144 2.89258  -2
  -2  -9   7 14.7144 2.89258   1
   1   9   8 4.90506 1.83751  -2
  -1  -9   7 4.90506 1.83751   1
  -5  -8   7 4.20999 1.94539   1
   4   8   8 46.4528 5.35229  -2
  -4  -8   7 46.4528 5.35229   1
   3   8   8 6.01182 2.79495  -2
  -3  -8   7 6.01182 2.79495   1
   2   8   8 16.0354 1.83290  -2
  -2  -8   7 16.0354 1.83290   1
   1   8   8 40.2070 1.76547  -2
  -1  -8   7 40.2070 1.76547   1
   0   8   8 8.49939 1.08333  -2
   0  -8   7 8.49939 1.08333   1
  -1   8   8 24.1929 1.31152  -2
   1  -8   7 24.1929 1.31152   1
  -2   8   8 2.66156 1.64904  -2
   2  -8   7 2.66156 1.64904   1
  -6  -7   7 10.1641 3.79497   1
   5   7   8 31.0836 4.42750  -2
  -5  -7   7 31.0836 4.42750   1
   4   7   8 43.4952 3.28061  -2
  -4  -7   7 43.4952 3.28061   1
   3   7   8 26.8941 2.04967  -2
  -3  -7   7 26.8941 2.04967   1
   2   7   8 54.5654 1.67387  -2
  -2  -7   7 54.5654 1.67387   1
   1   7   8 5.16300 1.15588  -2
  -1  -7   7 5.16300 1.15588   1
   0   7   8 5.73770 0.74333  -2
   0  -7   7 5.73770 0.74333   1
  -1   7   8 2.28111 1.23880  -2
   1  -7   7 2.28111 1.23880   1
  -2   7   8 24.2287 1.78858  -2
   2  -7   7 24.2287 1.78858   1
  -3   7   8 33.7821 2.67433  -2
   3  -7   7 33.7821 2.67433   1
   6   6   8 8.37445 1.71275  -2
  -6  -6   7 8.37445 1.71275   1
   5   6   8 5.06625 1.95187  -2
  -5  -6   7 5.06625 1.95187   1
   4   6   8 36.6547 1.39174  -2
  -4  -6   7 36.6547 1.39174   1
   3   6   8 23.4069 1.39434  -2
  -3  -6   7 23.4069 1.39434   1
   2   6   8 12.0642 0.79405  -2
  -2  -6   7 12.0642 0.79405   1
   1   6   8 118.854 3.01707  -2
  -1  -6   7 118.854 3.01707   1
   0   6   8 47.7050 1.71402  -2
   0  -6   7 47.7050 1.71402   1
  -1   6   8 58.3066 2.25888  -2
   1  -6   7 58.3066 2.25888   1
  -2   6   8 12.9126 1.59544  -2
   2  -6   7 12.9126 1.59544   1
   3  -6   7 11.2370 2.37914   1
  -4   6   7 16.1622 4.80922  -2
   4  -6   7 16.1622 4.80922   1
   7   5   8 1.94505 1.55498  -2
  -7  -5   7 1.94505 1.55498   1
   6   5   8 22.4111 1.38000  -2
  -6  -5   7 22.4111 1.38000   1
   5   5   8 57.4462 2.29624  -2
  -5  -5   7 57.4462 2.29624   1
   4   5   8 139.578 4.39492  -2
  -4  -5   7 139.578 4.39492   1
   3   5   8 34.2534 1.26951  -2
  -3  -5   7 34.2534 1.26951   1
   2   5   8 91.4113 2.14542  -2
  -2  -5   7 91.4113 2.14542   1
   1   5   8 -0.3341 0.92609  -2
  -1  -5   7 -0.3341 0.92609   1
   0   5   8 18.8288 1.69407  -2
   0  -5   7 18.8288 1.69407   1
  -1   5   8 61.7975 2.33983  -2
   1  -5   7 61.7975 2.33983   1
  -2   5   7 73.8675 5.22035  -2
   2  -5   7 73.8675 5.22035   1
  -3   5   7 78.9426 2.61865  -2
   3  -5   7 78.9426 2.61865   1
  -4   5   7 147.812 4.57348  -2
   4  -5   7 147.812 4.57348   1
  -5   5   7 11.6434 1.84716  -2
   5  -5   7 11.6434 1.84716   1
   7   4   8 16.1117 1.20986  -2
  -7  -4   7 16.1117 1.20986   1
   6   4   8 38.9370 1.29863  -2
  -6  -4   7 38.9370 1.29863   1
   5   4   8 3.91319 0.71887  -2
  -5  -4   7 3.91319 0.71887   1
   4   4   8 111.145 2.56700  -2
  -4  -4   7 111.145 2.56700   1
   3   4   8 57.6482 2.13776  -2
  -3  -4   7 57.6482 2.13776   1
   2   4   8 146.771 3.93883  -2
  -2  -4   7 146.771 3.93883   1
   1   4   8 274.974 6.99546  -2
  -1  -4   7 274.974 6.99546   1
   0   4   8 342.177 12.4061  -2
   0  -4   7 342.177 12.4061   1
  -1   4   7 140.148 7.94202  -2
   1  -4   7 140.148 7.94202   1
  -2   4   7 48.6509 2.05508  -2
   2  -4   7 48.6509 2.05508   1
  -3   4   7 57.6056 2.34261  -2
   3  -4   7 57.6056 2.34261   1
  -4   4   7 1.03584 1.74788  -2
   4  -4   7 1.03584 1.74788   1
  -5   4   7 26.5203 1.88776  -2
   5  -4   7 26.5203 1.88776   1
  -6   4   7 -2.0591 1.76850  -2
   6  -4   7 -2.0591 1.76850   1
   7   3   8 3.39684 1.31060  -2
  -7  -3   7 3.39684 1.31060   1
   6   3   8 16.2937 0.86975  -2
  -6  -3   7 16.2937 0.86975   1
   5   3   8 139.255 3.25351  -2
  -5  -3   7 139.255 3.25351   1
   4   3   8 312.093 7.15234  -2
  -4  -3   7 312.093 7.15234   1
   3   3   8 43.5961 1.64620  -2
  -3  -3   7 43.5961 1.64620   1
   2   3   8 287.496 6.61241  -2
  -2  -3   7 287.496 6.61241   1
  -1  -3   7 1.06103 0.40218   1
   0   3   7 225.734 5.29793  -2
   0  -3   7 225.734 5.29793   1
  -1   3   7 21.6051 1.21519  -2
   1  -3   7 21.6051 1.21519   1
  -2   3   7 354.787 8.29494  -2
   2  -3   7 354.787 8.29494   1
  -3   3   7 123.027 3.23708  -2
   3  -3   7 123.027 3.23708   1
  -4   3   7 226.962 6.13965  -2
   4  -3   7 226.962 6.13965   1
  -5   3   7 22.8108 1.69524  -2
   5  -3   7 22.8108 1.69524   1
  -6   3   7 5.44013 2.40662  -2
   6  -3   7 5.44013 2.40662   1
   7   2   8 1.15943 1.42503  -2
  -7  -2   7 1.15943 1.42503   1
   6   2   8 46.4297 2.08249  -2
  -6  -2   7 46.4297 2.08249   1
   5   2   8 35.2299 1.66123  -2
  -5  -2   7 35.2299 1.66123   1
   4   2   8 77.9334 5.10254  -2
  -4  -2   7 77.9334 5.10254   1
   3   2   8 211.448 4.61547  -2
  -3  -2   7 211.448 4.61547   1
   2   2   7 22.3483 1.61680  -2
  -2  -2   7 22.3483 1.61680   1
   1   2   7 708.127 14.3104  -2
  -1  -2   7 708.127 14.3104   1
   0   2   7 35.7165 1.33909  -2
   0  -2   7 35.7165 1.33909   1
  -1   2   7 142.840 3.50255  -2
   1  -2   7 142.840 3.50255   1
  -2   2   7 67.6364 1.76422  -2
   2  -2   7 67.6364 1.76422   1
  -3   2   7 65.3958 1.91309  -2
   3  -2   7 65.3958 1.91309   1
  -4   2   7 3.56203 2.57933  -2
   4  -2   7 3.56203 2.57933   1
  -5   2   7 25.8306 2.31405  -2
   5  -2   7 25.8306 2.31405   1
  -6   2   7 12.1704 2.59027  -2
   6  -2   7 12.1704 2.59027   1
   7   1   8 11.4104 1.86948  -2
  -7  -1   7 11.4104 1.86948   1
   6   1   8 27.9178 1.66327  -2
  -6  -1   7 27.9178 1.66327   1
   5   1   8 137.150 4.09509  -2
  -5  -1   7 137.150 4.09509   1
   4   1   8 452.110 16.3112  -2
  -4  -1   7 452.110 16.3112   1
   3   1   7 55.8146 2.06587  -2
  -3  -1   7 55.8146 2.06587   1
   2   1   7 136.805 3.78234  -2
  -2  -1   7 136.805 3.78234   1
   1   1   7 102.156 2.33136  -2
  -1  -1   7 102.156 2.33136   1
   0   1   7 126.433 3.10516  -2
   0  -1   7 126.433 3.10516   1
  -1   1   7 6.99488 0.73780  -2
   1  -1   7 6.99488 0.73780   1
  -2   1   7 79.3233 1.96981  -2
   2  -1   7 79.3233 1.96981   1
  -3   1   7 115.120 2.74735  -2
   3  -1   7 115.120 2.74735   1
  -5   1   7 44.9681 2.72498  -2
   5  -1   7 44.9681 2.72498   1
  -6   1   7 8.18502 4.47786  -2
   6  -1   7 8.18502 4.47786   1
   7   0   8 12.3668 1.57496  -2
  -7   0   7 12.3668 1.57496   1
   6   0   8 15.4363 1.17615  -2
  -6   0   7 15.4363 1.17615   1
   5   0   7 127.408 4.62375  -2
  -5   0   7 127.408 4.62375   1
   4   0   7 4.13602 1.79090  -2
  -4   0   7 4.13602 1.79090   1
   3   0   7 210.874 5.06063  -2
  -3   0   7 210.874 5.06063   1
   2   0   7 122.091 3.08779  -2
  -2   0   7 122.091 3.08779   1
   1   0   7 191.108 5.02804  -2
  -1   0   7 191.108 5.02804   1
   0   0   7 182.867 4.81004  -2
   0   0   7 182.867 4.81004   1
  -1   0   7 250.757 5.80072  -2
   1   0   7 250.757 5.80072   1
  -2   0   7 86.0738 2.14487  -2
   2   0   7 86.0738 2.14487   1
  -3   0   7 242.499 5.28892  -2
   3   0   7 242.499 5.28892   1
  -4   0   7 11.2718 2.25231  -2
   4   0   7 11.2718 2.25231   1
   5   0   7 23.7054 3.06930   1
  -6   0   6 30.6257 2.24834  -2
   6   0   7 30.6257 2.24834   1
  -7   0   6 15.0849 3.02940  -2
   7   0   7 15.0849 3.02940   1
   7  -1   8 16.1065 4.05993  -2
  -7   1   7 16.1065 4.05993   1
   6  -1   7 7.78845 2.68068  -2
  -6   1   7 7.78845 2.68068   1
   5  -1   7 49.9578 1.98849  -2
  -5   1   7 49.9578 1.98849   1
   4  -1   7 140.682 3.55067  -2
  -4   1   7 140.682 3.55067   1
   3  -1   7 76.5148 2.50082  -2
  -3   1   7 76.5148 2.50082   1
   2  -1   7 71.7148 2.00516  -2
  -2   1   7 71.7148 2.00516   1
   1  -1   7 8.53784 0.56696  -2
  -1   1   7 8.53784 0.56696   1
   0  -1   7 144.832 3.94925  -2
   0   1   7 144.832 3.94925   1
  -1  -1   7 123.345 3.45936  -2
   1   1   7 123.345 3.45936   1
  -2  -1   7 98.2758 2.67951  -2
   2   1   7 98.2758 2.67951   1
  -3  -1   7 86.9966 2.47051  -2
   3   1   7 86.9966 2.47051   1
   4   1   7 94.9571 2.85202   1
  -5  -1   6 40.0313 2.11266  -2
   5   1   7 40.0313 2.11266   1
  -6  -1   6 33.9825 2.47034  -2
   6   1   7 33.9825 2.47034   1
  -7  -1   6 3.96458 2.12848  -2
   7   1   7 3.96458 2.12848   1
  -8  -1   6 9.33002 3.47313  -2
   8   1   7 9.33002 3.47313   1
   7  -2   7 13.6604 3.56052  -2
  -7   2   7 13.6604 3.56052   1
   6  -2   7 10.9672 1.47529  -2
  -6   2   7 10.9672 1.47529   1
   5  -2   7 33.2065 1.68734  -2
  -5   2   7 33.2065 1.68734   1
   4  -2   7 4.87303 0.90610  -2
  -4   2   7 4.87303 0.90610   1
   3  -2   7 48.1278 1.47994  -2
  -3   2   7 48.1278 1.47994   1
   2  -2   7 101.278 2.65339  -2
  -2   2   7 101.278 2.65339   1
   1  -2   7 98.7453 2.30806  -2
  -1   2   7 98.7453 2.30806   1
   0  -2   7 37.8918 1.63118  -2
   0   2   7 37.8918 1.63118   1
  -1  -2   7 825.693 20.5125  -2
   1   2   7 825.693 20.5125   1
  -2  -2   7 19.4700 2.05077  -2
   2   2   7 19.4700 2.05077   1
  -3  -2   6 179.656 4.89788  -2
   3   2   7 179.656 4.89788   1
  -4  -2   6 34.6478 2.13834  -2
   4   2   7 34.6478 2.13834   1
  -5  -2   6 54.4288 1.81901  -2
   5   2   7 54.4288 1.81901   1
  -6  -2   6 58.9985 2.88338  -2
   6   2   7 58.9985 2.88338   1
  -7  -2   6 4.80916 1.42724  -2
   7   2   7 4.80916 1.42724   1
  -8  -2   6 9.83726 2.58605  -2
   8   2   7 9.83726 2.58605   1
   6  -3   7 7.21152 1.90678  -2
  -6   3   7 7.21152 1.90678   1
   5  -3   7 25.4863 1.46585  -2
  -5   3   7 25.4863 1.46585   1
   4  -3   7 241.185 5.25618  -2
  -4   3   7 241.185 5.25618   1
   3  -3   7 88.5482 5.59955  -2
  -3   3   7 88.5482 5.59955   1
   2  -3   7 334.867 8.69918  -2
  -2   3   7 334.867 8.69918   1
   1  -3   7 12.0667 0.86569  -2
  -1   3   7 12.0667 0.86569   1
   0  -3   7 272.639 7.11015  -2
   0   3   7 272.639 7.11015   1
  -1  -3   7 23.9187 3.14795  -2
   1   3   7 23.9187 3.14795   1
  -2  -3   6 38.7239 1.55625  -2
   2   3   7 38.7239 1.55625   1
  -3  -3   6 45.6178 1.68419  -2
   3   3   7 45.6178 1.68419   1
  -4  -3   6 57.5240 2.20384  -2
   4   3   7 57.5240 2.20384   1
  -5  -3   6 51.4170 2.03405  -2
   5   3   7 51.4170 2.03405   1
  -6  -3   6 64.1125 1.88689  -2
   6   3   7 64.1125 1.88689   1
  -7  -3   6 3.83588 1.65225  -2
   7   3   7 3.83588 1.65225   1
  -8  -3   6 -2.0200 3.53631  -2
   8   3   7 -2.0200 3.53631   1
   6  -4   7 1.09390 2.18479  -2
  -6   4   7 1.09390 2.18479   1
   5  -4   7 40.4422 1.78916  -2
  -5   4   7 40.4422 1.78916   1
   4  -4   7 1.79986 1.08216  -2
  -4   4   7 1.79986 1.08216   1
   3  -4   7 46.3413 2.16473  -2
  -3   4   7 46.3413 2.16473   1
   2  -4   7 74.6382 3.81236  -2
  -2   4   7 74.6382 3.81236   1
   1  -4   7 126.210 7.74348  -2
  -1   4   7 126.210 7.74348   1
   0  -4   6 298.629 8.99087  -2
   0   4   7 298.629 8.99087   1
  -1  -4   6 908.723 20.5658  -2
   1   4   7 908.723 20.5658   1
  -2  -4   6 118.964 2.81734  -2
   2   4   7 118.964 2.81734   1
  -3  -4   6 93.9298 2.90729  -2
   3   4   7 93.9298 2.90729   1
  -4  -4   6 28.9050 1.36366  -2
   4   4   7 28.9050 1.36366   1
  -5  -4   6 26.1182 1.22484  -2
   5   4   7 26.1182 1.22484   1
  -6  -4   6 62.3467 2.25365  -2
   6   4   7 62.3467 2.25365   1
  -7  -4   6 26.9298 2.00345  -2
   7   4   7 26.9298 2.00345   1
   5  -5   7 10.9147 1.64967  -2
  -5   5   7 10.9147 1.64967   1
   4  -5   7 132.268 3.73575  -2
  -4   5   7 132.268 3.73575   1
   3  -5   7 57.0163 2.65134  -2
  -3   5   7 57.0163 2.65134   1
   2  -5   7 49.7891 4.62386  -2
  -2   5   7 49.7891 4.62386   1
   1  -5   6 42.6010 1.99427  -2
  -1   5   7 42.6010 1.99427   1
   0  -5   6 2.58724 1.54001  -2
   0   5   7 2.58724 1.54001   1
  -1  -5   6 80.5215 5.34319  -2
   1   5   7 80.5215 5.34319   1
  -2  -5   6 24.9449 1.90986  -2
   2   5   7 24.9449 1.90986   1
  -3  -5   6 24.0415 1.09652  -2
   3   5   7 24.0415 1.09652   1
  -4  -5   6 70.8401 1.94682  -2
   4   5   7 70.8401 1.94682   1
  -5  -5   6 29.4626 1.45176  -2
   5   5   7 29.4626 1.45176   1
  -6  -5   6 123.191 3.44675  -2
   6   5   7 123.191 3.44675   1
  -7  -5   6 10.3087 2.37398  -2
   7   5   7 10.3087 2.37398   1
   4  -6   7 12.2983 5.54400  -2
  -4   6   7 12.2983 5.54400   1
   3  -6   6 17.4821 5.26506  -2
  -3   6   7 17.4821 5.26506   1
   2  -6   6 75.3774 4.09160  -2
  -2   6   7 75.3774 4.09160   1
   1  -6   6 11.3638 1.46321  -2
  -1   6   7 11.3638 1.46321   1
   0  -6   6 122.301 3.78324  -2
   0   6   7 122.301 3.78324   1
  -1  -6   6 479.806 11.1168  -2
   1   6   7 479.806 11.1168   1
  -2  -6   6 16.4941 0.99250  -2
   2   6   7 16.4941 0.99250   1
  -3  -6   6 52.9399 1.83013  -2
   3   6   7 52.9399 1.83013   1
  -4  -6   6 9.07045 1.05572  -2
   4   6   7 9.07045 1.05572   1
  -5  -6   6 18.2039 1.62938  -2
   5   6   7 18.2039 1.62938   1
  -6  -6   6 18.7181 2.01731  -2
   6   6   7 18.7181 2.01731   1
   7   6   7 12.5477 3.12234   1
   4  -7   6 17.3487 6.31709  -2
  -4   7   7 17.3487 6.31709   1
   3  -7   6 25.6515 1.72087  -2
  -3   7   7 25.6515 1.72087   1
   2  -7   6 3.52403 1.83170  -2
  -2   7   7 3.52403 1.83170   1
   1  -7   6 13.9015 1.42067  -2
  -1   7   7 13.9015 1.42067   1
   0  -7   6 0.89424 1.09363  -2
   0   7   7 0.89424 1.09363   1
  -1  -7   6 28.3730 1.43171  -2
   1   7   7 28.3730 1.43171   1
  -2  -7   6 19.4585 1.25193  -2
   2   7   7 19.4585 1.25193   1
  -3  -7   6 0.94783 1.42754  -2
   3   7   7 0.94783 1.42754   1
  -4  -7   6 20.0489 1.64432  -2
   4   7   7 20.0489 1.64432   1
  -5  -7   6 27.5601 5.46413  -2
   5   7   7 27.5601 5.46413   1
  -6  -7   5 46.9503 4.30987  -2
   6   7   7 46.9503 4.30987   1
   2  -8   6 16.7522 2.38061  -2
  -2   8   7 16.7522 2.38061   1
   1  -8   6 13.8206 1.47613  -2
  -1   8   7 13.8206 1.47613   1
   0  -8   6 9.79775 1.33860  -2
   0   8   7 9.79775 1.33860   1
  -1  -8   6 100.254 2.74342  -2
   1   8   7 100.254 2.74342   1
  -2  -8   6 9.73644 1.45973  -2
   2   8   7 9.73644 1.45973   1
  -3  -8   6 17.0741 2.01532  -2
   3   8   7 17.0741 2.01532   1
  -4  -8   6 15.3718 5.38818  -2
   4   8   7 15.3718 5.38818   1
  -5  -8   5 11.7754 2.67536  -2
   5   8   7 11.7754 2.67536   1
  -6  -8   5 6.80846 3.20333  -2
   6   8   7 6.80846 3.20333   1
   1  -9   6 6.17007 2.38830  -2
  -1   9   7 6.17007 2.38830   1
   0  -9   6 4.26088 2.42781  -2
   0   9   7 4.26088 2.42781   1
  -1  -9   6 6.86989 1.73102  -2
   1   9   7 6.86989 1.73102   1
  -2  -9   6 11.9715 2.68488  -2
   2   9   7 11.9715 2.68488   1
   3   9   7 2.96154 1.37340   1
  -4  -9   5 13.7139 2.56550  -2
   4   9   7 13.7139 2.56550   1
  -4  -8   8 11.0576 3.07279   1
   3   8   9 -1.3176 4.05980  -2
  -3  -8   8 -1.3176 4.05980   1
   2   8   9 7.72290 1.16922  -2
  -2  -8   8 7.72290 1.16922   1
   1   8   9 10.3993 1.26336  -2
  -1  -8   8 10.3993 1.26336   1
   0   8   9 14.1181 1.19647  -2
   0  -8   8 14.1181 1.19647   1
  -1   8   9 3.11663 1.04101  -2
   1  -8   8 3.11663 1.04101   1
   4   7   9 17.4674 2.40308  -2
  -4  -7   8 17.4674 2.40308   1
   3   7   9 14.5090 2.02757  -2
  -3  -7   8 14.5090 2.02757   1
   2   7   9 9.80312 1.30186  -2
  -2  -7   8 9.80312 1.30186   1
   1   7   9 4.36810 0.79100  -2
  -1  -7   8 4.36810 0.79100   1
   0   7   9 44.3094 1.33692  -2
   0  -7   8 44.3094 1.33692   1
  -1   7   9 10.0591 1.38948  -2
   1  -7   8 10.0591 1.38948   1
  -2   7   9 13.2116 2.02295  -2
   2  -7   8 13.2116 2.02295   1
   3  -7   8 1.08323 1.22631   1
   6   6   9 9.69963 1.90492  -2
  -6  -6   8 9.69963 1.90492   1
   5   6   9 8.71803 1.31878  -2
  -5  -6   8 8.71803 1.31878   1
   4   6   9 0.94822 0.97706  -2
  -4  -6   8 0.94822 0.97706   1
   3   6   9 13.2773 1.14513  -2
  -3  -6   8 13.2773 1.14513   1
   2   6   9 2.45952 0.85929  -2
  -2  -6   8 2.45952 0.85929   1
   1   6   9 7.51100 0.97397  -2
  -1  -6   8 7.51100 0.97397   1
   0   6   9 133.233 3.44652  -2
   0  -6   8 133.233 3.44652   1
  -1   6   9 0.78942 1.68467  -2
   1  -6   8 0.78942 1.68467   1
  -2   6   9 18.0687 2.00101  -2
   2  -6   8 18.0687 2.00101   1
   3  -6   8 0.73372 2.10546   1
  -4   6   8 -1.7699 5.27297  -2
   4  -6   8 -1.7699 5.27297   1
   6   5   9 2.61881 1.82524  -2
  -6  -5   8 2.61881 1.82524   1
   5   5   9 137.957 4.46623  -2
  -5  -5   8 137.957 4.46623   1
   4   5   9 39.4821 2.42443  -2
  -4  -5   8 39.4821 2.42443   1
   3   5   9 59.4920 1.80482  -2
  -3  -5   8 59.4920 1.80482   1
   2   5   9 77.1322 2.12892  -2
  -2  -5   8 77.1322 2.12892   1
   1   5   9 53.2824 1.77862  -2
  -1  -5   8 53.2824 1.77862   1
   0   5   9 76.6328 2.11534  -2
   0  -5   8 76.6328 2.11534   1
  -1   5   9 31.0560 1.28008  -2
   1  -5   8 31.0560 1.28008   1
  -2   5   9 16.8993 3.60589  -2
   2  -5   8 16.8993 3.60589   1
  -3   5   8 36.6272 1.98440  -2
   3  -5   8 36.6272 1.98440   1
  -4   5   8 48.0567 2.96562  -2
   4  -5   8 48.0567 2.96562   1
  -5   5   8 0.16827 2.64926  -2
   5  -5   8 0.16827 2.64926   1
   7   4   9 6.93471 1.36082  -2
  -7  -4   8 6.93471 1.36082   1
   6   4   9 11.0353 0.89963  -2
  -6  -4   8 11.0353 0.89963   1
   5   4   9 3.85373 0.67257  -2
  -5  -4   8 3.85373 0.67257   1
   4   4   9 8.77154 0.98241  -2
  -4  -4   8 8.77154 0.98241   1
   3   4   9 43.6023 1.86881  -2
  -3  -4   8 43.6023 1.86881   1
   2   4   9 52.3530 2.19221  -2
  -2  -4   8 52.3530 2.19221   1
   1   4   9 46.1205 1.52616  -2
  -1  -4   8 46.1205 1.52616   1
   0   4   9 333.638 9.92908  -2
   0  -4   8 333.638 9.92908   1
  -1   4   8 31.7142 2.04494  -2
   1  -4   8 31.7142 2.04494   1
  -2   4   8 24.6194 1.72002  -2
   2  -4   8 24.6194 1.72002   1
  -3   4   8 13.4053 2.34925  -2
   3  -4   8 13.4053 2.34925   1
  -4   4   8 7.25697 2.02655  -2
   4  -4   8 7.25697 2.02655   1
  -5   4   8 10.0557 2.55753  -2
   5  -4   8 10.0557 2.55753   1
   7   3   9 31.1274 1.25429  -2
  -7  -3   8 31.1274 1.25429   1
   6   3   9 0.80199 0.48563  -2
  -6  -3   8 0.80199 0.48563   1
   5   3   9 314.903 6.74530  -2
  -5  -3   8 314.903 6.74530   1
   4   3   9 21.3824 1.39705  -2
  -4  -3   8 21.3824 1.39705   1
   3   3   9 148.717 4.84736  -2
  -3  -3   8 148.717 4.84736   1
   2   3   9 86.8299 3.85182  -2
  -2  -3   8 86.8299 3.85182   1
  -1  -3   8 40.5084 1.19792   1
   0   3   8 22.7321 1.44100  -2
   0  -3   8 22.7321 1.44100   1
  -1   3   8 165.930 4.59289  -2
   1  -3   8 165.930 4.59289   1
  -2   3   8 28.0236 1.30151  -2
   2  -3   8 28.0236 1.30151   1
  -3   3   8 34.0444 1.56808  -2
   3  -3   8 34.0444 1.56808   1
  -4   3   8 111.371 4.02050  -2
   4  -3   8 111.371 4.02050   1
  -5   3   8 36.3460 2.45450  -2
   5  -3   8 36.3460 2.45450   1
  -6   3   8 28.8906 2.77346  -2
   6  -3   8 28.8906 2.77346   1
   7   2   9 0.80484 0.78696  -2
  -7  -2   8 0.80484 0.78696   1
   6   2   9 34.0088 1.60023  -2
  -6  -2   8 34.0088 1.60023   1
   5   2   9 5.46328 1.36796  -2
  -5  -2   8 5.46328 1.36796   1
   4   2   9 64.3045 1.97304  -2
  -4  -2   8 64.3045 1.97304   1
   3   2   9 89.9593 4.07487  -2
  -3  -2   8 89.9593 4.07487   1
   2   2   8 167.494 6.59986  -2
  -2  -2   8 167.494 6.59986   1
   1   2   8 146.903 3.27822  -2
  -1  -2   8 146.903 3.27822   1
   0   2   8 973.999 21.6011  -2
   0  -2   8 973.999 21.6011   1
  -1   2   8 140.838 3.51648  -2
   1  -2   8 140.838 3.51648   1
  -2   2   8 33.2637 1.30789  -2
   2  -2   8 33.2637 1.30789   1
  -3   2   8 22.2829 1.05616  -2
   3  -2   8 22.2829 1.05616   1
  -4   2   8 77.8558 2.80267  -2
   4  -2   8 77.8558 2.80267   1
  -5   2   8 13.6566 2.23625  -2
   5  -2   8 13.6566 2.23625   1
  -6   2   8 51.6573 3.94153  -2
   6  -2   8 51.6573 3.94153   1
   7   1   9 19.5925 1.12035  -2
  -7  -1   8 19.5925 1.12035   1
   6   1   9 -0.3087 1.74106  -2
  -6  -1   8 -0.3087 1.74106   1
   5   1   9 197.671 5.05639  -2
  -5  -1   8 197.671 5.05639   1
   4   1   9 36.5260 2.07539  -2
  -4  -1   8 36.5260 2.07539   1
   3   1   8 1.75917 1.40506  -2
  -3  -1   8 1.75917 1.40506   1
   2   1   8 69.7340 2.10631  -2
  -2  -1   8 69.7340 2.10631   1
   1   1   8 204.391 4.37038  -2
  -1  -1   8 204.391 4.37038   1
   0   1   8 13.4049 1.02117  -2
   0  -1   8 13.4049 1.02117   1
  -1   1   8 360.409 8.22467  -2
   1  -1   8 360.409 8.22467   1
  -2   1   8 51.8553 1.65472  -2
   2  -1   8 51.8553 1.65472   1
  -3   1   8 61.7652 2.20130  -2
   3  -1   8 61.7652 2.20130   1
  -4   1   8 272.414 8.42787  -2
   4  -1   8 272.414 8.42787   1
  -5   1   8 97.0625 3.44487  -2
   5  -1   8 97.0625 3.44487   1
   7   0   9 1.05532 2.81166  -2
  -7   0   8 1.05532 2.81166   1
   6   0   9 26.3471 2.50032  -2
  -6   0   8 26.3471 2.50032   1
   5   0   8 23.0505 4.91521  -2
  -5   0   8 23.0505 4.91521   1
   4   0   8 140.777 3.76479  -2
  -4   0   8 140.777 3.76479   1
   3   0   8 133.487 4.51552  -2
  -3   0   8 133.487 4.51552   1
   2   0   8 178.611 4.34570  -2
  -2   0   8 178.611 4.34570   1
   1   0   8 109.507 3.14542  -2
  -1   0   8 109.507 3.14542   1
   0   0   8 1347.33 33.2253  -2
   0   0   8 1347.33 33.2253   1
  -1   0   8 87.0318 2.34677  -2
   1   0   8 87.0318 2.34677   1
  -2   0   8 126.701 2.99565  -2
   2   0   8 126.701 2.99565   1
  -3   0   8 99.2778 2.55377  -2
   3   0   8 99.2778 2.55377   1
  -4   0   8 123.843 4.38056  -2
   4   0   8 123.843 4.38056   1
   5   0   8 0.95368 1.95436   1
  -6   0   7 11.9196 3.15005  -2
   6   0   8 11.9196 3.15005   1
  -7   0   7 9.14365 3.16523  -2
   7   0   8 9.14365 3.16523   1
  -7   1   8 9.08699 1.15669   1
   6  -1   8 27.4514 4.71498  -2
  -6   1   8 27.4514 4.71498   1
   5  -1   8 97.5386 4.65546  -2
  -5   1   8 97.5386 4.65546   1
   4  -1   8 183.646 4.65369  -2
  -4   1   8 183.646 4.65369   1
   3  -1   8 58.0264 2.13797  -2
  -3   1   8 58.0264 2.13797   1
   2  -1   8 65.1709 1.93181  -2
  -2   1   8 65.1709 1.93181   1
   1  -1   8 473.532 9.73761  -2
  -1   1   8 473.532 9.73761   1
   0  -1   8 12.4653 1.13193  -2
   0   1   8 12.4653 1.13193   1
  -1  -1   8 140.168 3.95804  -2
   1   1   8 140.168 3.95804   1
  -2  -1   8 64.8373 2.09040  -2
   2   1   8 64.8373 2.09040   1
  -3  -1   8 4.58990 1.26225  -2
   3   1   8 4.58990 1.26225   1
  -4  -1   7 580.710 20.8383  -2
   4   1   8 580.710 20.8383   1
  -5  -1   7 148.818 4.94035  -2
   5   1   8 148.818 4.94035   1
  -6  -1   7 36.8926 2.65019  -2
   6   1   8 36.8926 2.65019   1
  -7  -1   7 9.57316 2.33987  -2
   7   1   8 9.57316 2.33987   1
   6  -2   8 53.7955 2.12378  -2
  -6   2   8 53.7955 2.12378   1
   5  -2   8 16.9680 1.26605  -2
  -5   2   8 16.9680 1.26605   1
   4  -2   8 81.9040 3.98747  -2
  -4   2   8 81.9040 3.98747   1
   3  -2   8 31.5537 1.36967  -2
  -3   2   8 31.5537 1.36967   1
   2  -2   8 36.8235 1.59539  -2
  -2   2   8 36.8235 1.59539   1
   1  -2   8 133.359 3.02025  -2
  -1   2   8 133.359 3.02025   1
   0  -2   8 886.814 22.0529  -2
   0   2   8 886.814 22.0529   1
  -1  -2   8 116.269 3.47031  -2
   1   2   8 116.269 3.47031   1
  -2  -2   8 128.617 7.62011  -2
   2   2   8 128.617 7.62011   1
  -3  -2   7 155.102 5.23053  -2
   3   2   8 155.102 5.23053   1
  -4  -2   7 122.048 3.33921  -2
   4   2   8 122.048 3.33921   1
  -5  -2   7 29.0759 1.60780  -2
   5   2   8 29.0759 1.60780   1
  -6  -2   7 43.4028 3.03760  -2
   6   2   8 43.4028 3.03760   1
  -7  -2   7 3.07722 1.60571  -2
   7   2   8 3.07722 1.60571   1
   6  -3   8 19.9341 1.73658  -2
  -6   3   8 19.9341 1.73658   1
   5  -3   8 32.7659 1.57678  -2
  -5   3   8 32.7659 1.57678   1
   4  -3   8 72.7706 1.99405  -2
  -4   3   8 72.7706 1.99405   1
   3  -3   8 28.9501 1.95929  -2
  -3   3   8 28.9501 1.95929   1
   1  -3   8 203.453 5.50172  -2
  -1   3   8 203.453 5.50172   1
   0  -3   8 19.6478 1.26738  -2
   0   3   8 19.6478 1.26738   1
   1   3   8 0.29917 0.95890   1
  -2  -3   7 222.183 7.09022  -2
   2   3   8 222.183 7.09022   1
  -3  -3   7 37.0331 2.12037  -2
   3   3   8 37.0331 2.12037   1
  -4  -3   7 411.702 10.5729  -2
   4   3   8 411.702 10.5729   1
  -5  -3   7 179.574 4.61012  -2
   5   3   8 179.574 4.61012   1
  -6  -3   7 19.0450 1.02788  -2
   6   3   8 19.0450 1.02788   1
  -7  -3   7 5.74890 2.65731  -2
   7   3   8 5.74890 2.65731   1
   5  -4   8 13.5711 1.83504  -2
  -5   4   8 13.5711 1.83504   1
   4  -4   8 4.43547 2.05267  -2
  -4   4   8 4.43547 2.05267   1
   3  -4   8 14.0878 1.74962  -2
  -3   4   8 14.0878 1.74962   1
   2  -4   8 36.2138 2.74840  -2
  -2   4   8 36.2138 2.74840   1
   1  -4   8 15.9348 2.56609  -2
  -1   4   8 15.9348 2.56609   1
   0  -4   7 522.904 18.7561  -2
   0   4   8 522.904 18.7561   1
  -1  -4   7 200.587 7.67629  -2
   1   4   8 200.587 7.67629   1
  -2  -4   7 223.302 8.44148  -2
   2   4   8 223.302 8.44148   1
  -3  -4   7 45.8261 2.15447  -2
   3   4   8 45.8261 2.15447   1
  -4  -4   7 141.076 3.70239  -2
   4   4   8 141.076 3.70239   1
  -5  -4   7 8.13875 1.19496  -2
   5   4   8 8.13875 1.19496   1
  -6  -4   7 27.2532 1.63906  -2
   6   4   8 27.2532 1.63906   1
  -7  -4   7 11.3396 2.33305  -2
   7   4   8 11.3396 2.33305   1
   5  -5   8 6.63615 2.26635  -2
  -5   5   8 6.63615 2.26635   1
   4  -5   8 33.1060 2.37755  -2
  -4   5   8 33.1060 2.37755   1
   3  -5   8 47.6832 2.95158  -2
  -3   5   8 47.6832 2.95158   1
   2  -5   8 52.3550 3.66893  -2
  -2   5   8 52.3550 3.66893   1
   1  -5   7 78.0512 2.89333  -2
  -1   5   8 78.0512 2.89333   1
   0  -5   7 20.7497 1.46792  -2
   0   5   8 20.7497 1.46792   1
  -1  -5   7 1.56046 1.36002  -2
   1   5   8 1.56046 1.36002   1
  -2  -5   7 97.9230 3.09968  -2
   2   5   8 97.9230 3.09968   1
  -3  -5   7 26.3563 1.12372  -2
   3   5   8 26.3563 1.12372   1
  -4  -5   7 194.848 4.43347  -2
   4   5   8 194.848 4.43347   1
  -5  -5   7 83.6197 2.39239  -2
   5   5   8 83.6197 2.39239   1
  -6  -5   7 28.8716 2.15794  -2
   6   5   8 28.8716 2.15794   1
  -7  -5   7 2.76602 3.14785  -2
   7   5   8 2.76602 3.14785   1
   4  -6   8 7.04377 4.03070  -2
  -4   6   8 7.04377 4.03070   1
   2  -6   7 12.9382 2.47393  -2
  -2   6   8 12.9382 2.47393   1
   1  -6   7 50.5199 3.31412  -2
  -1   6   8 50.5199 3.31412   1
   0  -6   7 69.1887 2.57681  -2
   0   6   8 69.1887 2.57681   1
  -1  -6   7 90.9998 2.40082  -2
   1   6   8 90.9998 2.40082   1
  -2  -6   7 19.4845 1.12681  -2
   2   6   8 19.4845 1.12681   1
  -3  -6   7 13.9362 1.48899  -2
   3   6   8 13.9362 1.48899   1
  -4  -6   7 30.9003 1.41330  -2
   4   6   8 30.9003 1.41330   1
  -5  -6   7 4.98052 1.55980  -2
   5   6   8 4.98052 1.55980   1
  -6  -6   7 6.58149 2.49954  -2
   6   6   8 6.58149 2.49954   1
   7   6   8 4.46003 1.35394   1
   3  -7   7 41.4640 4.34273  -2
  -3   7   8 41.4640 4.34273   1
   2  -7   7 32.5919 2.24608  -2
  -2   7   8 32.5919 2.24608   1
   1  -7   7 1.70372 1.65036  -2
  -1   7   8 1.70372 1.65036   1
   0  -7   7 8.80020 1.13150  -2
   0   7   8 8.80020 1.13150   1
  -1  -7   7 8.28079 1.24253  -2
   1   7   8 8.28079 1.24253   1
  -2  -7   7 42.4953 1.68661  -2
   2   7   8 42.4953 1.68661   1
  -3  -7   7 18.9542 1.82524  -2
   3   7   8 18.9542 1.82524   1
  -4  -7   7 44.4395 2.07440  -2
   4   7   8 44.4395 2.07440   1
  -5  -7   7 51.7435 3.21258  -2
   5   7   8 51.7435 3.21258   1
  -6  -7   6 22.3033 5.12138  -2
  -6  -7   7 22.3033 5.12138  -2
   6   7   8 22.3033 5.12138   1
   2  -8   7 4.80498 5.11539  -2
  -2   8   8 4.80498 5.11539   1
   1  -8   7 20.8410 1.46542  -2
  -1   8   8 20.8410 1.46542   1
   0  -8   7 13.9504 1.44554  -2
   0   8   8 13.9504 1.44554   1
  -1  -8   7 25.4873 1.84997  -2
   1   8   8 25.4873 1.84997   1
  -2  -8   7 22.2588 1.89090  -2
   2   8   8 22.2588 1.89090   1
  -3  -8   7 12.4885 2.13440  -2
   3   8   8 12.4885 2.13440   1
  -4  -8   7 28.1221 3.64627  -2
   4   8   8 28.1221 3.64627   1
  -5  -8   6 12.5211 4.81547  -2
   5   8   8 12.5211 4.81547   1
   0   9   8 0.43704 1.23204   1
  -1  -9   7 5.46296 2.38131  -2
   1   9   8 5.46296 2.38131   1
  -2  -9   7 4.71822 2.77785  -2
   2   9   8 4.71822 2.77785   1
   3   9   8 11.1755 1.82901   1
   1   8  10 17.0087 1.73724  -2
  -1  -8   9 17.0087 1.73724   1
   0   8  10 7.00129 2.00402  -2
   0  -8   9 7.00129 2.00402   1
   4   7  10 22.3342 3.00630  -2
  -4  -7   9 22.3342 3.00630   1
   3   7  10 6.16451 1.32627  -2
  -3  -7   9 6.16451 1.32627   1
   2   7  10 18.2139 1.53862  -2
  -2  -7   9 18.2139 1.53862   1
   1   7  10 20.7966 1.18072  -2
  -1  -7   9 20.7966 1.18072   1
   0   7  10 11.3177 0.90117  -2
   0  -7   9 11.3177 0.90117   1
  -1   7  10 8.12867 1.46945  -2
   1  -7   9 8.12867 1.46945   1
  -2   7  10 5.26433 2.00447  -2
   2  -7   9 5.26433 2.00447   1
   5   6  10 6.49750 1.33807  -2
  -5  -6   9 6.49750 1.33807   1
   4   6  10 16.2465 1.40970  -2
  -4  -6   9 16.2465 1.40970   1
   3   6  10 3.00355 1.71713  -2
  -3  -6   9 3.00355 1.71713   1
   2   6  10 14.1400 0.87798  -2
  -2  -6   9 14.1400 0.87798   1
   1   6  10 30.8670 1.27135  -2
  -1  -6   9 30.8670 1.27135   1
   0   6  10 8.94824 1.19202  -2
   0  -6   9 8.94824 1.19202   1
  -1   6  10 0.01684 1.48887  -2
   1  -6   9 0.01684 1.48887   1
  -2   6  10 9.26950 2.85897  -2
   2  -6   9 9.26950 2.85897   1
   3  -6   9 5.66213 2.32686   1
   6   5  10 34.6938 2.51046  -2
  -6  -5   9 34.6938 2.51046   1
   5   5  10 14.2746 1.36447  -2
  -5  -5   9 14.2746 1.36447   1
   4   5  10 50.5676 1.75581  -2
  -4  -5   9 50.5676 1.75581   1
   3   5  10 35.9220 1.26605  -2
  -3  -5   9 35.9220 1.26605   1
   2   5  10 10.9348 0.97585  -2
  -2  -5   9 10.9348 0.97585   1
   1   5  10 109.998 2.66981  -2
  -1  -5   9 109.998 2.66981   1
   0   5  10 8.51505 1.30810  -2
   0  -5   9 8.51505 1.30810   1
  -1   5  10 24.6084 2.26534  -2
   1  -5   9 24.6084 2.26534   1
   2  -5   9 2.94963 1.39793   1
  -3   5   9 63.8168 3.17773  -2
   3  -5   9 63.8168 3.17773   1
  -4   5   9 20.6590 2.60327  -2
   4  -5   9 20.6590 2.60327   1
   6   4  10 2.43537 1.23657  -2
  -6  -4   9 2.43537 1.23657   1
   5   4  10 9.42905 1.00975  -2
  -5  -4   9 9.42905 1.00975   1
   4   4  10 2.47116 0.95259  -2
  -4  -4   9 2.47116 0.95259   1
   3   4  10 9.29604 1.10433  -2
  -3  -4   9 9.29604 1.10433   1
   2   4  10 30.0218 1.33198  -2
  -2  -4   9 30.0218 1.33198   1
   1   4  10 58.5551 1.79936  -2
  -1  -4   9 58.5551 1.79936   1
   0   4  10 16.8841 1.50335  -2
   0  -4   9 16.8841 1.50335   1
  -1   4   9 4.29436 1.54051  -2
   1  -4   9 4.29436 1.54051   1
  -2   4   9 33.7166 1.78817  -2
   2  -4   9 33.7166 1.78817   1
  -3   4   9 56.4296 3.39346  -2
   3  -4   9 56.4296 3.39346   1
  -4   4   9 12.8551 2.13094  -2
   4  -4   9 12.8551 2.13094   1
  -5   4   9 29.3416 2.49610  -2
   5  -4   9 29.3416 2.49610   1
   6   3  10 18.1083 1.22790  -2
  -6  -3   9 18.1083 1.22790   1
   5   3  10 17.9185 1.36897  -2
  -5  -3   9 17.9185 1.36897   1
   4   3  10 105.497 2.95345  -2
  -4  -3   9 105.497 2.95345   1
   3   3  10 161.916 4.05234  -2
  -3  -3   9 161.916 4.05234   1
   2   3  10 47.4736 2.34646  -2
  -2  -3   9 47.4736 2.34646   1
   1   3   9 169.200 9.29542  -2
  -1  -3   9 169.200 9.29542   1
   0   3   9 66.4852 2.72812  -2
   0  -3   9 66.4852 2.72812   1
  -1   3   9 9.66323 1.62612  -2
   1  -3   9 9.66323 1.62612   1
  -2   3   9 22.0008 1.30426  -2
   2  -3   9 22.0008 1.30426   1
  -3   3   9 129.925 5.47184  -2
   3  -3   9 129.925 5.47184   1
  -4   3   9 38.4083 2.30565  -2
   4  -3   9 38.4083 2.30565   1
  -5   3   9 67.2535 3.24446  -2
   5  -3   9 67.2535 3.24446   1
   6  -3   9 2.37396 1.67801   1
   6   2  10 3.21575 1.65427  -2
  -6  -2   9 3.21575 1.65427   1
   5   2  10 28.3494 1.76010  -2
  -5  -2   9 28.3494 1.76010   1
   4   2  10 36.6009 1.78705  -2
  -4  -2   9 36.6009 1.78705   1
   3   2  10 102.356 2.91755  -2
  -3  -2   9 102.356 2.91755   1
  -2  -2   9 12.7984 2.70218   1
   1   2   9 193.930 5.88620  -2
  -1  -2   9 193.930 5.88620   1
   0   2   9 249.176 6.57488  -2
   0  -2   9 249.176 6.57488   1
  -1   2   9 67.0929 2.29942  -2
   1  -2   9 67.0929 2.29942   1
  -2   2   9 73.8642 2.01036  -2
   2  -2   9 73.8642 2.01036   1
  -3   2   9 70.1305 2.14573  -2
   3  -2   9 70.1305 2.14573   1
  -4   2   9 16.8806 1.75500  -2
   4  -2   9 16.8806 1.75500   1
  -5   2   9 31.9118 2.59709  -2
   5  -2   9 31.9118 2.59709   1
  -6   2   9 -1.9126 3.26097  -2
   6  -2   9 -1.9126 3.26097   1
   6   1  10 23.1719 2.01089  -2
  -6  -1   9 23.1719 2.01089   1
   5   1  10 47.3513 2.00219  -2
  -5  -1   9 47.3513 2.00219   1
   4   1  10 197.331 7.90789  -2
  -4  -1   9 197.331 7.90789   1
   3   1   9 418.921 12.3945  -2
  -3  -1   9 418.921 12.3945   1
   2   1   9 144.149 8.32612  -2
  -2  -1   9 144.149 8.32612   1
   1   1   9 144.521 4.07012  -2
  -1  -1   9 144.521 4.07012   1
   0   1   9 65.0947 2.21443  -2
   0  -1   9 65.0947 2.21443   1
  -1   1   9 46.7503 1.75186  -2
   1  -1   9 46.7503 1.75186   1
  -2   1   9 71.9697 2.36199  -2
   2  -1   9 71.9697 2.36199   1
  -3   1   9 315.333 8.39600  -2
   3  -1   9 315.333 8.39600   1
  -4   1   9 53.5526 2.13558  -2
   4  -1   9 53.5526 2.13558   1
  -5   1   9 159.984 4.90650  -2
   5  -1   9 159.984 4.90650   1
   5   0   9 34.2412 5.96990  -2
  -5   0   9 34.2412 5.96990   1
   4   0   9 66.2802 2.65976  -2
  -4   0   9 66.2802 2.65976   1
   3   0   9 55.5741 2.01268  -2
  -3   0   9 55.5741 2.01268   1
   2   0   9 46.4592 2.20971  -2
  -2   0   9 46.4592 2.20971   1
   1   0   9 40.9436 1.95518  -2
  -1   0   9 40.9436 1.95518   1
   0   0   9 419.364 9.54084  -2
   0   0   9 419.364 9.54084   1
  -1   0   9 30.5102 1.31207  -2
   1   0   9 30.5102 1.31207   1
  -2   0   9 76.1491 2.29652  -2
   2   0   9 76.1491 2.29652   1
  -3   0   9 49.3913 2.40932  -2
   3   0   9 49.3913 2.40932   1
  -4   0   9 44.9418 1.96688  -2
   4   0   9 44.9418 1.96688   1
  -6   0   8 23.4078 4.76230  -2
   6   0   9 23.4078 4.76230   1
  -7   0   8 4.07096 5.22771  -2
   7   0   9 4.07096 5.22771   1
   6  -1   9 14.0015 3.84655  -2
  -6   1   9 14.0015 3.84655   1
   5  -1   9 134.415 5.91963  -2
  -5   1   9 134.415 5.91963   1
   4  -1   9 69.2291 2.72246  -2
  -4   1   9 69.2291 2.72246   1
   3  -1   9 302.107 7.13100  -2
  -3   1   9 302.107 7.13100   1
   2  -1   9 53.0044 1.91814  -2
  -2   1   9 53.0044 1.91814   1
   1  -1   9 42.8842 1.36210  -2
  -1   1   9 42.8842 1.36210   1
   0  -1   9 89.7100 2.78823  -2
   0   1   9 89.7100 2.78823   1
  -1  -1   9 114.731 3.43734  -2
   1   1   9 114.731 3.43734   1
  -2  -1   9 217.922 7.02032  -2
   2   1   9 217.922 7.02032   1
  -3  -1   9 376.958 11.6032  -2
   3   1   9 376.958 11.6032   1
  -4  -1   8 39.4897 3.30452  -2
   4   1   9 39.4897 3.30452   1
  -5  -1   8 239.493 5.87737  -2
   5   1   9 239.493 5.87737   1
  -6  -1   8 -2.8417 2.89917  -2
   6   1   9 -2.8417 2.89917   1
  -7  -1   8 19.6262 3.38239  -2
   7   1   9 19.6262 3.38239   1
   6  -2   9 3.25497 2.83006  -2
  -6   2   9 3.25497 2.83006   1
   5  -2   9 37.0084 2.25578  -2
  -5   2   9 37.0084 2.25578   1
   4  -2   9 25.9180 1.78870  -2
  -4   2   9 25.9180 1.78870   1
   3  -2   9 77.8844 2.97902  -2
  -3   2   9 77.8844 2.97902   1
   2  -2   9 48.5151 2.17336  -2
  -2   2   9 48.5151 2.17336   1
   1  -2   9 93.2939 2.47008  -2
  -1   2   9 93.2939 2.47008   1
   0  -2   9 328.903 8.55112  -2
   0   2   9 328.903 8.55112   1
  -1  -2   9 175.617 5.67847  -2
   1   2   9 175.617 5.67847   1
  -2  -2   9 30.7552 3.83654  -2
   2   2   9 30.7552 3.83654   1
  -3  -2   8 58.9153 2.46430  -2
   3   2   9 58.9153 2.46430   1
  -4  -2   8 48.9488 2.14969  -2
   4   2   9 48.9488 2.14969   1
  -5  -2   8 8.31767 2.08627  -2
   5   2   9 8.31767 2.08627   1
  -6  -2   8 30.5414 2.08772  -2
   6   2   9 30.5414 2.08772   1
  -7  -2   8 4.74164 2.65876  -2
   7   2   9 4.74164 2.65876   1
   5  -3   9 57.1193 2.55398  -2
  -5   3   9 57.1193 2.55398   1
   4  -3   9 54.4595 2.27787  -2
  -4   3   9 54.4595 2.27787   1
   3  -3   9 120.305 3.75732  -2
  -3   3   9 120.305 3.75732   1
   2  -3   9 22.8736 1.52114  -2
  -2   3   9 22.8736 1.52114   1
   1  -3   9 5.44136 1.30498  -2
  -1   3   9 5.44136 1.30498   1
   0  -3   9 86.5907 3.83860  -2
   0   3   9 86.5907 3.83860   1
   1   3   9 87.2040 3.83713   1
  -2  -3   8 127.754 5.42607  -2
   2   3   9 127.754 5.42607   1
  -3  -3   8 231.186 6.27901  -2
   3   3   9 231.186 6.27901   1
  -4  -3   8 15.7961 1.70436  -2
   4   3   9 15.7961 1.70436   1
  -5  -3   8 346.160 9.24832  -2
   5   3   9 346.160 9.24832   1
  -6  -3   8 0.80194 0.83799  -2
   6   3   9 0.80194 0.83799   1
  -7  -3   8 26.2554 3.93570  -2
   7   3   9 26.2554 3.93570   1
   5  -4   9 38.1273 2.29041  -2
  -5   4   9 38.1273 2.29041   1
   4  -4   9 21.7333 2.02769  -2
  -4   4   9 21.7333 2.02769   1
   3  -4   9 58.6167 2.58313  -2
  -3   4   9 58.6167 2.58313   1
   2  -4   9 28.3593 2.04552  -2
  -2   4   9 28.3593 2.04552   1
   1  -4   9 6.93556 2.67246  -2
  -1   4   9 6.93556 2.67246   1
   0  -4   8 258.933 6.83386  -2
   0   4   9 258.933 6.83386   1
  -1  -4   8 48.2237 2.47179  -2
   1   4   9 48.2237 2.47179   1
  -2  -4   8 36.1281 1.73068  -2
   2   4   9 36.1281 1.73068   1
  -3  -4   8 26.0663 1.49397  -2
   3   4   9 26.0663 1.49397   1
  -4  -4   8 3.49361 1.22606  -2
   4   4   9 3.49361 1.22606   1
  -5  -4   8 5.74478 1.25189  -2
   5   4   9 5.74478 1.25189   1
  -6  -4   8 -0.3195 2.24938  -2
   6   4   9 -0.3195 2.24938   1
  -7  -4   8 3.60961 2.32226  -2
   7   4   9 3.60961 2.32226   1
   4  -5   9 30.9611 2.48155  -2
  -4   5   9 30.9611 2.48155   1
   3  -5   9 49.5860 3.16059  -2
  -3   5   9 49.5860 3.16059   1
   2  -5   9 -2.5068 4.35083  -2
  -2   5   9 -2.5068 4.35083   1
   1  -5   8 25.7187 2.98271  -2
  -1   5   9 25.7187 2.98271   1
   0  -5   8 91.7289 2.77230  -2
   0   5   9 91.7289 2.77230   1
  -1  -5   8 84.5871 2.64366  -2
   1   5   9 84.5871 2.64366   1
  -2  -5   8 116.482 3.23277  -2
   2   5   9 116.482 3.23277   1
  -3  -5   8 73.9075 2.04487  -2
   3   5   9 73.9075 2.04487   1
  -4  -5   8 29.0982 1.40286  -2
   4   5   9 29.0982 1.40286   1
  -5  -5   8 143.137 3.55515  -2
   5   5   9 143.137 3.55515   1
  -6  -5   8 9.32452 2.29950  -2
   6   5   9 9.32452 2.29950   1
  -4   6   9 0.25637 2.91176   1
   2  -6   8 15.2742 2.64023  -2
  -2   6   9 15.2742 2.64023   1
   1  -6   8 3.62198 1.84951  -2
  -1   6   9 3.62198 1.84951   1
   0  -6   8 81.0222 4.03539  -2
   0   6   9 81.0222 4.03539   1
  -1  -6   8 5.46093 1.13753  -2
   1   6   9 5.46093 1.13753   1
  -2  -6   8 2.05119 0.91983  -2
   2   6   9 2.05119 0.91983   1
  -3  -6   8 7.95048 1.30562  -2
   3   6   9 7.95048 1.30562   1
  -4  -6   8 1.59434 1.54761  -2
   4   6   9 1.59434 1.54761   1
  -5  -6   8 15.0585 1.83402  -2
   5   6   9 15.0585 1.83402   1
  -6  -6   8 11.4881 2.68867  -2
   6   6   9 11.4881 2.68867   1
   2  -7   8 12.9372 2.18102  -2
  -2   7   9 12.9372 2.18102   1
   1  -7   8 9.60175 1.53441  -2
  -1   7   9 9.60175 1.53441   1
   0  -7   8 62.7779 2.47544  -2
   0   7   9 62.7779 2.47544   1
  -1  -7   8 3.61808 1.13709  -2
   1   7   9 3.61808 1.13709   1
  -2  -7   8 16.0988 1.56099  -2
   2   7   9 16.0988 1.56099   1
  -3  -7   8 14.1067 2.06142  -2
   3   7   9 14.1067 2.06142   1
  -4  -7   8 13.2644 2.40125  -2
   4   7   9 13.2644 2.40125   1
  -5  -7   8 70.1990 2.83662  -2
   5   7   9 70.1990 2.83662   1
   1  -8   8 3.67496 1.76425  -2
  -1   8   9 3.67496 1.76425   1
   0  -8   8 11.8980 1.88725  -2
   0   8   9 11.8980 1.88725   1
  -1  -8   8 13.8858 1.93834  -2
   1   8   9 13.8858 1.93834   1
  -2  -8   8 10.4622 2.33767  -2
   2   8   9 10.4622 2.33767   1
  -3  -8   8 4.03215 2.00764  -2
   3   8   9 4.03215 2.00764   1
   4   8   9 1.46846 1.29998   1
   3   7  11 27.4595 2.09558  -2
  -3  -7  10 27.4595 2.09558   1
   2   7  11 22.7644 1.43911  -2
  -2  -7  10 22.7644 1.43911   1
   1   7  11 21.1813 1.20251  -2
  -1  -7  10 21.1813 1.20251   1
   0   7  11 20.1520 1.15470  -2
   0  -7  10 20.1520 1.15470   1
  -1   7  11 34.9447 2.13461  -2
   1  -7  10 34.9447 2.13461   1
   4   6  11 11.7548 1.64326  -2
  -4  -6  10 11.7548 1.64326   1
   3   6  11 3.27910 1.35503  -2
  -3  -6  10 3.27910 1.35503   1
   2   6  11 3.27440 0.80154  -2
  -2  -6  10 3.27440 0.80154   1
   1   6  11 3.19799 1.15031  -2
  -1  -6  10 3.19799 1.15031   1
   0   6  11 18.7291 1.52637  -2
   0  -6  10 18.7291 1.52637   1
  -1   6  11 6.57166 1.96900  -2
   1  -6  10 6.57166 1.96900   1
  -2   6  11 3.15367 2.38493  -2
   2  -6  10 3.15367 2.38493   1
   5   5  11 12.2490 1.60708  -2
  -5  -5  10 12.2490 1.60708   1
   4   5  11 20.6913 1.32185  -2
  -4  -5  10 20.6913 1.32185   1
   3   5  11 12.3472 1.06535  -2
  -3  -5  10 12.3472 1.06535   1
   2   5  11 20.1979 1.19095  -2
  -2  -5  10 20.1979 1.19095   1
   1   5  11 62.7290 2.01389  -2
  -1  -5  10 62.7290 2.01389   1
   0   5  11 21.5938 2.03268  -2
   0  -5  10 21.5938 2.03268   1
  -1   5  11 68.2788 3.21732  -2
   1  -5  10 68.2788 3.21732   1
  -2   5  10 23.7518 4.65661  -2
   2  -5  10 23.7518 4.65661   1
  -3   5  10 10.3568 2.70298  -2
   3  -5  10 10.3568 2.70298   1
  -4   5  10 29.2461 3.13976  -2
   4  -5  10 29.2461 3.13976   1
   6   4  11 22.2748 3.22719  -2
  -6  -4  10 22.2748 3.22719   1
   5   4  11 0.00332 1.17685  -2
  -5  -4  10 0.00332 1.17685   1
   4   4  11 35.0552 1.38778  -2
  -4  -4  10 35.0552 1.38778   1
   3   4  11 5.19693 1.16076  -2
  -3  -4  10 5.19693 1.16076   1
   2   4  11 17.0202 1.10647  -2
  -2  -4  10 17.0202 1.10647   1
   1   4  11 10.3388 1.34421  -2
  -1  -4  10 10.3388 1.34421   1
   0   4  11 46.7276 2.25087  -2
   0  -4  10 46.7276 2.25087   1
  -1   4  10 6.92681 2.46340  -2
   1  -4  10 6.92681 2.46340   1
  -2   4  10 24.9251 1.49919  -2
   2  -4  10 24.9251 1.49919   1
  -3   4  10 2.65233 1.88789  -2
   3  -4  10 2.65233 1.88789   1
  -4   4  10 5.01049 2.60631  -2
   4  -4  10 5.01049 2.60631   1
   6   3  11 1.03281 1.13828  -2
  -6  -3  10 1.03281 1.13828   1
   5   3  11 16.8800 1.48219  -2
  -5  -3  10 16.8800 1.48219   1
   4   3  11 46.8658 1.73992  -2
  -4  -3  10 46.8658 1.73992   1
   3   3  11 32.2426 1.80898  -2
  -3  -3  10 32.2426 1.80898   1
   2   3  11 124.025 3.36009  -2
  -2  -3  10 124.025 3.36009   1
   1   3  10 142.745 8.25945  -2
  -1  -3  10 142.745 8.25945   1
   0   3  10 150.080 3.49545  -2
   0  -3  10 150.080 3.49545   1
  -1   3  10 22.7505 1.52846  -2
   1  -3  10 22.7505 1.52846   1
  -2   3  10 91.6357 2.99881  -2
   2  -3  10 91.6357 2.99881   1
  -3   3  10 17.8625 1.33746  -2
   3  -3  10 17.8625 1.33746   1
  -4   3  10 90.2722 3.10542  -2
   4  -3  10 90.2722 3.10542   1
  -5   3  10 6.45225 2.37250  -2
   5  -3  10 6.45225 2.37250   1
   6   2  11 19.3728 1.59827  -2
  -6  -2  10 19.3728 1.59827   1
   5   2  11 9.32706 1.64631  -2
  -5  -2  10 9.32706 1.64631   1
   4   2  11 38.9989 1.78249  -2
  -4  -2  10 38.9989 1.78249   1
   3   2  11 10.6555 1.56661  -2
  -3  -2  10 10.6555 1.56661   1
   2   2  10 42.4717 2.72447  -2
  -2  -2  10 42.4717 2.72447   1
   1   2  10 114.400 3.01877  -2
  -1  -2  10 114.400 3.01877   1
   0   2  10 23.3139 1.40739  -2
   0  -2  10 23.3139 1.40739   1
  -1   2  10 61.1561 2.27245  -2
   1  -2  10 61.1561 2.27245   1
  -2   2  10 28.9613 1.41937  -2
   2  -2  10 28.9613 1.41937   1
  -3   2  10 2.88718 1.08869  -2
   3  -2  10 2.88718 1.08869   1
  -4   2  10 0.92430 1.61586  -2
   4  -2  10 0.92430 1.61586   1
  -5   2  10 6.77477 2.36684  -2
   5  -2  10 6.77477 2.36684   1
   6  -2  10 0.42009 1.49028   1
   6   1  11 4.41405 2.16295  -2
  -6  -1  10 4.41405 2.16295   1
   5   1  11 13.6172 1.72870  -2
  -5  -1  10 13.6172 1.72870   1
   4   1  11 107.903 5.16270  -2
  -4  -1  10 107.903 5.16270   1
   3   1  10 16.3984 1.55000  -2
  -3  -1  10 16.3984 1.55000   1
   2   1  10 171.918 4.86417  -2
  -2  -1  10 171.918 4.86417   1
   1   1  10 175.512 4.88684  -2
  -1  -1  10 175.512 4.88684   1
   0   1  10 132.728 4.44310  -2
   0  -1  10 132.728 4.44310   1
  -1   1  10 76.1391 2.50153  -2
   1  -1  10 76.1391 2.50153   1
  -2   1  10 53.7596 1.86277  -2
   2  -1  10 53.7596 1.86277   1
  -3   1  10 12.5652 1.24261  -2
   3  -1  10 12.5652 1.24261   1
  -4   1  10 127.488 3.58187  -2
   4  -1  10 127.488 3.58187   1
  -5   1  10 12.8793 2.29883  -2
   5  -1  10 12.8793 2.29883   1
   6   0  11 12.0406 7.11275  -2
  -6   0  10 12.0406 7.11275   1
   5   0  10 6.89284 4.61226  -2
  -5   0  10 6.89284 4.61226   1
   4   0  10 9.74836 1.68243  -2
  -4   0  10 9.74836 1.68243   1
   3   0  10 13.9936 1.64384  -2
  -3   0  10 13.9936 1.64384   1
   2   0  10 11.1742 1.24015  -2
  -2   0  10 11.1742 1.24015   1
   1   0  10 108.143 3.27088  -2
  -1   0  10 108.143 3.27088   1
   0   0  10 26.8174 1.63299  -2
   0   0  10 26.8174 1.63299   1
  -1   0  10 143.887 4.09251  -2
   1   0  10 143.887 4.09251   1
  -2   0  10 17.5560 1.70313  -2
   2   0  10 17.5560 1.70313   1
  -3   0  10 19.6333 1.49252  -2
   3   0  10 19.6333 1.49252   1
  -4   0  10 7.19641 2.00156  -2
   4   0  10 7.19641 2.00156   1
  -5   0  10 20.7269 4.74193  -2
   5   0  10 20.7269 4.74193   1
  -6   0   9 4.24939 3.44734  -2
   6   0  10 4.24939 3.44734   1
   6  -1  10 13.7953 7.13654  -2
  -6   1  10 13.7953 7.13654   1
   5  -1  10 23.6088 2.24201  -2
  -5   1  10 23.6088 2.24201   1
   4  -1  10 115.470 5.20785  -2
  -4   1  10 115.470 5.20785   1
   3  -1  10 15.2637 1.55504  -2
  -3   1  10 15.2637 1.55504   1
   2  -1  10 63.7909 2.02880  -2
  -2   1  10 63.7909 2.02880   1
   1  -1  10 74.6332 1.90123  -2
  -1   1  10 74.6332 1.90123   1
   0  -1  10 138.300 4.62978  -2
   0   1  10 138.300 4.62978   1
  -1  -1  10 121.889 5.36282  -2
   1   1  10 121.889 5.36282   1
  -2  -1  10 130.404 3.98808  -2
   2   1  10 130.404 3.98808   1
  -3  -1  10 7.11461 1.39689  -2
   3   1  10 7.11461 1.39689   1
  -4  -1   9 228.663 6.46966  -2
   4   1  10 228.663 6.46966   1
  -5  -1   9 32.0012 2.06697  -2
   5   1  10 32.0012 2.06697   1
  -6  -1   9 28.0477 2.75832  -2
   6   1  10 28.0477 2.75832   1
   5  -2  10 4.90316 1.95916  -2
  -5   2  10 4.90316 1.95916   1
   4  -2  10 6.09660 1.64511  -2
  -4   2  10 6.09660 1.64511   1
   3  -2  10 6.12587 1.14378  -2
  -3   2  10 6.12587 1.14378   1
   2  -2  10 45.0250 1.84085  -2
  -2   2  10 45.0250 1.84085   1
   1  -2  10 54.7302 2.06587  -2
  -1   2  10 54.7302 2.06587   1
   0  -2  10 10.9357 3.00103  -2
   0   2  10 10.9357 3.00103   1
  -1  -2  10 179.956 10.2590  -2
   1   2  10 179.956 10.2590   1
  -2  -2  10 42.8670 4.55000  -2
   2   2  10 42.8670 4.55000   1
  -3  -2   9 79.4433 5.85233  -2
   3   2  10 79.4433 5.85233   1
  -4  -2   9 22.8409 1.83098  -2
   4   2  10 22.8409 1.83098   1
  -5  -2   9 28.6706 1.58627  -2
   5   2  10 28.6706 1.58627   1
  -6  -2   9 1.87602 1.85122  -2
   6   2  10 1.87602 1.85122   1
   5  -3  10 11.4924 1.96338  -2
  -5   3  10 11.4924 1.96338   1
   4  -3  10 99.8130 3.35272  -2
  -4   3  10 99.8130 3.35272   1
   3  -3  10 15.5587 1.65224  -2
  -3   3  10 15.5587 1.65224   1
   2  -3  10 90.7649 2.71405  -2
  -2   3  10 90.7649 2.71405   1
   1  -3  10 25.4909 1.26893  -2
  -1   3  10 25.4909 1.26893   1
   0  -3  10 165.572 5.40407  -2
   0   3  10 165.572 5.40407   1
   1   3  10 74.2657 5.06517   1
  -2  -3   9 43.1455 2.31552  -2
   2   3  10 43.1455 2.31552   1
  -3  -3   9 124.079 3.95937  -2
   3   3  10 124.079 3.95937   1
  -4  -3   9 137.593 5.01482  -2
   4   3  10 137.593 5.01482   1
  -5  -3   9 12.0977 1.27895  -2
   5   3  10 12.0977 1.27895   1
  -6  -3   9 23.7645 1.54932  -2
   6   3  10 23.7645 1.54932   1
   4  -4  10 3.59537 1.88744  -2
  -4   4  10 3.59537 1.88744   1
   3  -4  10 3.74473 1.92318  -2
  -3   4  10 3.74473 1.92318   1
   2  -4  10 37.7871 2.31994  -2
  -2   4  10 37.7871 2.31994   1
   1  -4  10 4.59561 1.71063  -2
  -1   4  10 4.59561 1.71063   1
   0  -4   9 10.5374 2.28347  -2
   0   4  10 10.5374 2.28347   1
  -1  -4   9 73.9233 3.27237  -2
   1   4  10 73.9233 3.27237   1
  -2  -4   9 50.0185 2.37865  -2
   2   4  10 50.0185 2.37865   1
  -3  -4   9 6.18984 1.61307  -2
   3   4  10 6.18984 1.61307   1
  -4  -4   9 1.27402 1.67525  -2
   4   4  10 1.27402 1.67525   1
  -5  -4   9 16.4862 1.88441  -2
   5   4  10 16.4862 1.88441   1
  -6  -4   9 -1.9413 1.33733  -2
   6   4  10 -1.9413 1.33733   1
   4  -5  10 38.1743 2.77289  -2
  -4   5  10 38.1743 2.77289   1
   3  -5  10 15.8582 2.84240  -2
  -3   5  10 15.8582 2.84240   1
   2  -5  10 36.4667 5.82583  -2
  -2   5  10 36.4667 5.82583   1
   1  -5   9 28.8390 2.26186  -2
  -1   5  10 28.8390 2.26186   1
   0  -5   9 6.39320 1.99313  -2
   0   5  10 6.39320 1.99313   1
  -1  -5   9 128.910 5.66124  -2
   1   5  10 128.910 5.66124   1
  -2  -5   9 11.6997 2.38895  -2
   2   5  10 11.6997 2.38895   1
  -3  -5   9 36.0349 1.42630  -2
   3   5  10 36.0349 1.42630   1
  -4  -5   9 73.6221 2.20396  -2
   4   5  10 73.6221 2.20396   1
  -5  -5   9 18.0389 2.23837  -2
   5   5  10 18.0389 2.23837   1
  -6  -5   9 47.6832 3.19767  -2
   6   5  10 47.6832 3.19767   1
   3  -6   9 19.4864 6.45426  -2
  -3   6  10 19.4864 6.45426   1
   2  -6   9 24.7913 2.78262  -2
  -2   6  10 24.7913 2.78262   1
   1  -6   9 1.57366 1.98114  -2
  -1   6  10 1.57366 1.98114   1
   0  -6   9 14.3157 1.54896  -2
   0   6  10 14.3157 1.54896   1
  -1  -6   9 47.2209 2.16924  -2
   1   6  10 47.2209 2.16924   1
  -2  -6   9 26.3891 1.35715  -2
   2   6  10 26.3891 1.35715   1
  -3  -6   9 8.48654 1.42698  -2
   3   6  10 8.48654 1.42698   1
  -4  -6   9 22.3205 1.53279  -2
   4   6  10 22.3205 1.53279   1
  -5  -6   9 10.4743 1.85970  -2
   5   6  10 10.4743 1.85970   1
   2  -7   9 8.48753 3.43047  -2
  -2   7  10 8.48753 3.43047   1
   1  -7   9 6.03194 1.76776  -2
  -1   7  10 6.03194 1.76776   1
   0  -7   9 17.3761 1.45882  -2
   0   7  10 17.3761 1.45882   1
  -1  -7   9 21.9345 2.06154  -2
   1   7  10 21.9345 2.06154   1
  -2  -7   9 13.3292 2.08329  -2
   2   7  10 13.3292 2.08329   1
  -3  -7   9 6.46577 2.02313  -2
   3   7  10 6.46577 2.02313   1
  -4  -7   9 37.4923 2.60738  -2
   4   7  10 37.4923 2.60738   1
   5   7  10 14.6585 1.44559   1
   0  -8   9 5.82716 2.96827  -2
   0   8  10 5.82716 2.96827   1
  -1  -8   9 29.2324 2.32688  -2
   1   8  10 29.2324 2.32688   1
  -2  -8   9 7.16225 3.04136  -2
   2   8  10 7.16225 3.04136   1
   3   8  10 0.01968 1.32331   1
   3   6  12 8.59983 1.75962  -2
  -3  -6  11 8.59983 1.75962   1
   2   6  12 4.19918 0.91342  -2
  -2  -6  11 4.19918 0.91342   1
   1   6  12 15.1031 1.33950  -2
  -1  -6  11 15.1031 1.33950   1
   0   6  12 26.1369 1.68614  -2
   0  -6  11 26.1369 1.68614   1
  -1   6  12 19.9451 2.53236  -2
   1  -6  11 19.9451 2.53236   1
   4   5  12 12.7885 1.19155  -2
  -4  -5  11 12.7885 1.19155   1
   3   5  12 6.88981 1.11140  -2
  -3  -5  11 6.88981 1.11140   1
   2   5  12 17.9577 1.20891  -2
  -2  -5  11 17.9577 1.20891   1
   1   5  12 17.8611 1.54467  -2
  -1  -5  11 17.8611 1.54467   1
   0   5  12 32.2573 2.51137  -2
   0  -5  11 32.2573 2.51137   1
  -1   5  12 19.6577 3.95890  -2
   1  -5  11 19.6577 3.95890   1
   2  -5  11 2.61282 2.19853   1
  -3   5  11 17.6638 4.11775  -2
   3  -5  11 17.6638 4.11775   1
   5   4  12 5.28287 1.34576  -2
  -5  -4  11 5.28287 1.34576   1
   4   4  12 1.73855 1.12657  -2
  -4  -4  11 1.73855 1.12657   1
   3   4  12 13.2372 1.53412  -2
  -3  -4  11 13.2372 1.53412   1
   2   4  12 2.27436 1.53990  -2
  -2  -4  11 2.27436 1.53990   1
   1   4  12 53.8162 2.04433  -2
  -1  -4  11 53.8162 2.04433   1
   0   4  12 17.1300 1.74168  -2
   0  -4  11 17.1300 1.74168   1
  -1   4  11 9.49892 3.39818  -2
   1  -4  11 9.49892 3.39818   1
  -2   4  11 9.50042 1.65764  -2
   2  -4  11 9.50042 1.65764   1
  -3   4  11 2.43859 1.99657  -2
   3  -4  11 2.43859 1.99657   1
  -4   4  11 6.03323 4.86695  -2
   4  -4  11 6.03323 4.86695   1
   5   3  12 32.1707 1.58224  -2
  -5  -3  11 32.1707 1.58224   1
   4   3  12 5.31613 1.51904  -2
  -4  -3  11 5.31613 1.51904   1
   3   3  12 3.70400 1.64103  -2
  -3  -3  11 3.70400 1.64103   1
   2   3  12 34.1651 1.83196  -2
  -2  -3  11 34.1651 1.83196   1
  -1  -3  11 18.4993 1.37736   1
   0   3  11 32.9477 1.59688  -2
   0  -3  11 32.9477 1.59688   1
  -1   3  11 109.085 3.17236  -2
   1  -3  11 109.085 3.17236   1
  -2   3  11 3.39993 2.11953  -2
   2  -3  11 3.39993 2.11953   1
  -3   3  11 24.2011 1.52725  -2
   3  -3  11 24.2011 1.52725   1
  -4   3  11 29.6839 2.03358  -2
   4  -3  11 29.6839 2.03358   1
   5   2  12 6.26552 2.01375  -2
  -5  -2  11 6.26552 2.01375   1
   4   2  12 6.65072 1.56176  -2
  -4  -2  11 6.65072 1.56176   1
   3   2  12 5.69052 1.71715  -2
  -3  -2  11 5.69052 1.71715   1
   2   2  11 2.81691 2.12990  -2
  -2  -2  11 2.81691 2.12990   1
   1   2  11 114.043 3.21735  -2
  -1  -2  11 114.043 3.21735   1
   0   2  11 20.9226 1.51663  -2
   0  -2  11 20.9226 1.51663   1
  -1   2  11 15.8441 1.51347  -2
   1  -2  11 15.8441 1.51347   1
  -2   2  11 9.14304 1.61279  -2
   2  -2  11 9.14304 1.61279   1
  -3   2  11 6.82337 1.09220  -2
   3  -2  11 6.82337 1.09220   1
  -4   2  11 28.0650 2.10940  -2
   4  -2  11 28.0650 2.10940   1
  -5   2  11 1.47040 2.58919  -2
   5  -2  11 1.47040 2.58919   1
   5   1  12 5.40867 2.16346  -2
  -5  -1  11 5.40867 2.16346   1
   4   1  12 2.37757 3.57194  -2
  -4  -1  11 2.37757 3.57194   1
   3   1  11 25.4540 1.82947  -2
  -3  -1  11 25.4540 1.82947   1
   2   1  11 2.79311 1.61740  -2
  -2  -1  11 2.79311 1.61740   1
   1   1  11 91.3796 2.34780  -2
  -1  -1  11 91.3796 2.34780   1
   0   1  11 4.68610 1.18842  -2
   0  -1  11 4.68610 1.18842   1
  -1   1  11 151.057 4.32610  -2
   1  -1  11 151.057 4.32610   1
  -2   1  11 2.24675 1.25504  -2
   2  -1  11 2.24675 1.25504   1
  -3   1  11 45.7338 1.98457  -2
   3  -1  11 45.7338 1.98457   1
  -4   1  11 24.9810 1.85775  -2
   4  -1  11 24.9810 1.85775   1
  -5   1  11 0.41190 3.21557  -2
   5  -1  11 0.41190 3.21557   1
  -5   0  11 1.88256 2.01196   1
   4   0  11 37.7491 2.32796  -2
  -4   0  11 37.7491 2.32796   1
   3   0  11 5.14889 1.41257  -2
  -3   0  11 5.14889 1.41257   1
   2   0  11 12.4222 1.91774  -2
  -2   0  11 12.4222 1.91774   1
   1   0  11 38.3007 1.27641  -2
  -1   0  11 38.3007 1.27641   1
   0   0  11 86.4790 2.49948  -2
   0   0  11 86.4790 2.49948   1
  -1   0  11 23.4945 1.75411  -2
   1   0  11 23.4945 1.75411   1
  -2   0  11 11.3586 1.45939  -2
   2   0  11 11.3586 1.45939   1
  -3   0  11 -0.0113 1.59434  -2
   3   0  11 -0.0113 1.59434   1
  -4   0  11 42.4714 2.53031  -2
   4   0  11 42.4714 2.53031   1
  -5   0  11 7.55469 4.60923  -2
   5   0  11 7.55469 4.60923   1
  -6   0  10 4.84557 5.19972  -2
   6   0  11 4.84557 5.19972   1
   5  -1  11 17.8217 3.61134  -2
  -5   1  11 17.8217 3.61134   1
   4  -1  11 19.7618 1.84702  -2
  -4   1  11 19.7618 1.84702   1
   3  -1  11 35.7670 2.22707  -2
  -3   1  11 35.7670 2.22707   1
   2  -1  11 5.91407 1.44164  -2
  -2   1  11 5.91407 1.44164   1
   1  -1  11 184.729 4.96052  -2
  -1   1  11 184.729 4.96052   1
   0  -1  11 6.93581 1.58542  -2
   0   1  11 6.93581 1.58542   1
  -1  -1  11 89.5552 3.47731  -2
   1   1  11 89.5552 3.47731   1
  -2  -1  11 3.94197 1.91985  -2
   2   1  11 3.94197 1.91985   1
  -3  -1  11 32.8950 2.26945  -2
   3   1  11 32.8950 2.26945   1
  -4  -1  10 98.5092 6.99894  -2
   4   1  11 98.5092 6.99894   1
  -5  -1  10 8.40284 2.49876  -2
   5   1  11 8.40284 2.49876   1
  -6  -1  10 4.10330 2.71088  -2
   6   1  11 4.10330 2.71088   1
   5  -2  11 0.36520 2.60800  -2
  -5   2  11 0.36520 2.60800   1
   4  -2  11 24.1703 1.95188  -2
  -4   2  11 24.1703 1.95188   1
   3  -2  11 11.1932 1.30770  -2
  -3   2  11 11.1932 1.30770   1
   2  -2  11 7.89089 1.21686  -2
  -2   2  11 7.89089 1.21686   1
   1  -2  11 11.3780 0.92746  -2
  -1   2  11 11.3780 0.92746   1
   0  -2  11 15.6431 1.73195  -2
   0   2  11 15.6431 1.73195   1
  -1  -2  11 75.0765 3.35771  -2
   1   2  11 75.0765 3.35771   1
  -2  -2  11 1.89275 3.67234  -2
   2   2  11 1.89275 3.67234   1
  -3  -2  10 10.7188 2.33461  -2
   3   2  11 10.7188 2.33461   1
  -4  -2  10 54.9204 2.34167  -2
   4   2  11 54.9204 2.34167   1
  -5  -2  10 11.6683 1.57617  -2
   5   2  11 11.6683 1.57617   1
  -6  -2  10 17.1977 1.73847  -2
   6   2  11 17.1977 1.73847   1
   4  -3  11 28.3243 1.91544  -2
  -4   3  11 28.3243 1.91544   1
   3  -3  11 20.0831 1.85654  -2
  -3   3  11 20.0831 1.85654   1
   2  -3  11 3.60714 1.42529  -2
  -2   3  11 3.60714 1.42529   1
   1  -3  11 144.381 3.79990  -2
  -1   3  11 144.381 3.79990   1
   0  -3  11 32.6250 2.19335  -2
   0   3  11 32.6250 2.19335   1
  -1  -3  10 107.868 7.20748  -2
   1   3  11 107.868 7.20748   1
  -2  -3  10 81.1838 3.15560  -2
   2   3  11 81.1838 3.15560   1
  -3  -3  10 47.0844 2.20428  -2
   3   3  11 47.0844 2.20428   1
  -4  -3  10 43.8352 2.11233  -2
   4   3  11 43.8352 2.11233   1
  -5  -3  10 20.9805 1.46100  -2
   5   3  11 20.9805 1.46100   1
  -6  -3  10 2.53696 1.25620  -2
   6   3  11 2.53696 1.25620   1
   4  -4  11 1.61605 2.45404  -2
  -4   4  11 1.61605 2.45404   1
   3  -4  11 9.86436 2.15875  -2
  -3   4  11 9.86436 2.15875   1
   2  -4  11 8.39010 2.37136  -2
  -2   4  11 8.39010 2.37136   1
   1  -4  11 12.7133 2.03888  -2
  -1   4  11 12.7133 2.03888   1
   0  -4  10 42.1756 2.32022  -2
   0   4  11 42.1756 2.32022   1
  -1  -4  10 10.6788 1.93762  -2
   1   4  11 10.6788 1.93762   1
  -2  -4  10 16.9502 1.91153  -2
   2   4  11 16.9502 1.91153   1
  -3  -4  10 6.70008 1.69145  -2
   3   4  11 6.70008 1.69145   1
  -4  -4  10 44.1528 2.00361  -2
   4   4  11 44.1528 2.00361   1
  -5  -4  10 3.21179 1.43800  -2
   5   4  11 3.21179 1.43800   1
  -6  -4  10 13.5780 3.26992  -2
   6   4  11 13.5780 3.26992   1
   3  -5  11 25.3211 3.12396  -2
  -3   5  11 25.3211 3.12396   1
  -2   5  11 32.4702 4.29544   1
   1  -5  10 90.6172 2.96654  -2
  -1   5  11 90.6172 2.96654   1
   0  -5  10 23.6626 1.88562  -2
   0   5  11 23.6626 1.88562   1
  -1  -5  10 43.0677 2.09260  -2
   1   5  11 43.0677 2.09260   1
  -2  -5  10 16.8499 1.59869  -2
   2   5  11 16.8499 1.59869   1
  -3  -5  10 13.9895 1.43062  -2
   3   5  11 13.9895 1.43062   1
  -4  -5  10 22.2298 1.45009  -2
   4   5  11 22.2298 1.45009   1
  -5  -5  10 15.4609 1.81745  -2
   5   5  11 15.4609 1.81745   1
   2  -6  10 12.6519 4.05243  -2
  -2   6  11 12.6519 4.05243   1
   1  -6  10 5.09365 2.99806  -2
  -1   6  11 5.09365 2.99806   1
   0  -6  10 17.0623 1.65953  -2
   0   6  11 17.0623 1.65953   1
  -1  -6  10 3.66991 1.31779  -2
   1   6  11 3.66991 1.31779   1
  -2  -6  10 2.29159 1.07561  -2
   2   6  11 2.29159 1.07561   1
  -3  -6  10 2.55470 2.03440  -2
   3   6  11 2.55470 2.03440   1
  -4  -6  10 3.75841 1.59068  -2
   4   6  11 3.75841 1.59068   1
   5   6  11 2.35825 1.20338   1
   1  -7  10 51.8240 2.87518  -2
  -1   7  11 51.8240 2.87518   1
   0  -7  10 23.8232 2.07709  -2
   0   7  11 23.8232 2.07709   1
  -1  -7  10 22.9989 2.23451  -2
   1   7  11 22.9989 2.23451   1
  -2  -7  10 16.3210 1.85146  -2
   2   7  11 16.3210 1.85146   1
  -3  -7  10 47.2073 2.99073  -2
   3   7  11 47.2073 2.99073   1
   4   7  11 10.9322 1.60991   1
  -1  -6  12 3.85436 1.11394   1
   3   5  13 14.2536 1.64306  -2
  -3  -5  12 14.2536 1.64306   1
   2   5  13 19.0947 1.52074  -2
  -2  -5  12 19.0947 1.52074   1
   1   5  13 4.91934 1.43212  -2
  -1  -5  12 4.91934 1.43212   1
   0   5  13 5.05424 2.27299  -2
   0  -5  12 5.05424 2.27299   1
  -1   5  13 2.57740 4.98049  -2
   1  -5  12 2.57740 4.98049   1
   2  -5  12 4.46831 1.82475   1
   4   4  13 8.30556 1.43554  -2
  -4  -4  12 8.30556 1.43554   1
   3   4  13 3.75418 2.06446  -2
  -3  -4  12 3.75418 2.06446   1
   2   4  13 1.17357 1.73465  -2
  -2  -4  12 1.17357 1.73465   1
   1   4  13 2.84213 1.55410  -2
  -1  -4  12 2.84213 1.55410   1
   0   4  13 11.6216 2.21146  -2
   0  -4  12 11.6216 2.21146   1
   1  -4  12 0.93306 1.97816   1
  -2   4  12 7.05698 3.58780  -2
   2  -4  12 7.05698 3.58780   1
  -3   4  12 6.93354 5.08975  -2
   3  -4  12 6.93354 5.08975   1
   4   3  13 27.1662 1.66926  -2
  -4  -3  12 27.1662 1.66926   1
   3   3  13 15.4716 2.05084  -2
  -3  -3  12 15.4716 2.05084   1
   2   3  13 3.44620 1.66851  -2
  -2  -3  12 3.44620 1.66851   1
   1   3  12 -2.4880 3.97773  -2
  -1  -3  12 -2.4880 3.97773   1
   1   3  12 0.20723 4.62243  -2
   1   3  13 0.20723 4.62243  -2
  -1  -3  12 0.20723 4.62243   1
   0   3  12 54.8704 2.01130  -2
   0  -3  12 54.8704 2.01130   1
  -1   3  12 2.33660 1.64642  -2
   1  -3  12 2.33660 1.64642   1
  -2   3  12 28.1825 1.60824  -2
   2  -3  12 28.1825 1.60824   1
  -3   3  12 13.4235 1.72311  -2
   3  -3  12 13.4235 1.72311   1
  -4   3  12 8.80394 2.82319  -2
   4  -3  12 8.80394 2.82319   1
  -5  -2  12 5.12476 1.17300   1
   4   2  13 12.6561 2.25050  -2
  -4  -2  12 12.6561 2.25050   1
   3   2  13 19.3895 2.01796  -2
  -3  -2  12 19.3895 2.01796   1
   2   2  12 12.2334 3.67057  -2
  -2  -2  12 12.2334 3.67057   1
   1   2  12 11.6973 1.25211  -2
  -1  -2  12 11.6973 1.25211   1
   0   2  12 22.7676 1.44347  -2
   0  -2  12 22.7676 1.44347   1
  -1   2  12 9.45004 1.72276  -2
   1  -2  12 9.45004 1.72276   1
  -2   2  12 13.0728 1.30385  -2
   2  -2  12 13.0728 1.30385   1
  -3   2  12 8.45779 1.23565  -2
   3  -2  12 8.45779 1.23565   1
  -4   2  12 1.20130 2.29559  -2
   4  -2  12 1.20130 2.29559   1
  -5  -1  12 0.03045 1.61175   1
   4   1  13 35.0339 4.43134  -2
  -4  -1  12 35.0339 4.43134   1
   3   1  12 13.1372 1.82652  -2
  -3  -1  12 13.1372 1.82652   1
   2   1  12 60.0357 2.63640  -2
  -2  -1  12 60.0357 2.63640   1
   1   1  12 1.52700 0.86448  -2
  -1  -1  12 1.52700 0.86448   1
   0   1  12 78.4635 3.14221  -2
   0  -1  12 78.4635 3.14221   1
  -1   1  12 4.29128 1.19582  -2
   1  -1  12 4.29128 1.19582   1
  -2   1  12 42.7724 1.67570  -2
   2  -1  12 42.7724 1.67570   1
  -3   1  12 15.3317 1.67168  -2
   3  -1  12 15.3317 1.67168   1
  -4   1  12 1.35770 1.72509  -2
   4  -1  12 1.35770 1.72509   1
   5  -1  12 6.21936 1.28026   1
   5   0  12 4.27100 4.12042  -2
  -5   0  12 4.27100 4.12042   1
   4   0  12 -0.7106 3.65703  -2
  -4   0  12 -0.7106 3.65703   1
   3   0  12 10.7048 1.74784  -2
  -3   0  12 10.7048 1.74784   1
   2   0  12 14.7099 1.92605  -2
  -2   0  12 14.7099 1.92605   1
   1   0  12 24.1676 1.89213  -2
  -1   0  12 24.1676 1.89213   1
   0   0  12 10.3596 1.49272  -2
   0   0  12 10.3596 1.49272   1
  -1   0  12 35.4671 1.67213  -2
   1   0  12 35.4671 1.67213   1
  -2   0  12 24.2091 1.69552  -2
   2   0  12 24.2091 1.69552   1
  -3   0  12 5.80689 1.69298  -2
   3   0  12 5.80689 1.69298   1
  -4   0  12 5.18406 2.38563  -2
   4   0  12 5.18406 2.38563   1
   5   0  12 2.68015 1.88668   1
   4  -1  12 3.10592 2.05661  -2
  -4   1  12 3.10592 2.05661   1
   3  -1  12 14.5469 1.59538  -2
  -3   1  12 14.5469 1.59538   1
   2  -1  12 29.8148 1.59670  -2
  -2   1  12 29.8148 1.59670   1
   1  -1  12 2.57165 1.14789  -2
  -1   1  12 2.57165 1.14789   1
   0  -1  12 108.478 3.49504  -2
   0   1  12 108.478 3.49504   1
  -1  -1  12 0.03393 1.52606  -2
   1   1  12 0.03393 1.52606   1
  -2  -1  12 86.3733 2.64806  -2
   2   1  12 86.3733 2.64806   1
  -3  -1  12 7.24836 1.96108  -2
   3   1  12 7.24836 1.96108   1
  -4  -1  11 3.82972 3.13251  -2
   4   1  12 3.82972 3.13251   1
  -5  -1  11 13.1747 2.15442  -2
   5   1  12 13.1747 2.15442   1
   4  -2  12 0.62654 1.99074  -2
  -4   2  12 0.62654 1.99074   1
   3  -2  12 12.4439 1.35491  -2
  -3   2  12 12.4439 1.35491   1
   2  -2  12 10.7548 1.33578  -2
  -2   2  12 10.7548 1.33578   1
   1  -2  12 5.61929 1.02292  -2
  -1   2  12 5.61929 1.02292   1
   0  -2  12 29.0087 2.07967  -2
   0   2  12 29.0087 2.07967   1
  -1  -2  12 8.47391 1.94259  -2
   1   2  12 8.47391 1.94259   1
  -2  -2  12 17.3538 4.38234  -2
   2   2  12 17.3538 4.38234   1
  -3  -2  11 2.86344 2.19736  -2
   3   2  12 2.86344 2.19736   1
  -4  -2  11 5.12277 2.22613  -2
   4   2  12 5.12277 2.22613   1
  -5  -2  11 4.18502 1.64627  -2
   5   2  12 4.18502 1.64627   1
   4  -3  12 12.8313 2.75812  -2
  -4   3  12 12.8313 2.75812   1
   3  -3  12 8.55261 1.79488  -2
  -3   3  12 8.55261 1.79488   1
   2  -3  12 31.2235 1.83533  -2
  -2   3  12 31.2235 1.83533   1
   1  -3  12 1.74898 1.30818  -2
  -1   3  12 1.74898 1.30818   1
   0  -3  12 76.9063 2.32752  -2
   0   3  12 76.9063 2.32752   1
  -2  -3  11 39.3766 2.17460  -2
   2   3  12 39.3766 2.17460   1
  -3  -3  11 1.53151 2.78107  -2
   3   3  12 1.53151 2.78107   1
  -4  -3  11 7.70832 1.75257  -2
   4   3  12 7.70832 1.75257   1
  -5  -3  11 30.1701 2.26645  -2
   5   3  12 30.1701 2.26645   1
   3  -4  12 15.2208 2.60023  -2
  -3   4  12 15.2208 2.60023   1
   2  -4  12 15.6269 2.32026  -2
  -2   4  12 15.6269 2.32026   1
   1  -4  12 3.77266 2.11642  -2
  -1   4  12 3.77266 2.11642   1
   1  -4  11 18.9871 5.11195  -2
  -1   4  12 18.9871 5.11195   1
   0  -4  11 19.9211 2.13973  -2
   0   4  12 19.9211 2.13973   1
  -1  -4  11 35.3772 1.82714  -2
   1   4  12 35.3772 1.82714   1
  -2  -4  11 1.73094 1.70762  -2
   2   4  12 1.73094 1.70762   1
  -3  -4  11 5.12367 1.59775  -2
   3   4  12 5.12367 1.59775   1
  -4  -4  11 2.07734 1.55109  -2
   4   4  12 2.07734 1.55109   1
  -5  -4  11 6.10504 2.16477  -2
   5   4  12 6.10504 2.16477   1
  -2   5  12 10.2856 3.02236   1
   1  -5  11 21.7757 2.31252  -2
  -1   5  12 21.7757 2.31252   1
   0  -5  11 47.3191 2.32161  -2
   0   5  12 47.3191 2.32161   1
  -1  -5  11 14.7518 1.63932  -2
   1   5  12 14.7518 1.63932   1
  -2  -5  11 31.7840 1.92262  -2
   2   5  12 31.7840 1.92262   1
  -3  -5  11 4.36654 1.39071  -2
   3   5  12 4.36654 1.39071   1
  -4  -5  11 12.2298 2.26882  -2
   4   5  12 12.2298 2.26882   1
   1  -6  11 26.6758 3.75265  -2
  -1   6  12 26.6758 3.75265   1
   0  -6  11 30.2411 2.45501  -2
   0   6  12 30.2411 2.45501   1
  -1  -6  11 10.7698 1.52561  -2
   1   6  12 10.7698 1.52561   1
  -2  -6  11 6.30127 1.52470  -2
   2   6  12 6.30127 1.52470   1
  -3  -6  11 5.54230 2.41737  -2
   3   6  12 5.54230 2.41737   1
   4   6  12 3.95236 1.55753   1
  -3  -4  13 7.16088 1.33615   1
   2   4  14 7.82084 2.30171  -2
  -2  -4  13 7.82084 2.30171   1
   1   4  14 10.8076 2.24771  -2
  -1  -4  13 10.8076 2.24771   1
   0   4  14 15.4165 3.09146  -2
   0  -4  13 15.4165 3.09146   1
  -1   4  13 8.19887 3.75608  -2
   1  -4  13 8.19887 3.75608   1
   3   3  14 22.0981 2.70158  -2
  -3  -3  13 22.0981 2.70158   1
   2   3  14 17.9899 2.72619  -2
  -2  -3  13 17.9899 2.72619   1
   1   3  13 2.43029 3.00888  -2
  -1  -3  13 2.43029 3.00888   1
   0   3  13 23.3941 1.96457  -2
   0  -3  13 23.3941 1.96457   1
  -1   3  13 4.42573 2.44326  -2
   1  -3  13 4.42573 2.44326   1
  -2   3  13 9.37972 1.90868  -2
   2  -3  13 9.37972 1.90868   1
  -3   3  13 -0.2864 2.24678  -2
   3  -3  13 -0.2864 2.24678   1
  -4  -2  13 2.81790 1.21109   1
   3   2  14 6.52582 2.53523  -2
  -3  -2  13 6.52582 2.53523   1
   2   2  13 2.11387 3.78962  -2
  -2  -2  13 2.11387 3.78962   1
   1   2  13 16.1019 1.47191  -2
  -1  -2  13 16.1019 1.47191   1
   0   2  13 2.63757 1.47708  -2
   0  -2  13 2.63757 1.47708   1
  -1   2  13 17.1992 1.65974  -2
   1  -2  13 17.1992 1.65974   1
  -2   2  13 4.82621 1.35717  -2
   2  -2  13 4.82621 1.35717   1
  -3   2  13 3.73036 1.62672  -2
   3  -2  13 3.73036 1.62672   1
  -4  -1  13 3.82288 1.39359   1
   3   1  13 2.02708 2.79884  -2
  -3  -1  13 2.02708 2.79884   1
   2   1  13 14.1848 2.69625  -2
  -2  -1  13 14.1848 2.69625   1
   1   1  13 22.8271 2.06966  -2
  -1  -1  13 22.8271 2.06966   1
   0   1  13 6.67387 1.44695  -2
   0  -1  13 6.67387 1.44695   1
  -1   1  13 16.8106 1.47447  -2
   1  -1  13 16.8106 1.47447   1
  -2   1  13 0.40920 1.51094  -2
   2  -1  13 0.40920 1.51094   1
  -3   1  13 1.61342 2.07251  -2
   3  -1  13 1.61342 2.07251   1
  -4   1  13 14.3282 2.85157  -2
   4  -1  13 14.3282 2.85157   1
   4   0  13 5.69613 4.12713  -2
  -4   0  13 5.69613 4.12713   1
   3   0  13 8.87797 1.97872  -2
  -3   0  13 8.87797 1.97872   1
   2   0  13 4.20527 1.54082  -2
  -2   0  13 4.20527 1.54082   1
   1   0  13 17.4650 1.49407  -2
  -1   0  13 17.4650 1.49407   1
   0   0  13 1.29329 1.22069  -2
   0   0  13 1.29329 1.22069   1
  -1   0  13 22.0021 1.59199  -2
   1   0  13 22.0021 1.59199   1
  -2   0  13 5.60837 1.46598  -2
   2   0  13 5.60837 1.46598   1
  -3   0  13 8.00154 1.65604  -2
   3   0  13 8.00154 1.65604   1
  -4   0  13 1.45162 3.53581  -2
   4   0  13 1.45162 3.53581   1
   4  -1  13 17.0652 2.96400  -2
  -4   1  13 17.0652 2.96400   1
   3  -1  13 5.80699 1.94742  -2
  -3   1  13 5.80699 1.94742   1
   2  -1  13 0.69922 1.66325  -2
  -2   1  13 0.69922 1.66325   1
   1  -1  13 17.1247 1.46142  -2
  -1   1  13 17.1247 1.46142   1
   0  -1  13 4.90990 1.42754  -2
   0   1  13 4.90990 1.42754   1
  -1  -1  13 13.4101 1.68048  -2
   1   1  13 13.4101 1.68048   1
  -2  -1  13 8.83003 1.70991  -2
   2   1  13 8.83003 1.70991   1
  -3  -1  13 2.30156 2.23242  -2
   3   1  13 2.30156 2.23242   1
  -4  -1  12 41.2258 5.69501  -2
   4   1  13 41.2258 5.69501   1
   3  -2  13 3.74343 1.79564  -2
  -3   2  13 3.74343 1.79564   1
   2  -2  13 14.5431 1.54873  -2
  -2   2  13 14.5431 1.54873   1
   1  -2  13 13.7919 1.09598  -2
  -1   2  13 13.7919 1.09598   1
   0  -2  13 -3.4142 2.59430  -2
   0   2  13 -3.4142 2.59430   1
  -1  -2  13 25.8012 2.34094  -2
   1   2  13 25.8012 2.34094   1
   2   2  13 0.99678 2.18543   1
  -3  -2  12 11.8639 2.11925  -2
   3   2  13 11.8639 2.11925   1
  -4  -2  12 13.9733 2.04356  -2
   4   2  13 13.9733 2.04356   1
   3  -3  13 -0.3974 3.09782  -2
  -3   3  13 -0.3974 3.09782   1
   2  -3  13 7.58537 1.77461  -2
  -2   3  13 7.58537 1.77461   1
   1  -3  13 10.6783 2.31834  -2
  -1   3  13 10.6783 2.31834   1
   0  -3  13 25.8672 1.88725  -2
   0   3  13 25.8672 1.88725   1
   1   3  13 4.87560 1.98627   1
  -2  -3  12 2.54711 2.01128  -2
   2   3  13 2.54711 2.01128   1
  -3  -3  12 7.82298 1.94722  -2
   3   3  13 7.82298 1.94722   1
  -4  -3  12 38.8522 2.58994  -2
   4   3  13 38.8522 2.58994   1
  -2   4  13 8.34782 1.36820   1
   1  -4  13 9.98417 2.29178  -2
  -1   4  13 9.98417 2.29178   1
   1  -4  12 27.8610 7.10884  -2
   1  -4  13 27.8610 7.10884  -2
  -1   4  13 27.8610 7.10884   1
   0  -4  12 2.02508 1.86445  -2
   0   4  13 2.02508 1.86445   1
  -1  -4  12 4.10161 2.04116  -2
   1   4  13 4.10161 2.04116   1
  -2  -4  12 2.84816 2.46740  -2
   2   4  13 2.84816 2.46740   1
  -3  -4  12 1.24411 2.69836  -2
   3   4  13 1.24411 2.69836   1
  -4  -4  12 11.1902 2.46191  -2
   4   4  13 11.1902 2.46191   1
   1  -5  12 23.0610 4.02079  -2
  -1   5  13 23.0610 4.02079   1
   0  -5  12 4.95704 2.32316  -2
   0   5  13 4.95704 2.32316   1
  -1  -5  12 5.65964 1.88663  -2
   1   5  13 5.65964 1.88663   1
  -2  -5  12 15.0725 2.47294  -2
   2   5  13 15.0725 2.47294   1
  -3  -5  12 5.88953 2.23953  -2
   3   5  13 5.88953 2.23953   1
  -1  -3  14 18.8130 1.90217   1
   0   3  14 0.30307 2.07983  -2
   0  -3  14 0.30307 2.07983   1
  -1   3  14 26.2619 2.88188  -2
   1  -3  14 26.2619 2.88188   1
   1   2  14 4.36171 2.78865  -2
  -1  -2  14 4.36171 2.78865   1
   0   2  14 22.8746 1.95221  -2
   0  -2  14 22.8746 1.95221   1
  -1   2  14 5.14875 1.97529  -2
   1  -2  14 5.14875 1.97529   1
  -2   2  14 1.25489 3.09574  -2
   2  -2  14 1.25489 3.09574   1
   3   1  14 10.5365 7.13004  -2
  -3  -1  14 10.5365 7.13004   1
   2   1  14 1.92944 2.53998  -2
  -2  -1  14 1.92944 2.53998   1
   1   1  14 16.7637 2.09106  -2
  -1  -1  14 16.7637 2.09106   1
   0   1  14 0.65263 1.30114  -2
   0  -1  14 0.65263 1.30114   1
  -1   1  14 11.8052 1.54959  -2
   1  -1  14 11.8052 1.54959   1
  -2   1  14 3.48849 1.82285  -2
   2  -1  14 3.48849 1.82285   1
   3  -1  14 9.41647 1.34401   1
   3   0  14 9.58658 6.21438  -2
  -3   0  14 9.58658 6.21438   1
   2   0  14 15.1968 2.40452  -2
  -2   0  14 15.1968 2.40452   1
   1   0  14 4.77242 1.57827  -2
  -1   0  14 4.77242 1.57827   1
   0   0  14 49.5672 2.03129  -2
   0   0  14 49.5672 2.03129   1
  -1   0  14 5.40642 1.65833  -2
   1   0  14 5.40642 1.65833   1
  -2   0  14 2.62050 1.59965  -2
   2   0  14 2.62050 1.59965   1
  -3   0  14 11.1754 2.32375  -2
   3   0  14 11.1754 2.32375   1
   2  -1  14 2.96485 1.78635  -2
  -2   1  14 2.96485 1.78635   1
   1  -1  14 12.5177 1.47692  -2
  -1   1  14 12.5177 1.47692   1
   0  -1  14 5.46185 1.77188  -2
   0   1  14 5.46185 1.77188   1
  -1  -1  14 7.77499 1.81520  -2
   1   1  14 7.77499 1.81520   1
  -2  -1  14 2.68741 2.01494  -2
   2   1  14 2.68741 2.01494   1
  -3  -1  14 5.30051 3.42978  -2
   3   1  14 5.30051 3.42978   1
   2  -2  14 7.96351 2.41662  -2
  -2   2  14 7.96351 2.41662   1
   1  -2  14 5.28460 2.36176  -2
  -1   2  14 5.28460 2.36176   1
   0  -2  14 16.9224 1.79308  -2
   0   2  14 16.9224 1.79308   1
  -1  -2  14 19.8794 2.93935  -2
   1   2  14 19.8794 2.93935   1
  -2  -2  14 -2.0202 4.17432  -2
   2   2  14 -2.0202 4.17432   1
  -3  -2  13 0.98040 3.62251  -2
   3   2  14 0.98040 3.62251   1
   1  -3  14 25.1610 2.80907  -2
  -1   3  14 25.1610 2.80907   1
   0  -3  14 5.00362 2.04659  -2
   0   3  14 5.00362 2.04659   1
  -2  -3  13 6.82777 2.26232  -2
   2   3  14 6.82777 2.26232   1
  -3  -3  13 34.4892 3.17375  -2
   3   3  14 34.4892 3.17375   1
   0  -4  13 11.8732 3.17136  -2
   0   4  14 11.8732 3.17136   1
  -1  -4  13 11.2851 2.12489  -2
   1   4  14 11.2851 2.12489   1
  -2  -4  13 2.29104 2.37634  -2
   2   4  14 2.29104 2.37634   1
   0   0  15 5.13313 1.56552  -2
   0   0  15 5.13313 1.56552   1
   1   0  15 10.3951 1.56178   1
   0   1  15 15.5188 1.26087   1
   1   1  15 2.09568 1.32397   1
   0   0   0    0.00    0.00   0
;
_shelx_hkl_checksum              99172
_shelx_res_file
;
    sc4.res created by SHELXL-2014/7
TITL solve in P-1
CELL 0.71073 7.4207 8.8159 12.5246 86.873 87.735 77.166
ZERR 2.00 0.0006 0.0007 0.0010 0.003 0.003 0.003
LATT 1
SFAC C H N O F P
UNIT 24 32 6 4 12 2
LIST 6 ! automatically inserted. Change 6 to 4 for CHECKCIF!!
TEMP -100.150
SIZE 0.18 0.17 0.09
ACTA
L.S. 9
OMIT -1 50
PLAN -20
BOND $H
CONF
WGHT    0.031000    0.897000
BASF   0.40697
FVAR       0.86545   0.56157
O1    4    0.423926    0.286331    0.711666    11.00000    0.02669    0.04858 =
         0.07801    0.00338   -0.00367   -0.01312
O2    4    1.071457    0.214308    0.683379    11.00000    0.02690    0.03860 =
         0.06390   -0.01004    0.00184   -0.00729
N1    3    0.601155    0.265675    0.668348    11.00000    0.03230    0.04494 =
         0.05085   -0.00251   -0.00468   -0.01429
N2    3    0.890674    0.237335    0.655972    11.00000    0.03009    0.03895 =
         0.04237   -0.00583    0.00099   -0.00954
N3    3    0.762754    0.245502    0.834975    11.00000    0.03453    0.04107 =
         0.03920   -0.00493    0.00140   -0.01470
C1    1    0.750489    0.248652    0.727852    11.00000    0.03204    0.03133 =
         0.04029   -0.00086   -0.00007   -0.01413
C2    1    0.646052    0.261185    0.560238    11.00000    0.05982    0.05548 =
         0.04209   -0.00537   -0.01590   -0.01673
AFIX  43
H2    2    0.563913    0.266610    0.503167    11.00000   -1.20000
AFIX   0
C3    1    0.829964    0.247557    0.552640    11.00000    0.05957    0.04713 =
         0.03726   -0.00729   -0.00088   -0.01690
AFIX  43
H3    2    0.903633    0.245390    0.488724    11.00000   -1.20000
AFIX   0
C4    1    0.331051    0.446928    0.697931    11.00000    0.04701    0.04976 =
         0.12119   -0.01652    0.01045   -0.01135
AFIX  33
H4A   2    0.205262    0.461375    0.728728    11.00000   -1.50000
H4B   2    0.398896    0.511743    0.734191    11.00000   -1.50000
H4C   2    0.325556    0.477364    0.621492    11.00000   -1.50000
AFIX   0
C5    1    1.163342    0.051897    0.675811    11.00000    0.04384    0.03543 =
         0.07177   -0.00970   -0.00058   -0.00096
AFIX  33
H5A   2    1.292671    0.037410    0.695702    11.00000   -1.50000
H5B   2    1.101147   -0.012370    0.724379    11.00000   -1.50000
H5C   2    1.158345    0.020816    0.602235    11.00000   -1.50000
AFIX   0
C6    1    0.642946    0.174432    0.902790    11.00000    0.04737    0.04685 =
         0.04699   -0.00300    0.00858   -0.01732
AFIX  43
H6    2    0.564221    0.117050    0.873286    11.00000   -1.20000
AFIX   0
C7    1    0.642868    0.189593    1.008284    11.00000    0.08686    0.05533 =
         0.05727   -0.00579    0.02107   -0.02851
AFIX  43
H7    2    0.566651    0.139796    1.054360    11.00000   -1.20000
AFIX   0
C8    1    0.762747    0.285053    1.054615    11.00000    0.11999    0.07796 =
         0.04493   -0.02342    0.01159   -0.04146
AFIX  13
H8    2    0.727960    0.314672    1.129834    11.00000   -1.20000
AFIX   0
C9    1    0.956984    0.199585    1.039237    11.00000    0.12438    0.07924 =
         0.05787    0.00206   -0.02894   -0.04428
AFIX  43
H9    2    1.024467    0.131488    1.092326    11.00000   -1.20000
AFIX   0
C10   1    1.024302    0.228131    0.945403    11.00000    0.07723    0.05864 =
         0.07697   -0.00546   -0.02984   -0.02508
AFIX  43
H10   2    1.146225    0.185189    0.919849    11.00000   -1.20000
AFIX   0
C11   1    0.882064    0.337546    0.884718    11.00000    0.04783    0.03861 =
         0.04579   -0.01224    0.00288   -0.01616
AFIX  13
H11   2    0.934825    0.405763    0.831466    11.00000   -1.20000
AFIX   0
C12   1    0.762035    0.428767    0.972053    11.00000    0.09262    0.05877 =
         0.05550   -0.02350    0.01395   -0.02523
AFIX  23
H12A  2    0.636297    0.477934    0.947677    11.00000   -1.20000
H12B  2    0.820115    0.508166    1.000892    11.00000   -1.20000
AFIX   0
P1    6    1.267512    0.244108    0.320282    11.00000    0.03774    0.02743 =
         0.03293   -0.00236   -0.00258   -0.00697
PART   1
F1    5    1.260368    0.199802    0.440370    21.00000    0.07954    0.18253 =
         0.02507    0.03094   -0.00196   -0.04064
F2    5    1.276842    0.292890    0.197546    21.00000    0.11012    0.16118 =
         0.03366    0.02764    0.00000   -0.02458
F3    5    1.252045    0.415969    0.347766    21.00000    0.09884    0.04014 =
         0.20978   -0.04788    0.03178   -0.02081
F4    5    1.285054    0.074943    0.288674    21.00000    0.13831    0.02833 =
         0.25218   -0.05218    0.02013   -0.02831
F5    5    1.485930    0.221983    0.328560    21.00000    0.04035    0.09944 =
         0.06753   -0.01041    0.00098   -0.02429
F6    5    1.051717    0.268123    0.314414    21.00000    0.04368    0.09920 =
         0.06424   -0.02773    0.00513   -0.02773
PART   2
F1A   5    1.201202    0.118287    0.387228   -21.00000    0.30850    0.08827 =
         0.21749    0.03764    0.12434   -0.07424
F2A   5    1.315438    0.381530    0.258339   -21.00000    0.15479    0.10945 =
         0.21701    0.10717   -0.00967   -0.06722
F3A   5    1.231533    0.341129    0.422737   -21.00000    0.16493    0.12746 =
         0.11026   -0.10106    0.00050   -0.00913
F4A   5    1.305282    0.139013    0.229101   -21.00000    0.13604    0.19327 =
         0.11689   -0.14144   -0.00175   -0.00272
F5A   5    1.469848    0.177492    0.344865   -21.00000    0.09762    0.16908 =
         0.24440   -0.12067   -0.10290    0.10111
F6A   5    1.067078    0.318143    0.293564   -21.00000    0.04720    0.13349 =
         0.20848    0.01383   -0.05896    0.01707
PART   0
HKLF 5
REM  solve in P-1
REM R1 =  0.0538 for    2501 Fo > 4sig(Fo)  and  0.0627 for all    2774 data
REM    273 parameters refined using      0 restraints
END
WGHT      0.0309      0.8975
REM Highest difference peak  0.403,  deepest hole -0.305,  1-sigma level  0.057
Q1    1   0.5923  0.6614  0.6696  11.00000  0.05    0.40
Q2    1   0.7038  0.4143  1.0485  11.00000  0.05    0.36
Q3    1   0.8737  0.8512  0.6734  11.00000  0.05    0.24
Q4    1   0.8001  0.6329  0.7412  11.00000  0.05    0.23
Q5    1   0.6071  0.8872  0.5756  11.00000  0.05    0.23
Q6    1   0.8594  0.1002  1.0460  11.00000  0.05    0.22
Q7    1   0.5367  0.3138  0.8558  11.00000  0.05    0.21
Q8    1   0.5821  0.7467  0.7405  11.00000  0.05    0.21
Q9    1   0.5936  0.0533  0.8631  11.00000  0.05    0.19
Q10   1   0.3739  0.4610  0.7785  11.00000  0.05    0.19
Q11   1   0.5522  0.1334  1.0858  11.00000  0.05    0.18
Q12   1   0.8180  0.9128  0.5887  11.00000  0.05    0.18
Q13   1   0.6538  0.9369  0.6243  11.00000  0.05    0.18
Q14   1   0.5304  0.4127  0.7994  11.00000  0.05    0.18
Q15   1   0.5036  0.8859  0.6266  11.00000  0.05    0.18
Q16   1   0.6290  0.0991  1.0626  11.00000  0.05    0.17
Q17   1   0.8473  0.7188  0.7730  11.00000  0.05    0.17
Q18   1   0.5983  0.4637  0.7410  11.00000  0.05    0.17
Q19   1   0.1599  0.5072  0.5584  11.00000  0.05    0.17
Q20   1   0.5340  0.8816  0.7321  11.00000  0.05    0.17
;
_shelx_res_checksum              30636
loop_
_space_group_symop_operation_xyz
'x, y, z'
'-x, -y, -z'
loop_
_atom_site_type_symbol
_atom_site_label
_atom_site_fract_x
_atom_site_fract_y
_atom_site_fract_z
_atom_site_U_iso_or_equiv
_atom_site_adp_type
_atom_site_calc_flag
_atom_site_occupancy
_atom_site_disorder_assembly
_atom_site_disorder_group
O O1 0.4239(4) 0.2863(3) 0.7117(3) 0.0505(8) Uani d 1 . .
O O2 1.0715(3) 0.2143(3) 0.6834(3) 0.0429(7) Uani d 1 . .
N N1 0.6012(4) 0.2657(4) 0.6683(3) 0.0417(8) Uani d 1 . .
N N2 0.8907(4) 0.2373(4) 0.6560(3) 0.0367(8) Uani d 1 . .
N N3 0.7628(4) 0.2455(4) 0.8350(2) 0.0372(8) Uani d 1 . .
C C1 0.7505(6) 0.2487(5) 0.7279(3) 0.0335(8) Uani d 1 . .
C C2 0.6461(7) 0.2612(5) 0.5602(4) 0.0513(11) Uani d 1 . .
H H2 0.5639 0.2666 0.5032 0.062 Uiso calc 1 . .
C C3 0.8300(7) 0.2476(5) 0.5526(3) 0.0470(11) Uani d 1 . .
H H3 0.9036 0.2454 0.4887 0.056 Uiso calc 1 . .
C C4 0.3311(7) 0.4469(5) 0.6979(5) 0.0724(16) Uani d 1 . .
H H4A 0.2053 0.4614 0.7287 0.109 Uiso calc 1 . .
H H4B 0.3989 0.5117 0.7342 0.109 Uiso calc 1 . .
H H4C 0.3256 0.4774 0.6215 0.109 Uiso calc 1 . .
C C5 1.1633(6) 0.0519(4) 0.6758(4) 0.0513(11) Uani d 1 . .
H H5A 1.2927 0.0374 0.6957 0.077 Uiso calc 1 . .
H H5B 1.1011 -0.0124 0.7244 0.077 Uiso calc 1 . .
H H5C 1.1583 0.0208 0.6022 0.077 Uiso calc 1 . .
C C6 0.6429(6) 0.1744(5) 0.9028(3) 0.0462(10) Uani d 1 . .
H H6 0.5642 0.1171 0.8733 0.055 Uiso calc 1 . .
C C7 0.6429(8) 0.1896(6) 1.0083(4) 0.0650(14) Uani d 1 . .
H H7 0.5667 0.1398 1.0544 0.078 Uiso calc 1 . .
C C8 0.7627(11) 0.2851(7) 1.0546(4) 0.0775(17) Uani d 1 . .
H H8 0.7280 0.3147 1.1298 0.093 Uiso calc 1 . .
C C9 0.9570(10) 0.1996(7) 1.0392(5) 0.0832(19) Uani d 1 . .
H H9 1.0245 0.1315 1.0923 0.100 Uiso calc 1 . .
C C10 1.0243(8) 0.2281(6) 0.9454(5) 0.0685(15) Uani d 1 . .
H H10 1.1462 0.1852 0.9198 0.082 Uiso calc 1 . .
C C11 0.8821(6) 0.3375(5) 0.8847(3) 0.0428(10) Uani d 1 . .
H H11 0.9348 0.4058 0.8315 0.051 Uiso calc 1 . .
C C12 0.7620(8) 0.4288(6) 0.9721(4) 0.0673(15) Uani d 1 . .
H H12A 0.6363 0.4779 0.9477 0.081 Uiso calc 1 . .
H H12B 0.8201 0.5082 1.0009 0.081 Uiso calc 1 . .
P P1 1.26751(15) 0.24411(11) 0.32028(8) 0.0327(2) Uani d 1 . .
F F1 1.2604(10) 0.1998(16) 0.4404(5) 0.095(5) Uani d 0.562(16) A 1
F F2 1.2768(14) 0.2929(17) 0.1975(5) 0.104(4) Uani d 0.562(16) A 1
F F3 1.2520(13) 0.4160(9) 0.3478(14) 0.115(5) Uani d 0.562(16) A 1
F F4 1.285(2) 0.0749(9) 0.2887(15) 0.137(7) Uani d 0.562(16) A 1
F F5 1.4859(13) 0.2220(13) 0.3286(9) 0.068(3) Uani d 0.562(16) A 1
F F6 1.0517(15) 0.2681(14) 0.3144(8) 0.066(3) Uani d 0.562(16) A 1
F F1A 1.201(3) 0.1183(18) 0.387(2) 0.205(11) Uani d 0.438(16) A 2
F F2A 1.315(2) 0.382(2) 0.258(2) 0.159(9) Uani d 0.438(16) A 2
F F3A 1.232(2) 0.341(2) 0.4227(13) 0.134(7) Uani d 0.438(16) A 2
F F4A 1.305(2) 0.139(3) 0.2291(15) 0.149(9) Uani d 0.438(16) A 2
F F5A 1.470(2) 0.177(3) 0.345(2) 0.184(11) Uani d 0.438(16) A 2
F F6A 1.067(2) 0.318(3) 0.2936(18) 0.135(8) Uani d 0.438(16) A 2
loop_
_atom_site_aniso_label
_atom_site_aniso_U_11
_atom_site_aniso_U_22
_atom_site_aniso_U_33
_atom_site_aniso_U_12
_atom_site_aniso_U_13
_atom_site_aniso_U_23
O1 0.0267(15) 0.0486(17) 0.078(2) -0.0131(13) -0.0037(14) 0.0034(15)
O2 0.0269(13) 0.0386(14) 0.0639(19) -0.0073(11) 0.0018(14) -0.0100(15)
N1 0.0323(17) 0.0449(18) 0.051(2) -0.0143(14) -0.0047(17) -0.0025(17)
N2 0.0301(17) 0.0390(17) 0.042(2) -0.0095(13) 0.0010(14) -0.0058(14)
N3 0.0345(19) 0.0411(19) 0.0392(17) -0.0147(14) 0.0014(14) -0.0049(15)
C1 0.0320(19) 0.0313(19) 0.0403(19) -0.0141(15) -0.0001(18) -0.0009(17)
C2 0.060(3) 0.055(3) 0.042(3) -0.017(2) -0.016(2) -0.005(2)
C3 0.060(3) 0.047(2) 0.037(2) -0.017(2) -0.001(2) -0.0073(19)
C4 0.047(3) 0.050(3) 0.121(5) -0.011(2) 0.010(3) -0.017(3)
C5 0.044(2) 0.035(2) 0.072(3) -0.0010(17) -0.001(2) -0.010(2)
C6 0.047(2) 0.047(2) 0.047(3) -0.017(2) 0.009(2) -0.003(2)
C7 0.087(4) 0.055(3) 0.057(3) -0.029(3) 0.021(3) -0.006(2)
C8 0.120(5) 0.078(4) 0.045(3) -0.041(4) 0.012(4) -0.023(3)
C9 0.124(6) 0.079(4) 0.058(4) -0.044(4) -0.029(4) 0.002(3)
C10 0.077(4) 0.059(3) 0.077(4) -0.025(3) -0.030(3) -0.005(3)
C11 0.048(2) 0.039(2) 0.046(2) -0.0162(18) 0.0029(19) -0.0122(18)
C12 0.093(4) 0.059(3) 0.055(3) -0.025(3) 0.014(3) -0.024(3)
P1 0.0377(5) 0.0274(4) 0.0329(5) -0.0070(3) -0.0026(5) -0.0024(5)
F1 0.080(5) 0.183(13) 0.025(3) -0.041(6) -0.002(3) 0.031(5)
F2 0.110(6) 0.161(12) 0.034(3) -0.025(6) 0.000(4) 0.028(5)
F3 0.099(6) 0.040(4) 0.210(15) -0.021(4) 0.032(8) -0.048(6)
F4 0.138(8) 0.028(4) 0.252(19) -0.028(4) 0.020(11) -0.052(6)
F5 0.040(4) 0.099(6) 0.068(5) -0.024(5) 0.001(3) -0.010(4)
F6 0.044(4) 0.099(7) 0.064(4) -0.028(4) 0.005(3) -0.028(5)
F1A 0.31(3) 0.088(9) 0.22(2) -0.074(12) 0.124(19) 0.038(11)
F2A 0.155(13) 0.109(12) 0.22(2) -0.067(10) -0.010(13) 0.107(14)
F3A 0.165(12) 0.127(15) 0.110(12) -0.009(10) 0.000(9) -0.101(11)
F4A 0.136(11) 0.19(2) 0.117(13) -0.003(14) -0.002(10) -0.141(14)
F5A 0.098(12) 0.169(16) 0.24(2) 0.101(11) -0.103(13) -0.121(14)
F6A 0.047(8) 0.133(14) 0.208(17) 0.017(8) -0.059(9) 0.014(11)
loop_
_atom_type_symbol
_atom_type_description
_atom_type_scat_dispersion_real
_atom_type_scat_dispersion_imag
_atom_type_scat_source
C C 0.0033 0.0016 'International Tables Vol C Tables 4.2.6.8 and 6.1.1.4'
H H 0.0000 0.0000 'International Tables Vol C Tables 4.2.6.8 and 6.1.1.4'
N N 0.0061 0.0033 'International Tables Vol C Tables 4.2.6.8 and 6.1.1.4'
O O 0.0106 0.0060 'International Tables Vol C Tables 4.2.6.8 and 6.1.1.4'
F F 0.0171 0.0103 'International Tables Vol C Tables 4.2.6.8 and 6.1.1.4'
P P 0.1023 0.0942 'International Tables Vol C Tables 4.2.6.8 and 6.1.1.4'
loop_
_geom_angle_atom_site_label_1
_geom_angle_atom_site_label_2
_geom_angle_atom_site_label_3
_geom_angle
N1 O1 C4 109.6(3)
N2 O2 C5 110.5(3)
C1 N1 O1 123.0(4)
C1 N1 C2 112.1(4)
O1 N1 C2 124.9(4)
C1 N2 O2 123.3(3)
C1 N2 C3 111.7(3)
O2 N2 C3 124.9(3)
C1 N3 C6 120.6(3)
C1 N3 C11 120.1(3)
C6 N3 C11 118.7(3)
N1 C1 N2 104.0(3)
N1 C1 N3 129.5(4)
N2 C1 N3 126.5(4)
C3 C2 N1 105.7(4)
C3 C2 H2 127.2
N1 C2 H2 127.2
C2 C3 N2 106.4(4)
C2 C3 H3 126.8
N2 C3 H3 126.8
O1 C4 H4A 109.5
O1 C4 H4B 109.5
H4A C4 H4B 109.5
O1 C4 H4C 109.5
H4A C4 H4C 109.5
H4B C4 H4C 109.5
O2 C5 H5A 109.5
O2 C5 H5B 109.5
H5A C5 H5B 109.5
O2 C5 H5C 109.5
H5A C5 H5C 109.5
H5B C5 H5C 109.5
C7 C6 N3 119.1(4)
C7 C6 H6 120.4
N3 C6 H6 120.4
C6 C7 C8 120.4(4)
C6 C7 H7 119.8
C8 C7 H7 119.8
C9 C8 C7 107.0(5)
C9 C8 C12 99.4(5)
C7 C8 C12 106.2(4)
C9 C8 H8 114.3
C7 C8 H8 114.3
C12 C8 H8 114.3
C10 C9 C8 112.4(6)
C10 C9 H9 123.8
C8 C9 H9 123.8
C9 C10 C11 109.0(6)
C9 C10 H10 125.5
C11 C10 H10 125.5
C10 C11 N3 108.0(4)
C10 C11 C12 103.2(4)
N3 C11 C12 106.1(4)
C10 C11 H11 113.0
N3 C11 H11 113.0
C12 C11 H11 113.0
C11 C12 C8 96.9(4)
C11 C12 H12A 112.4
C8 C12 H12A 112.4
C11 C12 H12B 112.4
C8 C12 H12B 112.4
H12A C12 H12B 109.9
F4A P1 F2A 95.0(11)
F4A P1 F1A 89.4(11)
F2A P1 F1A 173.8(11)
F4A P1 F5A 84.3(10)
F2A P1 F5A 91.4(12)
F1A P1 F5A 93.4(13)
F4A P1 F6A 96.4(10)
F2A P1 F6A 85.9(10)
F1A P1 F6A 89.3(11)
F5A P1 F6A 177.3(12)
F1 P1 F4 92.9(7)
F1 P1 F3 89.2(7)
F4 P1 F3 177.9(8)
F4A P1 F3A 174.9(11)
F2A P1 F3A 89.6(11)
F1A P1 F3A 86.2(9)
F5A P1 F3A 93.4(10)
F6A P1 F3A 86.1(10)
F1 P1 F6 91.1(5)
F4 P1 F6 88.4(7)
F3 P1 F6 92.1(5)
F1 P1 F2 178.7(7)
F4 P1 F2 88.3(7)
F3 P1 F2 89.6(7)
F6 P1 F2 89.5(5)
F1 P1 F5 88.0(5)
F4 P1 F5 92.6(7)
F3 P1 F5 87.0(5)
F6 P1 F5 178.7(5)
F2 P1 F5 91.3(5)
loop_
_geom_bond_atom_site_label_1
_geom_bond_atom_site_label_2
_geom_bond_distance
O1 N1 1.380(4)
O1 C4 1.435(5)
O2 N2 1.366(4)
O2 C5 1.449(4)
N1 C1 1.336(5)
N1 C2 1.382(6)
N2 C1 1.339(5)
N2 C3 1.379(5)
N3 C1 1.347(5)
N3 C6 1.426(5)
N3 C11 1.499(5)
C2 C3 1.343(6)
C2 H2 0.9500
C3 H3 0.9500
C4 H4A 0.9800
C4 H4B 0.9800
C4 H4C 0.9800
C5 H5A 0.9800
C5 H5B 0.9800
C5 H5C 0.9800
C6 C7 1.335(6)
C6 H6 0.9500
C7 C8 1.504(8)
C7 H7 0.9500
C8 C9 1.481(9)
C8 C12 1.590(8)
C8 H8 1.0000
C9 C10 1.293(9)
C9 H9 0.9500
C10 C11 1.467(7)
C10 H10 0.9500
C11 C12 1.529(6)
C11 H11 1.0000
C12 H12A 0.9900
C12 H12B 0.9900
P1 F4A 1.489(9)
P1 F2A 1.504(9)
P1 F1A 1.511(10)
P1 F5A 1.523(15)
P1 F6A 1.528(15)
P1 F1 1.535(5)
P1 F4 1.540(7)
P1 F3 1.550(7)
P1 F3A 1.562(9)
P1 F6 1.572(11)
P1 F2 1.577(6)
P1 F5 1.596(9)
loop_
_geom_hbond_atom_site_label_D
_geom_hbond_atom_site_label_H
_geom_hbond_atom_site_label_A
_geom_hbond_site_symmetry_A
_geom_hbond_distance_DH
_geom_hbond_distance_HA
_geom_hbond_distance_DA
_geom_hbond_angle_DHA
C2 H2 F5 1_455 0.95 2.36 3.242(12) 154
C2 H2 F5A 1_455 0.95 2.36 3.23(2) 153
C3 H3 F6 1_555 0.95 2.42 3.365(11) 171
C4 H4A F6A 2_666 0.98 2.49 3.21(2) 131
C4 H4B F2A 2_766 0.98 2.51 3.383(17) 148
C5 H5A F5 2_856 0.98 2.53 3.134(11) 120
C5 H5A F5A 2_856 0.98 2.34 3.02(2) 125
loop_
_geom_torsion_atom_site_label_1
_geom_torsion_atom_site_label_2
_geom_torsion_atom_site_label_3
_geom_torsion_atom_site_label_4
_geom_torsion
C4 O1 N1 C1 103.4(5)
C4 O1 N1 C2 -76.1(5)
C5 O2 N2 C1 99.9(4)
C5 O2 N2 C3 -78.3(5)
O1 N1 C1 N2 -178.0(3)
C2 N1 C1 N2 1.6(5)
O1 N1 C1 N3 1.0(7)
C2 N1 C1 N3 -179.4(4)
O2 N2 C1 N1 -178.2(3)
C3 N2 C1 N1 0.2(5)
O2 N2 C1 N3 2.7(6)
C3 N2 C1 N3 -178.9(4)
C6 N3 C1 N1 36.2(6)
C11 N3 C1 N1 -134.4(4)
C6 N3 C1 N2 -144.9(4)
C11 N3 C1 N2 44.4(6)
C1 N1 C2 C3 -2.7(5)
O1 N1 C2 C3 176.9(3)
N1 C2 C3 N2 2.6(4)
C1 N2 C3 C2 -1.8(5)
O2 N2 C3 C2 176.5(3)
C1 N3 C6 C7 -171.9(5)
C11 N3 C6 C7 -1.1(7)
N3 C6 C7 C8 2.1(8)
C6 C7 C8 C9 -69.0(7)
C6 C7 C8 C12 36.5(7)
C7 C8 C9 C10 84.2(6)
C12 C8 C9 C10 -26.1(6)
C8 C9 C10 C11 -0.1(7)
C9 C10 C11 N3 -84.2(5)
C9 C10 C11 C12 27.8(5)
C1 N3 C11 C10 -119.4(5)
C6 N3 C11 C10 69.8(5)
C1 N3 C11 C12 130.6(4)
C6 N3 C11 C12 -40.2(5)
C10 C11 C12 C8 -40.5(5)
N3 C11 C12 C8 72.9(5)
C9 C8 C12 C11 39.0(5)
C7 C8 C12 C11 -71.9(5)

_cod_database_fobs_code 1544061
