#------------------------------------------------------------------------------
#$Date: 2016-12-14 04:46:09 +0200 (Wed, 14 Dec 2016) $
#$Revision: 189108 $
#$URL: file:///home/coder/svn-repositories/cod/cif/1/54/47/1544779.cif $
#------------------------------------------------------------------------------
#
# This file is available in the Crystallography Open Database (COD),
# http://www.crystallography.net/. The original data for this entry
# were provided by IUCr Journals, http://journals.iucr.org/.
#
# The file may be used within the scientific community so long as
# proper attribution is given to the journal article from which the
# data were obtained.
#
data_1544779
loop_
_publ_author_name
'Gilandoust, Maryam'
'Harsha, K. B.'
'Madan Kumar, S.'
'Rakesh, K. S.'
'Lokanath, N. K.'
'Byrappa, K.'
'Rangappa, K. S.'
_publ_section_title
;
 5-Bromo-1,2,4-triazolo[1,5-<i>a</i>]pyrimidine
;
_journal_coeditor_code           SJ4072
_journal_issue                   12
_journal_name_full               IUCrData
_journal_page_first              x161944
_journal_paper_doi               10.1107/S2414314616019441
_journal_volume                  1
_journal_year                    2016
_chemical_formula_iupac          'C5 H3 Br N4'
_chemical_formula_moiety         'C5 H3 Br N4'
_chemical_formula_sum            'C5 H3 Br N4'
_chemical_formula_weight         199.02
_chemical_name_systematic
;
5-Bromo-1,2,4-triazolo[1,5-<i>a</i>]pyrimidine
;
_space_group_crystal_system      monoclinic
_space_group_IT_number           14
_space_group_name_Hall           '-P 2yn'
_space_group_name_H-M_alt        'P 1 21/n 1'
_symmetry_space_group_name_Hall  '-P 2yn'
_symmetry_space_group_name_H-M   'P 1 21/n 1'
_atom_sites_solution_hydrogens   geom
_atom_sites_solution_primary     iterative
_cell_angle_alpha                90
_cell_angle_beta                 94.574(8)
_cell_angle_gamma                90
_cell_formula_units_Z            4
_cell_length_a                   3.9511(4)
_cell_length_b                   14.3306(11)
_cell_length_c                   11.3670(10)
_cell_measurement_reflns_used    1129
_cell_measurement_temperature    293(2)
_cell_measurement_theta_max      25.0
_cell_measurement_theta_min      2.3
_cell_volume                     641.57(10)
_computing_cell_refinement
;
<i>CrystalClear SM Expert</i> (Rigaku, 2011)
;
_computing_data_collection
;
<i>CrystalClear SM Expert</i> (Rigaku, 2011)
;
_computing_data_reduction
;
<i>CrystalClear SM Expert</i> (Rigaku, 2011)
;
_computing_molecular_graphics
;
Mercury (Macrae <i>et al.</i>, 2008)
;
_computing_publication_material
;
<i>OLEX2</i> (Dolomanov <i>et al.</i>,  2009)
;
_computing_structure_refinement
;
SHELXL2014 (Sheldrick, 2015)
;
_computing_structure_solution
;
SHELXS97 (Sheldrick, 2008)
;
_diffrn_ambient_temperature      293(2)
_diffrn_measured_fraction_theta_full 0.995
_diffrn_measured_fraction_theta_max 0.995
_diffrn_measurement_device       'AFC12 (Right): Kappa 3 circle CCD'
_diffrn_measurement_device_type  'Rigaku Saturn724+'
_diffrn_measurement_method       'profile data from \w-scans'
_diffrn_radiation_type           MoK\a
_diffrn_radiation_wavelength     0.71073
_diffrn_reflns_av_R_equivalents  0.0363
_diffrn_reflns_limit_h_max       3
_diffrn_reflns_limit_h_min       -4
_diffrn_reflns_limit_k_max       17
_diffrn_reflns_limit_k_min       -16
_diffrn_reflns_limit_l_max       12
_diffrn_reflns_limit_l_min       -13
_diffrn_reflns_number            2438
_diffrn_reflns_theta_full        25.026
_diffrn_reflns_theta_max         25.026
_diffrn_reflns_theta_min         2.291
_exptl_absorpt_coefficient_mu    6.321
_exptl_absorpt_correction_T_max  0.323
_exptl_absorpt_correction_T_min  0.244
_exptl_absorpt_correction_type   multi-scan
_exptl_absorpt_process_details
;
(NUMABS; Rigaku, 1999)
;
_exptl_crystal_colour            block
_exptl_crystal_density_diffrn    2.060
_exptl_crystal_description       colourless
_exptl_crystal_F_000             384
_exptl_crystal_size_max          0.31
_exptl_crystal_size_mid          0.24
_exptl_crystal_size_min          0.23
_refine_diff_density_max         0.778
_refine_diff_density_min         -0.484
_refine_ls_extinction_coef       0.017(4)
_refine_ls_extinction_expression Fc^*^=kFc[1+0.001xFc^2^\l^3^/sin(2\q)]^-1/4^
_refine_ls_extinction_method
;
SHELXL2014 (Sheldrick, 2015)
;
_refine_ls_goodness_of_fit_ref   1.084
_refine_ls_hydrogen_treatment    constr
_refine_ls_matrix_type           full
_refine_ls_number_parameters     92
_refine_ls_number_reflns         1129
_refine_ls_number_restraints     0
_refine_ls_restrained_S_all      1.084
_refine_ls_R_factor_all          0.0494
_refine_ls_R_factor_gt           0.0407
_refine_ls_shift/su_max          0.001
_refine_ls_shift/su_mean         0.000
_refine_ls_structure_factor_coef Fsqd
_refine_ls_weighting_details
'w=1/[\s^2^(Fo^2^)+(0.0649P)^2^+0.2378P] where P=(Fo^2^+2Fc^2^)/3'
_refine_ls_weighting_scheme      calc
_refine_ls_wR_factor_gt          0.1047
_refine_ls_wR_factor_ref         0.1111
_reflns_number_gt                977
_reflns_number_total             1129
_reflns_threshold_expression     'I > 2\s(I)'
_cod_data_source_file            sj4072sup1.cif
_cod_data_source_block           I
_cod_original_cell_volume        641.57(9)
_cod_database_code               1544779
_shelx_space_group_comment
;
The symmetry employed for this shelxl refinement is uniquely defined
by the following loop, which should always be used as a source of
symmetry information in preference to the above space-group names.
They are only intended as comments.
;
_shelx_estimated_absorpt_t_min   0.245
_shelx_estimated_absorpt_t_max   0.324
_shelx_hkl_file
;
   0   0   1-24.8839 33.9053   2
   0   0  -1-3.60126 18.5028   2
   0   0  -2 1406.10 184.908   2
   0   0   2 1534.19 194.223   2
   0   0  -2 1021.99 146.703   1
   0   0  -3 40.6353 102.741   2
   0   0  -3 125.025 91.5608   1
   0   0   3 12.7303 62.3758   1
   0   0   3 40.6983 74.4349   2
   0   0  -4 148254. 2697.54   2
   0   0   4 144893. 2719.97   2
   0   0  -4 147324. 2599.69   1
   0   0  -5 176.753 173.783   2
   0   0  -5 103.970 147.228   1
   0   0  -6 626708. 7039.54   1
   0   0  -6 647931. 6805.83   2
   0   0  -7 79.9101 197.992   1
   0   0  -7 181.833 247.142   2
   0   0  -8 9577.17 1201.51   1
   0   0  -8 14534.0 1335.02   2
   0   0  -9 384.004 450.426   2
   0   0 -10 12431.8 1353.80   2
   0   0 -11 970.736 527.662   2
   0   0 -12 52313.0 3095.30   2
   0   0 -13-90.7697 562.284   2
   0   0 -14 4560.82 1139.22   2
   0   0 -15-752.986 890.586   2
   0   0 -16-435.701 829.851   2
   0   1   1 27645.3 592.357   1
   0   1  -1 30361.9 598.560   2
   0  -1  -1 36211.7 638.428   1
   0  -1   1 34636.8 627.768   2
   0  -1   3 512039. 4403.64   2
   0   1   4 243311. 2810.86   1
   0   1  -4 254871. 4443.73   1
   0  -1   4 253494. 3461.01   2
   0  -1  -4 246434. 3620.58   2
   0   1  -4 248170. 3450.05   2
   0  -1  -4 252692. 3129.21   1
   0   1  -5 23862.4 1462.54   1
   0  -1  -5 25944.8 1320.66   2
   0   1  -5 25764.3 1288.66   2
   0   1   5 25768.2 1049.16   1
   0  -1   5 25377.6 1230.78   2
   0  -1  -5 27790.7 1174.34   1
   0   1  -6 5159.80 627.965   2
   0   1   6 3619.29 479.178   1
   0  -1  -6 4597.59 682.373   2
   0  -1   6 4494.68 582.809   2
   0   1  -6 5959.75 732.558   1
   0  -1  -6 5369.53 597.988   1
   0  -1  -7 56822.9 2305.69   2
   0   1  -7 56781.2 2474.24   1
   0  -1  -7 52205.9 1939.33   1
   0   1  -7 54496.2 2285.41   2
   0   1  -8 17041.7 1614.80   1
   0  -1  -8 20275.7 1478.28   2
   0   1  -8 23188.0 1558.63   2
   0  -1  -8 19718.4 1360.08   1
   0   1  -9 184969. 4691.60   2
   0  -1  -9 179932. 4726.95   2
   0  -1 -10 5617.39 1063.28   2
   0   1 -10 4150.77 838.508   2
   0   1 -11 5802.42 1022.44   2
   0  -1 -11 3719.79 890.187   2
   0   1 -12 9516.09 1328.03   2
   0  -1 -12 7222.21 1270.03   2
   0  -1 -13 17433.2 2000.22   2
   0   1 -13 15223.9 1784.20   2
   0  -1 -14 3054.29 1029.77   2
   0   1 -14 2723.95 896.234   2
   0   1 -15 17807.7 2221.44   2
   0  -1 -15 18615.8 2228.97   2
   0  -1 -16-62.0963 719.255   2
   0  -2   0 25129.6 557.720   3
   0   2   0 26175.3 584.477   3
   0   2   1 75593.0 1312.49   1
   0  -2   1 78227.6 1109.93   2
   0  -2   2 207854. 2252.80   2
   0   2   2 202015. 2167.01   1
   0  -2  -2 204225. 2293.92   1
   0  -2   3 2699.86 305.713   2
   0   2  -3 2196.22 277.560   2
   0  -2  -3 2240.63 278.734   1
   0   2   3 2247.49 256.126   1
   0   2  -4 125627. 2416.54   2
   0  -2  -4 124291. 2173.42   1
   0  -2  -4 130080. 2801.58   2
   0  -2   4 132605. 2480.06   2
   0   2   4 129381. 2179.74   1
   0   2  -5 181065. 3215.97   2
   0  -2  -5 185187. 2932.43   1
   0   2   5 185180. 2754.51   1
   0  -2  -5 178844. 3544.99   2
   0  -2  -6 98934.2 2940.07   2
   0   2  -6 97484.9 2642.45   2
   0   2   6 98788.4 2209.09   1
   0  -2   6 100587. 2683.95   2
   0  -2  -6 97979.1 2444.40   1
   0   2   7 16228.7 983.923   1
   0  -2  -7 16703.9 1122.91   1
   0   2  -7 17172.1 1238.84   2
   0   2  -7 15512.3 1616.67   1
   0  -2  -8 5560.93 889.435   2
   0   2   8 4251.09 593.326   1
   0  -2  -8 5485.28 692.999   1
   0   2  -8 4661.53 738.042   2
   0   2  -9 1638.75 467.165   2
   0  -2  -9 2205.86 621.100   2
   0  -2 -10 11978.2 1390.06   2
   0   2 -10 12606.4 1293.66   2
   0   2 -11 55723.4 2904.57   2
   0  -2 -11 61654.5 3267.08   2
   0  -2 -12 34045.3 2739.95   2
   0   2 -12 33195.6 2461.55   2
   0  -2 -13 6988.17 1407.82   2
   0  -2 -14-266.277 681.398   2
   0   2 -15 1741.36 881.226   2
   0  -2 -15 2339.00 999.117   2
   0  -2 -16 5061.96 1421.87   2
   0  -3   0 17.4964 47.7443   3
   0   3   1 48893.4 983.472   3
   0   3   1 46739.5 1244.63   1
   0   3   3 137728. 2190.37   1
   0  -3  -3 143678. 2375.43   1
   0   3  -3 136248. 2137.70   2
   0  -3   3 146640. 2308.67   2
   0   3  -4 144287. 2613.55   2
   0   3   4 140291. 2357.18   1
   0  -3  -4 134093. 2334.95   1
   0  -3   4 131041. 2613.73   2
   0  -3  -5 85338.7 2644.25   2
   0   3  -5 85345.4 2206.60   2
   0  -3  -5 85707.2 2075.86   1
   0   3   5 86555.3 2023.81   1
   0  -3   5 87075.3 2256.46   2
   0  -3  -6-149.645 233.847   2
   0  -3   6 423.389 224.606   2
   0   3  -6 365.507 257.918   2
   0   3   6 281.788 175.466   1
   0  -3  -6 71.8098 173.894   1
   0  -3  -7 49823.6 2303.22   2
   0   3   7 49894.8 1733.28   1
   0  -3  -7 48018.9 1885.33   1
   0   3  -7 43662.6 1944.02   2
   0   3  -8 74069.1 2750.26   2
   0  -3  -8 69722.6 2428.83   1
   0   3   8 71597.6 2376.62   1
   0   3   9 47022.0 2111.07   1
   0   3  -9 42765.0 2270.38   2
   0  -3  -9 46582.9 2660.78   2
   0   3 -10 42801.3 2390.01   2
   0  -3 -10 47418.8 2708.65   2
   0   3 -11 584.131 451.443   2
   0  -3 -11 356.799 431.214   2
   0  -3 -12 505.465 508.065   2
   0   3 -12 1374.69 665.944   2
   0  -3 -13 8414.41 1543.40   2
   0   3 -13 9734.77 1477.58   2
   0  -3 -14 7488.18 1510.14   2
   0   3 -14 4902.78 1207.37   2
   0  -3 -15 618.314 935.763   2
   0  -4   0 377.531 113.798   3
   0  -4   2 30858.4 1013.70   2
   0   4   2 28962.7 1207.03   1
   0   4  -3 1318.38 226.991   2
   0   4   3 1456.99 294.098   1
   0   4   4 51662.8 1539.67   1
   0   4  -4 52745.0 1569.38   2
   0  -4   4 55612.6 1623.08   2
   0   4   5 192293. 3235.92   1
   0  -4  -5 190873. 3399.30   1
   0   4  -5 198578. 3513.01   2
   0   4   6 1268.38 317.091   1
   0  -4  -6 835.336 387.600   2
   0  -4  -6 846.469 298.860   1
   0   4  -6 1224.39 348.652   2
   0  -4   6 1374.27 347.722   2
   0  -4  -7 254743. 5355.49   2
   0   4  -7 250359. 4789.26   2
   0  -4  -7 241729. 4258.98   1
   0   4   7 252473. 4063.49   1
   0  -4  -8 13616.2 1071.65   1
   0  -4  -8 13824.7 1412.82   2
   0   4   8 12059.8 946.281   1
   0   4  -8 15284.2 1304.93   2
   0   4  -9 42075.4 2237.77   2
   0  -4  -9 40375.6 2559.06   2
   0   4   9 40775.9 1919.90   1
   0  -4 -10 36005.6 2588.81   2
   0   4 -10 30444.5 2059.11   2
   0  -4 -11 57479.9 3266.10   2
   0   4 -11 60163.3 3155.94   2
   0  -4 -12 1450.69 685.934   2
   0   4 -12-285.844 506.849   2
   0  -4 -13 12699.4 1833.38   2
   0   4 -13 14310.6 1834.66   2
   0  -4 -14 829.101 899.613   2
   0  -4 -15 9373.87 1778.63   2
   0  -5   0-72.1602 84.5432   3
   0   5   1 7731.11 511.494   3
   0   5   2 387130. 3791.06   3
   0  -5   2 385355. 4022.99   2
   0  -5   3 6444.07 525.342   2
   0   5   3 7053.09 662.671   1
   0   5  -4 368838. 4225.32   2
   0  -5   4 380508. 4294.30   2
   0  -5  -4 371831. 5070.44   1
   0  -5  -5 6154.88 761.729   1
   0  -5   5 6218.42 643.339   2
   0   5  -5 5637.71 586.769   2
   0   5   5 6572.19 651.063   1
   0   5   6 6994.24 678.088   1
   0  -5   6 8663.13 893.452   2
   0  -5  -6 7180.26 895.792   1
   0   5  -6 8134.71 773.140   2
   0   5   7 6405.96 695.349   1
   0  -5  -7 5321.19 892.495   2
   0   5  -7 5051.15 677.093   2
   0  -5  -7 7705.01 851.118   1
   0  -5  -8 146375. 4493.04   2
   0   5   8 144749. 3414.75   1
   0   5  -9 10499.8 1306.08   2
   0  -5  -9 10042.6 1341.81   2
   0   5   9 10194.3 993.751   1
   0   5  10 62088.4 2549.66   1
   0   5 -10 62762.4 3324.06   2
   0   5 -11 5937.56 1189.29   2
   0  -5 -11 3995.18 934.994   2
   0   5  11 7327.81 1050.56   1
   0  -5 -12-362.136 605.890   2
   0   5 -12 1028.77 722.536   2
   0   5 -13 1297.28 821.332   2
   0  -5 -13 720.747 673.356   2
   0  -5 -14 27591.4 2847.00   2
   0  -5 -15 2.36123 777.837   2
   0  -6   0 187956. 2788.49   3
   0   6   1 361337. 3888.86   3
   0  -6   1 347610. 4022.62   3
   0   6   2 79869.8 2264.89   1
   0   6   2 73616.0 1669.93   3
   0  -6   3 25672.4 1128.70   2
   0   6   3 28451.2 1380.89   1
   0   6   4 30413.1 1440.94   1
   0  -6   4 27492.3 1257.25   2
   0   6   5 206762. 3742.07   1
   0  -6   5 208147. 3600.29   2
   0  -6   6 50888.7 1977.50   2
   0   6   6 54199.5 2046.26   1
   0   6  -6 50355.2 1870.80   2
   0  -6  -7 127390. 4137.73   2
   0   6  -7 128098. 3394.99   2
   0   6   7 121287. 3077.54   1
   0  -6  -8 45979.8 2669.06   2
   0   6   8 49734.1 2143.74   1
   0   6  -8 47931.5 2213.72   2
   0   6  -9 4040.60 781.027   2
   0  -6  -9 5256.50 937.353   2
   0   6   9 3776.16 647.137   1
   0   6  10 6367.79 841.807   1
   0  -6 -10 6531.53 1260.66   2
   0   6 -10 6910.20 1057.69   2
   0  -6 -11 51495.3 3591.67   2
   0   6 -11 41248.0 2591.76   2
   0  -6 -12 12344.7 1870.19   2
   0   6 -12 12951.0 1583.07   2
   0  -6 -13 14947.2 2049.24   2
   0  -6 -14 517.405 794.033   2
   0  -6 -15-1246.48 1098.80   2
   0  -7   0 120.356 135.239   3
   0  -7   1 10711.6 757.704   3
   0   7   1 10914.9 741.188   3
   0   7   2 205377. 3886.10   1
   0   7   2 215627. 3308.20   3
   0   7   3 274168. 3940.20   3
   0  -7   3 282335. 4095.76   2
   0   7   4 4233.86 607.817   1
   0  -7   4 5998.11 652.785   2
   0   7   5 96080.7 2798.32   1
   0  -7   5 80880.6 2280.39   2
   0   7   6 22171.3 1373.75   1
   0   7  -7 6857.22 795.668   2
   0   7   7 6031.03 779.934   1
   0   7  -8 49106.8 2158.53   2
   0  -7  -8 52489.7 2851.93   2
   0   7   8 53890.0 2240.81   1
   0  -7  -9 108991. 4361.00   2
   0   7  -9 109367. 3692.97   2
   0   7   9 104669. 3282.97   1
   0   7  10 5109.90 805.581   1
   0  -7 -10 3613.41 921.763   2
   0   7 -10 4265.90 841.042   2
   0  -7 -11 3554.44 1100.04   2
   0   7 -11 6680.47 1154.26   2
   0  -7 -12 9921.40 1739.71   2
   0  -7 -13 3918.29 1193.34   2
   0  -7 -14 3676.93 1329.48   2
   0  -8   0 296506. 4004.79   3
   0  -8   1 42009.3 1639.94   3
   0   8   1 43962.1 1578.53   3
   0   8   2 18965.6 1038.71   3
   0  -8   2 18171.6 1135.32   3
   0   8   3 14757.2 961.298   3
   0  -8   3 15472.6 1035.74   2
   0   8   3 15271.5 1177.58   1
   0  -8   4 95793.4 2519.68   2
   0   8   4 93862.7 2556.59   3
   0   8   5 20458.3 1390.07   1
   0   8   6 136644. 3565.59   1
   0   8   7 248.478 284.609   1
   0   8   8 1467.74 431.899   1
   0  -8  -8 1215.82 674.508   2
   0  -8  -9-69.5917 497.050   2
   0   8   9 1294.16 477.723   1
   0   8 -10 17809.8 1566.27   2
   0   8  10 21625.2 1659.42   1
   0  -8 -10 23909.9 2256.36   2
   0  -8 -11 3782.00 1069.75   2
   0   8 -11 4086.26 877.774   2
   0  -8 -12 20399.1 2443.07   2
   0  -8 -13 1065.65 910.919   2
   0  -8 -14 2741.09 1219.28   2
   0  -9   0-150.225 188.712   3
   0  -9   1 118189. 2830.80   3
   0   9   1 122319. 3411.98   1
   0   9   2 8696.17 770.747   3
   0  -9   2 8765.97 892.676   3
   0   9   2 10090.6 1008.72   1
   0   9   3 159857. 3444.52   3
   0   9   3 164022. 4088.09   1
   0   9   4 11831.4 1136.25   1
   0   9   5 71097.3 2736.52   1
   0   9   6 331.691 284.947   1
   0   9   7 60319.6 2634.81   1
   0   9   8 1959.83 540.057   1
   0  -9  -9 25680.5 2225.65   2
   0   9   9 25214.8 1738.60   1
   0   9  10 2934.61 700.727   1
   0  -9 -10 200.651 535.050   2
   0  -9 -11 13522.7 1944.40   2
   0  -9 -12 861.517 911.376   2
   0  -9 -13 8754.68 1842.51   2
   0 -10   0 139586. 3025.99   3
   0  10   1 15457.7 1310.74   1
   0 -10   1 15319.0 1180.79   3
   0  10   2 47433.3 2284.54   1
   0  10   2 46284.2 1902.85   3
   0 -10   2 49652.7 2125.75   3
   0  10   3 1179.62 397.992   1
   0 -10   3 2275.42 545.665   3
   0  10   4 82489.3 3046.38   1
   0  10   5 6487.36 897.538   1
   0  10   6 52749.4 2543.78   1
   0  10   7 2519.49 651.440   1
   0  10   8 21413.7 1689.37   1
   0 -10  -9 6806.66 1237.62   2
   0  10   9 4981.39 876.868   1
   0  10  10 17133.7 1655.56   1
   0 -10 -10 11698.2 1701.55   2
   0 -10 -11 3567.09 1190.72   2
   0 -10 -12 16829.6 2282.95   2
   0 -10 -13 2367.15 1324.02   2
   0 -11   0 441.383 260.901   3
   0  11   1 78283.6 3098.61   1
   0 -11   1 71810.2 2559.17   3
   0 -11   2 46522.9 2219.30   3
   0  11   2 49746.4 2417.54   1
   0  11   3 101122. 3555.91   1
   0 -11   3 100096. 3535.40   3
   0  11   4 35997.0 2173.03   1
   0  11   5 21686.9 1661.88   1
   0  11   6 9018.30 1106.71   1
   0  11   7 32939.4 2140.38   1
   0  11   8 3275.22 721.488   1
   0  11   9 35957.6 2298.60   1
   0 -11  -9 32508.7 2680.47   2
   0 -11 -10 12455.9 1886.29   2
   0 -11 -11 1221.92 1000.70   2
   0 -11 -12 737.108 835.304   2
   0  12   0 23276.7 1808.80   1
   0 -12   0 17282.6 1261.38   3
   0  12   1 153336. 4550.18   1
   0 -12   1 122926. 3526.87   3
   0 -12   2 25521.6 1736.11   3
   0  12   2 27501.1 1967.14   1
   0 -12   3 1558.13 529.392   3
   0  12   3 248.940 344.594   1
   0  12   4 8111.03 1117.00   1
   0 -12   4 10505.1 1331.05   3
   0  12   5 64410.9 2988.76   1
   0  12   6 32164.3 2155.53   1
   0  12   7 62838.8 2940.52   1
   0  12   8 813.295 423.578   1
   0  12   9 1298.80 636.461   1
   0 -12  -9 753.842 655.278   2
   0 -12 -10 4677.04 1293.57   2
   0 -12 -11 5610.83 1330.29   2
   0 -12 -12 1888.95 976.021   2
   0  13   0-939.508 607.577   1
   0 -13   0 49.4658 280.269   3
   0 -13   1 11127.2 1103.79   3
   0  13   1 7963.74 1202.17   1
   0  13   2 106046. 4125.25   1
   0 -13   2 96373.8 3764.55   3
   0  13   3 2364.43 727.158   1
   0 -13   3 2837.80 727.725   3
   0 -13   4 53339.6 3003.79   3
   0  13   4 54183.8 2876.33   1
   0  13   5 9550.56 1225.70   1
   0 -13   5 10351.2 1461.80   3
   0  13   6 148.951 396.280   1
   0  13   7 669.347 490.966   1
   0  13   8 32957.6 2379.56   1
   0 -13  -9 1114.15 831.003   2
   0  13   9 1008.07 580.819   1
   0 -13 -10 9210.40 1665.38   2
   0 -13 -11 1863.24 1011.69   2
   0  14   0 2942.45 920.596   1
   0  14   1 26871.2 2188.78   1
   0 -14   1 24171.8 1774.18   3
   0  14  -1 27933.3 2315.19   1
   0 -14   2 8426.97 1143.05   3
   0  14   2 8100.08 1297.13   1
   0 -14   3 260.679 452.972   3
   0  14   3-53.3363 416.506   1
   0 -14   4 6494.84 1189.41   3
   0  14   4 4698.53 945.377   1
   0 -14   5 29977.0 2518.19   3
   0  14   5 24316.3 2015.94   1
   0 -14   6 562.024 543.928   3
   0  14   6-241.541 501.390   1
   0  14   7 24355.6 2104.70   1
   0  14   8 1087.02 586.433   1
   0 -14  -9 2368.37 1036.52   2
   0 -14 -10-305.408 779.411   2
   0  15   0 40.1324 518.975   1
   0  15   1 1661.06 705.120   1
   0 -15   1 1254.49 519.665   3
   0  15   2 51210.6 3137.91   1
   0 -15   2 46821.9 2739.80   3
   0  15   3 4375.61 987.679   1
   0 -15   3 6581.04 1249.74   3
   0 -15   4 35103.9 2586.07   3
   0  15   4 38144.7 2650.21   1
   0 -15   5 8388.74 1481.44   3
   0  15   5 6545.97 1127.88   1
   0  15   6-107.037 473.552   1
   0 -15   6 334.404 655.968   3
   0  15   7-112.283 449.630   1
   0 -15   7 403.414 625.441   3
   0  15   8 19445.5 1946.05   1
   0 -15  -9 4139.97 1210.74   2
   0  16   0 53741.4 3392.92   1
   0  16   1 31395.8 2665.97   1
   0  16  -1 25639.5 2453.92   1
   0 -16   2 6898.28 1190.85   3
   0  16   2 6317.47 1299.27   1
   0  16  -2 7636.21 1467.02   1
   0 -16   3 2276.49 781.444   3
   0  16   3 1380.06 675.743   1
   0 -16   4 6059.49 1208.88   3
   0  16   4 5716.60 1147.00   1
   0  16   5 20786.7 2052.02   1
   0 -16   5 25390.6 2459.46   3
   0 -16   6 14659.2 2022.11   3
   0  16   6 14051.3 1720.83   1
   0  16   7 2052.12 796.672   1
   0 -16   7 369.407 653.085   3
   0  16   8 2554.67 861.428   1
   0 -16   8 2793.33 1186.74   3
   0 -16   9 1301.25 973.620   3
   0  17   0 306.055 841.616   1
   0  17  -1 8902.80 1604.05   1
   0  17   1 9265.40 1649.00   1
   0  17   2 3869.23 1122.07   1
   0  17  -2 3970.98 1220.02   1
   0  17  -3 33384.9 3061.04   1
   0  17   3 24917.2 2363.10   1
   0  17   4 1966.29 748.116   1
   0  17   5 2345.35 871.674   1
   0  17   6 582.508 700.714   1
   0  17   7 3525.63 1009.22   1
   0  18   0 49714.7 3810.23   1
   0  18   1 164.083 724.367   1
   0  18  -1 74.5011 808.094   1
   0  18  -2 6850.88 1535.93   1
   0  18   3 239.484 575.957   1
   0  18  -3 3208.53 1174.78   1
   0  18   4 3307.88 1004.66   1
   0  18  -4 6926.70 1597.09   1
   0  18   5 915.131 704.746   1
   0  18  -5 291.487 1093.27   1
   0  18   6 14113.1 1889.01   1
   0  19   0-400.509 929.550   1
   0  19  -1 8040.09 1789.35   1
   0  19   1 6556.37 1601.49   1
   0  19  -2 3837.95 1366.90   1
   0  19   2 3902.82 1171.10   1
   0  19   3 11314.0 1732.70   1
   0  19  -3 19909.3 2605.79   1
   0  19   4 2648.56 1079.99   1
   0  19   5 968.287 781.676   1
   0  19   6 1378.38 901.782   1
   1   0 -14-36.3879 604.973   2
   1   0 -13 40013.3 2806.74   2
   1   0 -12 548.668 584.513   2
   1   0 -11 35978.1 2321.25   2
   1   0 -10 18.5189 276.762   2
   1   0  -9 60588.7 2650.12   2
   1   0  -8-14.1876 224.466   2
  -1   0   8 206.149 293.352   1
  -1   0   7 137391. 3780.15   1
   1   0  -7 145177. 3284.05   2
  -1   0   6 42.5730 258.027   1
  -1   0   5 208217. 3940.37   1
   1   0  -4-89.2753 151.858   1
  -1   0   4 132.882 245.674   1
   1   0  -3 189277. 3507.73   1
  -1   0   3 199481. 3365.77   1
  -1   0   2 63.0887 116.242   1
   1   0  -2-2.35507 93.2937   1
   1   0  -1 65620.4 1432.36   3
   1   0  -1 61287.6 1637.21   1
  -1   0   1 64177.0 1685.72   1
   1   0   0 48.3339 79.3395   1
   1   0   0 66.8803 64.4870   3
   1   0   0 535.067 154.059   2
  -1   0   0 155.679 144.353   1
  -1   0   0 418.506 130.141   2
   1   0   1 340727. 3728.59   2
  -1   0  -1 385030. 4253.60   2
   1   0   2 14.9999 154.150   2
  -1   0  -2-9.64901 51.7579   1
  -1   0  -2 169.763 190.774   2
   1   0   2 46.9230 52.6234   1
  -1   0  -3 179000. 3550.61   2
   1   0   3 188453. 3646.27   2
  -1   0  -4 628.658 300.384   2
  -1   0  -5 222809. 4438.16   2
  -1   0  -6 100.261 294.963   2
  -1   0  -7 888.453 203.798   1
  -1   0  -7 2486.23 601.057   2
  -1   0  -8-354.607 450.849   2
  -1   0  -8 458.509 141.755   1
  -1   0  -9 30430.2 2110.16   2
  -1   0  -9 15289.0 768.799   1
  -1   0 -10 258.704 460.288   2
  -1   0 -11 97192.9 4205.82   2
  -1   0 -12-736.716 736.594   2
  -1   0 -13 1897.93 951.089   2
  -1   0 -14 1203.46 949.215   2
  -1   0 -15 4770.35 1374.82   2
   1  -1 -14 2798.25 1035.19   2
   1   1 -13-207.664 516.869   2
   1  -1 -13-384.134 566.015   2
   1  -1 -12 20402.7 1904.96   2
   1   1 -12 21520.4 1894.58   2
   1  -1 -11 19421.9 1722.20   2
   1   1 -11 22459.8 1763.71   2
   1  -1 -10 98733.5 3808.26   2
   1   1 -10 77725.8 2979.25   2
  -1   1   9 15644.5 1396.64   1
   1  -1  -9 14749.8 1296.97   2
   1   1  -9 13509.1 1165.53   2
  -1   1   8 7846.26 995.085   1
   1  -1  -8 7729.17 937.582   2
   1   1  -8 7026.02 785.160   2
   1   1  -7 1933.57 407.496   2
  -1   1   7 1388.01 430.629   1
   1   1  -6 99005.0 2364.19   2
  -1   1   6 110239. 3002.64   1
  -1  -1   5 6453.00 794.163   1
   1   1  -5 7116.18 564.776   2
  -1   1   5 5577.77 630.587   1
   1  -1  -4 396098. 5437.94   1
  -1  -1   4 391546. 5336.79   1
  -1   1   4 397212. 5146.90   1
   1   1  -4 401360. 6004.88   1
  -1  -1   3 134927. 2820.45   1
   1  -1  -3 127129. 2846.37   1
  -1   1   3 130303. 2743.84   1
   1   1  -3 129216. 3023.86   1
  -1  -1   2 126519. 2712.89   1
   1  -1  -2 126790. 2544.48   1
   1   1  -2 126061. 2621.40   1
  -1   1   2 131608. 2514.43   1
  -1  -1   2 136001. 2266.67   3
  -1  -1   1 2350.12 376.407   1
  -1  -1   1 2050.42 281.256   3
   1   1  -1 1266.87 248.287   1
   1  -1  -1 1513.19 196.387   3
  -1   1   1 1941.73 316.730   1
   1   1  -1 1457.35 176.599   2
   1  -1  -1 1308.89 254.272   1
   1   1  -1 1636.19 265.663   3
   1  -1   0 282372. 3200.24   2
  -1   1   0 269193. 3092.77   1
   1   1   0 264419. 3173.23   3
  -1  -1   0 255756. 3149.70   2
   1   1   0 265901. 2826.80   2
  -1  -1   0 265416. 2921.54   3
   1   1   0 265526. 3079.94   1
   1  -1   0 268210. 3058.24   1
  -1  -1   0 292126. 3327.53   1
  -1   1  -1 7399.48 604.020   2
   1   1   1 6986.25 417.949   1
   1   1   1 7440.83 573.992   2
   1  -1   1 8019.88 486.791   1
  -1  -1  -1 8144.80 508.225   1
   1  -1   1 7037.24 571.553   2
  -1  -1  -1 6937.86 557.295   2
   1  -1   2 999999. 7282.29   2
  -1   1  -3 54782.2 1115.98   1
   1  -1   3 48108.9 1814.18   2
  -1  -1  -3 52235.1 1863.25   2
  -1   1  -3 50557.0 1869.06   2
   1   1   3 48427.9 1772.47   2
  -1   1  -4 26253.3 841.209   1
  -1  -1  -4 25273.4 1463.52   2
  -1   1  -4 24579.0 1405.15   2
  -1  -1  -5 646.183 344.026   2
  -1   1  -5 252.850 124.260   1
  -1   1  -5 50.9874 274.081   2
  -1   1  -6 197881. 4631.51   2
  -1  -1  -6 188315. 4575.93   2
  -1  -1  -7 9652.31 1171.22   2
  -1   1  -7 8988.84 1105.56   2
  -1   1  -7 9551.91 669.241   1
  -1  -1  -8 121721. 4082.88   2
  -1   1  -8 117792. 2473.49   1
  -1   1  -8 123494. 4133.78   2
  -1   1  -9 7810.01 1164.71   2
  -1  -1  -9 10354.1 1370.65   2
  -1   1  -9 10384.9 792.438   1
  -1   1 -10 895.844 566.198   2
  -1  -1 -10-614.788 534.418   2
  -1  -1 -11 491.194 470.402   2
  -1   1 -11 2840.96 835.435   2
  -1  -1 -12 9899.28 1493.51   2
  -1   1 -13 1124.50 711.300   2
  -1  -1 -13 1753.83 888.151   2
  -1  -1 -14 8571.06 1613.57   2
  -1   1 -14 9053.64 1554.53   2
  -1  -1 -15 3431.72 1134.81   2
  -1   1 -15 4676.74 1407.73   2
   1  -2 -15 361.729 717.301   2
   1  -2 -14 10565.2 1765.39   2
   1  -2 -13 13882.9 1694.75   2
   1   2 -13 15159.1 1647.46   2
   1  -2 -12 9366.87 1334.16   2
   1   2 -12 13116.0 1427.90   2
   1  -2 -11 11699.1 1504.64   2
   1   2 -11 10189.5 1188.52   2
  -1   2  11 9342.40 1532.73   1
  -1   2  10 9939.39 1208.38   1
   1  -2 -10 11514.7 1302.04   2
   1   2 -10 9980.64 1114.04   2
   1   2  -9 13315.1 1175.47   2
   1  -2  -9 13549.0 1310.11   2
  -1   2   8 66164.9 2660.66   1
   1  -2  -8 63016.5 2631.76   2
   1   2  -8 64627.9 2272.27   2
   1   2  -7 207218. 3581.56   2
  -1   2   7 213801. 4401.06   1
   1   2  -6 87524.1 2018.03   2
  -1   2   6 86661.4 2663.92   1
   1   2  -5 2979.76 352.502   2
  -1   2   5 2003.97 411.161   1
   1  -2  -4 31663.9 1578.72   1
  -1   2   4 31747.5 1421.05   1
   1   2  -4 34739.1 900.547   2
   1  -2  -3 204080. 3700.73   1
   1   2  -3 215460. 4533.70   1
  -1   2   3 207602. 3565.52   1
  -1   2   2 121285. 2516.23   1
  -1  -2   2 121746. 2352.97   3
   1   2  -1 621797. 5333.91   3
   1   2   1 175732. 2496.75   1
   1   2   1 152829. 2759.97   3
  -1   2  -1 159746. 2476.39   1
   1  -2   1 169193. 2838.83   2
   1  -2   1 166901. 2504.35   1
   1   2   1 160179. 2638.42   2
  -1  -2  -1 162053. 2692.58   2
  -1   2  -1 166015. 2764.54   2
   1   2   2 177067. 3151.73   2
  -1  -2  -2 173382. 3181.52   2
   1   2   2 177447. 2134.74   1
  -1   2  -2 179978. 3229.08   2
  -1  -2  -3 155456. 3320.45   2
   1   2   3 148148. 3190.01   2
   1  -2   3 150537. 3185.62   2
  -1   2  -3 153893. 3392.68   2
  -1   2  -4 140961. 2381.38   1
  -1  -2  -4 146197. 3633.75   2
  -1  -2  -5 177124. 4294.27   2
  -1   2  -5 172183. 4166.06   2
  -1   2  -6 175759. 4273.43   2
  -1  -2  -6 176435. 4464.35   2
  -1  -2  -7 3342.70 733.387   2
  -1   2  -7 3339.60 710.179   2
  -1   2  -7 2750.88 533.027   1
  -1  -2  -8 53420.9 2800.69   2
  -1   2  -8 60632.6 2358.52   1
  -1   2  -8 55858.7 2704.07   2
  -1   2  -9 91228.9 3664.10   2
  -1   2  -9 96363.1 2922.65   1
  -1  -2  -9 96773.8 4014.43   2
  -1   2 -10 1526.28 660.327   2
  -1  -2 -10 1430.61 714.760   2
  -1  -2 -11 25601.1 2306.29   2
  -1   2 -11 25756.6 2168.75   2
  -1  -2 -12 7137.45 1361.64   2
  -1   2 -12 6768.87 1220.21   2
  -1  -2 -13 594.734 659.065   2
  -1   2 -13-288.194 585.682   2
  -1  -2 -14 931.050 752.006   2
  -1   2 -14 1536.03 963.835   2
  -1  -2 -15 10612.4 1925.15   2
  -1   2 -15 10097.8 1893.71   2
   1  -3 -15 10921.2 1990.50   2
   1  -3 -14 1264.80 810.665   2
   1  -3 -13 1294.31 741.976   2
  -1   3  12 2303.52 900.334   1
   1  -3 -12 2375.60 859.754   2
   1   3 -12 1892.52 624.636   2
   1  -3 -11 10962.4 1461.17   2
  -1   3  11 10030.1 1285.72   1
   1   3 -11 12831.3 1284.48   2
   1   3 -10 17550.0 1361.91   2
  -1   3  10 16488.4 1530.16   1
   1  -3 -10 16013.9 1562.11   2
   1   3  -9 108987. 3150.19   2
   1  -3  -9 104019. 3713.22   2
  -1   3   9 102204. 3502.48   1
  -1   3   8 7202.67 874.383   1
   1   3  -8 6595.07 729.856   2
  -1   3   7 8574.54 927.043   1
   1   3  -7 7558.22 666.889   2
  -1   3   6 8022.11 846.126   1
   1   3  -6 8995.24 646.699   2
  -1   3   5 241272. 4271.81   1
   1   3  -5 231380. 2640.10   2
   1   3  -4 49013.3 863.928   2
   1  -3  -4 50546.3 1990.89   1
  -1   3   4 48455.4 1813.93   1
   1  -3  -3 103516. 2664.96   1
  -1   3   3 103140. 2489.58   1
   1  -3  -2 1126.01 296.961   1
  -1   3   2 1268.41 310.069   1
  -1  -3   2 1719.60 325.258   3
  -1  -3   1 151650. 1637.09   2
  -1  -3   1 151827. 2656.03   3
   1   3  -1 147715. 2770.82   3
   1  -3  -1 144790. 2713.05   1
  -1   3   1 144622. 2722.04   1
  -1  -3   0 45078.4 1405.90   3
   1  -3   0 50574.2 1551.02   1
   1   3   0 49638.1 1639.28   3
  -1   3   0 50753.3 1624.67   1
   1   3   0 47047.1 1177.41   2
  -1  -3  -1 275925. 3583.42   2
  -1   3  -1 278391. 3681.63   1
   1   3   1 281808. 4096.30   3
   1  -3   1 280338. 3749.26   1
  -1  -3  -2 21805.3 1133.10   2
   1   3   2 20178.1 1050.35   2
   1  -3   2 20493.7 1129.54   2
  -1   3  -2 18500.0 1013.97   2
  -1   3  -2 22151.9 1042.31   1
  -1  -3  -3 105238. 2671.70   2
   1  -3   3 96793.3 2476.30   2
   1   3   3 100554. 2625.26   2
  -1   3  -3 108860. 2792.44   2
  -1   3  -4 7342.01 630.051   1
  -1  -3  -4 5276.57 661.529   2
   1   3   4 6591.87 357.392   1
  -1   3  -4 6176.86 715.992   2
  -1  -3  -5 133398. 3623.04   2
  -1   3  -5 168100. 4496.69   2
  -1   3  -6 40819.2 2162.43   2
  -1  -3  -6 37879.5 2035.77   2
  -1   3  -7 137600. 4160.79   2
  -1  -3  -7 143107. 4337.04   2
  -1   3  -8 39551.6 2409.45   1
  -1   3  -8 45179.3 2589.51   2
  -1  -3  -9 41465.9 2619.85   2
  -1   3  -9 44853.4 2752.67   2
  -1  -3 -10 2025.52 759.076   2
  -1   3 -10 2081.35 784.803   2
  -1   3 -11 17861.6 1995.33   2
  -1  -3 -11 15875.4 1950.53   2
  -1   3 -12 21545.6 2228.74   2
  -1  -3 -12 24341.7 2457.55   2
  -1   3 -13 36627.4 2986.51   2
  -1  -3 -13 38242.5 3127.55   2
  -1  -3 -14 6315.34 1571.99   2
  -1   3 -15 2468.11 1080.67   2
  -1  -3 -15 2103.61 1120.94   2
   1  -4 -15-639.936 855.110   2
   1  -4 -14 9683.90 1733.86   2
   1  -4 -13-105.407 580.652   2
  -1   4  12 24781.0 2101.75   1
   1  -4 -12 29064.2 2507.39   2
   1  -4 -11 539.702 511.748   2
   1   4 -11 1.95187 415.835   2
  -1   4  11 130.681 347.524   1
   1  -4 -10 16397.1 1647.50   2
  -1   4  10 14086.9 1424.42   1
   1   4 -10 16281.6 1329.46   2
   1   4  -9 645.734 336.079   2
  -1   4   9 794.176 369.885   1
   1   4  -8 78899.6 2336.47   2
  -1   4   8 77710.1 2940.97   1
  -1   4   7 42470.5 2022.05   1
   1   4  -7 48682.8 1588.08   2
   1   4  -6 109515. 2007.74   2
  -1   4   6 106934. 3139.99   1
  -1   4   5 3109.04 546.284   1
   1   4  -5 3549.03 302.558   2
  -1   4   4 25383.0 1379.33   1
   1  -4  -3 12372.9 949.923   1
  -1   4   3 13555.0 1019.17   1
  -1  -4   2 369301. 4655.08   3
  -1   4   2 376538. 4895.78   1
   1  -4  -2 367890. 4845.35   1
  -1   4   1 42318.0 1632.69   1
   1  -4  -1 40846.9 1583.86   1
  -1  -4   1 40999.9 1507.98   3
   1   4  -1 42899.3 1570.40   3
   1   4   0 157047. 2978.97   3
   1  -4   0 164288. 3141.03   1
  -1   4   0 158674. 3080.49   1
  -1  -4   0 156343. 2846.46   3
  -1   4  -1 82612.5 2264.75   1
  -1  -4  -1 84736.4 2038.92   2
  -1  -4  -2 2721.03 446.843   2
  -1   4  -2 2139.95 403.005   1
   1  -4   2 2351.14 408.504   2
  -1   4  -3 580.510 245.789   2
  -1   4  -3 1488.66 359.930   1
  -1  -4  -3 886.254 305.211   2
  -1  -4  -4 477555. 6514.51   2
  -1   4  -4 463083. 6345.25   2
   1   4   5 7642.82 438.146   1
  -1  -4  -5 8290.68 958.541   2
  -1   4  -5 7336.21 871.234   2
  -1   4  -6 63160.5 2636.31   2
  -1  -4  -6 58327.6 2566.95   2
   1   4   6 61727.0 1221.67   1
  -1   4  -7 13096.5 1358.26   2
  -1  -4  -7 13673.3 1351.55   2
  -1   4  -8 2623.56 846.039   2
  -1  -4  -8 2058.28 632.351   2
  -1  -4  -9 870.012 568.368   2
  -1   4  -9 1874.58 770.580   2
  -1  -4 -10 142196. 5482.70   2
  -1   4 -10 130922. 5047.94   2
  -1   4 -11 1955.24 898.253   2
  -1  -4 -11 2513.00 887.604   2
  -1  -4 -12 16172.6 2070.35   2
  -1   4 -12 14663.7 2030.72   2
  -1   4 -13 620.557 991.410   2
  -1  -4 -13-1447.90 808.795   2
  -1  -4 -14 2583.34 1233.03   2
  -1   4 -14 1544.82 848.445   2
  -1   4 -15-47.8751 793.898   2
   1  -5 -15 3627.46 1163.93   2
   1  -5 -14 3288.56 1086.92   2
   1  -5 -13 1194.35 914.540   2
  -1   5  12 4800.28 1104.56   1
   1  -5 -12 3510.42 1007.35   2
  -1   5  11 53277.3 2934.86   1
   1  -5 -11 45639.7 2945.96   2
   1  -5 -10 92.1726 497.548   2
   1   5 -10 159.045 306.784   2
  -1   5  10 241.030 394.171   1
   1   5  -9 122385. 3275.45   2
  -1   5   9 115158. 3866.32   1
  -1   5   8 23084.2 1659.99   1
   1   5  -8 28250.8 1524.82   2
   1   5  -7 437.914 206.194   2
  -1   5   7 944.839 397.081   1
   1   5  -6 5123.25 448.315   2
  -1   5   6 6184.84 805.014   1
  -1   5   5 351453. 5483.57   1
  -1   5   4 16649.0 1191.88   1
  -1   5   3 382082. 5421.72   1
  -1   5   2 16961.5 1170.08   1
  -1  -5   2 17484.8 515.831   2
  -1  -5   2 16363.7 1037.24   3
   1  -5  -1 87147.0 2579.26   1
  -1  -5   1 90312.8 2443.35   3
  -1  -5   1 89130.8 1576.34   2
  -1   5   1 88778.8 2563.87   1
   1   5   0 6320.33 660.756   3
  -1   5   0 6371.03 682.206   1
   1  -5   0 6882.96 738.434   1
  -1  -5   0 6511.98 606.653   3
  -1   5  -1 327266. 4835.55   1
  -1  -5  -1 330113. 4166.86   2
   1   5   1 324932. 4702.78   3
  -1   5  -2 36677.5 1612.45   1
  -1  -5  -2 38908.2 1633.52   2
  -1   5  -3 109840. 2857.23   1
  -1  -5  -3 112025. 2988.85   2
   1   5   4 9240.88 629.997   1
  -1  -5  -4 7355.81 878.980   2
   1   5   5 3486.59 373.647   1
  -1   5  -5 3673.47 681.361   2
  -1  -5  -5 2882.16 673.170   2
  -1   5  -6 757.339 425.171   2
   1   5   6 398.433 148.820   1
  -1  -5  -6 452.524 400.171   2
  -1   5  -7 124078. 3967.87   2
   1   5   7 125075. 2117.50   1
   1   5   8 12063.7 719.621   1
  -1  -5  -8 13248.5 1467.57   2
  -1   5  -8 13336.3 1385.36   2
  -1   5  -9 54448.4 2855.42   2
  -1  -5  -9 61427.5 3346.68   2
  -1  -5 -10 3736.81 935.204   2
  -1   5 -10 3448.37 854.084   2
  -1  -5 -11 8291.65 1565.46   2
  -1   5 -11 8296.33 1350.29   2
  -1  -5 -12 851.520 790.882   2
  -1   5 -12 319.107 587.507   2
  -1  -5 -13 13485.2 2075.84   2
  -1   5 -13 11419.0 1698.54   2
  -1  -5 -14 1340.62 1147.32   2
  -1   5 -14 657.046 766.381   2
  -1   5 -15 1196.97 916.858   2
   1  -6 -15 1784.45 963.504   2
   1  -6 -14 19524.0 2442.73   2
   1  -6 -13 11372.3 1858.14   2
  -1   6  12 29589.7 2387.28   1
   1  -6 -12 29061.6 2625.80   2
   1  -6 -11 2045.17 778.906   2
  -1   6  11 1294.24 575.106   1
  -1   6  10 8219.20 1162.49   1
  -1   6   9 1925.25 559.231   1
   1   6  -9 1421.34 402.140   2
  -1   6   8 94442.6 3336.87   1
   1   6  -8 95736.5 2358.61   2
   1   6  -7 165535. 2615.99   2
  -1   6   7 172988. 4421.41   1
  -1   6   6 98493.0 3114.41   1
  -1   6   5 759.822 330.596   1
  -1   6   4 13876.2 1186.77   1
  -1  -6   3 29035.2 1528.20   3
  -1   6   3 28966.8 1622.80   1
  -1  -6   3 31274.7 675.024   2
  -1  -6   2 224324. 4059.16   3
  -1   6   2 246466. 4539.45   1
  -1   6   1 105428. 2930.45   1
  -1  -6   1 130593. 3088.13   3
  -1   6   0 147346. 3505.32   1
  -1  -6   0 144053. 3057.56   3
  -1   6  -1 1210.95 370.326   1
  -1  -6  -1 1170.44 315.878   2
  -1   6  -2 22223.3 1369.32   1
  -1  -6  -2 25628.5 1374.24   2
  -1   6  -3 2979.00 561.171   1
  -1  -6  -3 3394.75 574.780   2
   1   6   4 188334. 3180.36   1
  -1  -6  -4 183537. 4281.00   2
  -1  -6  -5 37765.6 2132.96   2
   1   6   5 35949.3 1309.73   1
  -1   6  -5 37071.9 1919.42   2
   1   6   6 33838.6 1259.51   1
  -1  -6  -6 36804.3 2241.16   2
  -1   6  -6 35195.6 1977.29   2
   1   6   7 3389.49 400.057   1
  -1   6  -7 4593.44 851.749   2
  -1  -6  -7 3045.62 770.733   2
   1   6   8 31800.4 1301.96   1
  -1  -6  -8 28725.5 2184.92   2
  -1   6  -8 31394.8 2216.90   2
  -1   6  -9 4163.95 914.947   2
  -1  -6  -9 3671.88 926.869   2
  -1   6 -10 39362.4 2715.03   2
  -1  -6 -10 41522.8 3026.62   2
  -1  -6 -11 16162.8 1983.89   2
  -1   6 -11 14544.7 1792.85   2
  -1  -6 -12 2298.75 1022.41   2
  -1   6 -12 1805.26 792.388   2
  -1   6 -13 558.119 678.947   2
  -1  -6 -14 536.799 824.436   2
  -1   6 -14-140.871 709.705   2
   1  -7 -14 6589.06 1596.57   2
   1  -7 -13-11.6413 715.435   2
   1  -7 -12 9328.60 1590.07   2
  -1   7  12 12770.0 1551.47   1
  -1   7  11 20029.6 1849.61   1
   1  -7 -11 17933.2 1972.06   2
  -1   7  10 30458.1 2174.61   1
  -1   7   9 703.207 421.784   1
  -1   7   8 39010.3 2302.30   1
  -1   7   7 618.926 337.676   1
  -1   7   6 52614.2 2531.93   1
  -1  -7   6 47303.7 1061.85   2
  -1  -7   5 133340. 1633.71   2
  -1   7   5 142188. 3947.04   1
  -1  -7   4 109853. 1387.07   2
  -1   7   4 115894. 3450.33   1
  -1   7   3 8822.69 963.975   1
  -1  -7   3 10098.5 976.511   3
  -1   7   3 9667.95 409.862   3
  -1  -7   3 8615.10 460.039   2
  -1  -7   2 68148.5 2346.31   3
  -1   7   2 62078.6 2458.10   1
  -1  -7   1 1659.11 384.335   3
  -1   7   1 1560.84 403.688   1
   1  -7   0 112804. 1585.33   3
  -1  -7   0 114645. 2863.42   3
  -1   7  -1 197831. 4329.99   1
  -1   7  -2 145117. 3622.02   1
  -1  -7  -2 152118. 3527.13   2
  -1  -7  -3 111446. 3219.80   2
  -1   7  -3 112479. 3377.50   1
   1   7   4 5023.86 595.516   1
  -1  -7  -4 4724.09 760.727   2
  -1  -7  -5 9746.97 1134.80   2
   1   7   5 9058.23 796.360   1
   1   7   6 61178.4 1933.72   1
  -1  -7  -6 65977.8 3102.23   2
  -1  -7  -7 79947.5 3627.82   2
   1   7   7 75076.5 2152.90   1
  -1   7  -8 30225.4 2078.45   2
  -1  -7  -8 35669.2 2566.88   2
   1   7   8 34382.7 1469.90   1
  -1   7  -9 11027.6 1412.31   2
  -1  -7  -9 12138.0 1591.29   2
  -1   7 -10 1679.87 724.982   2
  -1  -7 -10 445.281 501.133   2
  -1   7 -11 135.389 546.751   2
  -1  -7 -11 47.4376 593.215   2
  -1  -7 -12 6186.10 1467.02   2
  -1   7 -12 5293.72 1279.83   2
  -1  -7 -13 14933.6 2242.67   2
  -1   7 -13 14509.6 1998.72   2
   1  -8 -14 4874.36 1396.03   2
   1  -8 -13 4654.69 1269.03   2
   1  -8 -12-280.412 650.862   2
  -1   8  12 1126.95 594.606   1
  -1   8  11 3681.47 910.690   1
   1  -8 -11 4702.06 1166.26   2
  -1   8  10 1138.86 514.066   1
  -1   8   9 77202.4 3477.38   1
  -1   8   8 7696.04 1080.15   1
  -1  -8   7 32852.9 1034.20   2
  -1   8   7 38570.9 2257.88   1
  -1   8   6 531.777 304.814   1
  -1  -8   6 642.398 163.340   2
  -1  -8   5 17553.6 657.787   2
  -1   8   5 19636.6 1527.15   1
  -1   8   4 415.036 137.044   3
  -1  -8   4 354.904 311.722   3
  -1  -8   4 132.821 101.696   2
  -1   8   3 234058. 2058.39   3
  -1  -8   3 240136. 4878.39   3
  -1  -8   3 232074. 2747.39   2
  -1  -8   2 10801.5 965.723   3
  -1   8   2 10044.3 1048.16   1
  -1   8   1 154139. 3997.23   1
  -1  -8   1 166223. 3620.54   3
  -1  -8   0 7528.94 760.703   3
  -1   8   0 8144.62 931.343   1
   1  -8   0 7802.36 488.522   3
  -1   8  -1 21448.3 1527.21   1
  -1   8  -2 1611.92 460.868   1
  -1  -8  -3 100599. 3276.20   2
  -1   8  -3 104143. 3345.50   1
   1   8   4 51716.8 1978.68   1
  -1  -8  -4 53579.1 2478.94   2
   1   8   5 156243. 3463.10   1
  -1  -8  -5 155359. 4516.02   2
  -1  -8  -6 1220.43 606.940   2
   1   8   6 994.326 322.697   1
  -1  -8  -7 23031.2 2030.46   2
   1   8   7 23621.1 1288.79   1
  -1  -8  -8 9437.50 1516.03   2
   1   8   8 11161.3 920.982   1
  -1  -8  -9 34181.4 2746.97   2
  -1   8  -9 28873.8 2204.66   2
  -1   8 -10 8054.14 1284.32   2
  -1  -8 -10 11601.0 1645.46   2
  -1  -8 -11 44752.8 3352.13   2
  -1   8 -11 32335.4 2557.76   2
  -1   8 -12 404.661 541.421   2
  -1  -8 -12 137.315 636.586   2
  -1  -8 -13-739.825 1025.03   2
  -1   8 -13 241.274 544.886   2
   1  -9 -13 2733.73 1209.33   2
   1  -9 -12 8250.71 1507.34   2
  -1   9  12 5625.29 1129.03   1
  -1   9  11 768.641 607.039   1
   1  -9 -11 538.851 706.307   2
  -1   9  10 46122.3 2790.13   1
  -1   9   9 4680.95 979.551   1
  -1   9   8 1060.16 539.841   1
  -1   9   7 5129.11 954.366   1
  -1  -9   6 14538.1 672.085   2
  -1   9   6 21905.4 1779.20   1
  -1  -9   5 689.195 175.960   2
  -1   9   5 777.723 212.609   3
  -1   9   4 102196. 1797.23   3
  -1  -9   4 104112. 3561.03   3
  -1   9   3 6322.24 952.236   1
  -1  -9   3 9079.07 1035.78   3
  -1   9   2 24029.7 1658.86   1
  -1  -9   2 23199.4 1502.35   3
  -1  -9   1 8600.92 890.397   3
  -1   9   1 8481.06 1018.32   1
   1  -9   0 102104. 1844.86   3
  -1   9   0 105346. 3394.55   1
  -1  -9   0 97681.5 2922.57   3
  -1   9  -1 13666.8 1303.29   1
   1  -9   1 14774.6 909.377   3
  -1   9  -2 221376. 4984.78   1
  -1   9  -3 10213.1 1123.71   1
   1   9   4-83.9732 277.807   1
  -1   9  -4 205.737 333.880   1
  -1  -9  -4 282.546 384.347   2
   1   9   5 855.798 383.334   1
  -1  -9  -5-30.0563 379.566   2
   1   9   6 129767. 3346.09   1
  -1  -9  -6 140665. 4778.96   2
   1   9   7 5189.03 700.689   1
  -1  -9  -7 3879.73 925.886   2
  -1  -9  -8 56935.3 3350.65   2
   1   9   8 57286.7 2255.33   1
  -1  -9  -9 12668.0 1860.33   2
  -1  -9 -10 1103.14 612.278   2
  -1  -9 -11-100.591 592.146   2
  -1  -9 -12 15527.5 2257.65   2
  -1  -9 -13 703.412 948.828   2
   1 -10 -13 15842.4 2211.32   2
   1 -10 -12-211.797 701.722   2
  -1  10  11 6911.52 1239.90   1
  -1  10  10 1012.10 635.223   1
  -1  10   9 10781.7 1394.41   1
  -1  10   8 6586.83 1089.84   1
  -1  10   7 124063. 4430.77   1
  -1  10   6 471.234 458.804   1
  -1 -10   5 15749.3 1540.82   3
  -1  10   5 14002.5 1407.33   1
  -1  10   5 13809.2 758.501   3
  -1 -10   5 13547.4 717.369   2
  -1 -10   4 2229.35 617.426   3
  -1  10   4 1586.76 245.989   3
  -1 -10   4 1659.41 265.046   2
  -1  10   4 1893.70 588.630   1
  -1 -10   3 64634.4 2772.16   3
  -1  10   3 63910.9 2879.03   1
  -1 -10   2 4135.08 725.727   3
  -1  10   2 4145.58 731.611   1
  -1  10   1 183080. 4760.81   1
  -1 -10   1 180287. 4194.30   3
   1 -10   0 13585.7 702.473   3
  -1  10   0 14277.1 1328.43   1
  -1 -10   0 14409.9 1180.60   3
  -1  10  -1 35065.0 2121.18   1
   1 -10   1 37257.9 1540.87   3
  -1  10  -2 21751.9 1642.74   1
  -1  10  -3 133151. 4176.50   1
  -1 -10  -4 28418.1 2022.84   2
  -1  10  -4 32806.4 2177.39   1
   1  10   5 92934.3 3031.55   1
  -1 -10  -5 89067.4 3621.88   2
   1  10   6 2229.15 521.762   1
  -1 -10  -6 987.776 511.944   2
  -1 -10  -7 572.345 472.647   2
   1  10   7 1054.24 420.370   1
  -1 -10  -8 17739.4 1975.83   2
  -1 -10  -9 23758.2 2442.64   2
  -1 -10 -10 2246.62 926.006   2
  -1 -10 -11 6349.24 1454.30   2
  -1 -10 -12-228.594 880.151   2
   1 -11 -12 283.621 739.936   2
  -1  11  11 14177.9 1721.10   1
  -1  11  10 25316.1 2334.21   1
  -1  11   9 6824.73 1191.11   1
  -1  11   8 9710.60 1405.04   1
  -1  11   7 3205.28 856.972   1
  -1 -11   6 9583.86 1352.66   3
  -1  11   6 9484.40 1316.74   1
  -1  11   5 77785.7 3525.84   1
  -1 -11   5 83342.0 3703.04   3
  -1 -11   4 92232.3 3600.66   3
  -1  11   4 87498.5 3596.74   1
  -1  11   3 23741.7 1842.50   1
  -1 -11   3 24431.2 1757.81   3
  -1 -11   2 11349.6 1208.49   3
  -1  11   2 13246.0 1318.66   1
  -1 -11   1 1023.90 401.831   3
  -1  11   1 1579.92 564.337   1
  -1  11   0 15137.6 1464.43   1
   1 -11   0 13838.0 834.355   3
  -1 -11   0 13258.1 1162.59   3
   1 -11   1 143398. 3179.84   3
  -1  11  -1 150651. 4605.43   1
  -1  11  -2 89713.9 3491.02   1
   1 -11   2 96927.5 3087.88   3
   1  11   3 10455.5 1143.87   1
  -1  11  -3 8772.47 1148.88   1
  -1  11  -4 11903.6 1410.46   1
  -1 -11  -4 9123.07 1235.01   2
   1  11   4 12123.4 1209.69   1
  -1  11  -5 2984.55 774.944   1
   1  11   5 2653.56 659.363   1
  -1 -11  -5 2777.77 717.627   2
  -1 -11  -6 11863.6 1435.74   2
   1  11   6 14660.2 1268.22   1
  -1 -11  -7 47418.4 3047.48   2
   1  11   7 48694.0 2314.83   1
  -1 -11  -8 16583.8 1937.40   2
  -1 -11  -9 2361.42 972.173   2
  -1 -11 -10 1337.76 824.980   2
  -1 -11 -11-1115.17 1007.58   2
  -1 -11 -12 5479.52 1540.87   2
   1 -12 -12 6650.69 1564.03   2
  -1  12  11 3510.44 1012.03   1
  -1  12  10 171.435 584.389   1
  -1  12   9 420.021 511.995   1
  -1  12   8 29180.1 2442.44   1
  -1 -12   7 17023.8 1912.45   3
  -1  12   7 18414.0 1912.86   1
  -1 -12   6 13417.1 1625.12   3
  -1  12   6 12354.4 1454.48   1
  -1  12   5 4808.03 960.195   1
  -1 -12   5 7080.39 1140.41   3
  -1 -12   4 3617.04 810.598   3
  -1  12   4 4339.90 902.811   1
  -1 -12   3 1489.76 615.935   3
  -1  12   3 928.074 432.871   1
  -1  12   2 61374.1 2904.51   1
  -1 -12   2 65493.7 2883.18   3
  -1 -12   1 26984.0 1820.96   3
  -1  12   1 30248.1 2139.33   1
  -1 -12   0 27566.7 1771.12   3
  -1  12   0 28998.3 2073.86   1
   1 -12   1 687.749 323.595   3
  -1  12  -1 1359.48 594.368   1
   1 -12   2 2486.40 595.663   3
  -1  12  -2 2440.38 689.376   1
   1  12   3 3432.97 753.033   1
  -1  12  -3 3605.60 819.353   1
   1  12   4 92506.9 3457.96   1
  -1  12  -4 95953.4 4000.74   1
  -1  12  -5 19492.2 1963.53   1
  -1 -12  -5 14023.1 1547.60   2
   1  12   5 18419.2 1533.16   1
  -1  12  -6 10363.6 1484.20   1
   1  12   6 7538.01 956.413   1
  -1 -12  -6 7396.99 1232.64   2
  -1 -12  -7 1665.34 841.895   2
   1  12   7 933.093 477.980   1
  -1 -12  -8 240.345 583.475   2
  -1 -12  -9 11841.3 1782.64   2
  -1 -12 -10 16460.7 2276.14   2
  -1 -12 -11 6329.61 1497.68   2
  -1  13  10-294.303 612.552   1
  -1  13   9 18407.5 1971.79   1
  -1  13   8 7203.28 1229.82   1
  -1 -13   8 6709.30 1443.70   3
  -1  13   7 189.105 504.093   1
  -1 -13   7-255.671 617.109   3
  -1 -13   6 5675.24 1181.07   3
  -1  13   6 5078.32 1047.87   1
  -1 -13   5 82560.2 3982.27   3
  -1  13   5 77611.8 3805.26   1
  -1  13   4 9395.52 1337.39   1
  -1 -13   4 7880.73 1202.24   3
  -1 -13   3 29382.8 2234.26   3
  -1  13   3 28450.7 2162.55   1
  -1 -13   2 938.331 507.791   3
  -1  13   2 1405.08 644.499   1
  -1 -13   1 5753.24 941.101   3
  -1  13   1 6215.85 1086.33   1
  -1  13   0 28088.9 2097.46   1
   1 -13   1 74120.6 2547.16   3
  -1  13  -1 74326.3 3545.52   1
  -1  13  -2 1234.06 596.283   1
   1 -13   2 1103.42 468.252   3
   1  13   3 35833.3 2352.78   1
   1 -13   3 33775.9 2269.27   3
  -1  13  -3 32807.8 2401.62   1
  -1  13  -4 314.778 551.613   1
   1  13   4 144.057 412.417   1
  -1  13  -5 4386.97 1046.73   1
   1  13   5 3583.20 746.654   1
  -1 -13  -5 3243.90 895.218   2
  -1  13  -6 1573.75 821.130   1
   1  13   6 1048.16 469.771   1
  -1 -13  -6 1676.03 704.618   2
  -1 -13  -7 28509.5 2484.74   2
   1  13   7 28778.5 2004.99   1
  -1  13  -8 5106.12 1202.76   1
  -1 -13  -8 4308.10 1136.84   2
  -1  13  -9 18811.9 2258.24   1
  -1 -13  -9 13938.3 2000.26   2
  -1  13 -10 2089.73 982.730   1
  -1 -13 -10 2595.95 1180.23   2
  -1  13 -11 2659.59 1037.60   1
  -1 -14  10 1063.98 974.072   3
  -1  14  10 193.729 592.796   1
  -1 -14   9 1193.62 788.186   3
  -1  14   9 1202.24 670.414   1
  -1 -14   8 26793.7 2829.81   3
  -1  14   8 20335.7 2179.61   1
  -1  14   7 4453.62 1091.18   1
  -1 -14   7 4709.06 1260.02   3
  -1 -14   6 37561.1 2960.31   3
  -1  14   6 26663.4 2333.76   1
  -1 -14   5 273.917 518.538   3
  -1  14   5 2440.78 854.011   1
  -1  14   4 6187.83 1114.68   1
  -1 -14   4 7451.74 1327.83   3
  -1  14   3 4277.65 908.272   1
  -1 -14   3 6821.44 1164.65   3
  -1 -14   2 77830.7 3358.83   3
  -1  14   2 83634.0 3702.67   1
  -1  14   1 6249.08 1064.56   1
  -1 -14   1 5748.68 962.903   3
  -1  14   0 35699.6 2505.13   1
  -1  14  -1 2578.09 816.751   1
   1  14   2 16865.7 1729.41   1
  -1  14  -3 493.419 647.039   1
   1  14   3-166.624 431.558   1
  -1  14  -4 73761.8 3832.34   1
   1  14   4 73825.5 3579.91   1
   1 -14   4 78563.2 3839.70   3
  -1 -14  -5 549.603 566.815   2
  -1  14  -5 1328.32 826.417   1
   1  14   5 1154.99 593.782   1
   1  14   6 10023.6 1271.04   1
  -1 -14  -6 9402.69 1494.17   2
  -1  14  -7 3933.11 1027.89   1
  -1 -14  -7 5705.74 1261.98   2
  -1  14  -8 4290.66 1223.66   1
  -1 -14  -8 2624.58 1060.32   2
  -1  14  -9 442.668 757.395   1
  -1 -14  -9 295.811 668.488   2
  -1  14 -10 18461.6 2431.30   1
  -1 -14 -10 14960.2 2447.48   2
  -1 -15  10 2320.86 1140.01   3
  -1  15  10 1432.92 874.444   1
  -1 -15   9 8484.38 1870.74   3
  -1  15   9 10919.4 1686.84   1
  -1  15   8-314.694 518.388   1
  -1 -15   8 229.187 625.466   3
  -1 -15   7-126.839 652.459   3
  -1  15   7-142.013 508.605   1
  -1  15   6 8624.96 1406.45   1
  -1 -15   6 9839.44 1600.11   3
  -1 -15   5 10385.5 1637.69   3
  -1  15   5 9496.63 1473.34   1
  -1 -15   4 8026.41 1387.62   3
  -1  15   4 6734.70 1263.08   1
  -1 -15   3 24921.2 2234.45   3
  -1  15   3 23812.7 2143.09   1
  -1 -15   2 1175.63 612.067   3
  -1  15   2 956.090 575.298   1
  -1 -15   1 3508.50 834.074   3
  -1  15   1 6732.10 1241.81   1
  -1  15   0 31089.3 2465.05   1
  -1  15  -1 22186.0 2172.02   1
   1  15   2 7794.68 1279.77   1
  -1  15  -2 7188.54 1360.30   1
   1  15   3 20281.7 1930.12   1
  -1  15  -3 24062.9 2374.33   1
  -1  15  -4 1178.62 808.918   1
   1  15   4 7985.34 1294.03   1
  -1  15  -5 6899.02 1400.41   1
   1  15   5 6691.54 1169.29   1
  -1 -15  -5 3348.56 1125.24   2
   1  15   6 6339.86 1113.66   1
  -1 -15  -6 6590.26 1259.87   2
  -1 -15  -7 13771.1 1872.60   2
  -1  15  -7 18345.6 2252.64   1
  -1  15  -8 4882.93 1299.08   1
  -1 -15  -8 4319.09 1318.77   2
  -1  15  -9 10424.9 1928.34   1
  -1 -15  -9 5222.13 1427.81   2
  -1  15 -10 2667.31 1245.23   1
  -1 -16   9 1821.69 1091.02   3
  -1  16   9 1174.04 778.757   1
  -1  16   8 4650.84 1172.64   1
  -1 -16   8 4734.03 1384.78   3
  -1 -16   7 11957.1 1842.40   3
  -1  16   7 10961.0 1660.96   1
  -1 -16   6 11901.2 1794.56   3
  -1  16   6 8886.01 1469.38   1
  -1 -16   5 104.951 677.738   3
  -1  16   5-187.855 534.338   1
  -1 -16   4 152.755 576.046   3
  -1  16   4 498.162 703.563   1
  -1 -16   3 14172.7 1679.48   3
  -1  16   3 14536.4 1745.09   1
  -1 -16   2 9909.08 1457.40   3
  -1  16   2 8059.09 1316.30   1
  -1  16   1 5814.32 1135.80   1
  -1  16   0 22935.1 2192.88   1
   1  16   1-439.677 680.632   1
  -1  16  -1-522.189 593.018   1
   1  16   2 170.011 624.905   1
  -1  16  -2 2983.54 986.377   1
   1  16   3 5276.16 1123.80   1
  -1  16  -3 8039.53 1540.20   1
  -1  16  -4 3606.48 1065.04   1
  -1 -16  -4 1917.80 907.369   2
  -1  16  -5 11149.6 1778.48   1
  -1 -16  -5 7897.93 1439.41   2
   1  16   5 7980.06 1310.37   1
  -1  16  -6 17254.1 2265.08   1
   1  16   6 12586.9 1563.35   1
  -1  16  -7 299.697 747.520   1
  -1 -16  -7 1526.14 862.609   2
  -1  16  -8 645.037 903.469   1
  -1 -16  -8 2010.02 1022.12   2
  -1  16  -9 2716.99 1171.42   1
  -1  17   9 3153.38 1129.27   1
  -1  17   8 231.438 590.382   1
  -1 -17   8 514.447 743.538   3
  -1  17   7 629.741 587.284   1
  -1  17   6 6098.43 1297.47   1
  -1 -17   6 7761.52 1747.42   3
  -1 -17   5 2003.28 977.165   3
  -1  17   5 1613.03 838.242   1
  -1  17   4 24635.3 2417.21   1
  -1 -17   4 20904.5 2277.26   3
  -1 -17   3 6589.89 1351.70   3
  -1  17   3 4766.80 1119.77   1
  -1 -17   2 3629.18 945.160   3
  -1  17   2 5422.12 1202.18   1
  -1  17   1 2839.88 966.659   1
  -1  17   0 8115.50 1441.98   1
   1  17   1 13596.5 1988.80   1
  -1  17  -1 9410.10 1532.11   1
   1  17   2 45461.7 3323.90   1
  -1  17  -2 35090.1 2988.75   1
   1  17   3 4019.13 1204.27   1
  -1  17  -3 4081.31 1321.72   1
   1  17   4 2879.96 965.890   1
  -1  17  -4 2963.25 1019.71   1
  -1 -17  -4 3128.71 982.711   2
  -1  17  -5 3611.05 1247.64   1
   1  17   5 1899.26 752.633   1
  -1 -17  -5 1209.17 744.663   2
  -1  17  -6 6554.25 1471.60   1
  -1 -17  -6 3533.42 1135.51   2
  -1  17  -7 6173.93 1555.12   1
  -1 -17  -7 3190.31 1182.16   2
  -1 -18   7 8355.06 1834.49   3
  -1  18   7 10313.9 1746.90   1
  -1 -18   6 1964.57 1038.06   3
  -1  18   6 1059.84 796.168   1
  -1  18   5 3428.09 1125.05   1
  -1 -18   4 237.740 573.837   3
  -1  18   4 828.673 668.461   1
  -1 -18   3 2911.47 988.911   3
  -1  18   3 4186.54 1117.30   1
  -1  18   2 108.901 540.234   1
  -1  18   1 22962.3 2343.08   1
   1  18   0 951.780 956.452   1
  -1  18   0 1196.34 751.386   1
   1  18   1 2131.79 1025.22   1
  -1  18  -1 1203.01 807.435   1
   1  18   2 393.896 731.068   1
  -1  18  -2-100.900 691.077   1
  -1  18  -3 13067.7 2070.32   1
   1  18   3 13904.1 1969.54   1
   1  18   4 298.168 595.769   1
  -1  18  -4 1538.07 1190.15   1
  -1 -18  -4-490.528 710.056   2
  -1 -18  -5 5740.74 1497.93   2
   1  18   5 9894.47 1545.62   1
  -1 -18  -6 2427.79 1105.30   2
  -1  19   2 1211.62 822.352   1
   1  19  -1-4.67955 989.762   1
  -1  19   1 1075.89 917.807   1
   1  19   0 6961.13 1707.85   1
  -1  19   0 4561.93 1199.81   1
   1  19   1 2721.48 1247.49   1
  -1  19  -1 2903.84 1118.87   1
   1  19   2 19987.3 2530.48   1
   1  19   3 838.307 777.645   1
   1  19   4 303.062 645.088   1
  -1 -19  -4 485.677 692.930   2
  -1 -19  -5 225.706 816.705   2
   2   0 -11-245.855 450.781   2
   2   0 -10 48516.4 2377.72   2
  -2   0   9 35.6979 389.440   1
   2   0  -9 896.957 428.199   2
  -2   0   8 115083. 4069.36   1
  -2   0   7 381.370 367.430   1
  -2   0   6 2881.98 712.219   1
  -2   0   5 108.736 254.655   1
  -2   0   4 166048. 4257.41   1
  -2   0   4 192976. 3681.81   3
  -2   0   3 355.155 217.043   3
  -2   0   3 175.858 216.421   1
   2   0  -2 164841. 3190.50   2
  -2   0   2 161885. 3829.52   1
   2   0  -1-32.8542 149.800   2
   2   0  -1-92.2510 158.910   3
  -2   0   1 63.6843 162.080   3
  -2   0   1-50.5764 180.616   1
   2   0   0 6902.71 709.541   3
  -2   0   0 7782.38 764.550   1
   2   0   0 6927.78 673.298   2
   2   0   0 7556.03 693.415   1
  -2   0   0 8332.24 762.457   2
  -2   0  -1 190.921 275.319   2
   2   0   1 0.42711 151.488   1
  -2   0  -1 587.168 294.075   1
  -2   0  -2 228366. 3629.23   1
  -2   0  -2 220655. 4517.60   2
  -2   0  -3 206.937 338.550   2
   2   0   3 105.607 123.008   1
  -2   0  -3-32.1204 134.697   1
  -2   0  -4 177885. 2694.76   1
  -2   0  -4 173139. 4686.95   2
  -2   0  -5-279.217 389.153   2
  -2   0  -6 4026.71 867.404   2
  -2   0  -7 181.448 473.039   2
  -2   0  -8 179257. 5529.86   2
  -2   0  -9-14.1453 554.568   2
  -2   0 -10 383.936 623.905   2
  -2   0 -11-344.856 669.634   2
  -2   0 -12 248.845 723.416   2
  -2   0 -14 7812.07 1747.20   2
   2  -1 -12 685.304 436.637   2
  -2   1  11 28719.5 2666.38   1
   2  -1 -11 27587.5 1996.92   2
   2  -1 -10 12218.1 1253.76   2
  -2   1  10 11563.1 1415.87   1
   2   1 -10 15007.3 1352.32   2
  -2   1   9 12815.1 1373.07   1
   2   1  -9 12421.2 1065.73   2
  -2   1   8 10680.6 1335.27   1
   2   1  -8 7399.75 783.119   2
  -2   1   7 75821.3 3148.08   1
  -2  -1   7 77144.9 3285.15   1
  -2  -1   6 35096.5 2055.13   1
  -2   1   6 36323.2 2109.78   1
  -2  -1   5 113623. 3522.83   1
  -2   1   5 108638. 3464.55   1
  -2  -1   4 1268.63 466.325   1
  -2   1   4 1695.43 379.504   3
  -2  -1   4 966.643 322.707   3
  -2   1   4 1001.98 374.988   1
  -2  -1   3 14457.8 998.744   3
  -2   1   3 15881.9 1266.83   1
  -2   1   3 16117.8 996.772   3
   2   1  -3 15376.0 900.807   2
  -2   1   2 1267.71 391.428   1
  -2   1   2 1180.22 274.936   3
   2  -1  -2 1697.10 359.807   2
  -2  -1   2 1331.41 338.921   3
  -2  -1   2 1171.57 451.943   1
   2   1  -2 1509.52 301.309   2
   2  -1  -1 213288. 3615.27   3
  -2   1   1 219589. 4351.94   1
   2  -1  -1 217681. 3923.68   2
   2   1  -1 208424. 3370.44   2
  -2   1   0 34482.7 1625.56   1
   2   1   0 28961.5 1329.64   2
   2  -1   0 32696.8 1466.41   3
   2  -1   0 32192.6 1484.67   1
  -2  -1   0 38984.1 1781.34   1
  -2  -1   0 38909.6 1638.45   2
   2   1   0 31603.5 1508.99   1
  -2   1  -1 107958. 2693.21   1
   2  -1   1 86502.4 2513.11   3
   2  -1   1 92326.7 2236.39   1
  -2   1  -1 104057. 2821.17   2
  -2  -1  -1 112233. 2907.31   2
   2   1   1 91253.8 2199.13   1
  -2   1  -2 11853.5 879.032   1
  -2  -1  -2 15200.1 991.691   1
   2  -1   2 14756.3 893.631   1
  -2  -1  -2 15213.4 1296.26   2
   2   1   2 12566.6 769.792   1
  -2   1  -2 15797.4 1288.22   2
   2   1   3 235.235 149.645   1
  -2  -1  -3 227.303 259.453   2
   2  -1   3 881.479 282.885   1
  -2   1  -3 608.084 344.535   2
  -2   1  -3 287.855 207.499   1
  -2   1  -4 21780.8 1030.92   1
   2   1   4 19650.2 710.662   1
  -2  -1  -4 21595.7 1624.58   2
  -2   1  -4 22292.2 1731.02   2
  -2   1  -5 181419. 2663.06   1
  -2  -1  -5 175658. 4761.51   2
  -2   1  -5 185859. 5093.95   2
  -2  -1  -6 8012.61 1100.60   2
  -2   1  -6 9383.87 1274.32   2
  -2  -1  -7 60015.1 3108.02   2
  -2   1  -7 57080.5 3137.52   2
  -2  -1  -8 472.477 444.754   2
  -2   1  -8 1306.30 623.421   2
  -2  -1  -9 1266.47 666.526   2
  -2   1  -9 1832.61 777.677   2
  -2  -1 -10 7715.36 1332.47   2
  -2   1 -10 12839.5 1783.82   2
  -2  -1 -11 36884.2 3014.49   2
  -2   1 -11 42174.2 3249.12   2
  -2  -1 -12 97.4004 618.296   2
  -2   1 -12 907.080 864.561   2
  -2  -1 -13 7829.74 1557.53   2
  -2   1 -13 13603.9 2068.59   2
   2  -2 -13 8007.66 1388.81   2
  -2   2  12 890.957 702.079   1
   2  -2 -12 735.895 572.846   2
  -2   2  11-503.401 420.558   1
   2  -2 -11 556.930 508.728   2
  -2   2  10 55508.9 3383.88   1
   2   2 -10 43969.9 2033.02   2
  -2   2   9 31397.5 2185.73   1
   2   2  -9 31622.2 1574.76   2
  -2   2   8 45244.1 2578.15   1
   2   2  -8 42730.0 1666.03   2
  -2   2   7 11633.2 1234.62   1
   2   2  -7 10555.0 751.730   2
  -2   2   6 1429.15 428.361   1
  -2  -2   5 394.745 300.626   3
  -2   2   5 550.962 357.047   1
  -2   2   4 127552. 3662.60   1
  -2  -2   4 131642. 3304.75   3
   2   2  -4 136837. 2303.84   2
  -2   2   3 74000.3 2657.79   1
  -2  -2   3 76623.2 2384.99   3
   2   2  -3 78840.3 1750.24   2
  -2   2   2 132200. 3385.63   1
  -2   2   2 127869. 2467.17   3
   2   2  -2 135216. 2309.65   2
   2  -2  -1 975.348 237.122   3
  -2  -2   1-55.7395 116.087   2
  -2  -2   1 1619.30 366.104   3
  -2  -2   1 1138.73 449.415   1
  -2   2   1 477.163 261.396   1
   2   2  -1 1537.06 316.270   2
   2   2   0 31367.7 1525.55   1
   2  -2   0 32626.6 1380.32   3
   2   2   0 33470.6 1428.87   2
  -2   2   0 35029.6 1702.83   1
   2   2   1 1137.27 312.009   2
   2   2   1 1311.29 306.775   1
  -2  -2  -1 1347.94 437.794   2
  -2   2  -1 1646.70 365.561   1
   2  -2   1 1472.55 312.361   1
   2  -2   2 198567. 3431.78   1
  -2   2  -2 195360. 4390.67   2
   2   2   2 193567. 3226.71   1
   2  -2   3 105143. 2442.70   1
  -2  -2  -3 109892. 3315.35   2
  -2   2  -3 111063. 3534.36   2
   2   2   3 100321. 1906.94   1
  -2   2  -3 102495. 2475.32   1
   2   2   4 170735. 1995.98   1
  -2   2  -4 167730. 3162.44   1
  -2   2  -5 4130.53 806.991   2
  -2  -2  -5 5005.32 876.634   2
  -2   2  -5 5946.06 585.128   1
  -2  -2  -6 907.258 579.841   2
  -2   2  -6 54.0627 487.032   2
  -2   2  -6 340.235 163.704   1
  -2  -2  -7 20485.9 1891.68   2
  -2   2  -7 24755.1 2313.99   2
  -2  -2  -8 37560.9 2664.28   2
  -2   2  -8 35666.9 2758.40   2
  -2  -2  -9 49058.6 3198.77   2
  -2   2  -9 45595.9 3084.70   2
  -2  -2 -10 63658.3 3783.83   2
  -2   2 -10 63994.3 3791.76   2
  -2  -2 -11 1567.06 831.590   2
  -2   2 -11 1437.46 719.880   2
  -2  -2 -12 1766.73 960.854   2
  -2   2 -12-55.8725 707.795   2
  -2  -2 -13 6695.86 1533.61   2
  -2   2 -13 7869.53 1893.74   2
  -2   2 -14 3423.00 1572.19   2
  -2   3  13 1413.26 927.032   1
   2  -3 -13 2172.86 764.107   2
  -2   3  12 38709.2 2904.26   1
   2  -3 -12 39232.8 2697.97   2
  -2   3  11 14246.4 1990.81   1
   2  -3 -11 9191.37 1318.06   2
  -2   3  10 5559.82 1055.76   1
  -2   3   9 2525.80 731.335   1
   2   3  -9 2793.30 482.160   2
  -2   3   8 48603.6 2607.92   1
   2   3  -8 49222.2 1616.91   2
  -2   3   7 24887.9 1809.27   1
   2   3  -7 25997.1 1018.95   2
  -2   3   6 113318. 3722.52   1
   2   3  -6 111373. 1856.12   2
  -2   3   5 117432. 3671.57   1
  -2  -3   5 125338. 3451.34   3
  -2   3   4 109331. 2385.14   3
   2   3  -4 104377. 1624.15   2
   2   3  -3 599.873 152.386   2
  -2  -3   3 307.157 233.673   3
  -2   3   3 908.463 240.321   3
  -2   3   3 565.826 382.675   1
   2   3  -2 114565. 2095.00   2
  -2  -3   2 110267. 2895.62   3
  -2   3   2 115304. 3351.19   1
  -2  -3   1 169337. 3515.33   3
   2   3  -1 156505. 2807.85   2
  -2   3   1 154724. 3696.16   1
  -2  -3   1 168239. 2806.99   2
   2  -3  -1 158501. 2751.41   3
   2   3   0 185393. 3218.39   2
  -2   3   0 191232. 3865.71   1
   2   3   1 121661. 2915.70   1
   2   3   1 122149. 2932.89   2
  -2  -3  -1 142993. 3252.33   2
  -2   3  -1 140203. 3438.18   1
   2   3   2 216570. 3585.95   1
   2  -3   2 226407. 4011.84   1
  -2  -3  -2 230662. 4432.20   2
  -2   3  -2 226686. 4203.09   1
  -2   3  -2 228979. 4809.31   2
   2   3   3 15803.7 838.194   1
   2  -3   3 15876.7 1066.13   1
  -2  -3  -3 17857.7 1384.11   2
  -2   3  -3 13982.0 1277.67   2
  -2  -3  -4 26752.8 1754.84   2
  -2   3  -4 30098.6 1483.82   1
  -2   3  -4 30308.5 2008.94   2
   2   3   4 26638.7 869.624   1
  -2   3  -5 15557.0 1039.13   1
  -2  -3  -5 18573.7 1527.52   2
  -2   3  -5 14535.2 1476.60   2
  -2  -3  -6 193240. 5178.72   2
  -2   3  -6 187789. 3488.28   1
  -2   3  -6 190355. 5379.38   2
  -2  -3  -7 20803.9 1848.44   2
  -2   3  -7 15997.4 988.964   1
  -2   3  -7 18334.7 1786.92   2
  -2  -3  -8 33913.5 2431.65   2
  -2   3  -8 37696.8 2687.45   2
  -2  -3  -9-116.340 493.358   2
  -2   3  -9-133.132 526.282   2
  -2  -3 -10 16261.6 1917.52   2
  -2   3 -10 15319.0 1938.19   2
  -2  -3 -11 1732.43 742.946   2
  -2   3 -11 3893.73 1088.11   2
  -2  -3 -12 11767.5 1835.22   2
  -2   3 -12 10346.8 1843.11   2
  -2  -3 -13 4099.09 1237.53   2
  -2   3 -13 3997.83 1242.47   2
  -2   3 -14 6031.01 1645.77   2
   2  -4 -14 3118.14 1024.22   2
  -2   4  13 7195.36 1408.20   1
   2  -4 -13 6069.88 1173.09   2
  -2   4  12 2145.83 831.517   1
   2  -4 -12 1086.42 617.960   2
  -2   4  11 3458.35 816.109   1
  -2   4  10 2507.35 804.497   1
  -2   4   9 50108.6 2734.94   1
   2   4  -8 687.055 202.705   2
  -2   4   8 1087.32 546.713   1
  -2   4   7 70932.6 3148.40   1
  -2   4   6 12876.9 1301.51   1
  -2  -4   5 57264.2 2482.50   3
  -2   4   5 59930.6 2644.14   1
  -2  -4   4 3967.31 633.358   3
  -2   4   4 4894.95 496.658   3
  -2   4   4 4714.69 796.526   1
   2   4  -3 290030. 2421.16   2
  -2  -4   3 286959. 5006.18   3
  -2   4   3 285989. 5326.96   1
  -2  -4   2 3607.11 577.882   3
   2   4  -2 4438.69 407.420   2
  -2   4   2 4085.09 699.416   1
  -2  -4   1 163714. 3673.90   3
   2  -4  -1 174783. 2626.01   3
   2   4  -1 186669. 2993.96   2
  -2  -4   1 177017. 2783.05   2
  -2   4   1 166287. 4014.62   1
   2  -4   0 21834.5 977.058   3
   2   4   0 25241.9 1217.52   2
  -2   4   0 26506.0 1574.69   1
   2   4   1 292028. 5009.44   1
   2   4   1 293692. 4634.37   2
  -2   4  -1 288983. 5162.96   1
   2   4   2 6768.66 713.011   1
  -2  -4  -2 8036.00 849.133   2
  -2  -4  -3 109367. 3227.04   2
  -2   4  -3 113381. 3103.23   1
   2   4   3 113283. 2527.10   1
  -2   4  -3 108898. 3548.57   2
  -2   4  -4 267.310 303.964   1
  -2  -4  -4 282.414 315.715   2
  -2   4  -4-37.8939 321.675   2
   2   4   4 260.951 147.085   1
  -2   4  -5 37707.0 1798.22   1
  -2  -4  -5 36822.3 2249.10   2
   2   4   5 31823.9 716.986   1
  -2   4  -5 32232.4 2143.99   2
  -2   4  -6 15142.9 1141.15   1
  -2  -4  -6 14181.7 1463.63   2
  -2   4  -6 11075.5 1394.72   2
  -2   4  -7 51705.9 2072.17   1
  -2  -4  -7 52382.3 3018.96   2
  -2   4  -7 47437.8 2896.23   2
  -2  -4  -8 758.141 560.788   2
  -2   4  -8 613.838 597.949   2
  -2   4  -8 1686.78 412.700   1
  -2  -4  -9 28667.0 2460.09   2
  -2   4  -9 26212.7 2342.99   2
  -2  -4 -10 269.830 523.039   2
  -2   4 -10-463.413 722.424   2
  -2  -4 -11 12411.2 1784.01   2
  -2   4 -11 12690.3 1852.13   2
  -2  -4 -12 273.601 820.026   2
  -2   4 -12 300.057 610.598   2
  -2  -4 -13 3674.69 1177.46   2
  -2   4 -13 2810.22 1050.23   2
  -2   4 -14 447.232 751.759   2
  -2   5  14 559.074 773.355   1
   2  -5 -14 242.588 628.587   2
  -2   5  13 2305.95 915.765   1
   2  -5 -13 4364.63 1144.08   2
  -2   5  12 17104.2 1947.30   1
   2  -5 -12 15017.7 1780.31   2
  -2   5  11 48.0288 426.617   1
  -2   5  10 24136.0 2012.95   1
  -2   5   9 7315.81 1081.95   1
  -2   5   8 1186.03 514.938   1
  -2   5   7 18410.2 1648.43   1
  -2  -5   6 103787. 3459.31   3
  -2   5   6 100554. 3610.00   1
  -2  -5   5 1536.30 500.342   3
  -2   5   5 1585.59 505.776   1
  -2   5   5 1935.52 324.844   3
  -2  -5   4 33561.8 1870.07   3
  -2   5   4 39369.4 1210.02   3
  -2  -5   3 2362.14 524.321   3
  -2   5   3 1866.81 497.805   1
  -2  -5   2 3654.10 630.654   3
  -2   5   2 4165.70 701.482   1
  -2  -5   2 3768.57 331.997   2
  -2  -5   1 58611.9 2286.27   3
   2  -5  -1 62768.3 1388.08   3
  -2  -5   1 62771.0 1707.21   2
  -2   5   1 57038.4 2486.08   1
   2  -5   0 220235. 2970.99   3
   2   5   0 225206. 3686.94   2
  -2   5   0 229278. 4859.87   1
  -2  -5  -1-65.5325 228.405   2
  -2   5  -1 436.880 245.939   1
   2   5   1-5.36768 164.449   2
   2   5   2 21454.4 1332.86   1
  -2  -5  -2 20833.7 1382.19   2
   2   5   3 16741.5 1246.42   1
  -2   5  -3 13634.6 1188.52   1
  -2  -5  -3 14730.0 1295.89   2
   2   5   4 64375.3 1956.11   1
  -2   5  -4 68695.3 2674.26   1
  -2  -5  -4 68829.9 2971.10   2
   2   5   5 4706.57 461.297   1
   2   5   5 5026.93 417.728   1
  -2   5  -5 4008.19 683.057   1
  -2   5  -5 4699.43 830.127   2
  -2   5  -6 97803.1 3225.95   1
  -2   5  -6 93372.6 3882.92   2
  -2  -5  -7 233.350 615.767   2
  -2   5  -7 610.091 581.565   2
  -2   5  -7 337.886 318.304   1
  -2  -5  -8 5852.49 1133.27   2
  -2   5  -8 4264.22 1014.49   2
  -2   5  -8 6105.53 863.121   1
  -2  -5  -9-536.269 676.155   2
  -2   5  -9 115.827 547.318   2
  -2  -5 -10 17778.6 2114.96   2
  -2   5 -10 15872.2 1947.47   2
  -2  -5 -11 1263.09 857.028   2
  -2   5 -11-300.948 647.962   2
  -2  -5 -12 28373.1 2866.89   2
  -2   5 -12 28069.8 2841.79   2
  -2  -5 -13 2425.23 1239.74   2
  -2   5 -13 239.595 759.206   2
  -2   6  14 155.084 666.560   1
   2  -6 -14-515.132 804.315   2
  -2   6  13 1153.46 840.751   1
   2  -6 -13 1471.38 869.490   2
  -2   6  12 835.817 658.571   1
   2  -6 -12 2540.74 992.035   2
  -2   6  11 341.393 479.867   1
  -2   6  10 24039.7 2122.15   1
  -2   6   9 32748.8 2384.32   1
  -2   6   8 470.912 437.181   1
  -2   6   7 17688.0 1639.77   1
  -2  -6   6 11695.7 1287.44   3
  -2   6   6 14574.2 1490.00   1
  -2   6   5 5486.18 481.308   3
  -2  -6   5 4005.81 745.769   3
  -2   6   5 4782.29 844.390   1
  -2  -6   4 44049.6 2225.36   3
  -2   6   4 44617.1 914.582   3
  -2   6   4 40490.9 2202.27   1
  -2  -6   3 182552. 4314.10   3
  -2   6   3 165463. 4515.38   1
  -2  -6   2 14861.8 1190.84   3
  -2   6   2 14982.4 1344.74   1
  -2  -6   2 15790.9 658.384   2
  -2  -6   1 38365.8 1896.44   3
  -2  -6   1 37854.7 1268.00   2
  -2   6   1 37824.4 2136.71   1
  -2  -6   0 340.469 220.651   2
  -2   6   0-87.0874 280.110   1
   2  -6   0 142.519 114.932   3
  -2  -6   0 263.177 266.451   3
  -2  -6  -1 9728.49 877.041   2
  -2   6  -1 10857.1 1147.49   1
  -2   6  -2 27248.2 1796.92   1
  -2  -6  -2 29088.0 1655.99   2
  -2   6  -3 191081. 4776.46   1
  -2  -6  -3 192292. 4582.54   2
  -2   6  -4 29828.2 1890.48   1
  -2  -6  -4 32737.7 2090.02   2
   2   6   5 16558.4 849.360   1
   2   6   5 14078.6 993.820   1
  -2   6  -5 17670.0 1468.23   1
  -2  -6  -5 17868.1 1660.50   2
  -2  -6  -6 1313.69 620.992   2
  -2   6  -6 79.5342 257.187   1
  -2   6  -6 1546.89 614.847   2
   2   6   6 777.704 169.963   1
  -2  -6  -7 2770.12 798.308   2
  -2   6  -7 3650.99 836.431   2
  -2   6  -7 4322.42 758.991   1
  -2   6  -8 7740.07 1080.31   1
  -2  -6  -8 11487.4 1620.28   2
  -2   6  -8 9744.49 1494.28   2
  -2  -6  -9 49875.6 3359.61   2
  -2   6  -9 43595.7 3118.52   2
  -2  -6 -10 7288.07 1450.40   2
  -2   6 -10 8049.70 1457.96   2
  -2  -6 -11 3844.00 1208.82   2
  -2   6 -11 3590.79 1082.19   2
  -2   6 -12 31.3244 700.700   2
  -2  -6 -12 1199.65 1066.69   2
  -2   6 -13 4959.19 1421.56   2
   2  -7 -14-61.5390 643.071   2
  -2   7  13 2804.63 1068.91   1
   2  -7 -13 3290.43 1097.50   2
  -2   7  12 21670.5 2195.22   1
  -2   7  11 8247.01 1362.14   1
  -2   7  10 17750.1 1906.06   1
  -2   7   9 441.149 562.533   1
  -2   7   8 1932.44 638.251   1
  -2  -7   7 10585.2 1324.33   3
  -2   7   7 10850.2 1403.72   1
  -2  -7   6 60473.7 2936.39   3
  -2   7   6 61172.9 2994.30   1
  -2  -7   5 80254.2 3169.25   3
  -2   7   5 77115.5 3267.04   1
  -2  -7   4 23551.2 1659.86   3
  -2   7   4 24312.9 1837.36   1
  -2   7   3 453.372 380.338   1
  -2  -7   3-80.9788 321.815   3
  -2  -7   2 8002.27 950.947   3
  -2   7   2 9127.91 1115.01   1
  -2  -7   2 10699.2 571.441   2
  -2  -7   1 99946.8 3165.92   3
  -2  -7   1 90117.2 1967.90   2
  -2   7   1 96411.3 3442.36   1
   2  -7   0 71713.9 1346.38   3
  -2   7   0 74758.8 3053.66   1
  -2  -7   0 71484.7 2585.93   3
  -2  -7  -1 57556.0 2174.25   2
  -2   7  -1 56297.9 2674.16   1
  -2   7  -2 11485.2 1248.85   1
  -2  -7  -2 11095.7 1068.61   2
  -2  -7  -3 949.454 466.826   2
  -2   7  -3 522.569 443.080   1
  -2   7  -4 8226.81 1058.61   1
  -2  -7  -4 11853.3 1347.75   2
   2   7   5 43079.8 1535.66   1
  -2   7  -5 40645.3 2329.68   1
  -2   7  -6 85659.9 3406.85   1
  -2  -7  -6 94905.3 4100.82   2
  -2  -7  -7 21476.0 2084.23   2
  -2   7  -7 14955.4 1674.72   2
  -2  -7  -8 1312.98 791.874   2
  -2   7  -8-27.0718 492.915   2
  -2   7  -8 347.080 399.705   1
  -2  -7  -9 951.444 821.684   2
  -2   7  -9 928.009 684.636   2
  -2  -7 -10 7315.04 1461.85   2
  -2   7 -10 7260.43 1376.81   2
  -2  -7 -11 14990.3 2148.86   2
  -2   7 -11 8673.52 1531.30   2
  -2  -7 -12 2535.16 1128.32   2
  -2   7 -12 4771.91 1275.85   2
  -2   7 -13 7592.76 1590.85   2
   2  -8 -14 14382.3 2115.91   2
  -2   8  13 3684.20 1176.39   1
   2  -8 -13 3761.11 1157.72   2
  -2   8  12 1319.27 701.478   1
  -2   8  11-211.050 590.566   1
  -2   8  10 13782.6 1712.12   1
  -2   8   9 17834.3 1814.79   1
  -2  -8   8 114200. 4601.26   3
  -2   8   8 115055. 4645.99   1
  -2  -8   7 3873.80 923.746   3
  -2   8   7 3505.24 914.204   1
  -2  -8   6 6283.65 1052.38   3
  -2   8   6 6279.59 1054.44   1
  -2  -8   5 1455.93 585.202   3
  -2   8   5 2689.73 790.898   1
  -2  -8   4 40711.6 2207.82   3
  -2   8   4 48172.3 2717.10   1
  -2  -8   3 45550.0 2434.46   3
  -2   8   3 44799.9 2589.25   1
  -2  -8   2 106106. 3454.45   3
  -2  -8   2 105867. 1815.14   2
  -2   8   2 101632. 3730.45   1
  -2  -8   1 5135.59 781.584   3
  -2  -8   1 5472.93 538.339   2
  -2   8   1 4649.31 843.681   1
  -2  -8   0 520.672 234.847   2
  -2   8   0 86.9531 371.899   1
  -2  -8  -1 566.095 323.492   2
  -2   8  -1 1396.87 536.957   1
  -2   8  -2 130070. 4206.20   1
  -2  -8  -2 125037. 3559.61   2
  -2   8  -3 47545.0 2568.30   1
  -2  -8  -3 48547.7 2324.80   2
  -2   8  -4 70242.7 3097.54   1
  -2  -8  -4 73641.1 3201.44   2
   2   8   5 10669.0 870.944   1
  -2   8  -5 7737.06 1163.24   1
  -2  -8  -5 10522.6 1354.18   2
  -2  -8  -6 1663.41 628.586   2
   2   8   6 2771.17 437.723   1
  -2   8  -6 2145.09 721.815   1
  -2  -8  -7 2063.34 884.089   2
  -2   8  -7 1207.67 537.229   1
  -2  -8  -8 62194.0 3752.02   2
  -2  -8  -9 14921.1 1978.30   2
  -2  -8 -10 9948.96 1736.40   2
  -2   8 -10 8229.46 1558.02   2
  -2  -8 -11-944.849 1031.37   2
  -2   8 -11 375.459 610.005   2
  -2  -8 -12 275.382 748.475   2
  -2   8 -12 172.858 709.483   2
  -2   8 -13-216.348 849.633   2
   2  -9 -13 6775.30 1480.20   2
  -2   9  13 6335.15 1360.20   1
  -2   9  12 3802.41 1085.24   1
  -2   9  11 25345.4 2469.52   1
  -2   9  10 733.880 582.228   1
  -2  -9   9-506.567 735.836   3
  -2   9   9 489.249 572.032   1
  -2  -9   8 997.612 579.292   3
  -2   9   8 734.103 480.568   1
  -2  -9   7 75089.0 3751.94   3
  -2   9   7 68807.3 3527.89   1
  -2  -9   6 3529.03 729.298   3
  -2   9   6 3275.61 819.990   1
  -2  -9   5 115623. 4155.40   3
  -2   9   5 117790. 4482.18   1
  -2  -9   4 2292.60 659.438   3
  -2   9   4 2131.29 622.797   1
  -2   9   3 1639.65 624.802   1
  -2  -9   3 968.874 453.914   3
  -2   9   2 2333.02 734.929   1
  -2  -9   2 2810.56 616.433   3
  -2  -9   2 1939.39 268.973   2
  -2  -9   1 98892.9 3394.78   3
  -2  -9   1 105556. 2416.29   2
  -2   9   1 97549.2 3860.76   1
  -2  -9   0 3359.68 524.989   2
  -2   9   0 2115.84 513.747   1
  -2  -9  -1 31083.0 1701.46   2
  -2   9  -1 179355. 5220.16   1
  -2   9  -2 5230.43 905.319   1
  -2  -9  -2 5824.37 861.794   2
  -2   9  -3 618.954 413.857   1
  -2  -9  -3 308.391 377.838   2
  -2   9  -4 158.648 406.711   1
  -2  -9  -4 208.596 405.372   2
   2   9   5 62009.7 2266.38   1
  -2   9  -5 60379.8 3147.96   1
  -2  -9  -5 61168.3 3247.19   2
  -2   9  -6 1286.45 612.582   1
  -2  -9  -6 3028.08 867.828   2
  -2   9  -7 68375.9 3529.91   1
  -2  -9  -7 70177.7 3945.41   2
  -2  -9  -8 2008.57 996.362   2
  -2   9  -8 2327.80 764.774   1
  -2  -9  -9 1405.01 837.856   2
  -2  -9 -10-33.8171 773.769   2
  -2  -9 -11 12730.5 2164.99   2
  -2  10  13 7.18883 573.583   1
  -2  10  12 1670.64 814.064   1
  -2  10  11 5589.86 1265.39   1
  -2  10  10 9499.54 1461.88   1
  -2 -10  10 10849.2 1880.79   3
  -2 -10   9 15084.8 1975.76   3
  -2  10   9 14133.2 1846.42   1
  -2 -10   8 24936.9 2396.73   3
  -2  10   8 23894.6 2230.10   1
  -2 -10   7 278.971 477.188   3
  -2  10   7 1105.61 723.451   1
  -2 -10   6 1232.48 630.924   3
  -2  10   6 2559.49 749.649   1
  -2 -10   5 5768.76 1011.18   3
  -2  10   5 7909.87 1267.37   1
  -2 -10   4 23156.1 1915.36   3
  -2  10   4 20649.3 1944.96   1
  -2 -10   3 50627.0 2623.83   3
  -2  10   3 48722.5 2816.28   1
  -2 -10   2 60261.4 1571.15   2
  -2  10   2 57058.3 2939.22   1
  -2 -10   2 54137.4 2526.86   3
  -2 -10   1 713.854 247.006   2
  -2  10   1 1.20572 405.681   1
  -2  10   0 23.5727 419.728   1
  -2 -10   0 316.979 234.911   2
  -2  10  -1-193.738 440.099   1
  -2  10  -2 21613.5 1818.40   1
  -2 -10  -2 22818.0 1649.75   2
  -2  10  -3 32493.2 2242.90   1
  -2 -10  -3 35729.0 2217.60   2
  -2  10  -4 95790.8 3980.14   1
   2  10   5 4607.67 726.143   1
  -2  10  -5 4922.74 966.507   1
  -2 -10  -5 2903.64 773.986   2
  -2  10  -6 2547.02 805.184   1
  -2 -10  -6 2557.68 807.618   2
  -2  10  -7 410.928 482.137   1
  -2 -10  -7 1249.41 748.795   2
  -2  10  -8 39184.3 2778.10   1
  -2 -10  -8 34613.3 2991.63   2
  -2 -10  -9 9112.38 1807.90   2
  -2  10  -9 5420.12 1128.04   1
  -2 -10 -10 10319.3 1837.15   2
  -2 -10 -11 3164.58 1336.65   2
  -2  11  12 3785.69 1072.31   1
  -2  11  11 8167.96 1510.93   1
  -2 -11  11 12270.1 2001.97   3
  -2 -11  10 3620.71 1239.22   3
  -2  11  10 5246.96 1259.64   1
  -2 -11   9 6149.84 1432.84   3
  -2  11   9 8681.27 1553.20   1
  -2 -11   8 10671.3 1664.84   3
  -2  11   8 10086.9 1562.54   1
  -2 -11   7 5531.71 1194.34   3
  -2  11   7 5575.36 1140.91   1
  -2 -11   6 6010.88 1135.33   3
  -2  11   6 10643.8 1499.16   1
  -2  11   5 43758.0 3012.36   1
  -2 -11   5 37802.2 2525.19   3
  -2  11   4 690.242 593.545   1
  -2 -11   4 950.115 550.090   3
  -2  11   3 1833.48 717.448   1
  -2 -11   3 2073.85 672.455   3
  -2 -11   2 1693.18 329.610   2
  -2  11   2 1451.13 647.664   1
  -2 -11   2 1926.52 592.373   3
  -2 -11   1 31760.7 2068.32   3
  -2 -11   1 29946.9 1474.43   2
  -2  11   1 27421.3 2202.50   1
  -2 -11   0 8046.37 848.374   2
  -2  11   0 8315.34 1230.69   1
  -2  11  -1 32330.5 2327.55   1
  -2 -11  -1-546.514 402.981   2
  -2  11  -2 19314.6 1791.10   1
  -2 -11  -2 18775.4 1568.61   2
  -2  11  -3 2621.93 715.124   1
  -2 -11  -3 2855.76 737.029   2
  -2  11  -4 12541.1 1561.02   1
  -2 -11  -4 14162.4 1583.47   2
   2  11   5 20791.8 1522.11   1
  -2 -11  -5 19919.6 1984.47   2
  -2  11  -6 23549.0 2292.84   1
  -2 -11  -6 20666.6 2071.92   2
  -2  11  -7 10966.4 1589.01   1
  -2 -11  -7 12465.8 1761.64   2
  -2 -11  -8 2682.58 936.681   2
  -2  11  -8 4106.32 1045.00   1
  -2 -11  -9 5838.97 1534.93   2
  -2  11  -9 3153.65 928.781   1
  -2 -11 -10 11799.9 2080.03   2
  -2  12  12 399.302 667.139   1
  -2  12  11 58.2289 565.117   1
  -2 -12  11 1126.03 1141.98   3
  -2 -12  10 2303.79 1124.52   3
  -2  12  10 1742.57 804.309   1
  -2 -12   9 17505.9 2256.63   3
  -2  12   9 16077.8 2073.85   1
  -2 -12   8 7155.76 1389.57   3
  -2  12   8 9350.56 1595.22   1
  -2  12   7 14659.4 1900.43   1
  -2 -12   7 13788.9 1875.50   3
  -2 -12   6 5622.69 1135.38   3
  -2  12   6 4659.83 1158.94   1
  -2  12   5 14783.2 1797.63   1
  -2 -12   5 15170.0 1747.67   3
  -2 -12   4 14369.3 1621.50   3
  -2  12   4 19388.4 1957.56   1
  -2 -12   3 45732.3 2706.63   3
  -2  12   3 41381.6 2757.20   1
  -2 -12   2 32524.7 2285.90   3
  -2  12   2 30470.6 2412.63   1
  -2 -12   1 11591.9 1305.44   3
  -2 -12   1 13426.6 1044.46   2
  -2  12   1 14611.6 1617.86   1
  -2  12   0 216.582 432.794   1
  -2 -12   0 764.311 372.505   2
  -2  12  -1 28176.1 2239.97   1
  -2  12  -2 25459.0 2131.00   1
  -2 -12  -2 30067.3 2092.31   2
  -2  12  -3 29652.7 2292.89   1
  -2 -12  -3 33727.9 2313.29   2
  -2  12  -4 5094.82 1056.10   1
  -2 -12  -4 5224.41 1038.16   2
   2  12   5 1585.67 587.355   1
  -2  12  -5 896.111 609.573   1
  -2  12  -6-306.237 690.826   1
  -2 -12  -6 624.720 723.524   2
  -2  12  -7 5045.18 1134.08   1
  -2 -12  -7 4286.17 1124.91   2
  -2  12  -8 467.892 570.008   1
  -2 -12  -8 57.8026 716.252   2
  -2  12  -9 10626.3 1591.72   1
  -2 -12  -9 10256.6 1793.61   2
  -2 -12 -10 4884.32 1539.79   2
  -2  13  11 1637.35 849.948   1
  -2 -13  10 3518.63 1185.13   3
  -2  13  10 2640.55 1059.91   1
  -2 -13   9 655.010 679.924   3
  -2  13   9 886.614 611.238   1
  -2  13   8 2498.88 963.406   1
  -2 -13   8 1641.40 945.569   3
  -2 -13   7 1362.61 775.397   3
  -2  13   7 957.700 629.666   1
  -2 -13   6 27927.4 2499.55   3
  -2  13   6 27064.7 2510.38   1
  -2  13   5 2261.61 773.297   1
  -2 -13   5 917.980 717.466   3
  -2 -13   4 19095.2 1857.79   3
  -2  13   4 16584.5 1927.81   1
  -2  13   3 2530.97 787.158   1
  -2 -13   3 3840.59 887.663   3
  -2 -13   2 10390.2 1389.54   3
  -2  13   2 9866.26 1496.86   1
  -2 -13   1-11.6161 422.673   3
  -2  13   1 341.408 538.942   1
  -2 -13   0 69512.6 2791.89   2
  -2  13   0 63245.6 3502.71   1
  -2  13  -1 3117.98 887.647   1
  -2  13  -2 6719.17 1216.10   1
  -2 -13  -2 10417.1 1325.49   2
  -2  13  -3 2502.61 866.217   1
  -2 -13  -3 1095.69 565.405   2
   2  13   4 9817.56 1292.05   1
  -2  13  -4 7560.50 1373.34   1
  -2 -13  -4 7740.43 1345.38   2
   2  13   5 4150.18 785.271   1
  -2  13  -5 3083.19 954.194   1
  -2 -13  -5 4186.67 1068.93   2
  -2  13  -6 39540.1 3004.80   1
  -2  13  -7 1493.30 833.151   1
  -2 -13  -7 779.565 763.455   2
  -2  13  -8 1528.32 878.350   1
  -2 -13  -8-336.633 757.798   2
  -2 -13  -9 1786.48 926.045   2
  -2  13  -9 1905.37 886.537   1
  -2  14  10 1588.90 993.121   1
  -2 -14   9 8267.44 1779.07   3
  -2  14   9 7210.46 1457.26   1
  -2 -14   8-60.1694 785.780   3
  -2  14   8 51.4531 582.126   1
  -2 -14   7 12681.1 1868.63   3
  -2  14   7 10721.9 1705.45   1
  -2  14   6 2741.75 974.174   1
  -2 -14   6 2961.35 1108.96   3
  -2  14   5-514.194 656.557   1
  -2 -14   5 1615.61 762.871   3
  -2  14   4 195.213 538.201   1
  -2 -14   4 25.5697 535.125   3
  -2 -14   3 38951.4 2640.16   3
  -2  14   3 44632.4 3082.38   1
  -2 -14   2 388.528 533.497   3
  -2  14   2 238.629 572.815   1
  -2  14   1 14159.0 1750.50   1
  -2  14   0 647.681 673.425   1
  -2  14  -1 9518.56 1422.21   1
  -2 -14  -1-855.806 607.400   2
  -2  14  -2-290.112 639.314   1
  -2 -14  -2 147.877 487.117   2
  -2  14  -3 34588.1 2598.74   1
  -2 -14  -3 35919.1 2691.90   2
   2  14   4 1302.20 708.701   1
  -2  14  -4 2420.45 916.417   1
  -2 -14  -4 2237.13 911.389   2
  -2  14  -5 7586.37 1366.99   1
  -2 -14  -5 8978.58 1470.12   2
  -2  14  -6 548.361 602.303   1
  -2 -14  -6 794.079 845.879   2
  -2  14  -7 5527.49 1329.49   1
  -2 -14  -7 2941.80 999.851   2
  -2  14  -8 551.880 862.046   1
  -2 -14  -8 16.8168 751.355   2
  -2 -14  -9 13006.8 2072.08   2
  -2  15   9 2991.21 1169.62   1
  -2 -15   8 1433.44 848.460   3
  -2  15   8 2341.41 976.696   1
  -2  15   7 86.4423 586.708   1
  -2 -15   7 1811.05 1061.80   3
  -2 -15   6 24410.6 2513.33   3
  -2  15   6 25255.3 2618.46   1
  -2 -15   5 11372.2 1663.20   3
  -2  15   5 8645.53 1526.86   1
  -2 -15   4 10338.2 1528.19   3
  -2  15   4 9901.81 1576.98   1
  -2  15   3 928.400 600.456   1
  -2 -15   3 1509.44 770.682   3
  -2 -15   2 1680.61 724.041   3
  -2  15   2 3369.98 1000.04   1
  -2  15   1 8472.34 1502.70   1
  -2  15   0 50376.3 3337.70   1
  -2  15  -1 7040.92 1301.92   1
  -2  15  -2 7250.25 1305.51   1
  -2 -15  -2 8769.41 1418.59   2
  -2  15  -3 1026.02 601.962   1
  -2 -15  -3 1903.91 812.490   2
   2  15   4 5557.43 1142.26   1
  -2  15  -4 4230.79 1046.58   1
  -2 -15  -4 3959.19 1082.11   2
  -2  15  -5 1369.27 719.870   1
  -2 -15  -5 2019.10 848.929   2
  -2  15  -6 15650.9 2084.83   1
  -2 -15  -6 10884.8 1756.93   2
  -2  15  -7 2637.07 1069.53   1
  -2 -15  -7 1309.59 861.622   2
  -2  15  -8 2667.38 1075.30   1
  -2 -15  -8 2312.01 1033.16   2
  -2  16   7 5687.85 1412.20   1
  -2 -16   7 6204.29 1592.00   3
  -2  16   6 902.718 653.536   1
  -2 -16   6 113.071 567.379   3
  -2  16   5-428.595 605.623   1
  -2 -16   5 279.870 765.604   3
  -2 -16   4 10938.5 1581.03   3
  -2  16   4 9803.58 1582.50   1
  -2  16   3 2133.55 867.547   1
  -2 -16   3 2518.15 918.224   3
  -2 -16   2 14617.7 1798.84   3
  -2  16   2 18722.0 2132.50   1
  -2  16   1 3792.60 1031.50   1
  -2  16   0 697.367 592.980   1
  -2  16  -1 698.417 733.784   1
  -2  16  -2 12006.7 1755.75   1
   2  16   3 8557.66 1465.34   1
  -2  16  -3 6727.94 1374.87   1
  -2 -16  -3 9096.18 1564.90   2
  -2 -16  -4 8917.76 1573.88   2
  -2  16  -5 1234.45 840.808   1
  -2 -16  -5 981.115 884.552   2
  -2  16  -6 142.539 765.641   1
  -2 -16  -6-751.299 890.268   2
  -2  16  -7 2832.76 1064.53   1
  -2 -16  -7 4559.84 1359.63   2
  -2  16  -8 4531.00 1403.08   1
  -2 -17   6-55.0423 651.296   3
  -2  17   5 4334.98 1142.20   1
  -2 -17   5 5860.33 1335.43   3
  -2  17   4 1911.04 824.067   1
  -2 -17   4 4996.40 1217.31   3
  -2  17   3 768.512 785.624   1
  -2 -17   3 292.666 539.546   3
  -2  17   2-351.116 709.705   1
  -2  17   1 7660.95 1444.51   1
  -2  17   0 552.893 814.333   1
  -2  17  -1 3250.10 955.508   1
  -2  17  -2 8336.00 1516.62   1
   2  17   3 1335.56 857.993   1
  -2  17  -3-297.622 583.083   1
  -2  17  -4 1234.00 825.413   1
  -2  17  -5 5669.15 1316.63   1
  -2 -17  -5 6170.03 1511.47   2
  -2 -18   5-13.2558 706.140   3
  -2 -18   4 5949.40 1402.32   3
  -2 -18   3 85.2034 688.429   3
  -2  18   0 1852.36 787.846   1
  -2  18  -1 179.956 657.003   1
   2  18   2 12343.6 1992.98   1
   2  18   3 1188.72 877.718   1
   2  19   1 8878.14 1818.39   1
   2  19   2 3120.82 1287.90   1
  -3   0  10 480.818 625.123   3
  -3   0   9 12423.5 1426.38   3
  -3   0   9 14815.2 1849.30   1
  -3   0   8-348.753 371.221   3
  -3   0   8 580.310 433.671   1
  -3   0   7 891.053 532.905   3
  -3   0   7 85.1181 382.552   1
  -3   0   6-14.6460 330.847   3
  -3   0   6-870.528 776.858   1
  -3   0   5 68527.1 2822.49   3
  -3   0   5 74731.4 3688.42   1
  -3   0   4 20.9371 224.263   3
  -3   0   4-175.323 409.020   1
  -3   0   3 63322.2 3063.70   1
  -3   0   3 70329.3 2592.40   3
  -3   0   2-145.753 371.853   1
  -3   0   1 15808.8 1536.54   1
  -3   0   0 12.2902 330.179   1
  -3   0  -1 137938. 4248.36   1
  -3   0  -1 116435. 3791.18   2
  -3   0  -2 11.5273 400.835   2
  -3   0  -2-224.001 269.702   1
  -3   0  -3 105723. 4340.00   1
  -3   0  -3 53073.4 2871.93   2
  -3   0  -4 585.581 370.666   1
  -3   0  -4 127.692 503.375   2
  -3   0  -5 21932.9 1993.92   2
  -3   0  -6 560.895 517.178   2
  -3   0  -7 73223.4 4114.66   2
  -3   0  -8 1137.75 987.327   2
  -3   0  -9 46579.5 4024.69   2
  -3   0 -10 162.965 892.224   2
  -3   0 -11 18256.3 2863.85   2
  -3   0 -12 1026.87 1061.90   2
  -3   1  11 619.745 704.846   1
  -3   1  10 764.503 589.209   3
  -3  -1  10 61.8241 408.765   3
  -3   1  10 18.9418 489.856   1
  -3   1   9 799.548 556.847   3
  -3  -1   9 412.325 519.364   3
  -3   1   9 246.814 522.950   1
  -3   1   8 72509.0 3096.14   3
  -3  -1   8 70930.5 3220.99   3
  -3   1   7 2862.55 607.371   3
  -3   1   7 3089.00 866.601   1
  -3  -1   7 4227.82 776.697   3
  -3  -1   7 3323.65 1008.09   1
  -3  -1   6 51675.4 2458.46   3
  -3   1   6 50275.6 2291.92   3
  -3   1   6 53978.4 3038.23   1
  -3  -1   6 52406.4 2971.50   1
  -3  -1   5 292.394 367.441   3
  -3   1   5 25.5673 267.330   3
  -3   1   5-250.407 392.129   1
  -3   1   4 10437.4 1266.37   1
  -3   1   4 12618.6 1062.32   3
  -3  -1   4 11438.5 1354.19   1
  -3  -1   4 10806.9 1112.05   3
  -3   1   3 11911.1 1321.33   1
  -3  -1   3 13967.0 1224.08   3
  -3   1   3 12874.6 1058.05   3
  -3  -1   3 14491.4 1459.93   1
  -3   1   2 143936. 4467.93   1
  -3  -1   2 170944. 5144.57   1
  -3  -1   1 4587.55 879.154   1
  -3   1   1 3051.85 643.057   1
  -3   1   0 42638.6 2275.30   1
  -3  -1   0 54270.4 2654.54   1
  -3  -1  -1 432.088 405.655   2
  -3   1  -1-11.9016 332.171   1
  -3  -1  -1 99.1705 280.250   1
  -3  -1  -2 1729.61 596.612   2
  -3   1  -2 1407.62 491.884   2
  -3  -1  -2 1593.24 543.577   1
  -3   1  -3 5899.84 835.180   1
  -3  -1  -3 4957.15 926.710   2
  -3   1  -3 5767.04 989.978   2
  -3   1  -4 85440.7 2907.34   1
  -3  -1  -4 83399.6 3681.38   2
  -3   1  -4 86794.9 3990.00   2
  -3  -1  -5 33076.0 2487.86   2
  -3   1  -5 28844.7 2392.06   2
  -3  -1  -6 52494.0 3630.00   2
  -3   1  -6 38346.9 2870.77   2
  -3  -1  -7 691.201 637.888   2
  -3   1  -7 140.642 528.421   2
  -3  -1  -8 2867.23 1029.90   2
  -3   1  -8 1466.62 752.148   2
  -3  -1  -9 5870.74 1429.11   2
  -3   1  -9 5501.58 1339.53   2
  -3  -1 -10 21195.7 2591.22   2
  -3   1 -10 27068.5 2819.37   2
  -3  -1 -11 13062.7 2102.94   2
  -3  -1 -12 950.058 1014.32   2
  -3   1 -12 1402.44 1153.17   2
  -3  -2  11 9892.53 1521.11   3
  -3   2  11 12204.2 1751.62   1
  -3   2  10 18493.6 1710.65   3
  -3  -2  10 16395.1 1866.31   3
  -3   2  10 16130.6 1878.57   1
  -3   2   9 22179.4 1834.67   3
  -3  -2   9 26508.4 2220.69   3
  -3   2   9 29483.9 2680.77   1
  -3   2   8 5411.52 852.849   3
  -3  -2   8 5147.93 936.619   3
  -3   2   8 6003.95 1098.14   1
  -3   2   7 2782.09 878.155   1
  -3   2   7 3307.20 666.966   3
  -3  -2   7 1535.36 566.834   3
  -3  -2   6 56693.3 2664.10   3
  -3   2   6 63017.7 3214.28   1
  -3   2   6 65420.7 2568.58   3
  -3   2   5 61796.9 3102.38   1
  -3  -2   5 67448.3 3082.79   3
  -3   2   5 63079.1 2392.94   3
  -3   2   4 47030.7 2603.30   1
   3   2  -4 46069.1 1822.79   2
  -3   2   3 62932.4 3019.68   1
  -3  -2   3 57838.1 2554.40   3
  -3  -2   2 1238.17 659.738   1
  -3   2   2 187.759 343.104   1
  -3  -2   2 487.326 288.343   3
  -3   2   1 246.410 345.973   1
  -3  -2   1 146.954 450.657   1
  -3   2   0 41441.3 2374.16   1
  -3  -2   0 39240.8 1959.95   2
  -3   2  -1 90967.0 3452.95   1
  -3  -2  -1 83980.2 3062.28   2
  -3   2  -2 34971.9 2094.03   1
  -3  -2  -2 34032.2 2129.69   2
  -3   2  -3 22854.3 1648.23   1
  -3  -2  -3 19859.5 1716.50   2
  -3   2  -3 21465.9 1837.12   2
  -3   2  -4 8782.75 996.312   1
  -3  -2  -4 9413.58 1377.72   2
  -3   2  -4 6369.43 1148.10   2
  -3  -2  -5 3907.25 959.739   2
  -3   2  -5 2905.11 869.585   2
  -3   2  -5 2828.90 552.499   1
  -3  -2  -6 9839.56 1508.49   2
  -3   2  -6 7805.06 1315.56   2
  -3  -2  -7 26638.6 2433.94   2
  -3   2  -7 29201.4 2543.95   2
  -3  -2  -8 29843.8 2740.80   2
  -3   2  -8 24194.9 2551.39   2
  -3  -2  -9 334.432 622.641   2
  -3   2  -9 686.492 784.337   2
  -3  -2 -10-1431.31 1108.97   2
  -3   2 -10-544.971 808.280   2
  -3  -2 -11 1047.07 1031.11   2
  -3   2 -11-427.158 758.993   2
  -3   2 -12 2094.29 1063.97   2
  -3   3  13 15371.3 2538.42   1
  -3   3  12 2849.16 1007.41   1
  -3  -3  11 6445.95 1265.84   3
  -3   3  11 6034.56 1347.48   1
  -3   3  10-206.221 410.011   3
  -3  -3  10 244.682 484.615   3
  -3   3  10-85.9628 576.591   1
  -3   3   9 4653.90 868.056   3
  -3  -3   9 6049.66 1179.09   3
  -3   3   9 4439.43 1029.90   1
  -3   3   8 1482.49 634.742   1
  -3  -3   8 1649.08 617.906   3
  -3   3   8 1825.10 514.368   3
  -3   3   7 65697.1 3419.77   1
  -3  -3   7 61687.7 3032.19   3
  -3   3   6 14149.6 1563.31   1
  -3  -3   6 13568.6 1325.13   3
  -3   3   6 16088.0 1315.26   3
  -3   3   5 7022.70 1103.30   1
  -3  -3   5 6669.49 1029.08   3
  -3   3   5 8169.12 861.008   3
  -3  -3   4 3360.86 723.848   3
  -3   3   4 4102.48 594.258   3
  -3   3   4 3351.84 815.990   1
  -3   3   3 4554.73 882.062   1
  -3  -3   3 7295.83 908.312   3
   3   3  -3 5937.69 641.520   2
  -3   3   2 11585.2 1332.07   1
  -3  -3   2 11468.4 1125.91   3
  -3   3   1 143992. 4479.86   1
  -3   3   0 31563.7 2042.92   1
  -3  -3   0 33754.0 1795.83   2
  -3  -3  -1 641.237 367.160   2
  -3   3  -1 520.936 370.611   1
  -3  -3  -2 157.356 337.686   2
  -3   3  -2-112.677 288.154   1
  -3  -3  -3 48836.5 2921.42   2
  -3  -3  -4 32628.5 2320.57   2
  -3   3  -4 29614.9 2234.79   2
  -3   3  -4 33078.7 1927.55   1
  -3   3  -5 29808.4 1728.84   1
  -3  -3  -5 36051.8 2571.92   2
  -3   3  -5 31542.2 2510.09   2
  -3   3  -6 8466.94 893.964   1
  -3  -3  -6 7892.45 1340.82   2
  -3   3  -6 7511.04 1311.18   2
  -3  -3  -7 1687.16 921.428   2
  -3   3  -7 807.527 700.539   2
  -3  -3  -8 1252.40 788.717   2
  -3   3  -8 2626.97 943.491   2
  -3  -3  -9 9395.93 1652.14   2
  -3   3  -9 8489.50 1620.93   2
  -3  -3 -10 6004.62 1508.28   2
  -3   3 -10 3075.51 1158.60   2
  -3   3 -11 6605.72 1488.37   2
  -3  -3 -11 11761.2 2051.26   2
  -3   4  13 456.683 637.458   1
  -3   4  12 1564.53 848.910   1
  -3  -4  12 1923.36 965.835   3
  -3  -4  11 362.874 601.508   3
  -3   4  11-474.763 744.319   1
  -3  -4  10 45670.2 3240.60   3
  -3   4  10 40599.0 3070.24   1
  -3   4   9 788.334 623.873   1
  -3   4   9 1876.22 589.452   3
  -3  -4   9 1762.62 722.621   3
  -3  -4   8 706.360 523.192   3
  -3   4   8 163.519 237.616   3
  -3   4   8-43.3784 495.015   1
  -3  -4   7 5037.22 943.764   3
  -3   4   7 4261.31 631.141   3
  -3   4   7 4323.02 889.713   1
  -3   4   6 4170.72 620.256   3
  -3  -4   6 3500.93 723.701   3
  -3   4   6 3574.47 894.073   1
  -3  -4   5 293.998 378.552   3
  -3   4   5 445.453 293.473   3
  -3   4   5-89.7268 358.050   1
  -3   4   4 118906. 4367.45   1
  -3  -4   4 125911. 3875.06   3
  -3   4   3 9399.08 1228.11   1
  -3  -4   3 8445.40 960.096   3
   3   4  -3 7971.10 698.795   2
  -3  -4   2 8541.36 1013.33   3
   3   4  -2 10180.6 863.830   2
  -3   4   2 7054.89 1008.35   1
  -3  -4   1 378.709 284.391   2
   3  -4  -1-93.7359 308.088   3
  -3   4   1-334.327 427.697   1
  -3  -4   0 13879.0 1165.73   2
  -3   4   0 13887.4 1458.66   1
  -3  -4  -1 13741.1 1216.42   2
  -3   4  -1 16241.1 1566.78   1
  -3  -4  -2 216222. 5895.70   2
  -3   4  -2 165892. 4859.59   1
  -3  -4  -3 3505.21 794.882   2
  -3   4  -3 5456.16 896.702   1
  -3  -4  -4 6486.66 1070.71   2
  -3   4  -4 9170.02 1103.98   1
  -3  -4  -5 1036.28 656.128   2
  -3   4  -5-58.0527 462.587   2
  -3   4  -5 1065.50 482.669   1
  -3  -4  -6 24582.3 2177.34   2
  -3   4  -6 29107.4 2469.03   2
  -3   4  -6 26093.4 1735.62   1
  -3  -4  -7 2667.41 852.426   2
  -3   4  -7 3654.87 1117.11   2
  -3  -4  -8 39232.1 3031.34   2
  -3   4  -8 37663.6 3275.18   2
  -3  -4  -9 2987.36 1017.46   2
  -3   4  -9 1246.41 879.453   2
  -3  -4 -10 1038.99 817.811   2
  -3   4 -10 754.786 838.059   2
  -3  -4 -11 282.430 824.541   2
  -3   4 -11 1497.72 1002.79   2
  -3  -5  13 9218.34 1918.92   3
  -3   5  13 7445.31 1499.96   1
  -3  -5  12-421.917 824.815   3
  -3   5  12-180.890 741.883   1
  -3  -5  11 622.615 602.040   3
  -3   5  11-872.946 835.473   1
  -3   5  10 2787.56 900.704   1
  -3  -5  10 2398.81 942.499   3
  -3   5   9 11850.8 1663.97   1
  -3  -5   9 11595.6 1565.10   3
  -3  -5   8 848.975 532.933   3
  -3   5   8 1288.39 407.522   3
  -3   5   8 1411.06 685.369   1
  -3  -5   7 28623.3 2145.04   3
  -3   5   7 31106.6 2497.97   1
  -3   5   6 780.922 575.587   1
  -3  -5   6-29.2294 341.299   3
  -3   5   6 246.885 249.209   3
  -3   5   5 17390.8 1745.07   1
  -3   5   5 18344.4 1019.62   3
  -3  -5   5 21461.9 1870.36   3
  -3  -5   4 540.528 444.037   3
  -3   5   4 158.695 408.000   1
  -3  -5   3 50626.5 2360.55   3
  -3   5   3 62014.0 3169.09   1
  -3  -5   2 7783.62 1032.94   3
  -3   5   2 8037.37 1192.58   1
   3  -5  -1 123891. 3352.26   3
  -3   5   1 123813. 4403.16   1
  -3  -5   0-338.869 305.422   2
  -3   5   0 1960.77 610.864   1
  -3  -5  -1 15779.6 1340.57   2
  -3   5  -1 14374.0 1476.93   1
  -3  -5  -2 10043.9 1127.36   2
  -3   5  -2 8545.60 1158.92   1
  -3  -5  -3 92801.7 3569.23   2
  -3   5  -3 88548.8 3487.53   1
  -3   5  -4-388.028 419.455   1
  -3  -5  -4 8033.37 1135.88   2
  -3  -5  -5 65232.8 3252.55   2
  -3   5  -5 61840.2 2790.24   1
  -3  -5  -6 1408.57 727.515   2
  -3   5  -6 1405.96 834.812   2
  -3   5  -6 1736.46 571.067   1
  -3  -5  -7 531.737 644.795   2
  -3   5  -7-699.237 561.382   2
  -3  -5  -8 2009.13 1000.23   2
  -3   5  -8 947.976 643.064   2
  -3  -5  -9 13056.1 1900.93   2
  -3   5  -9 13698.1 1978.70   2
  -3  -5 -10 1288.49 972.976   2
  -3   5 -10 908.415 889.428   2
  -3  -5 -11 8300.37 1688.46   2
  -3   5 -11 5874.00 1600.56   2
  -3   6  13 3944.44 1310.53   1
  -3  -6  12 3471.27 1212.66   3
  -3   6  12 3040.05 1053.11   1
  -3   6  11 2103.73 943.506   1
  -3  -6  11 567.871 720.308   3
  -3   6  10 12986.9 1771.57   1
  -3  -6  10 15889.2 2055.09   3
  -3  -6   9 3155.64 898.712   3
  -3   6   9 1989.50 845.357   1
  -3   6   8 13044.0 1716.14   1
  -3  -6   8 15621.1 1777.25   3
  -3   6   7 5753.65 1202.35   1
  -3  -6   7 4420.37 918.313   3
  -3   6   6 27177.9 2281.52   1
  -3  -6   6 27172.1 2054.69   3
  -3   6   5 10619.3 1430.32   1
  -3  -6   5 9865.91 1277.84   3
  -3  -6   4 31773.9 2093.28   3
  -3   6   4 35773.1 2583.58   1
  -3  -6   3 7578.03 979.368   3
  -3   6   3 7501.50 1144.57   1
  -3  -6   2 3719.39 759.372   3
  -3   6   2 4335.82 912.292   1
  -3  -6   1 905.417 303.977   2
  -3   6   1 445.173 349.279   1
  -3  -6   0 47295.3 1983.83   2
  -3   6   0 54523.2 2897.00   1
  -3  -6  -1 93294.5 3070.05   2
  -3   6  -1 84655.2 3677.25   1
  -3  -6  -2 39994.5 2170.76   2
  -3   6  -2 39893.7 2583.88   1
  -3  -6  -3 547.740 334.187   2
  -3   6  -3 281.647 342.114   1
  -3  -6  -4 464.299 407.867   2
  -3   6  -4 1572.36 603.421   1
  -3  -6  -5 3033.41 833.588   2
  -3   6  -5 727.584 485.351   1
  -3  -6  -6 35567.7 2644.98   2
  -3   6  -6 34104.1 2250.72   1
  -3  -6  -7 19332.7 2109.57   2
  -3  -6  -8 21535.7 2345.41   2
  -3   6  -8 15300.1 2007.53   2
  -3  -6  -9 297.549 669.181   2
  -3   6  -9 325.729 718.467   2
  -3  -6 -10-610.881 841.522   2
  -3   6 -10-774.887 717.314   2
  -3  -6 -11 1727.88 1071.67   2
  -3   6 -11-711.418 760.141   2
  -3   7  12 1797.13 986.127   1
  -3  -7  12 4036.91 1356.57   3
  -3   7  11 9814.72 1674.10   1
  -3  -7  11 8709.75 1619.03   3
  -3  -7  10 1125.69 750.001   3
  -3   7  10 1118.15 728.525   1
  -3  -7   9 5616.96 1228.93   3
  -3   7   9 5014.49 1214.73   1
  -3   7   8 25081.2 2395.08   1
  -3  -7   8 22701.9 2175.72   3
  -3   7   7 18024.4 1955.68   1
  -3  -7   7 16334.9 1701.12   3
  -3  -7   6 8824.84 1245.49   3
  -3   7   6 10869.9 1520.27   1
  -3  -7   5 14706.5 1536.68   3
  -3   7   5 15406.5 1734.44   1
  -3  -7   4 9163.11 1200.53   3
  -3   7   4 10173.5 1465.06   1
  -3  -7   3 8951.56 1125.17   3
  -3   7   3 9910.95 1328.92   1
  -3  -7   2 38996.2 2299.40   3
  -3   7   2 38661.4 2625.16   1
  -3  -7   1 33555.2 1503.99   2
  -3   7   1 38594.1 2562.46   1
  -3  -7   0 24947.9 1661.63   2
  -3   7   0 20908.3 1968.57   1
  -3  -7  -1 6728.61 804.585   2
  -3   7  -1 17910.9 1815.43   1
  -3  -7  -2 17118.1 1356.51   2
  -3   7  -2 18409.8 1792.76   1
  -3  -7  -3 4120.65 776.625   2
  -3   7  -3 4964.20 980.999   1
  -3  -7  -4 31701.0 2220.42   2
  -3   7  -4 32205.3 2413.32   1
  -3  -7  -5 17806.0 1823.22   2
  -3   7  -5 23618.1 2033.40   1
  -3  -7  -6 14844.5 1779.92   2
  -3   7  -6 13727.7 1594.54   1
  -3  -7  -7 10247.0 1580.99   2
  -3  -7  -8 6847.08 1433.98   2
  -3  -7  -9 5145.94 1390.98   2
  -3  -7 -10 9473.16 1859.08   2
  -3   7 -11 2704.51 1225.43   2
  -3   8  12-315.425 675.487   1
  -3  -8  11 11698.6 1928.49   3
  -3  -8  10 2040.12 900.786   3
  -3   8  10 1915.16 777.001   1
  -3   8   9 8630.50 1521.46   1
  -3  -8   9 7110.73 1422.85   3
  -3   8   8 14813.5 1902.84   1
  -3  -8   8 16019.6 1866.94   3
  -3  -8   7 183.912 419.703   3
  -3   8   7 554.780 648.504   1
  -3  -8   6 561.015 485.896   3
  -3   8   6 1142.07 687.983   1
  -3  -8   5 46088.1 2733.49   3
  -3   8   5 44736.9 3153.54   1
  -3  -8   4 3852.23 860.975   3
  -3   8   4 4564.46 1029.37   1
  -3  -8   3 56056.1 2896.61   3
  -3   8   3 61547.2 3403.24   1
  -3  -8   2 11713.9 1295.60   3
  -3   8   2 14433.9 1651.55   1
  -3   8   1 4491.19 1043.50   1
  -3  -8   1 4059.51 529.559   2
  -3  -8   0 2090.05 472.620   2
  -3   8   0 3358.27 837.006   1
  -3   8  -1 36690.2 2667.81   1
  -3  -8  -2 1320.28 492.839   2
  -3   8  -2 888.089 548.876   1
  -3  -8  -3 66742.1 3036.55   2
  -3   8  -3 73182.5 3786.75   1
  -3  -8  -4 6123.89 1063.28   2
  -3   8  -4 6133.84 1157.42   1
  -3  -8  -5 8072.88 1280.34   2
  -3   8  -5 8076.72 1303.90   1
  -3  -8  -6 617.671 576.765   2
  -3   8  -6 2391.67 819.858   1
  -3  -8  -7 10375.5 1582.98   2
  -3  -8  -8 2225.23 922.033   2
  -3  -8  -9 15282.6 2132.95   2
  -3  -8 -10-834.782 850.361   2
  -3  -9  11 2038.59 1032.08   3
  -3   9  11 231.149 617.537   1
  -3   9  10-77.6290 641.100   1
  -3  -9  10 603.253 759.850   3
  -3   9   9 1294.92 817.869   1
  -3  -9   9 2645.62 983.913   3
  -3   9   8 21905.7 2322.34   1
  -3  -9   8 18640.4 2011.67   3
  -3  -9   7 2061.27 725.893   3
  -3   9   7 1418.94 713.057   1
  -3  -9   6 40359.4 2894.11   3
  -3   9   6 45380.3 3321.23   1
  -3  -9   5 337.399 536.822   3
  -3   9   5 280.411 478.555   1
  -3  -9   4 1754.18 598.240   3
  -3   9   4 2535.69 786.227   1
  -3  -9   3 400.685 540.174   3
  -3   9   3 279.269 404.329   1
  -3  -9   2 27679.2 2031.55   3
  -3   9   2 32040.6 2615.05   1
  -3  -9   1-100.756 206.853   2
  -3   9   1 570.321 509.612   1
  -3  -9   0 20593.5 1302.66   2
  -3   9   0 20556.6 2139.81   1
  -3  -9  -1 960.477 441.872   2
  -3   9  -1 1031.61 683.064   1
  -3  -9  -2 873.346 443.916   2
  -3   9  -2 511.922 591.571   1
  -3  -9  -3-22.9687 364.219   2
  -3   9  -3 674.146 563.664   1
  -3  -9  -4 27235.7 2100.02   2
  -3   9  -4 32572.4 2584.69   1
  -3  -9  -5 419.708 546.412   2
  -3   9  -5-111.891 477.642   1
  -3  -9  -6 17203.6 1884.34   2
  -3   9  -6 17907.3 1925.99   1
  -3  -9  -7 732.599 624.661   2
  -3  -9  -8 1478.92 790.966   2
  -3  -9  -9 172.397 655.271   2
  -3  -9 -10 15677.9 2336.44   2
  -3  10  11 4562.13 1360.83   1
  -3  10  10 3123.91 1057.85   1
  -3 -10  10 3554.93 1204.80   3
  -3  10   9 19964.0 2399.12   1
  -3 -10   9 19982.2 2321.29   3
  -3 -10   8 2156.25 807.485   3
  -3  10   8 5008.73 1224.15   1
  -3 -10   7 2519.13 977.770   3
  -3  10   7 592.408 708.506   1
  -3 -10   6 14595.5 1806.53   3
  -3  10   6 10824.1 1665.12   1
  -3 -10   5 33254.4 2457.26   3
  -3  10   5 31646.0 2742.46   1
  -3 -10   4 790.041 494.314   3
  -3  10   4 79.6084 514.869   1
  -3 -10   3 32636.4 2339.99   3
  -3  10   3 32633.3 2737.23   1
  -3  10   2-276.967 521.491   1
  -3 -10   2 131.962 392.703   3
  -3  10   1 3367.94 954.731   1
  -3 -10   0 5148.97 631.289   2
  -3  10   0 6384.88 1252.65   1
  -3 -10  -1 49957.2 2205.21   2
  -3  10  -1 51338.7 3318.01   1
  -3 -10  -2 3219.18 638.148   2
  -3  10  -2-482.464 566.234   1
  -3 -10  -3 10913.4 1279.32   2
  -3  10  -3 12114.8 1621.79   1
  -3 -10  -4 851.245 540.330   2
  -3  10  -4 1356.96 777.755   1
  -3 -10  -5 1779.11 743.692   2
  -3  10  -5 2038.16 856.595   1
  -3 -10  -6 760.203 664.051   2
  -3  10  -6 1514.61 780.375   1
  -3 -10  -7 14348.5 1994.43   2
  -3 -10  -8 2163.71 957.279   2
  -3 -10  -9 7158.27 1631.08   2
  -3  11  10-43.0903 644.143   1
  -3 -11   9 3030.52 1102.68   3
  -3  11   9 2383.60 957.922   1
  -3 -11   8 4458.07 1139.54   3
  -3  11   8 4805.21 1308.21   1
  -3 -11   7 20016.2 2375.75   3
  -3  11   7 17842.8 2295.89   1
  -3 -11   6 5535.96 1196.40   3
  -3  11   6 4208.53 1122.04   1
  -3 -11   5 539.769 529.182   3
  -3  11   5 1460.78 903.532   1
  -3 -11   4 75.1548 415.330   3
  -3  11   4 259.312 536.232   1
  -3 -11   3 24067.4 2119.54   3
  -3  11   3 22958.7 2371.31   1
  -3 -11   2 18106.5 1788.63   3
  -3  11   2 17297.8 2032.48   1
  -3  11   1 20318.1 2192.39   1
  -3  11   0 17264.5 2023.28   1
  -3 -11  -1-36.1046 324.535   2
  -3  11  -1 878.392 653.321   1
  -3 -11  -2 1267.79 521.822   2
  -3  11  -2-202.111 638.990   1
  -3  11  -3 5473.90 1215.77   1
  -3 -11  -3 6514.85 1058.55   2
  -3 -11  -4 20198.2 1940.27   2
  -3  11  -4 20864.4 2158.73   1
  -3 -11  -5 9486.72 1435.43   2
  -3  11  -5 8817.70 1525.01   1
  -3  11  -6 7244.01 1412.14   1
  -3 -11  -6 8466.37 1554.64   2
  -3 -11  -7-146.516 650.147   2
  -3 -11  -8 2642.27 1114.76   2
  -3 -11  -9 1692.39 1081.61   2
  -3 -12   9 1103.93 751.378   3
  -3  12   9 2057.11 1007.85   1
  -3 -12   8-12.3486 601.798   3
  -3  12   8 607.377 786.233   1
  -3 -12   7 3029.46 991.475   3
  -3  12   7 3061.00 1222.26   1
  -3 -12   6 7641.29 1347.45   3
  -3  12   6 7324.96 1507.51   1
  -3 -12   5 1037.69 710.827   3
  -3  12   5 1974.48 824.879   1
  -3 -12   4 16122.4 1825.41   3
  -3  12   4 13815.3 1934.61   1
  -3  12   3 4702.68 1134.86   1
  -3 -12   3 5672.34 1087.73   3
  -3  12   2 442.721 671.973   1
  -3 -12   2-86.2993 397.714   3
  -3  12   1 2055.38 937.964   1
  -3  12   0 7698.07 1449.30   1
  -3  12  -1 7203.65 1419.54   1
  -3 -12  -2-963.084 590.355   2
  -3  12  -2 18422.6 2124.33   1
  -3 -12  -3 4284.14 932.215   2
  -3  12  -3 5107.99 1199.52   1
  -3  12  -4 2594.59 910.391   1
  -3 -12  -4 2245.67 774.255   2
  -3  12  -5-487.009 682.602   1
  -3 -12  -5-143.265 641.858   2
  -3  12  -6 14705.2 1999.00   1
  -3 -12  -6 15102.9 1988.49   2
  -3 -12  -7 7349.78 1514.75   2
  -3 -12  -8 11220.7 1905.03   2
  -3 -13   8 350.762 636.295   3
  -3  13   8 998.999 834.052   1
  -3 -13   7 5858.74 1292.52   3
  -3  13   7 5763.55 1376.79   1
  -3 -13   6 3526.97 1106.96   3
  -3  13   6 5800.11 1341.65   1
  -3 -13   5 4261.68 965.973   3
  -3  13   5 5137.74 1246.58   1
  -3  13   4 1965.99 804.564   1
  -3 -13   4 2860.81 926.198   3
  -3 -13   3 3756.13 874.089   3
  -3  13   3 8870.32 1623.91   1
  -3  13   2 1713.76 769.195   1
  -3  13   1 26215.9 2597.35   1
  -3  13   0 5112.11 1207.73   1
  -3  13  -1 2421.23 1020.43   1
  -3  13  -2-342.031 743.500   1
  -3  13  -3 23326.8 2479.96   1
  -3  13  -4-163.374 641.752   1
  -3 -13  -4 217.145 549.381   2
  -3  13  -5 6313.41 1427.19   1
  -3 -13  -5 9806.53 1594.32   2
  -3 -13  -6 203.162 684.160   2
  -3  13  -6-497.474 851.201   1
  -3 -13  -7-516.438 893.211   2
  -3 -13  -8-175.080 889.723   2
  -3 -14   7 2016.80 966.296   3
  -3  14   7 604.642 680.055   1
  -3 -14   6 3357.27 988.397   3
  -3  14   6 4231.65 1222.39   1
  -3 -14   5 1851.05 908.576   3
  -3  14   5 797.272 697.939   1
  -3 -14   4 17196.3 2046.96   3
  -3  14   4 16725.8 2270.17   1
  -3  14   3 911.314 780.452   1
  -3 -14   3-516.865 576.728   3
  -3  14   2 4398.40 1088.13   1
  -3  14   1 2962.71 1067.55   1
  -3  14   0 6825.26 1430.11   1
  -3  14  -1 2473.11 993.716   1
  -3  14  -2 16126.3 2026.77   1
  -3  14  -3 1370.22 877.420   1
  -3  14  -4 1086.79 794.711   1
  -3 -14  -5 48.4265 814.269   2
  -3  14  -5 902.446 887.603   1
  -3 -14  -6 3403.63 1119.53   2
  -3  14  -6 1185.38 792.207   1
  -3 -14  -7 681.374 886.746   2
  -3 -15   5 7958.23 1563.83   3
  -3  15   5 4575.04 1324.96   1
  -3  15   4 1128.01 810.381   1
  -3 -15   4 1684.32 810.357   3
  -3  15   3 2658.36 1030.56   1
  -3 -15   3 1858.57 789.652   3
  -3  15   2 2343.84 1029.38   1
  -3  15   1 6639.40 1528.33   1
  -3  15   0 2128.34 953.364   1
  -3  15  -1 2446.75 1029.16   1
  -3  15  -2 777.097 736.355   1
  -3  15  -3 4032.10 1233.28   1
  -3  15  -4 1323.45 1015.99   1
  -3  15  -5 6777.57 1519.72   1
  -3  15  -6-1355.14 1057.18   1
  -3  16   2 508.625 673.392   1
  -3  16   1-568.542 794.277   1
  -3  16   0 719.324 699.946   1
  -3  16  -1 6379.67 1495.60   1
  -3  16  -2 4359.55 1220.63   1
  -3  16  -3 1824.78 1032.17   1
  -3  16  -4 296.710 741.621   1
  -4   0  11 659.726 548.614   3
  -4   0  10 6900.42 1206.46   3
  -4   0   9 384.253 578.720   3
  -4   0   8 4078.36 1207.55   1
  -4   0   8 3328.82 860.843   3
  -4   0   7-54.3138 420.804   3
  -4   0   7 862.708 753.001   1
  -4   0   6 84869.1 3546.94   3
  -4   0   6 89054.4 4540.78   1
  -4   0   5 493.111 389.378   3
  -4   0   5 239.900 514.108   1
  -4   0   4 13630.1 1707.13   1
  -4   0   3 361.249 481.227   1
  -4   0   2 20943.3 2058.68   1
  -4   0   1-875.661 652.855   1
  -4   0   0 83654.7 3901.38   1
  -4   0  -1 14.6610 471.093   1
  -4   0  -2-909.214 636.675   1
  -4   0  -3 177.771 504.809   2
  -4   0  -4 980.785 590.952   2
  -4   0  -5 853.010 743.570   2
  -4   0  -6 15150.7 2069.43   2
  -4   0  -7-529.152 685.546   2
  -4   0  -8 5062.49 1370.83   2
  -4   0  -9-333.515 757.678   2
  -4  -1  12-298.283 695.251   3
  -4  -1  11-3.17879 550.860   3
  -4  -1  10 3192.31 961.723   3
  -4   1  10 2267.04 1012.06   1
  -4  -1   9 8957.15 1435.40   3
  -4   1   9 9372.70 1344.33   3
  -4   1   9 7822.64 1538.00   1
  -4  -1   8 6268.10 1139.91   3
  -4   1   8 6269.44 1034.10   3
  -4   1   8 5885.14 1330.69   1
  -4  -1   7 9751.10 1316.73   3
  -4   1   7 10501.6 1165.70   3
  -4   1   7 8608.56 1510.97   1
  -4   1   6 1310.71 845.012   1
  -4  -1   6 1255.34 853.344   1
  -4  -1   6-285.662 436.923   3
  -4   1   6 710.636 515.878   3
  -4  -1   5 3994.29 1233.50   1
  -4  -1   5 2416.74 620.444   3
  -4   1   5 2277.39 616.107   3
  -4   1   5 5189.69 1452.81   1
  -4   1   4 11630.8 1673.38   1
  -4  -1   4 13374.6 1871.82   1
  -4   1   3 38045.9 2814.59   1
  -4  -1   3 39085.6 3006.56   1
  -4   1   2 17926.6 1919.87   1
  -4  -1   2 18401.3 2137.70   1
  -4   1   1 18791.7 1964.60   1
  -4  -1   1 22488.2 2362.69   1
  -4  -1   0 4938.03 1168.68   1
  -4   1   0 3885.92 1031.81   1
  -4   1  -1 11550.5 1492.58   1
  -4   1  -2 2829.02 895.553   1
  -4  -1  -2 4531.86 1020.28   2
  -4   1  -3 37350.6 2407.06   1
  -4  -1  -3 31044.4 2367.75   2
  -4  -1  -4 1389.69 789.628   2
  -4   1  -4 499.662 557.404   2
  -4  -1  -5 5548.36 1184.78   2
  -4   1  -5 3854.09 1087.41   2
  -4  -1  -6 1400.08 791.545   2
  -4   1  -6 2538.84 1061.77   2
  -4  -1  -7 8091.36 1602.51   2
  -4   1  -7 8307.37 1698.99   2
  -4  -1  -8 650.834 798.676   2
  -4   1  -8-564.766 825.524   2
  -4  -1  -9 6453.72 1602.95   2
  -4   1  -9 11319.8 2128.09   2
  -4  -2  12 1715.55 858.903   3
  -4   2  11 4735.58 1571.63   1
  -4  -2  11 5735.52 1292.48   3
  -4   2  10 4193.79 1196.94   1
  -4  -2  10 3749.99 1008.24   3
  -4  -2   9-713.578 694.258   3
  -4   2   9 1697.38 847.487   1
  -4   2   8 3139.37 1256.41   1
  -4  -2   8 2259.64 725.335   3
  -4   2   8 1709.61 677.870   3
  -4  -2   7-173.409 399.568   3
  -4   2   7 478.413 438.096   3
  -4   2   7 804.016 832.504   1
  -4   2   6 5918.44 911.457   3
  -4  -2   6 4150.63 779.698   3
  -4   2   6 4948.12 1197.13   1
  -4   2   5 19591.4 2176.65   1
  -4  -2   5 23377.0 1910.87   3
  -4   2   4 19322.9 2134.24   1
  -4  -2   4 15529.8 1529.77   3
  -4   2   3 512.344 642.658   1
  -4   2   2 7945.05 1324.36   1
  -4   2   1 11969.7 1605.74   1
  -4   2   0 16431.0 1748.24   1
  -4   2  -1 17727.3 1865.42   1
  -4   2  -2 13039.3 1585.36   1
  -4  -2  -2 9169.17 1226.07   2
  -4  -2  -3-10.9896 444.665   2
  -4   2  -3 808.485 543.286   1
  -4  -2  -4 6903.72 1280.21   2
  -4  -2  -5 10329.1 1647.42   2
  -4   2  -5 11125.3 1825.63   2
  -4  -2  -6 14278.7 1960.51   2
  -4   2  -6 11225.3 1798.04   2
  -4  -2  -7 6201.32 1441.31   2
  -4   2  -7 5778.84 1268.59   2
  -4  -2  -8 3014.97 1123.13   2
  -4   2  -8 2215.92 1035.60   2
  -4  -2  -9 558.579 958.411   2
  -4   2  -9-547.362 864.978   2
  -4  -3  12 812.803 790.198   3
  -4  -3  11 381.756 608.979   3
  -4  -3  10 630.966 541.434   3
  -4   3  10 2514.59 1017.19   1
  -4  -3   9 7799.52 1463.36   3
  -4   3   9 9089.46 2300.61   1
  -4  -3   8 16133.0 1775.62   3
  -4   3   8 15387.2 2012.05   1
  -4   3   7 1365.16 762.945   1
  -4  -3   7-82.1711 452.070   3
  -4   3   6 167.370 602.988   1
  -4  -3   6 632.878 475.944   3
  -4   3   6-237.199 275.603   3
  -4   3   5 2388.74 861.734   1
  -4  -3   5 2440.63 704.411   3
  -4   3   4 23401.4 2283.80   1
  -4  -3   4 20174.1 1764.37   3
  -4   3   3 6436.32 1224.89   1
  -4   3   2 20892.3 1977.08   1
  -4   3   1 5177.45 1089.87   1
  -4   3   0-162.471 448.192   1
  -4   3  -1 327.461 511.859   1
  -4   3  -2 14296.5 1655.10   1
  -4  -3  -2 15181.0 1538.32   2
  -4   3  -3 563.325 483.965   1
  -4  -3  -3 9732.02 1313.12   2
  -4  -3  -4 20034.9 2040.01   2
  -4  -3  -5 1825.12 883.586   2
  -4  -3  -6 1104.45 739.115   2
  -4   3  -6 811.743 814.500   2
  -4  -3  -7 3327.91 1093.49   2
  -4   3  -7 3797.39 1264.91   2
  -4  -3  -8 3771.12 1149.22   2
  -4   3  -8 2430.02 1147.57   2
  -4  -3  -9 2400.51 1155.62   2
  -4   3  -9 817.736 964.303   2
  -4  -4  11 7413.13 1440.25   3
  -4  -4  10 979.176 731.136   3
  -4   4  10-25.7390 926.862   1
  -4  -4   9 512.153 629.058   3
  -4   4   9 182.775 599.640   1
  -4   4   8-1388.93 917.083   1
  -4  -4   8 231.971 559.011   3
  -4   4   7 24489.5 2441.64   1
  -4  -4   7 21193.0 2014.80   3
  -4  -4   6 3012.22 745.068   3
  -4   4   6 2592.73 976.619   1
  -4   4   5 9291.35 1411.86   1
  -4  -4   5 9106.61 1334.38   3
  -4  -4   4-111.713 376.149   3
  -4   4   4-401.669 573.379   1
  -4   4   3-526.772 494.304   1
  -4   4   2 469.779 597.682   1
  -4   4   1 23473.3 2302.93   1
  -4   4   0 1771.93 741.769   1
  -4   4  -1 34068.0 2630.90   1
  -4  -4  -1 25125.9 1827.03   2
  -4  -4  -2 3818.70 890.184   2
  -4   4  -2 3873.62 1018.62   1
  -4  -4  -3-27.1279 447.323   2
  -4   4  -3 1837.60 780.894   1
  -4  -4  -4 2425.85 875.510   2
  -4  -4  -5 14875.2 1768.92   2
  -4  -4  -6 1059.71 710.350   2
  -4  -4  -7 11870.0 1840.25   2
  -4  -4  -8 1012.48 889.915   2
  -4   4  -8 988.511 909.337   2
  -4  -4  -9 3461.32 1284.96   2
  -4  -5  10 12768.8 1848.43   3
  -4   5  10 13379.8 2062.30   1
  -4   5   9-224.902 703.787   1
  -4  -5   9-771.151 761.711   3
  -4   5   8 15414.1 2095.31   1
  -4  -5   8 16350.5 1868.87   3
  -4  -5   7-208.830 476.850   3
  -4   5   7-853.924 808.665   1
  -4  -5   6 55.3225 391.337   3
  -4   5   6-147.155 542.528   1
  -4  -5   5 1606.18 666.512   3
  -4   5   5 1826.06 831.240   1
  -4   5   4 15141.8 1980.28   1
  -4  -5   4 16796.5 1659.13   3
  -4   5   3 2406.51 932.064   1
  -4   5   2 33013.9 2736.06   1
  -4   5   1 1311.05 669.376   1
  -4   5   0 766.412 584.507   1
  -4   5  -1 2090.94 768.420   1
  -4  -5  -1 2570.08 672.842   2
  -4   5  -2 16651.0 1898.99   1
  -4  -5  -2 19060.9 1750.99   2
  -4   5  -3 522.427 571.178   1
  -4  -5  -3-439.216 483.112   2
  -4  -5  -4 25129.7 2144.44   2
  -4  -5  -6-294.949 624.532   2
  -4  -5  -7 3258.48 1346.66   2
  -4  -5  -8 16135.2 2566.33   2
  -4  -5  -9 1250.98 1131.11   2
  -4   6  10 1619.94 1014.83   1
  -4  -6  10 1500.18 912.441   3
  -4  -6   9 67.7511 629.600   3
  -4   6   9 1753.48 999.775   1
  -4  -6   8 5011.48 1139.91   3
  -4   6   8 4767.52 1234.01   1
  -4  -6   7 7781.80 1309.42   3
  -4   6   7 6109.63 1350.67   1
  -4  -6   6 3760.71 931.432   3
  -4   6   6 5905.12 1369.94   1
  -4   6   5 23343.0 2429.68   1
  -4  -6   5 22200.8 2012.89   3
  -4   6   4 1637.62 710.860   1
  -4  -6   4 1421.51 620.107   3
  -4   6   3 3974.24 1013.94   1
  -4   6   2 7565.25 1461.76   1
  -4   6   1 21078.5 2170.22   1
  -4  -6   0 3271.43 662.987   2
  -4   6   0 3105.92 928.378   1
  -4   6  -1 31274.4 2631.28   1
  -4  -6  -1 26801.9 1913.77   2
  -4  -6  -2 14035.1 1476.92   2
  -4   6  -2 14979.9 1813.15   1
  -4  -6  -3 2025.14 644.798   2
  -4   6  -3 3159.72 927.714   1
  -4   6  -4 6381.98 1171.09   1
  -4  -6  -5 15956.7 1910.76   2
  -4  -6  -6 4185.42 1284.34   2
  -4  -6  -7 9408.86 1819.82   2
  -4  -6  -8 2023.56 1028.33   2
  -4  -7  10 291.843 772.798   3
  -4   7   9 7128.62 1578.57   1
  -4  -7   9 8171.24 1526.48   3
  -4  -7   8 4963.31 1109.14   3
  -4   7   8 5414.56 1303.57   1
  -4  -7   7 850.251 677.365   3
  -4   7   7 1011.54 855.073   1
  -4   7   6 3649.51 1112.24   1
  -4  -7   6 1683.71 691.436   3
  -4   7   5 1184.10 725.647   1
  -4  -7   5 2105.45 777.599   3
  -4   7   4 6769.25 1353.07   1
  -4  -7   4 8455.48 1281.78   3
  -4   7   3 18567.5 2124.59   1
  -4   7   2 4734.02 1153.30   1
  -4   7   1 8438.69 1502.22   1
  -4   7   0-307.043 660.815   1
  -4  -7  -1-610.007 482.627   2
  -4   7  -1 1935.91 864.973   1
  -4  -7  -2 7608.94 1119.75   2
  -4   7  -2 11337.2 1767.57   1
  -4  -7  -3 26469.3 2045.22   2
  -4   7  -3 32171.6 2842.57   1
  -4  -7  -4 1015.65 649.679   2
  -4   7  -4 1152.70 808.367   1
  -4  -7  -5 5138.08 1246.10   2
  -4  -7  -6-567.151 796.480   2
  -4  -7  -7 3056.47 1119.56   2
  -4  -7  -8 4097.66 1483.93   2
  -4  -8   9 274.299 715.401   3
  -4  -8   8 1382.75 717.594   3
  -4   8   8 209.793 715.108   1
  -4   8   7-285.999 768.425   1
  -4  -8   7-182.095 544.737   3
  -4   8   6 19487.3 2404.62   1
  -4  -8   6 15743.9 1707.82   3
  -4   8   5 5425.59 1306.96   1
  -4  -8   5 4347.83 995.521   3
  -4   8   4 2081.14 840.086   1
  -4  -8   4 1478.61 724.309   3
  -4   8   3 228.966 520.770   1
  -4   8   2 6576.30 1460.88   1
  -4   8   1 2887.58 1031.45   1
  -4   8   0 27638.9 2784.16   1
  -4   8  -1 1849.93 1007.84   1
  -4  -8  -2 1051.53 519.310   2
  -4   8  -2 1124.17 840.923   1
  -4  -8  -3-435.844 425.791   2
  -4   8  -3 748.191 619.763   1
  -4  -8  -4 983.878 672.571   2
  -4   8  -4 658.325 747.098   1
  -4  -8  -5-773.597 683.739   2
  -4  -8  -6 11138.4 1721.50   2
  -4  -8  -7-282.974 723.437   2
  -4  -8  -8 1955.06 1128.89   2
  -4   9   8 738.147 978.900   1
  -4  -9   8-36.1817 585.397   3
  -4   9   7 3174.24 1118.75   1
  -4  -9   7 5114.49 1186.38   3
  -4   9   6 3034.59 1092.82   1
  -4  -9   6 3004.05 875.122   3
  -4   9   5 1680.38 858.585   1
  -4  -9   5 786.212 759.588   3
  -4  -9   4 721.138 462.456   3
  -4   9   4-123.846 593.410   1
  -4   9   3 31228.2 3053.07   1
  -4   9   2 676.580 658.878   1
  -4   9   1 7781.36 1618.02   1
  -4   9   0 2058.21 997.714   1
  -4   9  -1 4863.85 1227.04   1
  -4   9  -2-83.6537 637.289   1
  -4  -9  -3 16832.7 1923.00   2
  -4   9  -3 15652.5 2078.63   1
  -4  -9  -4 1084.03 636.362   2
  -4   9  -4 2137.99 896.835   1
  -4  -9  -5 2191.32 888.604   2
  -4  -9  -7 2084.02 1024.35   2
  -4  10   7-345.144 892.667   1
  -4 -10   7-436.362 501.320   3
  -4  10   6 14134.2 2067.78   1
  -4 -10   6 16799.7 2034.75   3
  -4 -10   5 1793.27 795.373   3
  -4  10   5 2231.61 1106.61   1
  -4 -10   4 7935.82 1343.45   3
  -4  10   4 9858.05 1798.91   1
  -4  10   3 814.207 748.914   1
  -4  10   2 1726.77 885.932   1
  -4  10   1 2260.25 1100.41   1
  -4  10   0 14308.0 2056.55   1
  -4  10  -1 306.317 838.457   1
  -4  10  -2 4767.32 1282.91   1
  -4  10  -3-132.930 669.262   1
  -4  10  -4 3068.81 1119.67   1
  -4 -10  -5 2266.87 840.019   2
  -4 -10  -6 9842.36 1674.36   2
  -4 -10  -7 245.901 790.395   2
  -4 -11   6 1315.12 810.107   3
  -4  11   6 646.196 803.503   1
  -4 -11   5-48.9298 528.538   3
  -4  11   5 229.467 829.173   1
  -4 -11   4 7740.35 1381.38   3
  -4  11   4 8495.81 1876.33   1
  -4  11   3 12395.4 2156.90   1
  -4  11   2 3836.33 1161.14   1
  -4  11   1 5627.28 1374.46   1
  -4  11   0 1126.43 937.702   1
  -4  11  -1-119.203 673.606   1
  -4  11  -2 5679.18 1431.41   1
  -4  11  -3 9719.65 1840.49   1
  -4  11  -4 883.233 799.532   1
  -4 -11  -6-659.125 851.080   2
  -4 -11  -7 962.079 832.201   2
  -4  12   4 4908.39 1557.43   1
  -4  12   3 247.134 699.306   1
  -4  12   2 130.231 646.683   1
  -4  12   1 15677.6 2292.19   1
  -4  12   0 3101.48 1208.96   1
  -4  12  -1 7014.54 1634.41   1
  -4  12  -2 4404.14 1355.77   1
  -4  12  -3-807.486 1043.77   1
  -4  12  -4 160.085 757.158   1
  -4  13   2 4552.02 1364.59   1
  -4  13   1-41.2423 761.772   1
  -4  13   0 350.165 792.236   1
  -4  13  -1 2105.22 1040.49   1
  -4  13  -2 6788.00 1726.75   1
  -4  13  -3 423.306 773.583   1
  -4  13  -4 6748.91 1719.71   1
  -4  14  -3 142.976 916.437   1
  -5   1   7 881.295 887.235   1
  -5   1   6 3496.87 1248.53   1
  -5   1   5-645.166 714.864   1
  -5   1   4 13022.5 2057.37   1
  -5   1   3 1754.03 1016.25   1
  -5   1   2 4490.43 1369.51   1
  -5   1   1 1146.91 832.010   1
  -5   1   0 9026.67 1696.62   1
  -5   2   6 894.473 901.814   1
  -5   2   5 1004.10 691.905   1
  -5   2   4 824.127 836.665   1
  -5   2   3 2021.25 1012.79   1
  -5   2   2 6768.06 1721.47   1
  -5   2   1 7929.67 1665.41   1
  -5   2   0 4302.39 1259.18   1
  -5  -2  -5 4153.73 1179.85   2
  -5  -3   8 153.237 548.233   3
  -5  -3   7 1259.01 823.074   3
  -5   3   6 924.654 1080.14   1
  -5   3   5 10249.9 2223.23   1
  -5   3   4 12065.2 2119.67   1
  -5   3   3 3428.42 1191.62   1
  -5   3   2 257.026 769.936   1
  -5   3   1 411.841 727.069   1
  -5   3   0 1386.33 814.249   1
  -5  -3  -4 1962.67 883.984   2
  -5  -3  -5 563.473 695.634   2
  -5  -4   8 3770.24 1071.94   3
  -5  -4   7 658.934 687.332   3
  -5   4   6 2939.67 1213.38   1
  -5   4   5 1864.13 1079.17   1
  -5   4   4 1265.57 965.330   1
  -5   4   3 486.400 1001.98   1
  -5   4   2 15147.4 2250.28   1
  -5   4   1 1553.40 1041.32   1
  -5   4   0 5016.72 1404.53   1
  -5  -4  -4 9474.48 1559.21   2
  -5  -4  -5 427.856 636.639   2
  -5  -5   7-569.809 681.377   3
  -5   5   5 5539.64 1500.44   1
  -5   5   4 286.916 724.307   1
  -5   5   3 2078.85 984.349   1
  -5   5   2 178.784 773.685   1
  -5   5   1 505.161 768.430   1
  -5   5   0 1721.03 1025.83   1
  -5  -5  -4 417.666 609.973   2
  -5  -5  -5 662.765 772.188   2
  -5   6   5 579.116 797.544   1
  -5   6   4 424.503 716.554   1
  -5   6   3-669.555 911.829   1
  -5   6   2 4648.94 1320.23   1
  -5   6   1 1221.51 953.100   1
  -5   6   0 1774.51 887.307   1
  -5   6  -1-1382.00 928.562   1
  -5  -6  -5 2751.84 1037.81   2
  -5   7   4 2993.68 1118.02   1
  -5   7   3 6983.62 1589.46   1
  -5   7   2-34.1587 763.267   1
  -5   7   1 636.456 852.852   1
  -5   7   0 1858.17 1068.82   1
  -5   7  -1 4005.05 1314.19   1
  -5   8   3 3034.82 1276.04   1
  -5   8   2 198.943 943.484   1
  -5   8   1 5744.17 1654.54   1
  -5   8   0 1864.25 1156.85   1
  -5   8  -1 1161.42 769.076   1
  -5   9   1 964.662 907.332   1
  -5   9   0 5828.40 1663.83   1
  -5   9  -1-879.822 1004.05   1
   0   0   0    0.00    0.00   0
TITL 2016-OCT14-KSR-HARSHA-2 in P2(1)/n
REM P2(1)/n (#14 in standard setting)
CELL 0.71073   3.951088  14.330634  11.366982  90.0000  94.5737  90.0000
ZERR    3.00   0.000365   0.001110   0.000955   0.0000   0.0077   0.0000
LATT  1
SYMM -x+1/2, y+1/2,-z+1/2
SFAC C H N O
UNIT 33.00 30.00 3.00 3.00
TREF
HKLF 4
END
;
_shelx_hkl_checksum              30998
_shelx_res_file
;
    2016-oct14-ksr-harsha-2.res created by SHELXL-2014/7
TITL
CELL 0.71073 3.951088 14.330634 11.366982 90 94.5737 90
ZERR 4 0.000365 0.00111 0.000955 0 0.0077 0
LATT 1
SYMM 0.5-X,0.5+Y,0.5-Z
SFAC C H Br N
UNIT 20 12 4 16
L.S. 4
PLAN  20
SIZE 0.23 0.31 0.24
MORE -1
BOND $H
CONF
fmap 2
acta 52
SHEL 999 0.84
REM <olex2.extras>
REM <HklSrc "%.\\2016-OCT14-KSR-HARSHA-2.hkl">
REM </olex2.extras>
WGHT    0.064900    0.237800
EXTI    0.017268
FVAR       7.49617
BR1   3    0.372515    0.444590    0.835888    11.00000    0.04471    0.03537 =
         0.03658    0.00610    0.00063   -0.00695
N2    4   -0.125651    0.188954    0.977152    11.00000    0.03336    0.03064 =
         0.01838    0.00259    0.00178   -0.00085
N1    4    0.108454    0.269015    0.819674    11.00000    0.03683    0.03095 =
         0.01999    0.00195    0.00450    0.00214
N3    4   -0.287783    0.106698    0.996095    11.00000    0.05831    0.03119 =
         0.02517    0.00585    0.00501   -0.00820
N4    4   -0.150504    0.116709    0.805194    11.00000    0.05296    0.03010 =
         0.02497   -0.00643    0.00376   -0.00319
C2    1    0.112455    0.333645    1.015419    11.00000    0.04239    0.03044 =
         0.02330   -0.00628   -0.00110   -0.00216
AFIX  43
H2    2    0.176926    0.382961    1.065469    11.00000   -1.20000
AFIX   0
C3    1    0.174552    0.335917    0.895628    11.00000    0.02162    0.03168 =
         0.02261    0.00236   -0.00139    0.00008
C1    1   -0.043427    0.257827    1.055681    11.00000    0.05190    0.03886 =
         0.01358   -0.00199    0.00413   -0.00076
AFIX  43
H1    2   -0.092446    0.253027    1.134127    11.00000   -1.20000
AFIX   0
C4    1   -0.048163    0.194411    0.861575    11.00000    0.03150    0.02553 =
         0.01474   -0.00035   -0.00082    0.00485
C5    1   -0.290900    0.067974    0.891048    11.00000    0.04247    0.03023 =
         0.03560   -0.00098   -0.00457   -0.00568
AFIX  43
H5    2   -0.385935    0.009346    0.876316    11.00000   -1.20000
AFIX   0
HKLF 4
REM
REM R1 =  0.0407 for     977 Fo > 4sig(Fo)  and  0.0494 for all    1129 data
REM     92 parameters refined using      0 restraints
END
WGHT      0.0649      0.2378
REM Highest difference peak  0.778,  deepest hole -0.484,  1-sigma level  0.120
Q1    1   0.1885  0.4436  0.8982  11.00000  0.05    0.78
Q2    1   0.5817  0.4416  0.7683  11.00000  0.05    0.73
Q3    1  -0.0567  0.2574  0.8464  11.00000  0.05    0.43
Q4    1   0.3991  0.3840  0.8190  11.00000  0.05    0.39
Q5    1  -0.0570  0.0282  0.7413  11.00000  0.05    0.38
Q6    1  -0.2477  0.2589  1.1163  11.00000  0.05    0.37
Q7    1   0.3621  0.5153  0.8387  11.00000  0.05    0.36
Q8    1  -0.0520  0.0857  0.7414  11.00000  0.05    0.35
Q9    1  -0.1138  0.2021  0.9170  11.00000  0.05    0.34
Q10   1  -0.0480  0.1404  0.8369  11.00000  0.05    0.34
Q11   1  -0.3957  0.0351  0.8830  11.00000  0.05    0.34
Q12   1  -0.1722  0.4042  1.0866  11.00000  0.05    0.34
Q13   1  -0.0378  0.4384  0.9523  11.00000  0.05    0.32
Q14   1  -0.3372  0.3382  1.0970  11.00000  0.05    0.31
Q15   1  -0.6473  0.0575  0.8237  11.00000  0.05    0.31
Q16   1  -0.0627  0.2147  1.0053  11.00000  0.05    0.31
Q17   1  -0.2551  0.1365  0.8417  11.00000  0.05    0.30
Q18   1   0.1969  0.5172  0.9183  11.00000  0.05    0.30
Q19   1  -0.4213  0.1022  1.0445  11.00000  0.05    0.30
Q20   1   0.2655  0.2688  0.8530  11.00000  0.05    0.30
;
_shelx_res_checksum              63173
loop_
_space_group_symop_operation_xyz
'x, y, z'
'-x+1/2, y+1/2, -z+1/2'
'-x, -y, -z'
'x-1/2, -y-1/2, z-1/2'
loop_
_atom_site_type_symbol
_atom_site_label
_atom_site_fract_x
_atom_site_fract_y
_atom_site_fract_z
_atom_site_U_iso_or_equiv
_atom_site_adp_type
_atom_site_calc_flag
_atom_site_occupancy
Br Br1 0.37251(12) 0.44459(3) 0.83589(4) 0.0390(3) Uani d 1
N N2 -0.1257(9) 0.1890(2) 0.9772(3) 0.0275(8) Uani d 1
N N1 0.1085(9) 0.2690(2) 0.8197(3) 0.0291(8) Uani d 1
N N3 -0.2878(11) 0.1067(3) 0.9961(3) 0.0381(10) Uani d 1
N N4 -0.1505(10) 0.1167(3) 0.8052(3) 0.0360(10) Uani d 1
C C2 0.1125(11) 0.3336(3) 1.0154(4) 0.0322(10) Uani d 1
H H2 0.1769 0.3830 1.0655 0.039 Uiso calc 1
C C3 0.1746(10) 0.3359(3) 0.8956(3) 0.0255(9) Uani d 1
C C1 -0.0434(12) 0.2578(3) 1.0557(4) 0.0347(11) Uani d 1
H H1 -0.0924 0.2530 1.1341 0.042 Uiso calc 1
C C4 -0.0482(11) 0.1944(3) 0.8616(3) 0.0241(9) Uani d 1
C C5 -0.2909(13) 0.0680(3) 0.8910(4) 0.0365(11) Uani d 1
H H5 -0.3859 0.0093 0.8763 0.044 Uiso calc 1
loop_
_atom_site_aniso_label
_atom_site_aniso_U_11
_atom_site_aniso_U_22
_atom_site_aniso_U_33
_atom_site_aniso_U_12
_atom_site_aniso_U_13
_atom_site_aniso_U_23
Br1 0.0447(4) 0.0354(4) 0.0366(4) -0.00695(19) 0.0006(2) 0.00610(18)
N2 0.0334(19) 0.0306(19) 0.0184(17) -0.0009(16) 0.0018(15) 0.0026(15)
N1 0.037(2) 0.031(2) 0.0200(18) 0.0021(16) 0.0045(16) 0.0020(15)
N3 0.058(3) 0.031(2) 0.025(2) -0.0082(19) 0.0050(18) 0.0059(16)
N4 0.053(3) 0.030(2) 0.0250(19) -0.0032(18) 0.0038(18) -0.0064(16)
C2 0.042(3) 0.030(2) 0.023(2) -0.002(2) -0.0011(19) -0.0063(18)
C3 0.022(2) 0.032(2) 0.023(2) 0.0001(17) -0.0014(16) 0.0024(17)
C1 0.052(3) 0.039(3) 0.014(2) -0.001(2) 0.004(2) -0.0020(18)
C4 0.031(2) 0.026(2) 0.0147(18) 0.0048(18) -0.0008(16) -0.0004(16)
C5 0.042(3) 0.030(2) 0.036(3) -0.006(2) -0.005(2) -0.001(2)
loop_
_atom_type_symbol
_atom_type_description
_atom_type_scat_dispersion_real
_atom_type_scat_dispersion_imag
_atom_type_scat_source
C C 0.0033 0.0016 'International Tables Vol C Tables 4.2.6.8 and 6.1.1.4'
H H 0.0000 0.0000 'International Tables Vol C Tables 4.2.6.8 and 6.1.1.4'
Br Br -0.2901 2.4595 'International Tables Vol C Tables 4.2.6.8 and 6.1.1.4'
N N 0.0061 0.0033 'International Tables Vol C Tables 4.2.6.8 and 6.1.1.4'
loop_
_geom_angle_atom_site_label_1
_geom_angle_atom_site_label_2
_geom_angle_atom_site_label_3
_geom_angle
N3 N2 C4 110.0(3)
C1 N2 N3 128.0(3)
C1 N2 C4 121.9(4)
C3 N1 C4 115.2(3)
C5 N3 N2 101.0(3)
C4 N4 C5 102.2(4)
C3 C2 H2 121.0
C1 C2 H2 121.0
C1 C2 C3 117.9(4)
N1 C3 Br1 115.8(3)
N1 C3 C2 125.8(4)
C2 C3 Br1 118.5(3)
N2 C1 H1 121.4
C2 C1 N2 117.2(4)
C2 C1 H1 121.4
N1 C4 N2 121.9(4)
N4 C4 N2 109.3(4)
N4 C4 N1 128.8(4)
N3 C5 N4 117.5(4)
N3 C5 H5 121.3
N4 C5 H5 121.3
loop_
_geom_bond_atom_site_label_1
_geom_bond_atom_site_label_2
_geom_bond_distance
Br1 C3 1.893(4)
N2 N3 1.367(5)
N2 C1 1.353(5)
N2 C4 1.375(5)
N1 C3 1.303(5)
N1 C4 1.342(5)
N3 C5 1.316(6)
N4 C4 1.331(6)
N4 C5 1.354(6)
C2 H2 0.9300
C2 C3 1.403(6)
C2 C1 1.347(6)
C1 H1 0.9300
C5 H5 0.9300
loop_
_geom_hbond_atom_site_label_D
_geom_hbond_atom_site_label_H
_geom_hbond_atom_site_label_A
_geom_hbond_site_symmetry_A
_geom_hbond_distance_DH
_geom_hbond_distance_HA
_geom_hbond_distance_DA
_geom_hbond_angle_DHA
C1 H1 N1 4_566 0.93 2.52 3.421(6) 164
C5 H5 N3 3_457 0.93 2.61 3.321(6) 133
loop_
_geom_torsion_atom_site_label_1
_geom_torsion_atom_site_label_2
_geom_torsion_atom_site_label_3
_geom_torsion_atom_site_label_4
_geom_torsion
N2 N3 C5 N4 -0.6(6)
N3 N2 C1 C2 -178.9(4)
N3 N2 C4 N1 179.2(4)
N3 N2 C4 N4 -1.2(5)
C3 N1 C4 N2 -1.3(6)
C3 N1 C4 N4 179.1(4)
C3 C2 C1 N2 0.6(6)
C1 N2 N3 C5 -178.7(4)
C1 N2 C4 N1 -1.1(6)
C1 N2 C4 N4 178.6(4)
C1 C2 C3 Br1 176.9(4)
C1 C2 C3 N1 -3.3(7)
C4 N2 N3 C5 1.0(5)
C4 N2 C1 C2 1.4(6)
C4 N1 C3 Br1 -176.6(3)
C4 N1 C3 C2 3.5(6)
C4 N4 C5 N3 -0.1(6)
C5 N4 C4 N2 0.7(5)
C5 N4 C4 N1 -179.6(4)

_cod_database_fobs_code 1544779
