#------------------------------------------------------------------------------
#$Date: 2016-10-19 04:33:43 +0300 (Wed, 19 Oct 2016) $
#$Revision: 187411 $
#$URL: file:///home/coder/svn-repositories/cod/cif/1/54/43/1544311.cif $
#------------------------------------------------------------------------------
#
# This file is available in the Crystallography Open Database (COD),
# http://www.crystallography.net/. The original data for this entry
# were provided by IUCr Journals, http://journals.iucr.org/.
#
# The file may be used within the scientific community so long as
# proper attribution is given to the journal article from which the
# data were obtained.
#
data_1544311
loop_
_publ_author_name
'Madan Kumar, S.'
'Manju, N.'
'Kalluraya, Balakrishna'
'Byrappa, K.'
'Abdoh, M. M. M.'
_publ_section_title
;
 Ethyl (naphthalen-2-yloxy)acetate
;
_journal_coeditor_code           HB4083
_journal_issue                   10
_journal_name_full               IUCrData
_journal_page_first              x161594
_journal_paper_doi               10.1107/S2414314616015947
_journal_volume                  1
_journal_year                    2016
_chemical_formula_iupac          'C14 H14 O3'
_chemical_formula_moiety         'C14 H14 O3'
_chemical_formula_sum            'C14 H14 O3'
_chemical_formula_weight         230.25
_chemical_name_systematic
;
Ethyl (naphthalen-2-yloxy)acetate
;
_space_group_crystal_system      triclinic
_space_group_IT_number           2
_space_group_name_Hall           '-P 1'
_space_group_name_H-M_alt        'P -1'
_symmetry_space_group_name_Hall  '-P 1'
_symmetry_space_group_name_H-M   'P -1'
_atom_sites_solution_hydrogens   geom
_atom_sites_solution_primary     direct
_cell_angle_alpha                106.062(12)
_cell_angle_beta                 102.923(14)
_cell_angle_gamma                103.358(14)
_cell_formula_units_Z            2
_cell_length_a                   6.0504(11)
_cell_length_b                   10.2188(13)
_cell_length_c                   10.8744(16)
_cell_measurement_reflns_used    2265
_cell_measurement_temperature    293(2)
_cell_measurement_theta_max      25.7
_cell_measurement_theta_min      2.2
_cell_volume                     598.14(18)
_computing_cell_refinement
;
<i>CrystalClear SM Expert</i> (Rigaku, 2011)
;
_computing_data_collection
;
<i>CrystalClear SM Expert</i> (Rigaku, 2011)
;
_computing_data_reduction
;
<i>CrystalClear SM Expert</i> (Rigaku, 2011)
;
_computing_molecular_graphics
;
Mercury (Macrae <i>et al.</i>, 2008)
;
_computing_publication_material
;
<i>OLEX2</i> (Dolomanov <i>et al.</i>,  2009)
;
_computing_structure_refinement
;
SHELXL2014 (Sheldrick, 2015)
;
_computing_structure_solution
;
SHELXS97 (Sheldrick, 2008)
;
_diffrn_ambient_temperature      293(2)
_diffrn_measured_fraction_theta_full 0.995
_diffrn_measured_fraction_theta_max 0.995
_diffrn_measurement_device       'AFC12 (Right): Kappa 3 circle'
_diffrn_measurement_device_type  'Rigaku Saturn724+ CCD'
_diffrn_measurement_method       'profile data from \w-scans'
_diffrn_radiation_type           MoK\a
_diffrn_radiation_wavelength     0.71073
_diffrn_reflns_av_R_equivalents  0.0827
_diffrn_reflns_limit_h_max       7
_diffrn_reflns_limit_h_min       -7
_diffrn_reflns_limit_k_max       12
_diffrn_reflns_limit_k_min       -10
_diffrn_reflns_limit_l_max       13
_diffrn_reflns_limit_l_min       -13
_diffrn_reflns_number            6262
_diffrn_reflns_theta_full        25.672
_diffrn_reflns_theta_max         25.672
_diffrn_reflns_theta_min         2.183
_diffrn_standards_number         2265
_exptl_absorpt_coefficient_mu    0.089
_exptl_absorpt_correction_T_max  0.980
_exptl_absorpt_correction_T_min  0.973
_exptl_absorpt_correction_type   multi-scan
_exptl_absorpt_process_details
;
(NUMABS; Rigaku, 1999)
;
_exptl_crystal_colour            colourless
_exptl_crystal_density_diffrn    1.278
_exptl_crystal_description       block
_exptl_crystal_F_000             244
_exptl_crystal_size_max          0.31
_exptl_crystal_size_mid          0.26
_exptl_crystal_size_min          0.23
_refine_diff_density_max         0.164
_refine_diff_density_min         -0.209
_refine_ls_extinction_method     none
_refine_ls_goodness_of_fit_ref   1.035
_refine_ls_hydrogen_treatment    constr
_refine_ls_matrix_type           full
_refine_ls_number_parameters     155
_refine_ls_number_reflns         2265
_refine_ls_number_restraints     0
_refine_ls_restrained_S_all      1.035
_refine_ls_R_factor_all          0.1633
_refine_ls_R_factor_gt           0.0827
_refine_ls_shift/su_max          0.003
_refine_ls_shift/su_mean         0.001
_refine_ls_structure_factor_coef Fsqd
_refine_ls_weighting_details
'w=1/[\s^2^(Fo^2^)+(0.1130P)^2^+0.0443P] where P=(Fo^2^+2Fc^2^)/3'
_refine_ls_weighting_scheme      calc
_refine_ls_wR_factor_gt          0.1993
_refine_ls_wR_factor_ref         0.2589
_reflns_number_gt                1133
_reflns_number_total             2265
_reflns_threshold_expression     'I > 2\s(I)'
_cod_data_source_file            hb4083sup1.cif
_cod_data_source_block           I245
_cod_original_cell_volume        598.15(17)
_cod_database_code               1544311
_shelx_space_group_comment
;
The symmetry employed for this shelxl refinement is uniquely defined
by the following loop, which should always be used as a source of
symmetry information in preference to the above space-group names.
They are only intended as comments.
;
_shelx_estimated_absorpt_t_min   0.972
_shelx_estimated_absorpt_t_max   0.970
_shelx_hkl_file
;
   0   0  -1 45226.4 785.319   2
   0   0   1 31043.9 1031.82   1
   0   0  -2 180149. 2319.46   2
   0   0   2 189544. 3516.69   1
   0   0   2 183570. 2362.59   2
   0   0  -2 174408. 3356.49   1
   0   0  -3 748.507 285.397   1
   0   0   3 1014.44 182.118   4
   0   0  -3 835.644 206.730   2
   0   0   3 649.135 261.515   1
   0   0   3 786.907 197.566   2
   0   0   4 17534.9 761.203   4
   0   0   4 18534.5 1607.33   1
   0   0  -4 17800.3 1078.03   2
   0   0  -4 16790.3 1437.79   1
   0   0   4 18198.2 1139.19   2
   0   0   5 56.2946 47.2894   4
   0   0   5 184.334 164.931   2
   0   0   6 2016.31 460.676   2
   0   0   6 1388.33 176.572   4
   0   0   7 2876.82 215.934   4
   0   0   7 2083.61 1183.64   1
   0   0   7 4293.26 769.136   2
   0   0   8 921.017 95.8694   4
   0   0   8 1348.82 1255.75   1
   0   0   8 2213.88 639.470   2
   0   0   9 333.033 368.926   2
   0   0   9 46.3043 283.083   1
   0   0  10 638.483 381.201   2
   0   0  10-836.056 216.707   1
   0   0  11 2660.10 1879.17   1
   0   0  11 678.019 489.270   2
   0   0  12 266.575 340.275   2
   0   0  12 12.4412 830.995   1
   0   0  13-633.923 1084.42   1
   0   0  13-14.9236 154.593   2
   0   0 -13 562.403 459.853   3
   0   1 -14 14.8570 95.4897   3
   0  -1  14 516.263 418.666   2
   0  -1  14 1051.16 1188.70   1
   0   1 -13 144.752 175.398   3
   0  -1  13-152.167 191.651   2
   0  -1  12-786.572 1050.83   1
   0  -1  12-65.1236 136.958   2
   0  -1  11 695.424 492.727   2
   0  -1  11 1034.17 1326.65   1
   0  -1  10 460.272 307.812   2
   0  -1  10 11.3244 489.995   1
   0  -1   9 1146.31 468.019   2
   0  -1   9 611.302 1085.56   1
   0  -1   8 5880.96 446.291   4
   0  -1   8 7147.87 1042.03   2
   0  -1   7 571.447 274.359   2
   0   1  -7 225.716 82.8252   1
   0  -1   7 277.968 100.816   4
   0  -1   6 65903.8 2503.69   2
   0   1  -6 66554.1 3491.92   1
   0   1  -6 63000.4 2463.29   4
   0  -1   6 65864.9 1743.30   4
   0   1  -5 11736.1 1332.60   1
   0  -1   5 12056.7 930.715   2
   0   1  -5 11648.0 1116.22   4
   0  -1   5 12149.9 751.304   4
   0  -1   4 29376.5 1245.33   4
   0  -1   4 20693.3 1633.95   1
   0   1  -4 23469.9 1479.91   4
   0  -1   4 28556.4 1377.66   2
   0   1  -4 27587.9 1874.63   1
   0   1  -4 24860.8 1335.45   2
   0   1  -3 5179.39 705.313   1
   0   1  -3 4351.92 559.227   4
   0  -1   3 5525.94 509.287   4
   0  -1   3 5688.03 542.450   2
   0  -1   3 5538.48 725.551   1
   0   1  -3 4790.77 529.948   2
   0   1  -2 6823.10 586.673   2
   0   1  -2 5903.15 595.419   1
   0  -1   2 7276.38 556.914   2
   0   1  -2 6038.69 553.181   4
   0  -1   2 6562.51 504.986   4
   0  -1   2 6677.96 620.157   1
   0   1  -1 9.77994 35.6298   4
   0   1  -1 15.0102 36.8371   1
   0  -1   1 161.307 72.4623   1
   0  -1   1 174.431 66.7012   4
   0   1   0 31.1699 24.0226   2
   0  -1   0 9057.98 581.638   2
   0   1   0 17.8475 22.7749   4
   0  -1   0 6668.97 290.620   4
   0   1   1 8907.41 625.941   2
   0  -1  -1 8005.48 573.884   2
   0  -1  -2 279891. 3820.99   2
   0   1   2 289240. 3814.06   2
   0   1   2 281731. 7493.78   1
   0   1   2 292077. 4524.61   1
   0   1   3 1367.91 718.116   1
   0  -1  -3 1744.11 330.871   2
   0   1   3 1053.14 350.051   1
   0   1   3 1050.17 267.308   2
   0   1   4 7372.93 811.605   2
   0   1   4 8619.24 1116.85   1
   0   1   4 5863.54 1682.15   1
   0   1   5 0.66706 93.3852   2
   0   1   5-297.891 462.073   1
   0   1   6 6567.62 2545.04   1
   0   1   6 1474.87 461.008   2
   0   1   7-100.446 514.721   1
   0   1   7 55.8117 159.244   2
   0   1   8 164.647 615.320   1
   0   1   8 193.307 193.392   2
   0   1   9-18.2210 112.629   2
   0   1   9-169.760 428.572   1
   0   1  10 398.926 312.238   2
   0   1  10 1584.27 1543.62   1
   0   1  11 1884.96 1379.46   1
   0   1  11 2535.86 889.944   2
   0   1  12 2396.04 1705.94   1
   0   1  12 274.868 411.616   2
   0   1  13-1406.18 1236.46   1
   0   1  13 407.309 469.707   2
   0  -2  14 139.929 580.558   1
   0   2 -14 560.002 481.808   3
   0  -2  14-12.8125 60.2734   2
   0  -2  13-378.502 271.631   2
   0   2 -13 437.500 398.992   3
   0  -2  13-138.920 540.485   1
   0  -2  12-213.706 323.502   2
   0   2 -12 329.856 270.250   3
   0  -2  11-132.607 240.167   2
   0  -2  11-111.077 577.688   1
   0  -2  10-4.72770 163.433   2
   0  -2  10-503.538 981.130   1
   0   2  -9-87.1981 53.9226   1
   0  -2   9-45.8278 87.3484   2
   0  -2   8 534.661 165.389   4
   0  -2   8 532.359 218.670   2
   0   2  -8 687.959 328.846   4
   0   2  -8 708.922 489.763   1
   0  -2   7 4482.98 507.810   4
   0  -2   7 5367.19 787.830   2
   0   2  -7 3908.15 806.148   4
   0   2  -7 4599.19 997.853   1
   0   2  -6 15910.1 1716.49   1
   0  -2   6 20734.3 1448.52   2
   0   2  -6 18032.9 1698.47   4
   0  -2   6 16988.9 1045.03   4
   0  -2   5 75901.0 2605.55   2
   0   2  -5 69844.9 3095.69   4
   0   2  -5 70016.7 3330.32   1
   0  -2   5 71407.6 2162.12   4
   0   2  -4 467.060 214.573   4
   0  -2   4 302.777 214.815   1
   0  -2   4 252.959 148.855   2
   0  -2   4 421.501 163.921   4
   0   2  -4 388.018 194.258   1
   0   2  -3 15533.9 1196.87   4
   0  -2   3 16061.6 1153.68   2
   0  -2   3 16404.3 1262.29   1
   0   2  -3 15955.1 1182.79   1
   0  -2   3 16818.4 988.821   4
   0  -2   2 216174. 3333.37   4
   0   2  -2 209008. 3520.93   1
   0   2  -2 206645. 2328.90   3
   0  -2   2 218463. 3790.34   1
   0   2  -2 198958. 3780.27   4
   0  -2   1 120034. 2642.11   1
   0  -2   1 114888. 2036.64   4
   0  -2   0 10747.4 511.902   4
   0   2   0 11252.3 841.118   1
   0   2   0 10793.5 639.077   4
   0  -2   0 12076.4 933.686   1
   0   2   0 12554.3 1036.30   2
   0  -2   0 12209.5 946.858   2
   0  -2   0 10960.0 507.760   3
   0   2   1 829455. 9003.83   2
   0  -2  -1 826598. 8046.12   2
   0   2   2 93554.1 2951.96   2
   0   2   2 90058.9 1432.45   4
   0  -2  -2 92777.4 1059.77   4
   0   2   2 86304.2 4287.40   1
   0  -2  -2 84461.9 4296.24   1
   0   2   3 2295.85 503.508   2
   0  -2  -3 2749.46 492.919   2
   0   2   3 2784.45 234.976   4
   0   2   3 1794.43 738.598   1
   0   2   3 3487.99 619.962   1
   0   2   4 308.146 265.206   1
   0   2   4 322.975 243.512   2
   0   2   4 261.887 403.728   1
   0   2   5 34.2282 98.8554   2
   0   2   5 159.663 393.162   1
   0   2   6 108.190 56.1891   2
   0   2   6 31.8462 150.411   1
   0   2   7 1187.29 963.972   1
   0   2   7 650.742 372.934   2
   0   2   8 677.180 936.846   1
   0   2   8-127.008 131.005   2
   0   2   9 799.079 513.324   2
   0   2   9-4.51263 555.201   1
   0   2  10 1147.43 979.185   1
   0   2  10 850.810 518.389   2
   0   2  11 526.187 1036.78   1
   0   2  11 702.074 527.750   2
   0   2  12 1079.14 721.849   2
   0   2  12-979.695 1449.20   1
   0   2  13-442.723 1161.67   1
   0   3 -14 412.146 331.606   3
   0  -3  14 118.927 228.996   2
   0  -3  13 154.892 184.081   2
   0   3 -13 379.161 316.139   3
   0  -3  13 496.317 1112.02   1
   0   3 -12 27.7764 192.609   3
   0  -3  12 1660.57 1237.21   1
   0  -3  12 1163.77 550.539   2
   0  -3  11 8.37838 128.200   2
   0  -3  11-164.111 334.433   1
   0   3 -11-9.21137 169.298   3
   0   3 -10 468.099 493.617   1
   0  -3  10 765.428 350.928   2
   0   3 -10 497.707 246.900   3
   0   3  -9 11.0176 117.684   4
   0   3  -9-174.308 269.424   1
   0  -3   9-23.8583 44.3470   2
   0  -3   8 2197.08 563.214   2
   0   3  -8 2343.36 804.610   1
   0   3  -8 2379.35 750.353   4
   0  -3   7 16276.2 1432.69   2
   0   3  -7 14990.7 1822.09   1
   0   3  -7 15799.1 1811.63   4
   0   3  -6 6540.35 1094.75   4
   0   3  -6 8222.01 1247.36   1
   0  -3   6 10298.2 1101.52   2
   0  -3   6 7718.25 766.088   4
   0   3  -5 172512. 3186.28   3
   0   3  -5 172719. 5104.80   1
   0   3  -5 170830. 5211.51   4
   0  -3   5 175780. 4478.84   2
   0  -3   5 176561. 3672.37   4
   0  -3   4 1652.27 351.296   4
   0  -3   4 1552.07 417.296   2
   0   3  -4 2223.64 507.808   1
   0   3  -4 2364.86 534.250   4
   0  -3   4 2029.17 506.509   1
   0  -3   3 25099.3 1620.50   1
   0  -3   3 21886.6 1214.32   4
   0   3  -3 21657.3 1375.95   1
   0   3  -3 22643.7 1600.16   4
   0   3  -3 22868.1 964.937   3
   0  -3   2 19709.2 629.610   3
   0  -3   2 22201.9 1133.21   4
   0   3  -2 19215.7 1351.24   4
   0   3  -2 20899.3 1236.19   1
   0  -3   2 22141.9 1505.24   1
   0   3  -2 19576.8 905.168   3
   0  -3   1 54442.0 2145.76   1
   0   3  -1 65017.5 1204.14   3
   0  -3   1 60844.5 1654.36   4
   0  -3   1 60480.8 2483.23   2
   0   3  -1 58625.6 2146.06   4
   0  -3   1 56094.9 1509.70   3
   0  -3   0 295308. 3205.83   3
   0   3   0 308724. 5196.80   1
   0   3   0 329489. 4693.17   4
   0  -3   0 330370. 5919.67   2
   0   3   0 348760. 6578.48   2
   0  -3   0 317414. 3295.95   4
   0  -3   0 319402. 5731.56   1
   0  -3  -1 47445.2 2328.32   2
   0   3   1 39845.7 2338.80   2
   0   3   1 43716.5 2409.02   1
   0  -3  -1 42259.6 978.186   4
   0   3   2 9779.72 742.163   4
   0  -3  -2 8536.03 418.595   4
   0  -3  -2 9104.84 1031.78   2
   0   3   2 7156.55 1065.22   2
   0   3   3 2491.42 538.436   1
   0   3   3 2847.81 392.021   4
   0   3   3 2639.89 604.756   2
   0  -3  -3 2810.91 229.823   4
   0   3   3 2021.04 992.361   1
   0   3   4 435.601 246.921   2
   0   3   4 773.380 605.042   1
   0   3   4 794.807 203.032   4
   0   3   5 4265.98 1363.90   1
   0   3   5 3579.64 809.055   2
   0   3   6 11884.8 1595.38   2
   0   3   6 7305.28 2386.91   1
   0   3   7-10.1767 159.983   2
   0   3   7 2466.78 1474.71   1
   0   3   8 771.358 733.305   1
   0   3   8 148.820 370.429   2
   0   3   9 1506.60 1465.13   1
   0   3   9-245.820 267.759   2
   0   3  10 323.166 855.764   1
   0   3  10 66.0986 275.323   2
   0   3  11-601.991 575.167   2
   0   3  11-1531.75 1867.01   1
   0   3  12 469.981 532.080   2
   0   3  12 129.821 687.050   1
   0   3  13 437.772 1122.09   1
   0   4 -15 73.6419 158.671   3
   0  -4  14-81.1399 206.483   2
   0   4 -14 39.2512 148.943   3
   0  -4  14-186.176 758.485   1
   0  -4  13 55.3153 218.305   2
   0   4 -13 432.721 345.900   3
   0  -4  12 298.008 269.739   2
   0  -4  12 456.910 186.907   1
   0   4 -12-86.5624 178.329   3
   0   4 -11 178.680 186.496   4
   0   4 -11 60.5179 207.910   1
   0   4 -11 158.167 213.092   3
   0  -4  11 682.717 337.469   2
   0   4 -10 166.138 24.6723   1
   0   4 -10 240.513 175.521   3
   0   4 -10-37.1438 195.529   4
   0   4  -9 732.004 412.756   4
   0   4  -9 364.374 223.545   3
   0  -4   9 26.9358 144.702   2
   0   4  -9 244.946 315.270   1
   0   4  -8 117.987 144.004   1
   0   4  -8 619.270 425.557   4
   0  -4   8 501.341 300.415   2
   0   4  -8 328.347 198.462   3
   0   4  -7 8404.93 1455.55   4
   0  -4   7 7904.82 1083.60   2
   0   4  -7 8868.53 859.781   3
   0   4  -7 9359.71 1479.10   1
   0   4  -6 23809.9 2075.25   1
   0   4  -6 20739.1 1224.58   3
   0   4  -6 20904.9 2204.02   4
   0  -4   6 23145.2 1844.91   2
   0   4  -5 3631.22 707.661   1
   0  -4   5 3946.62 756.123   2
   0   4  -5 4109.94 530.456   3
   0   4  -5 1843.51 564.819   4
   0   4  -4 33510.8 1972.67   1
   0  -4   4 37754.3 2384.96   1
   0   4  -4 35059.2 2392.93   4
   0   4  -4 35902.2 1438.98   3
   0   4  -3 15593.9 963.909   3
   0   4  -3 16831.3 1301.94   1
   0  -4   3 18296.0 1596.31   1
   0   4  -3 17131.3 1516.64   4
   0  -4   3 15608.9 1078.17   4
   0  -4   2 6739.85 475.554   3
   0  -4   2 7216.94 909.516   1
   0  -4   2 8668.59 739.003   4
   0   4  -2 8092.42 1007.00   4
   0   4  -2 7989.19 517.429   3
   0  -4   1 2306.89 515.442   1
   0   4  -1 3659.87 617.146   4
   0  -4   1 2890.52 617.841   2
   0  -4   1 2841.64 376.579   4
   0  -4   1 2285.02 375.847   3
   0   4  -1 4060.54 642.845   1
   0  -4   0 39023.7 1316.54   4
   0   4   0 36979.5 1901.44   4
   0  -4   0 38585.5 2355.76   2
   0  -4   0 35145.8 1267.60   3
   0  -4   0 36429.3 2339.21   1
   0   4   0 36196.6 1986.21   1
   0  -4  -1 693.208 464.714   1
   0   4   1 1546.51 499.366   2
   0   4   1 867.567 301.121   4
   0  -4  -1 1076.24 186.543   4
   0   4   1 1273.89 423.936   1
   0  -4  -1 655.797 213.444   3
   0   4   2 7968.27 1260.59   2
   0  -4  -2 7232.22 476.824   4
   0   4   2 5499.32 1121.61   1
   0   4   2 5514.63 716.838   4
   0  -4  -2 3460.88 948.237   1
   0   4   3-144.089 256.977   2
   0  -4  -3 168.975 78.8693   4
   0   4   3 180.285 120.062   4
   0   4   3 27.7957 320.292   1
   0   4   4 3932.03 622.727   4
   0   4   4 4651.60 1047.81   2
   0  -4  -4 5132.35 372.520   4
   0   4   4 3065.71 1235.52   1
   0   4   5 2056.55 1175.51   1
   0   4   5 2322.89 440.682   4
   0   4   5 2936.15 795.992   2
   0   4   6 1037.40 892.072   1
   0   4   6 432.248 297.653   2
   0   4   7 1481.78 670.291   2
   0   4   7 1111.17 1157.10   1
   0   4   8 1.96377 152.806   2
   0   4   8 1296.44 1126.89   1
   0   4   9-182.899 245.450   2
   0   4   9 2485.00 1717.58   1
   0   4  10 458.246 546.097   2
   0   4  10 725.373 875.999   1
   0   4  11 605.974 1584.98   1
   0   4  11 884.955 763.743   2
   0   4  12 1791.64 1737.24   1
   0   5 -15-616.789 413.699   3
   0  -5  14 588.084 525.871   2
   0  -5  14 94.0512 559.650   1
   0   5 -14 169.171 253.542   3
   0   5 -13 200.221 278.978   3
   0  -5  13 142.327 924.841   1
   0  -5  13 248.515 307.016   2
   0   5 -12 949.297 602.730   1
   0  -5  12 599.537 389.472   2
   0   5 -12 403.344 249.126   3
   0   5 -11 1125.26 651.996   4
   0   5 -11 3194.29 1273.49   1
   0   5 -11 2333.18 628.036   3
   0  -5  11 2352.14 677.216   2
   0  -5  10 287.480 273.650   2
   0   5 -10 134.842 125.565   3
   0   5 -10 440.404 396.422   4
   0   5 -10 155.606 360.902   1
   0   5  -9 945.704 632.106   1
   0   5  -9 1215.56 384.108   3
   0  -5   9 1175.54 476.168   2
   0   5  -9 2484.51 994.753   4
   0   5  -8 612.843 522.581   4
   0   5  -8-120.457 319.803   1
   0   5  -8 840.196 297.366   3
   0  -5   8 281.511 158.439   2
   0   5  -7 4423.74 1147.61   4
   0  -5   7 4276.55 854.924   2
   0   5  -7 5668.08 1102.40   1
   0   5  -6 498.118 543.293   4
   0  -5   6 184.430 199.373   2
   0   5  -6 243.888 161.250   1
   0   5  -6 453.911 212.399   3
   0   5  -5 41167.2 3010.55   4
   0   5  -5 39668.6 2464.80   1
   0   5  -5 40596.0 1823.25   3
   0   5  -4 4157.90 870.224   4
   0  -5   4 3056.61 795.814   1
   0   5  -4 3329.69 621.583   1
   0   5  -4 3095.48 494.938   3
   0  -5   3 11296.5 536.275   3
   0   5  -3 13019.0 804.336   3
   0   5  -3 11516.5 1375.32   4
   0  -5   3 13922.6 1471.63   1
   0   5  -3 12035.6 1172.81   1
   0   5  -2 132.829 212.350   4
   0   5  -2 183.538 166.127   1
   0  -5   2 111.533 197.921   1
   0  -5   2 29.7165 86.9551   3
   0  -5   1 4679.42 861.017   1
   0   5  -1 5132.54 759.703   1
   0  -5   1 3632.10 531.270   3
   0   5  -1 3940.03 762.084   4
   0   5   0 3369.69 657.757   1
   0   5   0 3256.54 669.085   4
   0  -5   0 1796.47 587.634   1
   0  -5   0 2166.44 367.825   3
   0   5   0 4473.08 1020.80   2
   0   5   1 1514.95 460.439   4
   0   5   1 915.525 496.929   2
   0  -5  -1 197.530 217.148   1
   0  -5  -1 1022.24 285.678   3
   0  -5  -1 1144.77 224.248   4
   0   5   1 826.212 319.806   1
   0   5   2 1142.05 601.447   2
   0  -5  -2 1267.01 235.796   4
   0  -5  -2 1850.82 762.480   1
   0   5   2 1190.18 574.201   1
   0   5   2 186.021 172.951   4
   0   5   3 1248.71 634.234   2
   0  -5  -3 930.182 197.097   4
   0   5   3 553.019 498.407   1
   0   5   3 1273.28 447.690   4
   0  -5  -4 345.673 128.120   4
   0   5   4 472.060 437.570   2
   0   5   4 100.859 389.816   1
   0   5   4 62.6646 167.559   4
   0   5   5 2073.96 1308.97   1
   0   5   5 1073.19 407.812   4
   0   5   5 2139.54 755.990   2
   0   5   6-85.6368 425.754   1
   0   5   6 1406.55 621.784   2
   0   5   7 6364.08 2733.44   1
   0   5   7 4461.79 1339.31   2
   0   5   8 240.852 795.196   1
   0   5   8 1467.71 817.009   2
   0   5   9-756.352 1267.35   1
   0   5   9-167.476 453.635   2
   0   5  10 4417.99 2679.23   1
   0   5  10 397.572 502.953   2
   0   6 -14 328.222 339.160   3
   0  -6  14 255.687 351.494   2
   0  -6  14 1208.71 1618.94   1
   0  -6  13 215.614 204.382   2
   0   6 -13 174.856 155.635   3
   0   6 -12 252.535 244.188   3
   0   6 -12 538.076 505.904   1
   0  -6  12 335.354 304.691   2
   0   6 -12-154.507 269.949   4
   0   6 -11 584.661 660.711   4
   0   6 -11 483.675 494.448   1
   0  -6  11 373.992 304.984   2
   0   6 -11-193.498 150.660   3
   0   6 -10 111.670 111.210   3
   0   6 -10 951.345 892.924   4
   0  -6  10 158.128 231.523   2
   0   6 -10 774.740 571.180   1
   0   6  -9 129.034 106.918   4
   0   6  -9 441.310 566.685   1
   0  -6   9 272.769 290.267   2
   0   6  -9 186.933 148.408   3
   0  -6   8 4786.91 1010.48   2
   0   6  -8 5320.74 768.248   3
   0   6  -8 4037.17 1081.71   1
   0   6  -8 5931.05 1457.48   4
   0   6  -7 5931.21 1166.75   1
   0   6  -7 6688.87 828.827   3
   0  -6   7 4341.24 962.986   2
   0   6  -7 6485.59 1408.71   4
   0   6  -6 4679.83 924.370   1
   0   6  -6 5097.74 1213.67   4
   0   6  -6 5518.25 755.124   3
   0   6  -5 15018.0 1217.40   3
   0   6  -5 15821.0 1562.19   1
   0   6  -5 14243.5 1894.16   4
   0   6  -4 170.468 134.004   3
   0   6  -4 90.3651 122.768   4
   0   6  -4 26.1355 178.864   1
   0  -6   3 647.153 139.185   3
   0   6  -3 696.276 421.639   4
   0   6  -3 53.0066 128.525   1
   0  -6   3 348.561 305.980   1
   0  -6   2 392.710 186.900   3
   0   6  -2 345.970 316.043   4
   0  -6   2 689.977 370.144   1
   0   6  -2 289.633 197.658   1
   0  -6   1 805.157 443.508   1
   0   6  -1 850.585 406.932   4
   0  -6   1 1185.73 321.156   3
   0   6  -1 1431.36 423.975   1
   0   6   0 36539.7 2579.53   4
   0   6   0 31820.8 2010.37   1
   0   6   1 26238.5 2207.76   4
   0   6   1 27564.5 2858.46   2
   0   6   1 21720.2 1839.85   1
   0  -6  -2 486.919 493.038   1
   0   6   2-70.5604 236.545   4
   0   6   2 88.0194 100.385   1
   0   6   2 377.410 434.848   2
   0   6   3 418.679 477.344   1
   0   6   3-173.880 310.131   2
   0   6   3-212.215 235.545   4
   0   6   4-465.205 484.268   1
   0   6   4 335.721 295.913   4
   0   6   4-62.4327 151.038   2
   0   6   5 442.501 298.327   2
   0   6   5 177.269 348.250   1
   0   6   5 429.048 272.546   4
   0   6   6 764.761 670.301   1
   0   6   6 483.140 478.957   2
   0   6   7 246.938 502.988   2
   0   6   7 812.616 833.834   1
   0   6   8 1252.63 1156.14   1
   0   6   8-118.737 217.069   2
   0   6   9 2341.09 1191.86   2
   0  -7  14 430.535 851.577   1
   0  -7  14 228.015 270.681   2
   0   7 -13 1092.80 830.349   1
   0  -7  13 252.370 313.310   2
   0   7 -12 176.707 478.393   1
   0   7 -12 214.494 254.058   3
   0   7 -12-755.898 679.590   4
   0  -7  12 389.579 353.432   2
   0  -7  11-332.785 309.610   2
   0   7 -11 33.0733 322.039   4
   0   7 -11 359.586 268.483   3
   0   7 -11 508.340 549.508   1
   0   7 -10 183.859 365.766   1
   0   7 -10 11.2277 218.414   4
   0  -7  10 22.1579 186.646   2
   0   7 -10 102.906 177.050   3
   0  -7   9 16.7626 118.284   2
   0   7  -9 244.732 329.179   1
   0   7  -9 185.034 289.729   4
   0   7  -9 5.70886 138.882   3
   0  -7   8 100.654 192.368   2
   0   7  -8 85.4564 120.410   3
   0   7  -8 79.3469 239.321   4
   0   7  -8-205.658 360.409   1
   0   7  -7 8151.24 1636.95   4
   0   7  -7 7379.30 1329.49   1
   0   7  -7 9430.81 1156.92   3
   0   7  -6 12669.5 1547.57   1
   0   7  -6 14361.2 1304.47   3
   0   7  -6 12503.4 2003.22   4
   0   7  -5 5748.57 1252.77   4
   0   7  -5 5754.42 977.970   1
   0   7  -5 7987.65 718.621   3
   0   7  -4 6804.57 1330.60   4
   0   7  -4 7413.93 1033.55   1
   0  -7   3 29.9931 46.5731   3
   0   7  -3 91.2051 265.217   4
   0   7  -3 182.821 223.527   1
   0  -7   3 143.197 265.816   1
   0  -7   2 131.697 267.749   1
   0  -7   2 64.7545 9.63301   3
   0   7  -2 286.420 256.120   1
   0   7  -2 211.531 278.198   4
   0  -7   1 469.092 297.682   1
   0   7  -1 1420.94 602.965   4
   0  -7   1 1939.98 452.071   3
   0   7  -1 2193.68 572.295   1
   0   7   0 165.179 227.249   1
   0  -7   0 82.8541 91.1757   1
   0  -7   0-49.2374 101.298   3
   0   7   0 484.371 449.000   4
   0   7   1 2718.97 670.562   1
   0   7   1 2854.72 1055.01   2
   0   7   1 3274.97 870.293   4
   0  -7  -1 1418.17 537.066   1
   0   7   2 910.643 477.477   1
   0   7   2 434.946 425.427   2
   0   7   2 1346.36 589.603   4
   0   7   3 3239.13 824.974   4
   0   7   3 3605.08 1138.10   2
   0   7   3 2058.77 681.810   1
   0   7   4 65.1417 351.868   2
   0   7   4 448.662 377.731   4
   0   7   4 91.7119 238.378   1
   0   7   5 431.674 395.180   1
   0   7   5 333.710 401.429   2
   0   7   6 110.495 184.899   1
   0   7   6-152.791 192.866   2
   0   7   7 88.3530 218.836   2
   0   7   8 185.193 521.140   2
   0  -8  14 597.076 446.713   2
   0  -8  13-164.183 251.276   2
   0   8 -13-229.748 429.678   1
   0   8 -12 674.589 390.578   4
   0   8 -12 575.826 713.878   1
   0  -8  12 369.536 390.257   2
   0   8 -11 353.945 403.410   1
   0  -8  11-96.7604 208.484   2
   0   8 -11 353.673 96.9187   4
   0  -8  10-3.11130 311.105   2
   0   8 -10 257.467 152.940   4
   0   8  -9 822.027 462.684   3
   0   8  -9 322.193 441.614   1
   0   8  -9 81.2956 180.432   4
   0  -8   9 221.180 305.891   2
   0   8  -8 624.270 386.650   1
   0   8  -8 766.308 391.233   3
   0   8  -8-15.5510 267.796   4
   0   8  -7 468.415 428.419   4
   0   8  -7 503.143 327.938   1
   0   8  -7 299.043 234.581   3
   0   8  -6 13696.9 917.436   3
   0   8  -6 11714.3 1535.13   1
   0   8  -5 49883.3 4050.02   4
   0   8  -5 46564.9 2773.31   1
   0   8  -4 416.434 373.392   4
   0   8  -4 111.801 165.544   1
   0  -8   3 2201.93 298.987   3
   0   8  -3 2868.86 621.417   1
   0   8  -2 225.660 260.745   4
   0   8  -2 466.813 318.061   1
   0  -8   2 357.307 213.614   3
   0  -8   2-116.498 213.271   1
   0   8  -1 1269.07 637.205   4
   0  -8   1 883.126 525.912   1
   0  -8   1 318.828 136.584   3
   0   8  -1 401.947 267.878   1
   0   8   0 356.497 418.955   4
   0   8   0 543.102 326.785   1
   0   8   1 1674.10 524.480   1
   0   8   1 2755.37 1122.89   2
   0   8   1 2195.89 780.854   4
   0   8   2 2711.60 907.024   4
   0   8   2 3846.74 1252.72   2
   0   8   2 1473.10 549.182   1
   0   8   3 43.0805 221.795   4
   0   8   3 144.780 239.610   1
   0   8   3 591.162 737.608   2
   0   8   4 98.1846 309.630   4
   0   8   4 631.155 672.083   2
   0   8   5-584.452 621.539   2
   0   8   6-179.510 206.822   2
   0   8   7 1061.00 856.008   2
   0  -9  13-245.359 322.899   2
   0   9 -13-328.155 269.374   1
   0   9 -12-27.1799 410.070   4
   0   9 -12 179.027 473.495   1
   0  -9  12-452.280 414.732   2
   0   9 -11 662.866 630.707   4
   0   9 -11 1383.12 812.987   1
   0  -9  11 1864.92 729.262   2
   0  -9  10 574.457 467.319   2
   0   9 -10 814.305 617.387   1
   0   9 -10 808.506 651.994   4
   0   9  -9 390.397 451.045   4
   0  -9   9 570.765 492.395   2
   0   9  -9 360.073 458.643   1
   0   9  -8-20.0453 208.739   1
   0   9  -8 395.305 457.374   4
   0   9  -7-135.626 147.236   4
   0   9  -7 34.5743 162.647   1
   0   9  -6 1209.52 556.310   1
   0   9  -6 1502.03 824.345   4
   0   9  -5 8801.62 1810.14   4
   0   9  -5 553.761 312.793   1
   0   9  -4 13349.4 2231.28   4
   0   9  -4 11774.9 1348.77   1
   0   9  -3 986.152 408.897   1
   0   9  -3-41.9047 185.135   4
   0   9  -2 91.4533 129.048   1
   0   9  -2-82.8985 133.393   4
   0   9  -1 247.415 189.728   1
   0   9  -1 781.794 484.086   4
   0   9   0 112.384 128.026   1
   0   9   0 31.9206 268.620   4
   0   9   1 204.542 159.483   4
   0   9   2 232.564 470.055   4
   0   9   2 97.4190 194.770   2
   0   9   3 126.897 425.048   4
   0   9   3 328.073 178.501   2
   0   9   4-57.0877 260.014   2
   0   9   5-768.194 683.025   2
   0   9   6 767.016 894.007   2
   0  10 -13 476.203 530.438   1
   0 -10  13-53.3176 231.799   2
   0  10 -13-335.281 448.963   4
   0  10 -12 776.103 612.961   1
   0 -10  12 174.282 353.871   2
   0  10 -12 1516.72 1186.66   4
   0  10 -11 931.188 981.122   4
   0  10 -11 381.332 481.155   1
   0 -10  11-270.101 381.148   2
   0  10 -10 655.890 774.911   4
   0  10 -10-15.6796 109.507   1
   0 -10  10 453.878 502.563   2
   0  10  -9 1129.24 865.767   4
   0  10  -9-187.813 307.667   1
   0  10  -8 844.362 627.853   1
   0  10  -8 258.657 426.990   4
   0  10  -7 2018.20 1019.46   4
   0  10  -7 957.643 431.105   1
   0  10  -6 433.069 358.897   1
   0  10  -6 980.530 627.737   4
   0  10  -5 537.549 520.810   4
   0  10  -5 300.247 227.716   1
   0  10  -4 8587.09 1131.52   1
   0  10  -4 10424.1 2204.07   4
   0  10  -3 544.961 400.630   1
   0  10  -3 29.5725 226.466   4
   0  10  -2 1194.64 858.284   4
   0  10  -1-12.6774 219.416   4
   0  10   0 70.7788 324.215   4
   0  10   1 8.12104 353.460   4
   0  10   2 283.604 303.949   4
   0  10   3-160.122 178.651   2
   0  10   4-534.422 220.498   2
   0  10   5 248.218 341.830   2
   0  11 -13-182.167 335.125   1
   0  11 -13 299.958 136.556   4
   0  11 -12 1245.13 1129.60   4
   0 -11  12-259.721 354.855   2
   0  11 -12 254.183 457.190   1
   0  11 -11-368.234 685.193   4
   0  11 -11 112.836 255.258   1
   0 -11  11 108.484 297.076   2
   0 -11  10 1407.59 908.399   2
   0  11 -10 1300.73 847.972   4
   0  11 -10 1996.60 922.389   1
   0  11  -9 438.354 398.055   1
   0  11  -9 374.716 510.098   4
   0  11  -8-336.679 646.890   4
   0  11  -8-253.975 272.561   1
   0  11  -7-147.968 452.780   4
   0  11  -7 446.717 377.869   1
   0  11  -6-179.558 134.494   1
   0  11  -6 3.12057 450.845   4
   0  11  -5 236.619 578.346   4
   0  11  -4 1843.71 982.369   4
   0  11  -3 1212.16 932.899   4
   0  11  -2 495.691 574.363   4
   0  11  -1 554.278 587.507   4
   0  11   0-57.1267 160.245   4
   0  11   1 618.333 761.915   4
   0 -12  11 46.1221 1101.74   2
   0  12 -11 407.701 507.771   4
   0  12 -10 528.240 452.633   4
   0 -12  10 372.174 483.975   2
   0  12  -9 723.252 288.160   4
   0  12  -8-1024.71 817.007   4
   0  12  -7-47.3530 367.834   4
   0  12  -6 4251.19 1735.35   4
   0  12  -5 38.0777 276.354   4
   0  12  -4 843.514 663.380   4
   0  12  -3 34.6620 426.456   4
   0  12  -2 197.527 263.409   4
   0  12  -1 844.858 939.133   4
   0  12   0 285.695 536.051   4
   0  13  -8 691.186 821.133   4
   0  13  -7 543.430 792.704   4
   0  13  -6 684.522 1041.65   4
   0  13  -5 1743.70 1224.10   4
   0  13  -4 556.138 554.930   4
   0  13  -3 1066.00 860.901   4
   0  13  -2-397.442 522.062   4
   0  13  -1 524.960 278.287   4
  -1  14  -1-576.816 586.517   4
  -1  14  -2-315.394 558.133   4
  -1  14  -3 1370.31 1087.71   4
  -1  14  -4 673.878 589.420   4
  -1  13   0 355.344 328.128   4
  -1  13  -1 594.734 764.743   4
  -1  13  -2 353.973 625.884   4
  -1  13  -3 726.320 687.178   4
  -1  13  -4 2404.21 1205.05   4
  -1  13  -5 462.411 579.830   4
  -1  13  -6 814.292 670.905   4
  -1  13  -7 162.117 349.414   4
  -1  13  -8 1266.96 960.621   4
  -1  12   1 1587.65 973.644   4
  -1  12   0 537.647 217.881   4
  -1  12  -1-39.6547 105.526   4
  -1  12  -2-480.439 587.771   4
  -1  12  -3 752.461 673.872   4
  -1  12  -4 484.783 589.502   4
  -1  12  -5-112.993 305.809   4
  -1  12  -6-127.101 187.823   4
  -1  12  -6 695.895 471.513   1
  -1  12  -7-52.9236 301.514   4
  -1  12  -7 5.08985 242.296   1
  -1  12  -8 250.967 522.844   4
  -1  12  -8-286.490 185.819   1
  -1  12  -9 1072.72 933.774   4
  -1  12  -9 100.181 388.041   1
  -1  12 -10 806.815 650.087   1
  -1  12 -10 775.610 680.273   4
   1 -12  10 1113.73 730.433   2
  -1  12 -11 179.446 394.201   4
  -1  12 -11-311.599 130.239   1
  -1  12 -12-469.529 613.714   1
  -1  11   2 610.444 608.134   4
  -1  11   1-270.486 493.241   4
  -1  11   0 1372.80 835.718   4
  -1  11  -1-239.084 349.257   4
  -1  11  -2 786.603 456.042   1
  -1  11  -2 1069.22 867.932   4
  -1  11  -3 27.5982 310.351   1
  -1  11  -3 299.839 481.246   4
  -1  11  -4-186.169 337.791   1
  -1  11  -4 281.092 304.923   4
  -1  11  -5 301.950 216.564   1
  -1  11  -5 219.368 378.718   4
  -1  11  -6 1192.86 587.583   1
  -1  11  -6 993.231 763.124   4
  -1  11  -7 978.125 728.527   4
  -1  11  -7 330.192 307.822   1
  -1  11  -8-522.419 396.928   1
  -1  11  -8 1223.19 832.093   4
  -1  11  -9 59.8609 176.961   1
  -1  11  -9 272.723 285.340   4
  -1  11 -10-184.051 246.456   1
   1 -11  10 244.528 92.5995   2
   1 -11  11 241.014 471.604   2
  -1  11 -11-332.406 742.101   4
  -1  11 -11 25.0306 230.209   1
  -1  11 -12 1149.19 984.838   1
  -1  11 -12 701.690 1004.28   4
  -1  11 -13-38.8394 341.210   4
  -1  10   6 3793.47 1559.98   2
  -1  10   5-141.867 163.248   2
  -1  10   4 2602.03 1251.48   2
  -1  10   3 294.901 319.001   4
  -1  10   2 564.524 517.767   4
  -1  10   1 336.117 309.883   1
  -1  10   1-166.798 311.239   4
  -1  10   0 1378.59 688.609   4
  -1  10   0 1029.99 476.995   1
  -1  10  -1 1542.77 784.459   1
  -1  10  -1 930.466 581.169   4
  -1  10  -2 122.297 272.587   1
  -1  10  -2-218.451 253.549   4
  -1  10  -3 324.454 387.155   4
  -1  10  -3 15.3534 88.0928   1
  -1  10  -4-75.5677 264.244   4
  -1  10  -4 9.84828 174.907   1
  -1  10  -5 3672.58 1102.15   4
  -1  10  -5 2458.72 806.480   1
  -1  10  -6 2076.12 732.710   1
  -1  10  -6 2929.41 1033.80   4
  -1  10  -7 293.021 445.795   4
  -1  10  -7 608.820 623.009   1
  -1  10  -8 779.731 821.307   4
  -1  10  -8 745.717 533.971   1
  -1  10  -9 1045.43 680.664   1
  -1  10  -9 198.434 526.059   4
  -1  10 -10 309.132 482.979   1
   1 -10  10 761.808 642.722   2
  -1  10 -10 6.48975 168.881   4
  -1  10 -11 1318.62 746.567   1
  -1  10 -11 1136.60 866.939   4
   1 -10  11 1535.75 760.979   2
  -1  10 -12 1248.00 1089.89   4
  -1  10 -12-404.943 616.704   1
   1 -10  12 433.244 344.164   2
  -1  10 -13 2596.09 1546.29   4
  -1  10 -13 1584.20 926.477   1
   1  -9  -8-67.9274 221.324   3
  -1   9   7 367.692 640.173   2
   1  -9  -7 49.4544 174.183   3
  -1   9   6 903.588 684.929   2
  -1   9   5 428.343 624.826   2
  -1   9   4 705.579 606.088   1
  -1   9   4 1536.68 876.680   2
  -1   9   4 984.604 585.670   4
  -1   9   3 12.6712 211.897   1
  -1   9   3 423.572 704.201   2
  -1   9   3 79.4252 211.647   4
  -1   9   2 216.704 231.097   4
  -1   9   2 3.28072 58.5656   1
  -1   9   1 354.547 283.418   1
  -1   9   1-138.364 245.658   4
   1  -9   0 50.8799 63.6942   3
  -1   9   0 104.031 88.1257   1
  -1   9   0 41.6157 87.5516   4
   1  -9   1 183.177 94.9295   3
  -1   9  -1 153.157 254.192   4
  -1   9  -1-125.711 147.543   1
  -1   9  -2-116.921 133.809   4
  -1   9  -2 56.9740 128.932   1
  -1   9  -3 638.399 334.167   1
  -1   9  -3 1159.93 582.576   4
  -1   9  -4 1201.31 557.859   1
  -1   9  -4 347.167 316.249   4
  -1   9  -5 26375.5 2538.25   1
  -1   9  -5 23762.8 2570.14   4
  -1   9  -6 555.911 473.488   4
  -1   9  -6 820.998 511.652   1
  -1   9  -7 1522.91 652.551   1
  -1   9  -7 2370.03 918.095   4
  -1   9  -8 612.604 430.216   1
  -1   9  -8 1654.31 806.226   4
   1  -9   9 293.663 420.448   2
  -1   9  -9 1118.83 706.225   4
  -1   9  -9 461.786 547.507   1
  -1   9 -10 268.013 415.267   1
   1  -9  10 720.074 543.883   2
  -1   9 -10-8.92791 251.996   4
   1  -9  11 1077.88 656.602   2
  -1   9 -11 339.882 600.105   1
  -1   9 -11 970.408 860.738   4
   1  -9  12 332.314 279.253   2
  -1   9 -12 37.2026 170.580   1
  -1   9 -13-61.9721 533.648   1
   1  -9  13 618.763 512.573   2
   1  -8  -9-457.624 438.139   3
   1  -8  -8 2.99139 191.611   3
  -1   8   8-21.1617 213.512   2
  -1   8   7 1200.11 881.403   2
  -1   8   6 907.465 684.888   2
  -1   8   6 593.951 765.037   1
  -1   8   5 4746.53 1541.40   2
  -1   8   5 3462.84 1329.12   1
  -1   8   4 221.926 457.066   2
  -1   8   4 238.326 323.480   4
  -1   8   4 428.842 470.843   1
  -1   8   3 132.771 214.054   4
  -1   8   3-47.8011 114.502   2
  -1   8   3 352.039 343.410   1
  -1   8   2 634.482 533.438   4
  -1   8   2 345.456 520.184   2
  -1   8   2-397.813 408.240   1
  -1   8   1 58.6914 216.223   1
  -1   8   1 208.053 214.134   4
  -1   8   0 335.041 421.307   1
  -1   8   0 171.629 271.479   4
   1  -8   0 219.238 126.510   3
   1  -8   0 535.134 184.119   3
  -1   8  -1 1445.68 494.835   4
   1  -8   1 1058.54 262.872   3
   1  -8   1 773.756 178.624   3
  -1   8  -1 1826.89 764.664   1
  -1   8  -2 2605.78 875.946   1
  -1   8  -2 1991.36 614.020   4
  -1   8  -3 99.2078 233.327   1
  -1   8  -3 576.469 388.700   4
  -1   8  -4 1139.15 505.534   1
  -1   8  -4 777.579 513.468   4
  -1   8  -5 7485.22 1320.41   4
  -1   8  -5 10754.2 1576.01   1
  -1   8  -6 18617.7 2175.15   4
  -1   8  -6 17314.9 2027.12   1
  -1   8  -7 1170.79 305.356   3
  -1   8  -7 2098.69 752.017   1
  -1   8  -7 1882.91 654.143   4
  -1   8  -8 569.019 488.836   1
  -1   8  -8 817.459 294.168   3
  -1   8  -8-6.15773 260.386   4
   1  -8   8 737.378 404.135   2
  -1   8  -9 216.714 326.442   1
   1  -8   9-91.8496 252.282   2
  -1   8  -9 231.754 217.144   4
  -1   8 -10-430.509 479.707   4
  -1   8 -10 547.826 589.852   1
   1  -8  10-331.454 329.121   2
  -1   8 -11 240.300 589.008   1
  -1   8 -11 933.259 617.790   4
   1  -8  11 81.8650 59.6493   2
  -1   8 -12 515.705 576.567   1
   1  -8  12 238.065 326.821   2
  -1   8 -13 445.889 598.033   1
   1  -8  13 246.973 241.894   2
   1  -7 -10 275.765 380.021   3
  -1   7   9 1084.39 915.563   2
   1  -7  -9 839.877 541.817   3
  -1   7   9 716.937 871.216   1
  -1   7   8 1234.67 1092.83   1
  -1   7   8 402.813 622.238   2
  -1   7   7-337.602 507.418   1
  -1   7   7 1479.44 743.539   2
  -1   7   6 1439.57 956.445   1
  -1   7   6 2617.24 1043.11   2
  -1   7   5-153.193 111.182   1
  -1   7   5 628.441 345.246   4
  -1   7   5 1217.67 743.742   2
  -1   7   4 149.085 566.225   1
  -1   7   4 461.288 284.094   4
  -1   7   4 315.323 382.150   2
  -1   7   3-20.3257 69.8292   2
  -1   7   3 244.428 261.856   1
  -1   7   3 56.4173 138.164   4
  -1   7   2 612.935 619.554   2
  -1   7   2 284.371 194.706   4
  -1   7   2 230.061 401.467   1
  -1   7   1 10182.5 1057.43   4
  -1   7   1 6642.21 1265.52   1
  -1   7   0 10318.6 1544.04   1
   1  -7   0 8274.51 631.904   3
  -1   7   0 10568.7 1084.43   4
  -1   7  -1 230.449 309.256   1
  -1   7  -1 182.423 158.681   4
   1  -7   1 47.8891 47.9317   3
   1  -7   1 278.759 110.250   3
  -1   7  -2 4532.27 1083.68   1
  -1   7  -2 3457.70 648.463   4
  -1   7  -3 682.106 369.063   4
  -1   7  -3 510.743 368.730   1
  -1   7  -4 6695.49 1156.19   1
  -1   7  -4 8542.90 1177.21   4
  -1   7  -5-13.1335 118.670   4
  -1   7  -5 205.747 308.974   1
  -1   7  -6 71068.0 1917.93   3
  -1   7  -6 67324.9 1968.96   3
  -1   7  -6 71693.0 4031.86   1
  -1   7  -6 77000.5 4242.80   4
  -1   7  -7 22950.9 1249.19   3
  -1   7  -7 21087.8 2299.41   1
  -1   7  -7 29281.2 1543.88   3
   1  -7   7 24649.2 2575.95   2
  -1   7  -7 26322.7 2617.78   4
   1  -7   8 309.347 345.032   2
  -1   7  -8 453.667 183.534   3
  -1   7  -8 1100.97 640.616   1
   1  -7   9 909.553 501.657   2
  -1   7  -9 685.047 584.748   4
  -1   7  -9 888.757 283.304   3
  -1   7  -9 670.814 432.831   1
  -1   7 -10 406.309 441.702   1
  -1   7 -10-8.29992 102.259   3
   1  -7  10 992.519 561.333   2
  -1   7 -10 236.381 466.512   4
  -1   7 -11 259.458 307.605   4
   1  -7  11 142.668 170.649   2
  -1   7 -11 94.7865 70.3811   1
  -1   7 -11 238.595 198.933   3
  -1   7 -12 420.589 258.210   3
   1  -7  12-72.9105 215.475   2
  -1   7 -12-84.3283 301.076   1
   1  -7  13 469.803 447.250   2
  -1   7 -13 1205.14 881.940   1
   1  -6 -10 11.5891 128.825   3
  -1   6  10 515.794 524.469   2
  -1   6  10 1374.86 1560.95   1
  -1   6   9 1346.56 1240.91   1
  -1   6   9 279.321 489.307   2
  -1   6   8-203.677 140.217   1
  -1   6   8 168.195 423.143   2
  -1   6   7 1030.14 1105.10   1
  -1   6   7 554.636 637.770   2
  -1   6   6 693.904 294.908   4
  -1   6   6 252.825 513.785   1
  -1   6   6 729.495 666.848   2
  -1   6   5 1162.24 329.960   4
  -1   6   5 1743.94 1144.06   1
  -1   6   5 951.338 680.294   2
  -1   6   4 132.437 115.507   4
  -1   6   4 442.553 491.859   2
  -1   6   4 621.245 538.300   1
  -1   6   3 220.711 271.887   1
  -1   6   3 241.455 288.097   2
  -1   6   3 16.2933 106.115   4
  -1   6   2 15618.9 1074.88   4
  -1   6   2 17148.4 2270.87   2
  -1   6   2 13433.6 1999.66   1
  -1   6   1 6178.42 1265.89   1
  -1   6   1 7303.74 721.833   4
  -1   6   1 6878.61 1429.79   2
   1  -6   0 26028.8 1093.36   3
  -1   6   0 25056.3 1382.50   4
  -1   6   0 22199.6 2316.86   1
   1  -6   1 4418.67 345.824   3
   1  -6   1 3643.06 960.318   1
  -1   6  -1 3819.54 932.479   1
  -1   6  -1 4137.66 565.971   4
   1  -6   1 3262.09 285.843   3
  -1   6  -2 15715.2 2004.16   1
  -1   6  -2 9357.01 942.028   4
  -1   6  -3-35.8401 74.8158   1
  -1   6  -3 39.4867 128.062   4
  -1   6  -4 912.748 422.723   1
  -1   6  -4 719.376 287.887   4
  -1   6  -5 21175.4 2109.31   1
  -1   6  -5 16904.4 813.368   3
  -1   6  -5 18824.9 945.339   3
  -1   6  -5 17410.1 1700.66   4
  -1   6  -6 943.137 487.855   4
  -1   6  -6 624.459 422.996   1
  -1   6  -6 949.873 228.300   3
  -1   6  -7 11202.2 1615.81   4
   1  -6   7 11911.0 1646.19   2
  -1   6  -7 9836.99 1568.47   1
  -1   6  -7 7732.43 691.732   3
  -1   6  -8 11150.5 1696.07   4
  -1   6  -8 8180.95 1521.90   1
  -1   6  -8 7704.01 763.319   3
   1  -6   8 10915.7 1480.73   2
   1  -6   9 896.922 448.959   2
  -1   6  -9 970.613 589.053   1
  -1   6  -9 880.600 293.140   3
  -1   6  -9 2399.80 856.449   4
  -1   6 -10 67.9086 318.895   4
  -1   6 -10-173.804 65.0771   3
   1  -6  10-167.438 234.986   2
  -1   6 -10 92.5975 378.750   1
  -1   6 -11 775.038 621.469   4
  -1   6 -11 162.030 167.368   3
   1  -6  11 140.445 217.022   2
  -1   6 -11 621.596 692.876   1
  -1   6 -12 146.027 172.134   3
   1  -6  12 251.034 297.649   2
   1  -6  13 1.57695 180.253   2
  -1   6 -13 34.9806 66.7569   3
  -1   6 -13-170.574 92.5276   1
  -1   6 -14 302.220 213.133   3
  -1   5  12 930.522 1556.78   1
  -1   5  11 990.877 1323.63   1
  -1   5  11 1226.30 902.721   2
   1  -5 -11 117.812 472.936   3
  -1   5  10 1825.97 1574.49   1
   1  -5 -10 209.127 271.199   3
  -1   5  10 711.103 806.513   2
  -1   5   9 571.996 1343.01   1
  -1   5   9 1130.04 784.311   2
  -1   5   8 787.168 1401.84   1
  -1   5   8 836.074 601.326   2
  -1   5   7 2162.14 1592.67   1
  -1   5   7 1187.32 669.375   2
  -1   5   6 742.301 621.214   1
  -1   5   6 811.000 232.676   4
  -1   5   6 1490.55 704.348   2
  -1   5   5 1659.66 717.987   2
  -1   5   5 1087.09 588.563   1
  -1   5   5 1295.62 264.617   4
  -1   5   4 1360.55 276.901   4
  -1   5   4 936.168 524.046   1
  -1   5   4 634.237 540.245   2
  -1   5   3 108.917 96.6795   4
  -1   5   3 331.570 338.249   2
   1  -5  -3 861.761 215.771   4
  -1   5   3 481.519 464.841   1
  -1   5   2 261.620 126.548   4
  -1   5   2 653.380 536.240   1
  -1   5   2 118.244 324.081   2
   1  -5  -2 238.276 330.997   1
  -1   5   1 631.287 206.215   4
  -1   5   1 726.879 337.720   1
   1  -5  -1-19.4996 92.0973   1
  -1   5   1 823.427 427.053   2
   1  -5   0 60444.1 4020.01   1
  -1   5   0 63827.3 3710.87   1
  -1   5   0 58399.3 1765.18   4
   1  -5   0 66571.4 1586.09   3
   1  -5   1 156914. 6120.56   1
  -1   5  -1 139741. 2800.08   4
  -1   5  -1 168905. 5632.30   1
   1  -5   1 126080. 1728.90   3
   1  -5   1 120426. 1349.83   3
   1  -5   2 156.518 163.807   1
  -1   5  -2 132.478 103.217   4
  -1   5  -2-99.2574 156.847   1
  -1   5  -3 3.32024 61.3514   4
  -1   5  -3 9.09997 185.552   1
  -1   5  -4 261.775 94.1162   3
  -1   5  -4 335.243 255.541   1
  -1   5  -4 229.016 172.779   4
  -1   5  -4 27.2665 37.7648   3
  -1   5  -5 2662.10 600.722   4
  -1   5  -5 2203.39 639.468   1
   1  -5   6 5839.78 1116.82   2
  -1   5  -6 4983.87 1027.54   1
  -1   5  -6 5044.31 904.539   4
  -1   5  -7 2668.54 728.306   4
  -1   5  -7 3968.64 983.951   1
  -1   5  -8 5752.85 1269.91   1
  -1   5  -8 4434.46 998.907   4
   1  -5   8 4131.89 875.739   2
   1  -5   9 4150.66 880.590   2
  -1   5  -9 2730.23 973.885   1
  -1   5  -9 3181.47 955.117   4
   1  -5  10 882.794 402.579   2
  -1   5 -10 692.410 462.983   4
  -1   5 -10 1148.10 828.089   1
  -1   5 -11 449.975 569.061   1
   1  -5  11-18.6381 92.0435   2
   1  -5  12-21.4029 166.054   2
  -1   5 -12 63.3505 125.141   3
  -1   5 -12 32.1216 162.046   1
   1  -5  13 278.180 408.119   2
  -1   5 -13 152.545 237.554   3
  -1   5 -13 1058.95 919.909   1
  -1   5 -14-244.161 220.118   3
  -1   4  12 778.511 780.047   2
   1  -4 -12 731.937 549.741   3
  -1   4  12 800.216 344.217   1
   1  -4 -11 417.698 370.369   3
  -1   4  11 437.939 951.081   1
  -1   4  11-2.87199 355.203   2
  -1   4  10 2693.30 2056.20   1
  -1   4  10 336.167 405.618   2
  -1   4   9 1335.24 1131.80   1
  -1   4   9 587.541 531.587   2
  -1   4   8 59.9569 705.923   1
  -1   4   8 223.429 338.047   2
  -1   4   7 1667.86 1404.42   1
  -1   4   7 759.240 166.295   4
  -1   4   7 380.940 465.404   2
  -1   4   6 25300.4 942.935   4
  -1   4   6 24086.3 2572.58   2
  -1   4   5 8114.98 509.450   4
  -1   4   5 9389.53 1496.10   2
  -1   4   4 7057.44 1316.27   2
  -1   4   4 7710.02 488.623   4
  -1   4   4 6656.44 1858.01   1
  -1   4   3 2642.07 765.385   2
   1  -4  -3 3819.14 397.267   4
  -1   4   3 1967.10 858.669   1
  -1   4   2 2549.58 872.800   1
  -1   4   2 2867.42 302.402   4
   1  -4  -2 1737.23 937.890   1
  -1   4   2 2791.74 697.319   2
   1  -4  -2 3424.56 377.719   4
  -1   4   1 7001.56 466.747   4
   1  -4  -1 8004.57 1121.48   2
   1  -4  -1 8680.36 1565.97   1
  -1   4   1 6763.19 1102.95   2
  -1   4   1 7861.49 1365.56   1
   1  -4  -1 9608.58 592.859   4
   1  -4   0 215.910 90.5385   4
   1  -4   0 429.313 122.716   3
   1  -4   0 646.460 434.135   1
  -1   4   0 211.341 68.9882   4
   1  -4   0 27.2416 90.1158   2
  -1   4   0 455.363 256.656   1
   1  -4   1 53602.2 1436.05   4
   1  -4   1 47492.7 3033.53   1
  -1   4  -1 44399.4 1343.07   4
  -1   4  -1 53487.0 2951.30   1
   1  -4   2 59868.0 3233.71   1
  -1   4  -2 57508.6 1650.33   4
   1  -4   3 4296.84 437.085   4
   1  -4   3 3592.14 857.609   1
  -1   4  -3 3550.88 360.601   3
  -1   4  -3 4764.04 866.042   1
  -1   4  -3 4262.44 487.514   4
  -1   4  -4 5430.70 651.025   4
  -1   4  -4 4984.53 883.974   1
  -1   4  -5-32.9574 45.0352   1
  -1   4  -5 62.5013 99.1089   4
   1  -4   5-89.1590 167.304   2
  -1   4  -6 24391.5 1874.24   4
  -1   4  -6 25025.6 2218.20   1
   1  -4   6 26063.5 2000.09   2
  -1   4  -7-32.3867 98.9641   1
  -1   4  -7-32.0544 161.284   4
   1  -4   7 119.131 180.098   2
  -1   4  -8 1196.71 484.998   4
   1  -4   8 1378.50 502.997   2
  -1   4  -8 993.258 543.896   1
  -1   4  -9 532.241 303.410   1
   1  -4   9 579.169 316.992   2
   1  -4  10 162.908 240.268   2
  -1   4 -10 6.36925 219.260   4
  -1   4 -10 499.239 545.643   1
   1  -4  11-158.426 138.120   2
  -1   4 -11 579.156 600.519   1
  -1   4 -12 747.325 617.148   1
   1  -4  12 180.593 89.6115   2
   1  -4  13 220.722 192.649   2
  -1   4 -13 235.359 207.967   3
  -1   4 -14 33.1932 50.2792   3
  -1   3  13 468.940 1721.19   1
  -1   3  12 541.311 623.748   2
  -1   3  12 17.0078 995.464   1
   1  -3 -12 1106.50 607.872   3
  -1   3  11-220.287 309.283   2
  -1   3  11 1783.92 1864.30   1
   1  -3 -11 1133.74 585.892   3
  -1   3  10 732.566 654.396   2
  -1   3  10 664.177 1150.95   1
  -1   3   9-11.7846 644.131   1
  -1   3   9 571.230 463.702   2
  -1   3   8 25.3876 20.1108   4
  -1   3   8 130.237 131.532   2
  -1   3   8 265.798 937.319   1
  -1   3   7 375.095 89.4376   4
  -1   3   7 477.912 379.842   2
  -1   3   7 36.4323 448.973   1
  -1   3   6 1312.19 1234.14   1
  -1   3   6 1575.84 192.550   4
  -1   3   6 1384.67 572.633   2
  -1   3   5 6191.06 379.410   4
  -1   3   5 6290.42 2040.02   1
  -1   3   5 5736.41 1019.20   2
  -1   3   4 24427.5 3622.44   1
  -1   3   4 18601.5 1800.29   2
  -1   3   4 23392.2 742.770   4
  -1   3   3 39416.5 4033.44   1
  -1   3   3 44249.8 2691.42   2
  -1   3   2 703.091 134.464   4
   1  -3  -2 601.078 470.155   1
  -1   3   2 1277.05 412.142   2
  -1   3   2 115.508 144.789   1
   1  -3  -2 850.031 158.943   4
   1  -3  -2 864.644 316.711   2
   1  -3  -1 16922.4 1446.94   2
  -1   3   1 18079.0 2015.15   1
   1  -3  -1 17600.5 888.718   3
  -1   3   1 16530.9 1466.09   2
   1  -3  -1 17766.7 2089.90   1
  -1   3   1 16876.3 637.990   4
   1  -3  -1 20498.6 775.148   4
   1  -3   0 18839.4 733.911   4
  -1   3   0 15607.1 635.241   4
   1  -3   0 14063.1 1245.57   2
   1  -3   0 20978.5 2035.51   1
  -1   3   0 16787.5 1722.46   1
   1  -3   0 14906.6 717.912   3
   1  -3   1 25886.8 2025.44   1
   1  -3   1 27247.0 890.840   4
   1  -3   1 23645.1 865.390   3
  -1   3  -1 26968.9 1960.81   1
  -1   3  -1 22077.1 769.942   4
  -1   3  -1 22834.8 745.301   3
  -1   3  -2 9810.95 670.133   3
   1  -3   2 8144.15 1118.91   1
  -1   3  -2 9084.25 1196.12   1
   1  -3   2 7286.98 480.205   4
  -1   3  -2 7353.50 488.808   4
  -1   3  -3 4108.91 417.282   3
  -1   3  -3 3550.31 377.067   4
  -1   3  -3 3904.39 727.442   1
   1  -3   3 3799.91 364.538   4
   1  -3   3 3989.46 877.453   1
   1  -3   4 9638.68 604.191   4
  -1   3  -4 9913.70 741.205   4
   1  -3   4 9270.56 1087.75   2
  -1   3  -5 20017.4 1368.37   4
   1  -3   5 18918.5 1528.92   2
  -1   3  -5 16515.1 1624.91   1
   1  -3   5 17769.5 848.791   4
   1  -3   6 5973.22 900.913   2
   1  -3   6 5641.29 487.090   4
  -1   3  -6 5680.50 820.184   4
  -1   3  -6 5979.44 1046.60   1
  -1   3  -7 7675.37 1059.03   4
   1  -3   7 6910.20 553.790   4
   1  -3   7 6500.71 932.232   2
  -1   3  -7 5794.34 1151.39   1
  -1   3  -8 1863.12 826.919   1
   1  -3   8 3610.76 760.625   2
  -1   3  -8 2086.51 606.948   4
   1  -3   9 131.992 176.718   2
  -1   3  -9 455.539 398.682   4
  -1   3  -9 75.9703 130.226   1
   1  -3  10 405.643 329.252   2
  -1   3 -10 261.435 377.074   1
   1  -3  11 163.838 178.273   2
  -1   3 -11-310.013 354.749   1
   1  -3  12-141.825 261.098   2
   1  -3  13 1069.97 1371.66   1
   1  -3  13 294.412 364.301   2
  -1   3 -14 1089.85 540.907   3
  -1   2  13 10.8710 427.104   2
   1  -2 -13 226.114 403.926   3
  -1   2  12 1605.66 1395.25   1
   1  -2 -12 2201.09 756.773   3
  -1   2  12 1670.33 754.303   2
  -1   2  11 4076.71 2776.95   1
   1  -2 -11 2106.37 683.322   3
  -1   2  11 2667.95 996.084   2
  -1   2  10 612.690 1203.73   1
   1  -2 -10 741.576 387.952   3
  -1   2  10 696.493 515.583   2
  -1   2   9 435.017 398.233   1
  -1   2   9 1289.43 509.004   2
  -1   2   8 217.029 143.159   4
  -1   2   8 166.342 191.460   2
  -1   2   8 179.666 67.1566   4
  -1   2   7 181.243 210.635   2
  -1   2   7 145.825 169.211   4
  -1   2   7 262.949 72.2892   4
  -1   2   6 864.421 815.261   1
  -1   2   6 151.998 72.1590   4
  -1   2   6 85.0225 182.937   2
  -1   2   5 68476.7 1188.47   4
  -1   2   5 72426.5 3249.61   2
  -1   2   4 29743.6 776.600   4
  -1   2   4 26862.0 3464.00   1
  -1   2   4 31956.3 1985.01   2
   1  -2  -4 30682.6 1666.35   2
  -1   2   3 12167.9 1134.20   2
   1  -2  -3 10480.5 880.061   2
  -1   2   2 15808.1 1308.93   2
   1  -2  -2 17232.3 1217.86   2
  -1   2   2 21665.3 751.184   4
   1  -2  -2 16393.8 948.417   3
  -1   2   2 17247.5 2179.70   1
   1  -2  -2 15782.9 2133.76   1
   1  -2  -1 1473.52 184.837   4
  -1   2   1 1202.02 326.968   2
   1  -2  -1 1474.57 266.505   3
   1  -2  -1 1493.67 525.513   1
  -1   2   1 1712.75 249.048   3
  -1   2   1 1476.94 521.243   1
  -1   2   1 1544.73 167.627   4
   1  -2  -1 1428.35 352.183   2
  -1   2   0 32889.5 2147.37   1
  -1   2   0 26286.6 941.083   3
  -1   2   0 21903.9 651.648   4
   1  -2   0 34616.3 892.560   4
   1  -2   0 24303.0 1069.95   3
   1  -2   0 30280.4 2089.58   1
  -1   2  -1 432333. 7359.87   1
  -1   2  -1 434484. 4693.94   3
  -1   2  -2 13126.9 537.230   4
  -1   2  -2 15261.4 811.872   3
  -1   2  -2 15984.7 1377.49   1
   1  -2   2 14958.2 572.856   4
   1  -2   2 15641.4 1484.89   1
  -1   2  -3 12319.6 1200.34   1
   1  -2   3 11998.0 1025.31   2
   1  -2   3 13949.6 1458.57   1
  -1   2  -3 11545.6 574.333   4
   1  -2   3 13758.7 578.886   4
  -1   2  -4 19938.8 923.445   4
   1  -2   4 22085.3 1419.21   2
   1  -2   4 17883.8 1712.03   1
  -1   2  -4 16669.7 1462.22   1
   1  -2   4 20249.3 718.402   4
   1  -2   5 2183.41 460.029   2
  -1   2  -5 2049.95 559.978   1
  -1   2  -5 2134.76 401.279   4
   1  -2   5 2403.16 262.589   4
   1  -2   6 30418.9 945.791   4
  -1   2  -6 26730.7 1644.74   4
  -1   2  -6 28512.6 2333.03   1
   1  -2   7 5045.08 390.851   4
   1  -2   7 5023.58 786.762   2
  -1   2  -7 3880.10 689.080   4
  -1   2  -7 3885.30 950.870   1
  -1   2  -8 2337.78 583.996   4
   1  -2   8 3822.95 790.861   2
   1  -2   8 3305.03 318.265   4
  -1   2  -8 2482.43 798.227   1
   1  -2   9 556.620 331.620   2
  -1   2  -9 71.8787 127.060   4
  -1   2  -9 460.224 249.356   1
   1  -2  10 356.686 294.219   2
  -1   2 -10-369.077 312.161   1
   1  -2  11 903.856 554.725   2
   1  -2  12 437.314 346.183   2
   1  -2  12 958.036 1068.86   1
   1  -2  13-274.878 471.856   2
   1  -2  13 813.141 1116.65   1
  -1   1  13-176.965 614.254   1
  -1   1  13-136.016 245.893   2
   1  -1 -13 76.6927 212.967   3
   1  -1 -12 620.022 456.448   3
  -1   1  12 489.436 1032.15   1
  -1   1  12-7.94453 97.0984   2
  -1   1  11 4754.90 1131.56   2
  -1   1  11 4684.11 2104.32   1
   1  -1 -11 6400.51 1186.11   3
   1  -1 -10 906.165 418.147   3
  -1   1  10 1169.65 497.325   2
  -1   1  10 113.751 108.130   1
  -1   1   9 1002.26 398.668   2
  -1   1   9 639.848 124.969   4
  -1   1   9 86.1373 491.192   1
  -1   1   8 149.936 166.879   2
  -1   1   8 500.365 804.927   1
  -1   1   8 493.641 237.938   4
  -1   1   7 873.152 369.397   4
  -1   1   7 680.991 735.573   1
  -1   1   7 570.412 342.394   2
  -1   1   6 6515.68 853.883   4
  -1   1   6 4489.25 1422.53   1
  -1   1   6 7228.56 937.498   2
  -1   1   5 2346.91 1143.32   1
  -1   1   5 4417.36 651.396   2
  -1   1   4 1226.46 322.135   2
   1  -1  -4 948.049 220.408   2
   1  -1  -4 703.888 204.811   3
   1  -1  -4-5.16916 208.901   1
  -1   1   4 1012.00 661.417   1
  -1   1   3 6973.16 1497.74   1
   1  -1  -3 8113.73 707.715   3
  -1   1   3 7469.44 704.490   2
   1  -1  -3 7911.18 607.147   2
   1  -1  -2 73.8531 77.0748   2
   1  -1  -2 129.042 252.308   1
  -1   1   2 116.874 94.5561   3
  -1   1   2 324.527 393.638   1
  -1   1   2 115.507 96.3191   2
   1  -1  -2 120.493 135.465   3
  -1   1   1 74462.7 3248.76   1
  -1   1   1 61407.1 1631.65   2
   1  -1  -1 68368.5 1887.20   3
   1  -1  -1 80351.9 3666.69   1
  -1   1   1 70264.1 1734.39   3
   1  -1  -1 69699.8 1744.63   2
  -1   1   0 823523. 9185.42   1
   1  -1   0 810520. 9440.67   1
  -1   1  -1 92425.5 2358.80   3
   1  -1   1 94556.9 2099.23   3
  -1   1  -1 106965. 3466.46   1
   1  -1   1 93149.2 2965.77   1
   1  -1   1 97194.3 1259.36   4
   1  -1   1 99484.9 2149.62   2
  -1   1  -1 110587. 1332.72   4
  -1   1  -2 43742.2 1493.49   3
   1  -1   2 45517.0 1527.77   2
  -1   1  -2 40353.8 761.139   4
   1  -1   2 44713.5 808.454   4
  -1   1  -2 42630.3 1687.13   2
   1  -1   2 45575.6 2228.68   1
  -1   1  -3 75571.2 1080.54   4
   1  -1   3 89813.7 2361.61   2
   1  -1   3 67304.8 1091.88   4
  -1   1  -3 87157.1 2578.57   2
   1  -1   3 88396.0 3251.77   1
  -1   1  -3 76946.6 2740.59   1
   1  -1   4 138.475 57.3856   4
   1  -1   4 252.745 249.960   1
  -1   1  -4-48.3650 41.2956   4
   1  -1   4 91.2774 108.494   2
  -1   1  -4 69.5327 164.690   1
   1  -1   5 98.5941 51.6717   4
   1  -1   5 81.9730 128.367   2
  -1   1  -5 176.824 232.381   1
  -1   1  -5 128.427 89.7631   4
   1  -1   6 14399.6 1253.87   2
  -1   1  -6 13790.2 1664.88   1
   1  -1   6 16817.4 575.631   4
  -1   1  -6 11540.4 945.931   4
   1  -1   7 4894.58 289.729   4
   1  -1   7 4128.39 741.016   2
  -1   1  -7 3514.55 499.961   4
  -1   1  -7 4964.70 1079.80   1
  -1   1  -8 502.322 362.506   1
   1  -1   8 1485.17 511.358   2
  -1   1  -9 22.9901 159.419   1
   1  -1   9 869.028 454.684   2
   1  -1  10 62.3265 87.5960   2
   1  -1  11-1345.18 1258.86   1
   1  -1  11 85.0782 203.250   2
   1  -1  12-119.234 420.682   1
   1  -1  12-185.597 221.521   2
   1  -1  13 1226.06 892.100   1
   1  -1  13 483.841 547.156   2
  -1   0  14 813.156 558.750   2
  -1   0  14 384.567 907.989   1
   1   0 -13 368.006 391.374   3
  -1   0  13-260.772 218.087   2
  -1   0  12 474.855 478.083   2
  -1   0  12 222.269 516.644   1
   1   0 -12-18.1371 185.543   3
  -1   0  11 2048.82 1420.31   1
   1   0 -11 983.440 419.946   3
  -1   0  11 1087.96 519.664   2
  -1   0  10 10607.8 1469.35   2
  -1   0  10 6168.72 2299.26   1
   1   0 -10 8099.76 1213.23   3
   1   0  -9 1142.81 398.088   3
  -1   0   9 1409.70 488.168   2
  -1   0   9 881.227 1073.40   1
  -1   0   8 1125.43 408.118   4
   1   0  -8 560.494 353.894   3
  -1   0   8 649.170 855.006   1
  -1   0   8 618.747 301.938   2
  -1   0   7 84.8638 145.490   4
  -1   0   7 169.599 296.642   1
  -1   0   7 85.2810 166.005   2
   1   0  -7 13.8532 81.5528   3
  -1   0   6 346.115 243.693   4
  -1   0   6 67.3978 98.0248   2
   1   0  -6 170.556 157.542   3
  -1   0   6 106.423 83.4403   1
  -1   0   5 1284.10 303.127   2
   1   0  -5 948.978 248.351   2
   1   0  -5 1244.70 328.854   3
  -1   0   5 1360.96 422.017   4
  -1   0   5 1037.87 643.373   1
  -1   0   4 236.604 383.400   1
  -1   0   4 421.137 211.669   4
  -1   0   4 511.240 262.826   1
  -1   0   4 381.070 142.260   2
   1   0  -4 618.259 220.355   3
   1   0  -4 400.264 146.259   2
  -1   0   3 42751.1 1256.75   2
   1   0  -3 36414.8 1612.56   3
   1   0  -3 39313.6 3568.83   1
   1   0  -3 35850.3 1071.18   2
  -1   0   3 43086.1 1536.47   3
   1   0  -2 22437.0 1182.15   3
  -1   0   2 20993.9 2041.65   1
  -1   0   2 25168.0 1135.82   3
   1   0  -2 20689.6 579.975   2
  -1   0   2 27192.7 711.850   2
   1   0  -2 17202.7 1716.00   1
  -1   0   1 106241. 2588.91   3
  -1   0   1 104980. 3431.81   1
   1   0  -1 109163. 2822.00   3
  -1   0   0 810.682 118.437   2
   1   0   0 971.715 266.979   3
  -1   0   0 749.856 245.673   3
   1   0   0 908.686 250.310   1
   1   0   0 500.509 79.3051   2
  -1   0   0 903.626 250.099   1
  -1   0  -1 1533.26 309.521   3
   1   0   1 1820.43 427.887   1
  -1   0  -1 1849.92 251.840   2
   1   0   1 1557.14 294.042   3
  -1   0  -1 1328.11 285.741   1
   1   0   1 1768.00 219.640   2
  -1   0  -2 888.813 266.988   1
   1   0   2 784.441 180.820   2
  -1   0  -2 1000.97 252.883   3
   1   0   2 778.930 258.500   1
  -1   0  -2 1155.71 114.404   4
  -1   0  -2 1106.08 243.072   2
  -1   0  -3 8583.76 797.740   3
   1   0   3 6414.77 621.282   2
   1   0   3 6963.34 890.256   1
  -1   0  -3 5972.78 764.583   1
  -1   0  -3 5783.27 231.531   4
  -1   0  -3 6646.19 659.455   2
   1   0   4 3047.66 680.081   1
  -1   0  -4 2918.59 229.796   4
  -1   0  -4 3679.69 695.094   1
   1   0   4 4302.33 594.235   2
  -1   0  -5 2874.92 654.961   1
   1   0   5 3178.05 565.681   2
   1   0   6 5898.42 852.363   2
  -1   0  -6 6074.68 1098.35   1
   1   0   7 9367.73 1212.58   2
  -1   0  -7 8770.79 1433.73   1
   1   0   8 635.256 363.176   2
  -1   0  -8 1369.07 655.923   1
   1   0   9 1646.62 1253.98   1
   1   0   9 978.128 477.081   2
   1   0  10 871.962 884.564   1
   1   0  10 723.723 499.645   2
   1   0  11 1.78364 50.3442   2
   1   0  11 2536.46 1611.37   1
   1   0  12-110.193 136.301   2
   1   0  12 781.855 1209.34   1
   1   0  13 2149.24 1944.35   1
  -1  -1  14 113.512 275.752   1
   1   1 -14 598.944 405.751   3
  -1  -1  14 293.161 364.058   2
  -1  -1  13 1371.59 1298.51   1
  -1  -1  13 173.557 355.447   2
   1   1 -13 143.558 257.919   3
   1   1 -12 516.005 444.076   3
  -1  -1  12-220.827 252.636   2
  -1  -1  12 401.067 889.380   1
  -1  -1  11 504.299 378.498   2
  -1  -1  11 2247.51 1582.35   1
   1   1 -11 896.241 426.357   3
  -1  -1  10 6278.80 1066.44   2
   1   1 -10 4465.67 878.468   3
   1   1  -9 664.207 286.379   3
  -1  -1   9 966.321 392.220   4
  -1  -1   9 80.3555 138.316   2
  -1  -1   8-14.1272 122.543   2
  -1  -1   8 61.2691 153.014   4
  -1  -1   8-135.509 546.497   1
   1   1  -8-9.15207 61.6437   3
  -1  -1   7 2496.48 1239.69   1
  -1  -1   7 989.893 416.710   4
  -1  -1   7 2109.57 463.720   2
   1   1  -7 1707.73 430.423   3
  -1  -1   6 9620.77 870.106   2
   1   1  -6 9376.79 943.643   3
  -1  -1   6 8626.07 1183.05   4
  -1  -1   6 6716.60 1822.05   1
  -1  -1   5 3720.32 1233.45   1
  -1  -1   5 4983.28 869.262   4
   1   1  -5 5071.40 680.119   3
   1   1  -5 4298.89 552.260   2
  -1  -1   5 4935.82 540.507   2
  -1  -1   4 764.607 374.251   4
  -1  -1   4 226.652 205.411   1
   1   1  -4 150.303 20.3378   3
  -1  -1   4 128.481 430.718   1
   1   1  -4 221.857 127.420   2
  -1  -1   4 203.354 89.7267   2
  -1  -1   3 14155.8 1339.08   4
   1   1  -3 15373.1 1082.77   3
  -1  -1   3 14251.6 1120.38   1
  -1  -1   3 14048.7 741.480   2
  -1  -1   3 16102.3 992.177   3
  -1  -1   2 962.868 313.223   4
  -1  -1   2 571.480 278.340   1
   1   1  -2 1170.94 315.764   3
   1   1  -2 1460.85 556.613   1
  -1  -1   2 1773.04 338.985   3
  -1  -1   1 111211. 3021.22   3
   1   1  -1 116265. 3330.68   1
  -1  -1   1 121618. 3255.50   1
   1   1  -1 119432. 3274.71   3
   1   1  -1 115362. 2164.70   2
  -1  -1   1 112863. 1885.67   2
  -1  -1   1 125456. 3187.18   4
  -1  -1   0 839.339 246.100   4
   1   1   0 81.0679 58.8791   2
   1   1   0 669.174 215.833   3
  -1  -1   0 781.976 169.971   1
   1   1   0 707.763 186.670   1
  -1  -1   0 612.091 224.974   3
  -1  -1   0 709.717 161.086   2
   1   1   2 164196. 3235.06   2
  -1  -1  -2 167129. 3432.77   1
   1   1   2 175612. 3653.72   1
  -1  -1  -2 165008. 2973.99   4
  -1  -1  -2 188934. 3322.25   2
  -1  -1  -2 183880. 3683.49   3
  -1  -1  -3 61994.9 2564.01   1
   1   1   3 70147.4 2747.46   1
   1   1   3 62523.7 2261.40   2
  -1  -1  -3 63115.1 2169.86   2
  -1  -1  -4 982.758 357.162   1
   1   1   4 973.664 382.162   1
   1   1   4 1292.14 371.531   2
  -1  -1  -5 5373.24 946.707   1
   1   1   5 5005.11 800.943   2
   1   1   6 73.6186 149.917   2
  -1  -1  -6-138.453 209.032   1
   1   1   7 229.158 217.287   2
   1   1   7-243.255 530.986   1
   1   1   8 106.475 138.175   2
   1   1   8 1894.42 1456.57   1
   1   1   9 311.818 325.005   2
   1   1   9 1612.56 1609.93   1
   1   1  10-130.127 183.631   2
   1   1  10-365.517 560.941   1
   1   1  11-170.828 321.100   2
   1   1  11-96.2216 371.064   1
   1   1  12-137.684 259.505   2
   1   1  12-836.930 900.846   1
   1   1  13 1954.10 1318.52   1
  -1  -2  15 558.822 423.591   2
  -1  -2  14 731.319 949.797   1
   1   2 -14 177.159 341.341   3
  -1  -2  14 346.447 355.587   2
  -1  -2  13-686.988 794.175   1
  -1  -2  13 258.921 456.660   2
   1   2 -13 301.061 296.594   3
  -1  -2  12 1.39429 105.600   2
  -1  -2  12-492.043 786.994   1
   1   2 -12 109.478 168.102   3
  -1  -2  11 1512.93 532.695   2
  -1  -2  11 111.026 650.465   1
   1   2 -11 2195.80 638.980   3
  -1  -2  10-278.221 273.939   2
  -1  -2  10 996.740 1487.89   1
   1   2 -10 228.846 188.038   3
   1   2  -9 956.627 438.831   3
  -1  -2   9 851.535 310.497   2
  -1  -2   8 1104.48 348.003   2
   1   2  -8 1245.54 395.871   3
  -1  -2   8 1415.85 908.252   1
   1   2  -7 12490.6 1223.53   3
  -1  -2   7 12431.9 1077.43   2
   1   2  -6 35.4859 35.9128   4
   1   2  -6-17.5824 88.5321   3
  -1  -2   6 36.1045 79.4610   2
  -1  -2   6 29.3237 228.175   1
  -1  -2   5 183272. 5590.57   4
  -1  -2   5 164034. 8184.45   1
  -1  -2   5 186577. 3737.14   2
   1   2  -5 176099. 5690.85   4
   1   2  -5 197974. 4356.88   3
   1   2  -4 409.940 247.681   4
   1   2  -4 552.807 225.737   3
  -1  -2   4 935.777 349.380   1
  -1  -2   4 718.431 395.692   4
  -1  -2   4 429.715 193.269   3
  -1  -2   4 526.732 200.571   2
  -1  -2   3 45721.8 2641.12   4
  -1  -2   3 42794.5 3247.05   1
   1   2  -3 42900.2 2046.45   3
  -1  -2   3 47816.0 1982.86   1
   1   2  -3 48660.9 2954.94   4
  -1  -2   3 38802.6 1599.02   3
   1   2  -2 8655.55 1234.28   4
   1   2  -2 7649.70 899.666   3
  -1  -2   2 6000.86 899.824   1
  -1  -2   2 6983.36 771.459   3
  -1  -2   2 9258.36 689.975   1
  -1  -2   2 6448.94 935.725   4
  -1  -2   1 8719.41 941.905   3
   1   2  -1 9118.81 849.956   2
  -1  -2   1 11903.7 1210.60   4
   1   2  -1 13931.8 1433.72   4
  -1  -2   1 10952.6 848.477   2
   1   2  -1 11457.7 1082.55   3
   1   2   0 2190.53 505.833   4
  -1  -2   0 1783.84 463.905   4
   1   2   0 2356.26 471.994   2
   1   2   0 2209.08 411.056   3
  -1  -2   0 2143.05 398.617   2
  -1  -2   0 1942.43 430.879   3
   1   2   1 9683.16 939.646   4
   1   2   1 10439.3 662.792   1
  -1  -2  -1 9970.80 871.079   3
   1   2   1 9440.86 906.271   2
  -1  -2  -1 10171.1 933.119   4
  -1  -2  -1 12544.8 957.008   2
  -1  -2  -2 13950.3 882.692   4
  -1  -2  -2 13558.4 1039.32   3
   1   2   2 13892.8 1162.35   2
  -1  -2  -2 15198.0 1173.03   2
   1   2   2 14104.8 996.110   1
   1   2   3 93847.2 3149.32   2
   1   2   3 101217. 3196.43   1
   1   2   4 2283.37 562.540   1
   1   2   4 1368.91 816.560   1
   1   2   4 1863.71 492.951   2
   1   2   5 154.360 206.821   2
   1   2   5 26.6769 331.435   1
   1   2   6 53.8937 137.048   2
   1   2   6 169.508 771.961   1
   1   2   7 479.942 344.975   2
   1   2   7 109.357 873.038   1
   1   2   8 607.175 350.899   2
   1   2   8 1398.67 1316.27   1
   1   2   9 222.668 285.679   2
   1   2   9 162.760 573.951   1
   1   2  10 322.394 362.866   2
   1   2  10 575.600 872.242   1
   1   2  11 1944.36 1601.26   1
   1   2  11-207.280 277.038   2
   1   2  12 1146.69 1467.35   1
   1   3 -15 2173.57 848.387   3
  -1  -3  15 56.3227 121.772   2
  -1  -3  14 974.703 1240.85   1
   1   3 -14 456.915 390.592   3
  -1  -3  14 882.762 610.282   2
  -1  -3  13 105.057 562.520   1
  -1  -3  13 589.560 433.266   2
   1   3 -13 91.0405 147.139   3
  -1  -3  12 428.464 309.162   2
  -1  -3  12-441.780 535.012   1
   1   3 -12 318.237 386.214   3
   1   3 -11 727.513 335.029   3
  -1  -3  11-157.145 700.900   1
  -1  -3  11 631.286 346.946   2
  -1  -3  10 1337.16 446.281   2
   1   3 -10 1577.10 526.006   3
  -1  -3  10 515.897 679.395   1
   1   3  -9 491.648 291.834   3
  -1  -3   9 315.119 247.115   2
  -1  -3   9 1321.80 1069.19   1
  -1  -3   8 315.881 183.747   2
   1   3  -8 76.3861 152.830   3
   1   3  -8 106.720 143.692   4
  -1  -3   8 715.383 789.821   1
   1   3  -7 1955.90 716.279   4
   1   3  -7 1048.74 360.767   3
  -1  -3   7 1886.44 457.524   2
   1   3  -6 7086.79 897.691   3
   1   3  -6 6879.81 1108.38   1
  -1  -3   6 6605.68 816.135   2
   1   3  -6 6010.02 1236.49   4
  -1  -3   5 19751.1 1652.61   1
   1   3  -5 23272.8 1616.29   3
   1   3  -5 24166.5 2453.01   4
   1   3  -5 23140.9 1829.54   1
  -1  -3   5 19964.1 1453.73   2
  -1  -3   5 19881.2 1187.45   3
  -1  -3   4 73933.7 3555.45   4
   1   3  -4 83469.4 3096.26   3
  -1  -3   4 78162.5 2374.31   3
   1   3  -4 86782.6 4520.65   4
  -1  -3   4 70764.9 2721.02   1
   1   3  -4 76035.2 2908.66   1
  -1  -3   3 2198.37 406.545   3
  -1  -3   3 2203.01 618.965   4
  -1  -3   3 1982.67 371.386   1
   1   3  -3 3126.70 613.280   3
   1   3  -3 2707.57 831.152   4
   1   3  -2 3396.39 621.730   3
  -1  -3   2 2281.43 318.614   1
   1   3  -2 3659.57 897.143   4
  -1  -3   2 2683.98 672.104   4
   1   3  -2 1809.25 303.045   1
  -1  -3   2 2570.12 523.196   3
  -1  -3   2 2026.89 481.974   2
   1   3  -1 32910.4 2099.07   2
   1   3  -1 38241.2 1870.88   3
   1   3  -1 36436.7 2681.61   4
  -1  -3   1 32483.6 2042.92   4
  -1  -3   1 28746.1 1818.04   3
  -1  -3   1 26557.8 1680.53   2
  -1  -3   0 31738.7 1849.32   3
  -1  -3   0 33308.7 1917.17   4
   1   3   0 35081.5 2467.13   4
  -1  -3   0 33073.7 1858.80   2
   1   3   0 31470.9 2075.70   2
  -1  -3  -1 2804.84 551.453   2
  -1  -3  -1 2718.69 473.405   4
  -1  -3  -1 2617.76 485.161   3
   1   3   1 2968.49 340.394   1
   1   3   1 3954.90 751.871   2
   1   3   1 3180.11 603.886   1
  -1  -3  -2 126003. 2438.08   4
   1   3   2 130850. 3058.65   1
   1   3   2 135687. 3997.19   4
   1   3   3 23948.8 2591.73   1
   1   3   3 30576.3 1789.22   1
   1   3   3 25267.9 1914.43   2
  -1  -3  -3 26453.8 788.025   4
   1   3   4 1451.70 436.027   1
  -1  -3  -4 1432.13 129.415   4
   1   3   4 2265.25 601.610   2
   1   3   5 1067.32 820.881   1
   1   3   5 1511.21 535.482   2
   1   3   6 605.541 731.846   1
   1   3   6-48.6576 136.887   2
   1   3   7 638.872 567.096   1
   1   3   7 188.301 266.298   2
   1   3   8 380.063 455.723   2
   1   3   8 562.719 793.810   1
   1   3   9-356.953 305.671   1
   1   3   9-2.02934 193.398   2
   1   3  10 425.551 519.660   2
   1   3  10 2608.62 1643.34   1
   1   3  11 2553.20 1797.87   1
   1   3  11 815.261 537.740   2
  -1  -4  15 647.390 493.176   2
   1   4 -15 171.149 146.936   3
  -1  -4  14-508.055 460.093   2
   1   4 -14 334.979 257.643   3
  -1  -4  14-46.3083 457.382   1
   1   4 -13-172.062 239.364   3
  -1  -4  13 349.693 311.244   2
   1   4 -12 472.635 312.009   3
  -1  -4  12 214.957 243.637   2
  -1  -4  12 1561.49 1686.63   1
   1   4 -11 1941.23 603.195   3
  -1  -4  11 1934.77 1466.32   1
  -1  -4  11 1630.28 495.922   2
   1   4 -10 572.442 363.620   3
   1   4 -10 599.431 478.240   4
  -1  -4  10 205.483 188.725   2
  -1  -4  10 1480.55 1253.51   1
   1   4  -9 645.393 352.329   3
   1   4  -9 329.978 536.219   4
  -1  -4   9 589.197 289.976   2
   1   4  -8 403.137 417.200   1
  -1  -4   8 227.417 217.192   2
   1   4  -8 49.9922 160.791   3
   1   4  -8-124.685 131.144   4
   1   4  -7 5017.75 802.518   3
   1   4  -7 5430.61 1360.64   4
   1   4  -7 5890.68 1125.60   1
  -1  -4   7 5161.94 815.362   2
   1   4  -6 20373.2 1891.54   1
   1   4  -6 18663.1 2420.14   4
  -1  -4   6 16913.9 1520.34   2
   1   4  -6 21642.2 1726.81   3
   1   4  -5 2724.55 631.145   3
  -1  -4   5 2125.08 384.132   3
  -1  -4   5 1822.64 468.857   1
   1   4  -5 2114.03 771.134   4
   1   4  -5 2093.36 546.805   1
  -1  -4   4 186737. 3623.08   3
  -1  -4   4 183698. 4456.71   1
   1   4  -4 207000. 4807.96   1
   1   4  -4 219673. 7544.71   4
   1   4  -3 26193.0 2528.75   4
  -1  -4   3 23949.6 1471.34   3
  -1  -4   3 22418.9 1324.56   1
   1   4  -3 27787.3 1489.19   1
  -1  -4   2 5433.04 850.278   3
   1   4  -2 7520.89 1323.57   4
   1   4  -2 8574.75 633.192   1
  -1  -4   2 6366.83 628.571   1
  -1  -4   2 5255.04 868.191   2
  -1  -4   1 1025.65 383.074   4
   1   4  -1 909.764 476.362   4
  -1  -4   1 1296.83 422.428   2
  -1  -4   1 1226.19 386.666   3
   1   4  -1 1609.07 388.537   3
   1   4  -1 1342.56 490.363   2
  -1  -4   0 25129.6 1626.90   4
  -1  -4   0 21756.5 1628.90   3
   1   4   0 24623.9 2248.81   4
   1   4   0 24452.0 2115.68   2
  -1  -4  -1 35915.3 1602.64   4
   1   4   1 31809.6 1182.47   1
   1   4   1 35961.6 2542.52   2
   1   4   2 12240.2 955.889   1
  -1  -4  -2 12172.8 735.101   4
   1   4   2 14146.3 1618.32   4
   1   4   2 12964.8 1574.88   2
   1   4   3 2474.85 607.021   4
   1   4   3 2575.90 503.484   1
   1   4   3 2401.80 667.165   2
   1   4   3 1436.53 722.552   1
  -1  -4  -3 2239.76 250.626   4
   1   4   4 3649.00 1288.63   1
   1   4   4 3096.20 799.779   2
  -1  -4  -4 3191.50 256.836   4
   1   4   5 235.802 555.265   1
   1   4   5 332.679 322.160   2
   1   4   6 620.531 464.725   2
   1   4   6 829.515 861.865   1
   1   4   7 710.490 491.898   2
   1   4   7 792.164 1101.10   1
   1   4   8-200.296 531.655   1
   1   4   8 114.370 213.414   2
   1   4   9-257.288 695.353   1
   1   4   9-9.28899 250.454   2
   1   4  10 392.220 496.179   2
   1   4  10-395.725 727.839   1
   1   5 -15 371.245 332.919   3
  -1  -5  15 143.308 90.2916   2
   1   5 -14-163.452 270.204   3
  -1  -5  14 871.020 942.554   1
  -1  -5  14 736.202 453.396   2
  -1  -5  13 189.689 284.859   2
   1   5 -13 73.6006 68.4032   3
  -1  -5  12 259.239 203.281   2
   1   5 -12 119.682 133.424   3
   1   5 -11 48.1137 146.728   3
  -1  -5  11-158.122 230.473   1
  -1  -5  11 34.2247 83.6156   2
  -1  -5  10 704.012 327.329   2
   1   5 -10 716.224 343.870   3
   1   5 -10-50.0440 208.915   4
  -1  -5   9 1419.26 513.412   2
   1   5  -9 1283.80 756.415   4
   1   5  -9 1093.82 405.844   3
   1   5  -9 695.446 606.573   1
  -1  -5   8 128.686 160.773   2
   1   5  -8 604.383 450.873   1
   1   5  -8 480.446 292.948   3
   1   5  -8 1215.61 689.869   4
  -1  -5   7 214.833 311.775   2
   1   5  -7-240.585 220.283   4
   1   5  -7 236.752 264.986   1
   1   5  -7 123.125 216.785   3
   1   5  -6 10522.1 1882.09   4
   1   5  -6 11597.8 1395.35   1
   1   5  -5 17694.0 2303.71   4
   1   5  -5 18645.4 1777.61   3
  -1  -5   5 12899.0 1339.74   1
   1   5  -5 17289.8 1605.66   1
  -1  -5   5 15735.6 1063.85   3
   1   5  -4 31.2884 135.258   4
  -1  -5   4 132.657 161.489   1
   1   5  -4 155.513 239.170   3
  -1  -5   4 43.8362 40.7573   3
   1   5  -4 40.6475 42.2210   1
  -1  -5   3 7412.42 907.784   3
   1   5  -3 9532.92 1122.74   3
  -1  -5   3 6508.30 854.759   1
   1   5  -3 8476.28 834.242   1
   1   5  -3 8003.86 1518.11   4
  -1  -5   2 378.359 262.949   3
  -1  -5   2 92.2676 105.319   1
   1   5  -2 515.122 161.142   1
   1   5  -2 97.6653 92.0662   3
   1   5  -2 63.0334 150.178   4
   1   5  -1 152.967 109.823   4
   1   5  -1 84.3312 134.169   3
  -1  -5   1 139.753 159.248   3
   1   5   0 71.3687 199.715   4
   1   5   0 474.534 381.284   2
   1   5   1 11045.3 1689.83   4
   1   5   1 8280.22 632.635   1
   1   5   1 11461.7 1620.05   2
  -1  -5  -2 166.328 92.7872   4
   1   5   2 716.093 452.520   4
   1   5   2 370.478 201.568   1
   1   5   2 738.621 338.708   1
   1   5   2-133.930 78.3942   2
  -1  -5  -3 351.412 119.368   4
   1   5   3 452.062 412.675   1
   1   5   3 897.007 514.238   2
   1   5   3 226.736 188.839   1
   1   5   3 437.678 286.922   4
   1   5   4 179.692 373.991   2
   1   5   5 91.3805 239.360   2
   1   5   5 321.059 263.121   1
   1   5   6 458.860 607.536   2
   1   5   6 338.674 533.192   1
   1   5   7 541.399 447.628   2
   1   5   7 968.309 941.409   1
   1   5   8-117.777 255.407   2
   1   5   8 1740.58 1472.37   1
   1   5   9 4311.64 1351.86   2
  -1  -6  15-114.689 138.821   2
   1   6 -15-335.122 309.123   3
   1   6 -14-447.467 347.308   3
  -1  -6  14-72.8332 554.397   1
  -1  -6  14 311.470 258.035   2
   1   6 -13 78.4477 169.507   3
  -1  -6  13-23.9267 15.1012   2
  -1  -6  13 150.843 634.692   1
  -1  -6  12 7.48721 186.377   2
   1   6 -12 571.758 303.964   3
  -1  -6  12-790.056 1359.40   1
   1   6 -12 279.200 289.261   4
  -1  -6  11 609.447 393.585   2
   1   6 -11-53.7691 170.161   3
   1   6 -11 645.694 503.541   4
  -1  -6  11-176.293 539.719   1
   1   6 -10 1997.41 976.389   4
  -1  -6  10 3304.36 848.058   2
   1   6 -10 2702.95 747.861   3
   1   6 -10 3479.91 1129.99   1
   1   6  -9 108.556 184.032   3
   1   6  -9-10.1945 267.876   1
   1   6  -9-34.2518 289.938   4
  -1  -6   9 74.6772 216.438   2
   1   6  -8 2722.75 1064.97   4
  -1  -6   8 3056.95 820.266   2
   1   6  -8-8.11569 167.502   3
   1   6  -8 3244.66 919.123   1
   1   6  -7 18.1555 73.2072   1
   1   6  -7 479.272 347.703   3
   1   6  -7 244.055 335.151   4
   1   6  -6 2889.47 731.799   1
  -1  -6   6 2309.38 412.728   3
   1   6  -6 4266.82 909.912   3
   1   6  -6 2456.86 1008.92   4
   1   6  -5-126.821 183.272   1
  -1  -6   5 1185.24 298.428   3
   1   6  -5 495.145 353.296   3
   1   6  -5 401.617 505.137   4
   1   6  -4 8133.06 1673.38   4
   1   6  -4 12562.7 1205.29   1
   1   6  -4 13441.0 1423.66   3
  -1  -6   4 7600.54 1085.81   1
  -1  -6   4 9422.52 906.253   3
   1   6  -3 2129.24 840.636   4
   1   6  -3 4019.16 671.567   3
  -1  -6   3 2626.70 576.116   3
  -1  -6   3 2550.52 556.066   1
   1   6  -3 3392.63 511.740   1
   1   6  -2 7781.89 865.185   3
  -1  -6   2 5371.20 908.364   3
   1   6  -2 5615.75 526.301   1
   1   6  -2 6186.97 1418.18   4
   1   6  -1 452.853 365.765   4
   1   6   0 34.7610 331.689   2
   1   6   0 697.672 490.569   4
   1   6   1 692.333 459.026   4
   1   6   1 146.877 94.0209   1
   1   6   1 84.3167 80.5096   1
   1   6   1 636.062 462.310   2
   1   6   2 352.804 381.836   2
   1   6   2 277.951 173.764   1
   1   6   2 106.939 153.333   1
   1   6   2 848.464 458.292   4
   1   6   3 327.411 244.963   4
   1   6   3 211.146 225.710   2
   1   6   3-166.740 205.383   1
   1   6   4 408.361 503.431   1
   1   6   4 322.073 291.113   4
   1   6   4 7.65175 138.713   2
   1   6   5-85.4767 245.461   2
   1   6   5 287.810 406.901   1
   1   6   6 285.226 506.247   2
   1   6   7 360.224 452.631   2
   1   6   8 194.158 274.484   2
   1   6   9 762.078 698.902   2
  -1  -7  15 517.464 445.536   2
  -1  -7  14 31.9427 115.177   2
  -1  -7  14 610.257 1075.54   1
   1   7 -13 205.636 379.974   4
   1   7 -13 43.4565 224.688   3
  -1  -7  13 129.041 209.489   2
  -1  -7  13 210.263 702.562   1
   1   7 -12 270.517 444.908   4
  -1  -7  12 246.197 578.130   1
   1   7 -12 114.949 225.220   3
  -1  -7  12 307.334 235.649   2
  -1  -7  11-67.3904 132.353   2
   1   7 -11 175.468 142.972   4
   1   7 -10 21.4155 153.924   3
   1   7 -10 310.041 374.908   1
   1   7 -10 400.972 470.037   4
  -1  -7  10 133.583 109.181   2
   1   7  -9 173.313 246.999   3
   1   7  -9 292.923 426.391   1
  -1  -7   9 858.083 485.230   2
   1   7  -9-115.680 399.766   4
   1   7  -8-109.279 127.527   3
  -1  -7   8-202.216 121.127   2
   1   7  -8-253.786 164.673   4
   1   7  -7 3487.30 1305.12   4
   1   7  -7 2908.40 785.023   1
   1   7  -7 2644.39 728.478   3
  -1  -7   6 1288.57 290.272   3
   1   7  -6 1683.12 571.712   3
   1   7  -6 1564.43 566.036   1
   1   7  -6 1335.84 741.638   4
   1   7  -5 614.406 445.444   4
   1   7  -5 1458.66 508.804   3
  -1  -7   5 1381.51 323.516   3
   1   7  -5 1480.21 497.910   1
   1   7  -4 11107.9 1122.66   3
  -1  -7   4 6841.45 835.570   3
  -1  -7   4 6661.25 982.088   1
   1   7  -4 10324.7 1096.97   1
   1   7  -4 12298.5 2196.22   4
   1   7  -3 743.733 254.577   1
  -1  -7   3 778.524 311.545   3
  -1  -7   3 883.531 345.521   1
   1   7  -3 1142.07 357.384   3
  -1  -7   2 313.974 200.153   1
  -1  -7   2 787.833 374.357   3
   1   7  -2 1064.60 662.995   4
   1   7  -2 572.207 172.452   1
   1   7  -1 930.468 686.812   4
   1   7   0 859.741 624.597   4
   1   7   0 824.964 687.799   2
   1   7   1 879.835 206.152   1
   1   7   1 1934.80 890.530   2
   1   7   1 1416.83 245.058   1
   1   7   2 333.932 418.568   4
   1   7   2 2544.48 490.008   1
   1   7   3 496.132 446.311   4
   1   7   3-31.1021 290.274   2
   1   7   4 326.824 495.291   2
   1   7   5 124.634 285.455   2
   1   7   6 402.703 454.883   2
   1   7   7 963.348 709.020   2
   1   7   8 1315.30 936.025   2
  -1  -8  14 84.4203 266.363   2
  -1  -8  14 303.863 808.430   1
  -1  -8  13-232.890 239.559   2
   1   8 -13 257.618 454.855   4
  -1  -8  12-133.285 82.9022   2
  -1  -8  12 541.703 890.814   1
   1   8 -12-1057.47 905.410   4
   1   8 -11-471.151 491.576   4
   1   8 -11-252.442 167.713   1
  -1  -8  11 208.464 292.501   2
   1   8 -10 238.924 347.624   1
   1   8 -10 566.768 397.342   4
   1   8 -10 616.234 517.983   3
  -1  -8  10 217.416 342.288   2
   1   8  -9 26.5905 255.209   4
   1   8  -9 417.644 373.360   1
   1   8  -9 198.431 259.217   3
  -1  -8   9 838.795 507.889   2
   1   8  -8-14.6299 236.494   3
   1   8  -8 104.029 190.192   1
   1   8  -8 135.178 523.444   4
   1   8  -7 254.824 375.543   1
   1   8  -7 1298.44 741.385   4
   1   8  -7 993.266 450.699   3
   1   8  -6 2374.24 1159.38   4
   1   8  -6 3379.00 753.986   3
   1   8  -6 1887.31 642.058   1
   1   8  -5 5121.46 1593.82   4
   1   8  -5 6203.91 845.115   3
   1   8  -5 6151.74 982.613   1
   1   8  -4 9640.31 2130.90   4
   1   8  -4 10670.0 1053.97   3
   1   8  -4 8492.44 1006.14   1
   1   8  -3 1033.37 702.901   4
   1   8  -3 178.792 126.044   1
   1   8  -2 60.1277 44.7236   4
   1   8  -2 56.3027 75.2783   1
   1   8  -1 297.131 513.579   4
   1   8   0 221.063 388.492   4
   1   8   1-75.5233 368.498   2
   1   8   1 498.961 551.908   4
   1   8   2-149.518 271.883   4
   1   8   2 383.295 525.844   2
   1   8   3 661.635 574.223   2
   1   8   3 689.740 547.991   4
   1   8   4 503.640 594.555   2
   1   8   5 600.003 632.435   2
   1   8   6-37.5182 315.491   2
   1   8   7 1152.76 823.135   2
   1   9 -14 1127.78 1042.65   4
  -1  -9  14 143.555 240.609   2
  -1  -9  14 884.260 1306.71   1
  -1  -9  13-163.369 141.523   2
   1   9 -13 851.503 834.358   4
  -1  -9  13 315.551 505.689   1
  -1  -9  12 473.297 410.775   2
   1   9 -12-1165.36 819.251   4
  -1  -9  12 285.101 740.721   1
   1   9 -11 172.291 756.094   4
   1   9 -11 508.525 459.975   1
  -1  -9  11-244.143 289.822   2
   1   9 -10 64.5782 447.254   4
   1   9 -10-17.4136 189.182   1
  -1  -9  10-339.919 337.809   2
  -1  -9   9-1.78989 223.665   2
   1   9  -9 616.071 530.936   1
   1   9  -9-484.114 582.998   4
   1   9  -8 793.275 842.264   4
   1   9  -8 357.813 313.780   1
   1   9  -7 719.095 752.754   4
   1   9  -7 180.296 280.739   1
   1   9  -6 222.769 436.651   4
   1   9  -6-86.6564 56.0950   1
   1   9  -5 3305.12 569.913   3
   1   9  -5 2673.20 1191.73   4
   1   9  -5 1509.08 457.605   1
   1   9  -4 11315.0 2472.25   4
   1   9  -4 14519.4 1281.45   1
   1   9  -3 885.478 775.667   4
   1   9  -2 2136.09 1159.56   4
   1   9  -1 802.375 859.070   4
   1   9   0 620.256 743.792   4
   1   9   1 625.415 716.207   4
   1   9   2 493.632 534.045   4
   1   9   2 912.058 739.287   2
   1   9   3 717.779 722.397   2
   1   9   4 586.823 665.138   2
   1   9   5 482.807 627.871   2
   1  10 -14 1208.99 913.443   4
  -1 -10  13-13.8295 144.744   2
   1  10 -13 872.739 938.342   4
  -1 -10  13 945.555 725.350   1
  -1 -10  12-99.2444 506.450   1
  -1 -10  12 526.910 436.044   2
  -1 -10  11 191.490 88.6680   2
   1  10 -11 106.205 609.056   4
   1  10 -10 546.072 382.992   1
   1  10 -10 722.413 862.543   4
  -1 -10  10 263.915 205.008   2
   1  10  -9-500.416 562.735   4
   1  10  -9 818.099 615.306   1
   1  10  -8 127.889 285.915   1
   1  10  -8 221.558 604.913   4
   1  10  -7 29.2097 347.962   4
   1  10  -7-70.2051 249.425   1
   1  10  -6 907.327 737.746   4
   1  10  -5 2384.01 1172.65   4
   1  10  -4 4115.76 1493.80   4
   1  10  -3 10692.7 2441.56   4
   1  10  -2 183.267 361.822   4
   1  10  -1 333.208 413.640   4
   1  10   0 193.342 443.734   4
   1  10   1 580.186 777.315   4
   1  10   3 156.832 478.036   2
   1  10   4 573.026 619.938   2
  -1 -11  13 665.246 462.269   2
  -1 -11  12-313.691 355.201   2
   1  11 -12-888.241 963.382   4
   1  11 -11-984.223 906.318   4
  -1 -11  11 643.505 526.698   2
   1  11 -10-125.002 436.509   4
  -1 -11  10 141.048 263.598   2
   1  11  -9 526.877 663.190   4
   1  11  -8 1140.61 1030.59   4
   1  11  -7 1422.51 1102.77   4
   1  11  -6 338.233 629.925   4
   1  11  -5 632.313 905.557   4
   1  11  -4 568.157 861.761   4
   1  11  -3 3406.49 1715.36   4
   1  11  -2 56.0730 285.995   4
   1  11  -1 178.270 592.020   4
   1  11   0 1540.19 1088.44   4
  -1 -12  11 777.916 659.779   2
   1  12 -10 1123.17 803.639   4
   1  12  -9 1635.13 1007.54   4
   1  12  -8-306.888 664.354   4
   1  12  -7 217.320 638.956   4
   1  12  -6 441.296 903.780   4
   1  12  -5 740.703 1018.59   4
   1  12  -4 405.511 763.007   4
   1  12  -3 135.345 512.531   4
   1  12  -2 636.788 810.678   4
   1  12  -1 776.069 971.189   4
   1  13  -6 872.494 927.648   4
   1  13  -5 557.998 751.067   4
   1  13  -4 2133.13 1690.30   4
   1  13  -3 2001.48 1315.53   4
   1  13  -2-1308.23 828.988   4
  -2  14   0 1227.98 935.522   4
  -2  14  -1-522.396 659.669   4
  -2  14  -2 1704.93 1056.15   4
  -2  14  -3 638.229 640.911   4
  -2  14  -4 136.940 321.389   4
  -2  13   1-396.397 459.806   4
  -2  13   0-231.764 416.140   4
  -2  13  -1 183.480 357.992   4
  -2  13  -2 421.350 463.863   4
  -2  13  -3 258.749 423.051   4
  -2  13  -4 718.161 703.558   4
  -2  13  -5 154.611 178.688   1
  -2  13  -5 1748.79 842.911   4
  -2  13  -6 520.182 563.835   4
  -2  13  -6 561.452 598.117   1
  -2  13  -7 1051.55 801.332   4
  -2  13  -7 110.333 96.5014   1
  -2  13  -8-105.151 254.395   4
  -2  13  -8 1249.12 757.428   1
  -2  13  -9 710.450 617.081   1
  -2  13 -10 926.161 704.282   1
  -2  12   2-282.798 297.786   4
  -2  12   1 1290.49 689.793   4
  -2  12   0 1725.70 774.716   4
  -2  12  -1 110.626 96.3047   4
  -2  12  -2 596.139 511.930   1
  -2  12  -2 879.110 595.803   4
  -2  12  -3 292.624 402.031   4
  -2  12  -3 370.816 465.626   1
  -2  12  -4 381.701 477.964   4
  -2  12  -4 287.667 382.389   1
  -2  12  -5-222.644 240.187   4
  -2  12  -5 19.4056 112.252   1
  -2  12  -6 723.169 607.297   1
  -2  12  -6 223.397 277.627   4
  -2  12  -7 1423.90 680.566   1
  -2  12  -7 705.770 521.338   4
  -2  12  -8 421.491 574.373   4
  -2  12  -8 2463.19 929.890   1
  -2  12  -9-59.7982 253.176   4
  -2  12  -9 361.039 436.640   1
   2 -12   9-567.623 648.821   2
  -2  12 -10 409.960 657.007   4
   2 -12  10 630.742 590.429   2
  -2  12 -10 1138.57 701.233   1
  -2  12 -11 684.768 621.564   4
  -2  12 -11-150.355 281.980   1
  -2  11   3 300.200 426.210   4
  -2  11   2 320.995 387.346   4
  -2  11   2 651.984 646.920   1
  -2  11   1 488.783 424.498   1
  -2  11   1 58.1410 198.353   4
  -2  11   0 2359.23 929.816   1
  -2  11   0 1543.73 625.452   4
  -2  11  -1 1076.37 674.443   1
  -2  11  -1 1089.76 526.500   4
  -2  11  -2-396.064 470.815   1
  -2  11  -2 133.566 238.871   4
  -2  11  -3 443.970 421.359   4
  -2  11  -3 479.691 409.251   1
  -2  11  -4 50.0105 300.325   1
  -2  11  -4-387.088 372.244   4
  -2  11  -5 423.837 281.089   4
  -2  11  -5 498.557 560.640   1
  -2  11  -6-50.3906 257.748   4
  -2  11  -6-187.258 243.669   1
  -2  11  -7 555.379 539.377   1
  -2  11  -7 690.054 542.322   4
  -2  11  -8 23.9110 281.524   4
  -2  11  -8 541.978 496.383   1
  -2  11  -9 1179.08 850.333   4
  -2  11  -9 1039.03 629.107   1
   2 -11   9 1116.77 708.474   2
  -2  11 -10-52.6207 224.452   4
   2 -11  10 283.048 347.106   2
  -2  11 -10 148.035 315.259   1
  -2  11 -11 1143.70 940.458   4
   2 -11  11 865.620 622.663   2
  -2  11 -11 824.704 745.153   1
  -2  11 -12 1634.68 1116.37   4
  -2  10   6-1096.76 929.237   2
  -2  10   4-531.667 393.020   4
  -2  10   4 30.8688 97.4132   1
  -2  10   3 257.256 278.841   4
  -2  10   3 429.014 523.374   1
  -2  10   2 631.751 404.963   4
  -2  10   2-55.4564 229.196   1
  -2  10   1 1311.03 526.154   4
  -2  10   1 662.297 549.301   1
  -2  10   0 201.331 412.924   1
  -2  10   0 272.491 337.018   4
  -2  10  -1 4111.17 1185.87   1
  -2  10  -1 5450.34 981.246   4
  -2  10  -2 102.293 165.193   4
  -2  10  -2 325.235 370.076   1
  -2  10  -3 2703.44 745.510   4
  -2  10  -3 3673.04 1026.77   1
  -2  10  -4 1372.49 560.510   4
  -2  10  -4 1222.76 716.918   1
  -2  10  -5 404.838 355.773   4
  -2  10  -5-67.8216 169.464   1
  -2  10  -6 979.083 555.343   4
  -2  10  -6 59.2875 229.370   1
  -2  10  -7 719.645 499.206   4
  -2  10  -7 452.959 307.560   1
  -2  10  -8-132.960 167.359   1
  -2  10  -8-165.304 135.495   4
   2 -10   8-403.331 520.650   2
   2 -10   9 404.533 535.531   2
  -2  10  -9 110.485 336.659   1
  -2  10  -9-101.048 224.338   4
  -2  10 -10 1304.42 874.096   4
   2 -10  10 539.952 544.002   2
  -2  10 -10 350.106 521.809   1
  -2  10 -11 228.731 207.311   1
   2 -10  11-234.132 320.162   2
  -2  10 -12 462.586 643.572   1
  -2  10 -12-598.342 731.237   4
   2  -9  -9-4.26497 380.679   3
   2  -9  -8 212.858 381.307   3
  -2   9   8-414.773 705.667   2
  -2   9   7 592.383 843.808   1
   2  -9  -7 408.983 450.534   3
  -2   9   7 256.364 336.505   2
   2  -9  -6 4564.51 1034.72   3
  -2   9   6 2462.20 1352.83   1
  -2   9   6 4228.75 1557.71   2
   2  -9  -5 16382.6 1816.58   3
  -2   9   5 14555.7 2811.87   2
  -2   9   4-17.0179 31.5749   4
   2  -9  -4 19.6331 215.944   3
  -2   9   4 703.669 693.335   2
  -2   9   4-287.709 599.331   1
  -2   9   3 778.082 539.394   1
  -2   9   3 2311.86 583.375   4
   2  -9  -2-42.0345 101.603   3
  -2   9   2-40.8225 146.419   4
  -2   9   2-77.2187 297.930   1
  -2   9   1 117.093 140.394   4
   2  -9  -1-76.8202 56.6674   3
  -2   9   1 128.832 38.3306   1
  -2   9   0 252.231 236.187   1
   2  -9   0 5.12402 12.9360   3
  -2   9   0 292.607 266.357   4
  -2   9  -1 2789.49 946.985   1
  -2   9  -1 3749.85 697.337   4
  -2   9  -2 3895.49 1241.99   1
  -2   9  -2 3018.99 625.490   4
  -2   9  -3 974.638 383.693   4
  -2   9  -3 2353.34 913.978   1
  -2   9  -4 760.707 501.369   1
  -2   9  -4 554.409 247.415   4
  -2   9  -5 232.189 250.488   4
  -2   9  -5 124.297 294.050   1
  -2   9  -6 3561.90 865.193   4
  -2   9  -6 3734.90 1046.87   1
  -2   9  -7 2087.29 758.926   4
  -2   9  -7 2328.64 899.179   1
  -2   9  -8 671.422 574.981   4
  -2   9  -8 296.131 492.943   1
   2  -9   8-252.364 255.249   2
  -2   9  -9 126.360 222.457   4
  -2   9  -9-62.5507 254.077   1
   2  -9   9 442.370 414.551   2
  -2   9 -10 1218.22 826.767   4
  -2   9 -10 831.629 641.042   1
   2  -9  10 924.699 598.364   2
   2  -9  11 472.707 454.057   2
  -2   9 -11 1449.45 897.215   1
  -2   9 -11 1028.63 869.127   4
  -2   9 -12 1145.48 863.657   1
   2  -9  12 864.201 597.808   2
  -2   8   9-833.938 790.511   1
   2  -8  -9 37.2801 182.256   3
  -2   8   8 205.995 596.537   2
   2  -8  -8 326.579 428.980   3
  -2   8   7-87.9834 186.193   2
  -2   8   7 413.589 466.952   1
   2  -8  -7 30.3741 63.2459   3
  -2   8   6 1127.01 745.408   2
   2  -8  -6 304.767 332.225   3
  -2   8   6 103.753 374.188   1
  -2   8   5 903.238 1033.17   1
  -2   8   5 76.5153 156.207   4
   2  -8  -5 1195.11 524.466   3
  -2   8   5 1520.87 1072.51   2
  -2   8   4 1660.30 415.690   4
   2  -8  -4 1180.50 478.297   3
  -2   8   4 2063.26 923.562   2
  -2   8   4 1774.64 1000.36   1
   2  -8  -3 5208.17 859.172   3
  -2   8   3 4452.71 653.439   4
  -2   8   2-4.87247 19.3290   4
  -2   8   2 43.5490 314.285   1
   2  -8  -2 357.002 231.730   3
  -2   8   1 83.0954 91.6995   4
   2  -8  -1 178.360 174.677   3
  -2   8   1 313.635 456.253   1
  -2   8   0 250.690 148.265   4
   2  -8   0 477.315 204.433   3
  -2   8   0 214.089 352.984   1
  -2   8  -1 1051.46 321.014   4
   2  -8   1 594.326 106.955   3
   2  -8   1 802.956 186.074   3
  -2   8  -2 94.8106 78.0510   1
  -2   8  -2 279.923 160.132   4
  -2   8  -3 253.635 229.510   1
  -2   8  -3 510.488 230.430   4
  -2   8  -4 559.328 280.036   4
  -2   8  -4-114.224 350.714   1
  -2   8  -5 1738.00 520.489   4
  -2   8  -5 1805.78 693.461   1
  -2   8  -6 22692.4 2164.54   4
  -2   8  -6 23764.8 2728.05   1
  -2   8  -7 2262.54 709.937   4
  -2   8  -7 373.802 363.501   1
   2  -8   7 2030.25 764.099   2
  -2   8  -7 948.186 204.548   3
  -2   8  -8 1099.21 524.121   4
   2  -8   8 1157.82 636.585   2
  -2   8  -8 1026.33 601.632   1
  -2   8  -9 1679.31 687.648   4
  -2   8  -9 1800.68 893.413   1
   2  -8   9 1501.06 718.535   2
  -2   8 -10 255.899 515.847   4
   2  -8  10 369.505 399.250   2
  -2   8 -10 1206.27 726.411   1
  -2   8 -11 405.143 414.456   4
   2  -8  11 726.043 426.466   2
  -2   8 -11 93.5925 326.059   1
  -2   8 -12 755.822 865.891   1
   2  -8  12 792.506 541.990   2
  -2   7  11-1212.53 1367.15   1
   2  -7 -10 447.286 492.797   3
  -2   7  10-225.234 439.700   2
  -2   7  10 428.634 777.354   1
  -2   7   9 2021.90 1593.68   1
  -2   7   9 2147.65 1257.72   2
   2  -7  -9 767.726 570.924   3
  -2   7   8 4.74331 359.245   1
   2  -7  -8 206.062 182.447   3
  -2   7   8 90.1650 39.2463   2
   2  -7  -7 88.5573 44.8113   3
  -2   7   7 510.312 676.127   2
  -2   7   7 1070.53 1108.08   1
  -2   7   6 67.2019 325.457   2
  -2   7   6 340.290 633.172   1
  -2   7   6 69.1714 84.0696   4
   2  -7  -6 140.442 33.3114   3
  -2   7   5 325.760 169.384   4
   2  -7  -5 3677.57 774.109   3
  -2   7   5 2822.14 1406.39   1
  -2   7   5 3844.34 1224.38   2
   2  -7  -4 34820.7 2286.73   3
  -2   7   4 32816.0 1558.50   4
  -2   7   4 31575.8 3433.73   2
   2  -7  -3 688.309 308.746   3
  -2   7   3 1302.05 792.070   1
  -2   7   3 820.689 698.046   2
  -2   7   3 112.490 131.638   4
  -2   7   2 373.402 190.107   4
   2  -7  -2 446.722 209.964   3
  -2   7   2 361.572 402.813   1
  -2   7   1 363.106 171.673   4
  -2   7   1 309.037 295.864   1
   2  -7  -1 105.192 79.2645   3
   2  -7   0 76.1262 92.4187   3
  -2   7   0 7.96096 251.225   1
  -2   7   0 148.728 124.431   4
  -2   7  -1 1131.34 673.732   1
  -2   7  -1 695.477 228.351   4
   2  -7   1 481.041 193.254   3
  -2   7  -2 3258.31 513.303   4
  -2   7  -2 4746.28 1258.14   1
  -2   7  -3 6434.65 1445.19   1
  -2   7  -3 3184.81 530.132   4
  -2   7  -4 3333.30 950.740   1
  -2   7  -4 2685.66 496.325   4
  -2   7  -5 2337.04 529.926   4
  -2   7  -5 2753.96 866.339   1
  -2   7  -5 2156.93 433.911   3
  -2   7  -6 581.297 241.480   4
  -2   7  -6 329.012 266.912   3
  -2   7  -6 62.3753 225.711   1
   2  -7   6 831.810 543.413   2
  -2   7  -7 9934.14 1388.51   4
  -2   7  -7 10211.0 1778.37   1
   2  -7   7 10034.0 1624.68   2
  -2   7  -8 1025.44 514.287   4
  -2   7  -8 361.822 490.822   1
   2  -7   8 686.112 535.101   2
  -2   7  -9 971.141 583.593   4
  -2   7  -9 847.757 603.706   1
   2  -7   9 954.236 500.275   2
   2  -7  10 756.140 485.914   2
  -2   7 -10-355.891 441.375   4
  -2   7 -10 1070.51 773.463   1
  -2   7 -11 577.174 601.317   4
  -2   7 -11 36.5942 329.516   1
   2  -7  11 410.194 331.989   2
   2  -7  12 667.401 485.715   2
  -2   7 -12 832.505 706.095   1
  -2   7 -13 216.839 389.632   1
   2  -7  13-48.6022 239.018   2
  -2   6  11 435.734 1341.02   1
  -2   6  11-861.762 831.915   2
   2  -6 -11-89.7279 306.044   3
  -2   6  10 1549.53 1273.21   1
  -2   6  10 220.189 512.319   2
   2  -6 -10 90.9273 270.639   3
  -2   6   9 449.850 801.080   1
   2  -6  -9 543.822 524.565   3
  -2   6   9 492.860 425.016   2
  -2   6   8-68.0389 711.543   1
   2  -6  -8 95.7515 137.680   3
  -2   6   8-616.786 493.013   2
  -2   6   7 143.167 121.537   4
  -2   6   7 566.211 578.770   2
   2  -6  -7 154.370 232.186   3
  -2   6   7 989.441 955.598   1
  -2   6   6 67.7781 531.411   1
   2  -6  -6 203.862 242.886   3
  -2   6   6 640.822 464.535   2
  -2   6   6 149.197 100.840   4
   2  -6  -5 10383.9 1274.50   3
  -2   6   5 8025.58 2213.17   1
  -2   6   5 9491.38 1842.97   2
   2  -6  -4 3317.05 671.375   3
  -2   6   4 3236.52 1328.75   1
  -2   6   4 3019.48 394.152   4
  -2   6   4 2362.20 975.929   2
  -2   6   3 977.845 229.259   4
  -2   6   3 818.303 567.966   1
   2  -6  -3 961.663 328.217   3
  -2   6   3 547.414 385.645   2
   2  -6  -2 8475.37 936.271   3
  -2   6   2 8312.79 653.039   4
  -2   6   2 6661.25 1558.56   1
   2  -6  -1 1989.54 416.330   3
  -2   6   1 2501.02 910.185   1
  -2   6   1 1935.89 310.133   4
  -2   6   0 9416.29 669.641   4
   2  -6   0 9211.59 897.467   3
   2  -6   1 15850.8 1068.84   3
  -2   6  -1 15813.3 917.083   4
  -2   6  -2-61.0677 181.376   1
  -2   6  -2 124.905 81.4891   4
   2  -6   2 121.355 50.4019   3
  -2   6  -3 6341.26 503.749   3
  -2   6  -3 7438.03 713.017   4
  -2   6  -3 7513.55 1487.41   1
  -2   6  -4 471.284 210.243   4
  -2   6  -4 457.411 362.909   1
  -2   6  -4 324.770 185.378   3
  -2   6  -5 6296.50 848.399   3
  -2   6  -5 6085.67 758.363   4
  -2   6  -5 7062.07 1402.16   1
  -2   6  -6 336.981 169.734   4
  -2   6  -6 526.328 408.683   1
   2  -6   6 719.341 460.281   2
  -2   6  -6 285.506 202.682   3
  -2   6  -7 40343.3 2694.95   4
  -2   6  -7 34240.4 3116.18   1
   2  -6   7 37741.3 2947.42   2
  -2   6  -8 15521.9 1857.41   4
  -2   6  -8 13787.7 2076.14   1
   2  -6   8 14792.5 1830.13   2
   2  -6   9 1424.43 602.731   2
  -2   6  -9 902.012 494.966   4
  -2   6  -9 1329.77 797.246   1
  -2   6 -10 770.794 588.389   4
  -2   6 -10 46.6333 205.507   1
   2  -6  10 290.238 404.188   2
  -2   6 -11 28.2943 307.237   1
   2  -6  11 356.647 318.851   2
   2  -6  12 689.196 511.839   2
  -2   6 -12 381.125 557.243   1
  -2   6 -13 322.158 145.227   1
   2  -6  13-14.4567 102.012   2
  -2   5  12 1647.61 2027.23   1
  -2   5  12 2456.31 1338.03   2
  -2   5  11-962.987 1771.63   1
   2  -5 -11 146.317 151.703   3
  -2   5  11-359.402 513.138   2
  -2   5  10 649.121 637.294   1
   2  -5 -10-225.636 163.566   3
  -2   5  10 871.970 656.058   2
  -2   5   9 104.669 368.006   2
  -2   5   9 1362.73 1781.48   1
   2  -5  -9-64.9759 122.234   3
  -2   5   8 162.125 705.682   1
   2  -5  -8 97.2108 296.397   3
  -2   5   8 521.144 535.355   2
  -2   5   7 627.877 177.495   4
   2  -5  -7 295.806 180.833   3
  -2   5   7 387.030 395.512   2
  -2   5   6 624.657 172.737   4
  -2   5   6 614.312 848.075   1
  -2   5   6 1835.50 791.871   2
   2  -5  -6 1361.23 459.993   3
  -2   5   5 2962.83 1250.12   1
  -2   5   5 3331.92 977.619   2
   2  -5  -5 4558.56 813.581   3
  -2   5   5 852.990 202.231   4
  -2   5   4 774.569 475.833   2
  -2   5   4 1357.90 245.099   4
   2  -5  -4 1398.08 398.031   3
  -2   5   4 869.364 897.917   1
  -2   5   3 2507.44 329.423   4
   2  -5  -3 3536.35 650.730   3
  -2   5   3 1571.07 806.341   1
  -2   5   3 2681.03 812.265   2
   2  -5  -2-42.8936 86.3984   3
  -2   5   2 203.701 536.728   1
  -2   5   2-144.948 162.972   2
  -2   5   2 35.2219 60.1872   4
   2  -5  -1 37059.8 1860.29   3
  -2   5   1 39834.8 3560.33   1
  -2   5   1 39285.9 1291.74   4
  -2   5   0 13378.7 768.408   4
  -2   5   0 13141.5 1946.47   1
   2  -5   0 12485.8 1108.68   3
  -2   5  -1 32158.9 1194.98   3
   2  -5   1 31192.8 1622.09   3
  -2   5  -1 33525.3 2957.32   1
  -2   5  -1 28527.6 1124.37   4
   2  -5   2 26406.7 1027.92   3
  -2   5  -2 26533.5 1284.37   3
  -2   5  -2 23709.2 1045.30   4
  -2   5  -3 8733.74 905.009   3
  -2   5  -3 9513.22 708.553   4
  -2   5  -4 0.77874 77.7126   4
  -2   5  -4 165.737 172.740   1
  -2   5  -4 204.528 190.302   3
  -2   5  -5 2612.89 444.053   4
  -2   5  -5 2228.10 492.786   3
   2  -5   5 2746.05 744.521   2
  -2   5  -5 1688.35 669.798   1
  -2   5  -6 7218.66 859.693   4
  -2   5  -6 5738.11 1191.40   1
   2  -5   6 7590.58 1203.01   2
   2  -5   7 486.252 273.811   2
  -2   5  -7-151.631 263.920   1
  -2   5  -7 267.311 306.857   4
  -2   5  -8 5265.23 1000.91   4
  -2   5  -8 3786.18 1140.58   1
   2  -5   8 5294.21 1053.62   2
  -2   5  -9 4535.91 1043.08   4
   2  -5   9 4743.95 1025.14   2
  -2   5  -9 2473.30 1011.48   1
  -2   5 -10 1462.81 560.225   4
  -2   5 -10 558.480 555.687   1
   2  -5  10 1281.40 587.225   2
   2  -5  11 156.621 100.986   2
  -2   5 -11 481.699 583.595   1
  -2   5 -12-204.422 525.413   1
   2  -5  12-134.107 303.575   2
   2  -5  13 955.276 562.322   2
  -2   5 -13-235.116 479.861   1
   2  -4 -12 298.003 490.885   3
  -2   4  12-205.387 123.456   1
   2  -4 -11 303.720 345.879   3
  -2   4  11 466.959 427.575   2
   2  -4 -10 323.570 340.174   3
  -2   4  10 1953.34 863.768   2
  -2   4   9 231.269 283.425   2
   2  -4  -9-177.595 148.478   3
  -2   4   8-78.2202 459.691   2
   2  -4  -8-21.9650 203.185   3
  -2   4   8 226.661 106.236   4
  -2   4   8-271.068 355.111   1
  -2   4   7-145.536 93.7897   4
   2  -4  -7 282.252 285.571   3
  -2   4   7-69.7005 41.1863   2
  -2   4   7 174.716 804.751   1
  -2   4   6 3710.65 1843.45   1
   2  -4  -6 4303.10 818.602   3
  -2   4   6 1775.65 655.676   2
  -2   4   6 3371.15 368.486   4
   2  -4  -5 1361.09 462.532   3
  -2   4   5 1300.07 916.508   1
  -2   4   5 1345.82 534.130   2
  -2   4   5 1170.47 217.742   4
  -2   4   4 13082.1 2527.89   1
   2  -4  -4 14327.7 1348.09   3
  -2   4   4 9825.52 1416.94   2
  -2   4   4 12606.9 693.233   4
   2  -4  -3 6052.64 811.591   3
  -2   4   3 3230.44 1108.35   1
  -2   4   3 4249.25 893.300   2
  -2   4   3 5212.68 439.429   4
   2  -4  -2 10135.6 998.545   3
  -2   4   2 8499.43 1739.08   1
  -2   4   2 12276.4 1484.63   2
  -2   4   2 10571.5 621.634   4
  -2   4   1 4088.99 490.683   3
  -2   4   1 4148.21 1127.80   1
  -2   4   1 3726.28 359.466   4
   2  -4  -1 2529.01 681.049   2
   2  -4  -1 3132.94 564.071   3
  -2   4   0 2528.40 370.690   3
   2  -4   0 1931.63 456.961   3
  -2   4   0 2514.83 302.140   4
  -2   4   0 2439.63 794.542   1
  -2   4  -1 39217.9 1198.90   4
   2  -4   1 41058.9 1980.35   3
  -2   4  -1 36972.9 1681.54   3
  -2   4  -1 41607.0 3125.47   1
  -2   4  -2 133792. 3705.62   3
  -2   4  -2 139446. 2338.36   4
  -2   4  -3 167.009 84.5635   4
  -2   4  -3 407.467 325.248   1
  -2   4  -3 91.1149 111.057   3
  -2   4  -4 2354.58 521.808   3
  -2   4  -4 1362.50 499.244   1
   2  -4   4 1861.74 542.337   2
  -2   4  -4 2461.69 343.820   4
  -2   4  -5 5.58441 66.1267   4
  -2   4  -5 254.375 232.214   1
   2  -4   5 145.015 125.152   2
  -2   4  -6 2469.98 736.504   1
  -2   4  -6 3547.83 549.251   4
   2  -4   6 3615.17 750.815   2
   2  -4   7 634.604 307.151   2
  -2   4  -7 597.008 436.493   1
  -2   4  -7 1145.30 367.708   4
   2  -4   8 2602.38 674.170   2
  -2   4  -8 2588.34 654.611   4
  -2   4  -8 2341.51 884.616   1
  -2   4  -9 1251.53 572.486   4
  -2   4  -9 1880.53 971.576   1
   2  -4   9 2012.60 650.132   2
   2  -4  10 665.143 377.545   2
  -2   4 -10 679.728 689.946   1
  -2   4 -11 1069.56 706.578   1
   2  -4  11 690.633 440.920   2
   2  -4  12 509.445 378.274   2
  -2   4 -12 656.043 556.877   1
  -2   4 -13 1194.56 901.454   1
   2  -4  13-618.486 495.682   2
  -2   3  13 825.908 1833.72   1
  -2   3  13 472.285 418.930   2
  -2   3  12 2919.36 2882.00   1
  -2   3  12 36.8196 330.314   2
   2  -3 -12 1340.03 736.785   3
  -2   3  11-297.294 634.079   1
  -2   3  11 371.468 344.602   2
   2  -3 -11 403.219 363.995   3
   2  -3 -10 3306.95 942.036   3
  -2   3  10 2098.06 886.308   2
  -2   3   9 454.794 653.943   1
   2  -3  -9 295.903 140.641   3
  -2   3   9 539.732 152.265   4
  -2   3   9 111.872 157.801   2
  -2   3   8 903.102 1241.95   1
  -2   3   8 42.8228 246.013   2
  -2   3   8-184.436 112.343   4
   2  -3  -8 521.747 364.579   3
  -2   3   7 248.087 138.076   4
  -2   3   7 104.385 246.727   2
   2  -3  -7 508.916 327.451   3
  -2   3   6 483.041 365.194   2
  -2   3   6 411.139 142.539   4
   2  -3  -6 1032.30 373.785   3
  -2   3   5 81259.8 1741.28   4
   2  -3  -5 95406.3 3567.71   3
  -2   3   5 84304.8 7366.78   1
  -2   3   5 79879.8 4040.89   2
  -2   3   4 57953.8 1427.99   4
  -2   3   4 55160.2 3135.53   2
  -2   3   3 22871.2 880.803   4
   2  -3  -3 24457.3 1610.69   3
  -2   3   3 19220.2 2620.91   1
   2  -3  -3 23079.9 1669.54   2
  -2   3   3 21448.1 1801.81   2
  -2   3   2 31247.6 1524.14   3
  -2   3   2 34319.0 1143.72   4
  -2   3   2 32851.2 3199.37   1
   2  -3  -2 32301.9 3671.54   1
   2  -3  -2 34878.1 2162.06   2
  -2   3   2 28442.3 1874.58   2
   2  -3  -2 27004.0 1649.19   3
  -2   3   1 1160.39 208.736   4
  -2   3   1 1105.52 290.841   3
   2  -3  -1 993.130 345.242   2
   2  -3  -1 1039.09 321.805   3
   2  -3  -1 919.694 479.525   1
  -2   3   1 1238.42 544.237   1
  -2   3   0 14530.5 1118.11   3
   2  -3   0 14722.0 1333.04   3
   2  -3   0 14585.6 2013.39   1
  -2   3   0 12933.1 1741.71   1
  -2   3   0 14476.0 677.705   4
   2  -3   0 13801.0 749.014   4
   2  -3   1 6593.28 501.070   4
  -2   3  -1 5247.58 752.674   3
   2  -3   1 6339.96 836.277   3
   2  -3   1 5758.81 1188.83   1
  -2   3  -1 6322.70 1128.62   1
  -2   3  -1 7330.48 485.930   4
   2  -3   2 43540.0 1801.09   3
   2  -3   2 44243.6 1288.28   4
  -2   3  -2 41600.2 1167.17   4
  -2   3  -3 54332.4 2607.62   3
  -2   3  -3 52205.9 3256.23   1
   2  -3   3 56491.8 2719.38   2
   2  -3   3 53492.0 1556.92   4
  -2   3  -3 54339.4 1373.46   4
  -2   3  -4 6303.05 1085.49   1
   2  -3   4 9735.20 672.267   4
   2  -3   4 7678.19 987.644   2
  -2   3  -4 6533.54 870.601   3
  -2   3  -4 6536.47 485.583   4
   2  -3   5 1862.16 502.545   2
  -2   3  -5 1626.59 557.992   1
   2  -3   5 1909.53 309.746   4
  -2   3  -5 1388.24 252.223   4
  -2   3  -6 357.140 138.056   4
  -2   3  -6 586.493 371.695   1
   2  -3   6 419.120 143.168   4
   2  -3   6 636.356 311.691   2
  -2   3  -7 7253.24 881.591   4
  -2   3  -7 6108.55 1228.35   1
   2  -3   7 7947.80 1127.60   2
   2  -3   8 422.154 342.689   2
  -2   3  -8 338.821 350.660   1
  -2   3  -8 548.839 271.660   4
   2  -3   9 242.043 267.644   2
  -2   3  -9 408.630 479.345   1
   2  -3  10 946.476 460.986   2
  -2   3 -10 794.371 650.272   1
   2  -3  11 707.952 462.370   2
  -2   3 -11 1274.54 769.470   1
   2  -3  12-3.71163 40.5745   2
  -2   3 -12 24.0755 243.497   1
  -2   2  14 632.930 552.862   2
   2  -2 -13 12.4681 114.336   3
  -2   2  13 796.360 755.092   2
  -2   2  13-393.542 1046.13   1
   2  -2 -12 553.006 412.484   3
  -2   2  12-414.263 950.854   1
  -2   2  12 1372.27 734.702   2
   2  -2 -11 2062.66 809.485   3
  -2   2  11 1726.86 671.540   2
  -2   2  11 2622.80 2052.29   1
  -2   2  10 1360.95 1118.67   1
  -2   2  10 1366.64 668.786   2
   2  -2 -10 1644.38 651.017   3
  -2   2   9 2290.72 1636.89   1
   2  -2  -9 4838.22 1047.54   3
  -2   2   9 3595.15 399.753   4
  -2   2   9 2687.17 781.605   2
  -2   2   8 1692.07 1636.63   1
   2  -2  -8 1192.86 477.118   3
  -2   2   8 2086.63 698.231   2
  -2   2   7 423.443 144.896   2
   2  -2  -7 1123.17 442.177   3
  -2   2   7 582.914 734.041   1
  -2   2   6 4095.04 1869.90   1
   2  -2  -6 6684.80 1003.14   3
  -2   2   6 5239.15 917.341   2
  -2   2   5 79.1210 465.779   1
   2  -2  -5 1009.53 398.461   3
  -2   2   5 88.5201 183.270   2
   2  -2  -4 19409.9 1191.31   2
  -2   2   4 21511.2 3326.68   1
   2  -2  -4 18501.0 1459.11   3
  -2   2   4 20764.0 1633.05   2
  -2   2   3 47091.7 2030.10   3
   2  -2  -3 45063.8 2242.48   3
   2  -2  -3 44633.6 4584.24   1
  -2   2   3 50307.6 4197.80   1
   2  -2  -3 47220.3 1871.43   2
  -2   2   3 43196.3 2071.65   2
  -2   2   2 124406. 5862.39   1
  -2   2   2 117601. 3085.40   3
   2  -2  -2 94956.7 2979.23   2
   2  -2  -2 137753. 7169.54   1
  -2   2   2 99369.8 2881.03   2
   2  -2  -2 112969. 3554.62   3
  -2   2   1 4912.39 665.492   3
   2  -2  -1 6031.08 865.159   3
  -2   2   1 5218.34 424.555   4
   2  -2  -1 5794.09 1273.07   1
  -2   2   1 6374.48 1183.75   1
   2  -2  -1 5161.60 663.219   2
   2  -2   0 13197.2 1300.17   3
  -2   2   0 11253.0 1145.84   3
   2  -2   0 14409.1 1810.88   1
  -2   2   0 14539.7 1716.72   1
  -2   2   0 14990.4 676.570   4
   2  -2   1 12946.3 1269.84   3
  -2   2  -1 9161.05 1067.23   3
   2  -2   1 9934.91 1451.32   1
  -2   2  -1 10103.6 1339.11   1
   2  -2   1 9992.19 936.241   2
  -2   2  -2 3962.53 332.712   4
  -2   2  -2 3418.01 652.853   3
   2  -2   2 4479.66 619.649   3
  -2   2  -2 3905.39 882.386   1
   2  -2   2 3828.19 559.766   2
   2  -2   2 2064.13 591.667   1
  -2   2  -3 4519.39 732.091   3
  -2   2  -3 5665.74 921.755   1
  -2   2  -3 6009.73 414.682   4
   2  -2   3 6739.36 777.658   2
  -2   2  -4 319.595 266.728   1
  -2   2  -4 56.7334 52.7965   4
   2  -2   4 262.279 173.283   2
  -2   2  -5 86.7167 68.1542   4
  -2   2  -5 80.3678 148.789   1
   2  -2   5 167.559 139.870   2
  -2   2  -6 2119.38 338.909   4
   2  -2   6 1215.36 403.866   2
  -2   2  -6 1246.17 548.885   1
  -2   2  -7 2680.66 485.579   4
   2  -2   7 2911.92 623.365   2
  -2   2  -7 2785.51 839.632   1
   2  -2   8 1113.87 482.301   2
  -2   2  -8 628.449 278.060   4
  -2   2  -8 714.738 494.120   1
  -2   2  -9 73.5961 384.995   1
   2  -2   9 109.667 243.881   2
   2  -2  10-22.0407 109.730   2
  -2   2 -10-108.679 90.9976   1
   2  -2  11 51.0167 140.444   2
  -2   2 -11 654.952 578.187   1
   2  -2  12 208.997 348.921   2
   2  -2  13-1207.05 1729.81   1
  -2   1  14 784.841 588.407   2
   2  -1 -13 387.828 436.510   3
  -2   1  13 547.229 546.754   2
  -2   1  13 2384.92 2172.60   1
  -2   1  12 360.494 331.697   2
   2  -1 -12 491.025 403.486   3
  -2   1  11 3329.60 2158.20   1
   2  -1 -11 5536.73 1194.14   3
  -2   1  11 5526.05 1213.32   2
  -2   1  10 7806.75 2822.08   1
   2  -1 -10 10484.1 1510.97   3
  -2   1  10 8969.43 1381.38   2
  -2   1   9 155.015 209.543   2
   2  -1  -9 148.666 149.051   3
   2  -1  -8 7519.61 1171.70   3
  -2   1   8 5801.27 2304.88   1
  -2   1   8 5701.93 935.291   2
  -2   1   7 2508.68 1265.62   1
  -2   1   7 1543.49 479.797   2
   2  -1  -7 2088.08 567.901   3
  -2   1   6 1152.60 356.545   2
   2  -1  -6 1191.83 453.483   3
   2  -1  -5 2648.77 581.803   3
  -2   1   5 2092.72 1096.48   1
   2  -1  -5 1773.88 309.277   2
  -2   1   5 2890.45 530.442   2
   2  -1  -4 169658. 4548.10   3
  -2   1   4 166681. 3629.25   2
  -2   1   3 82795.4 2786.04   3
   2  -1  -3 80728.0 5677.40   1
   2  -1  -3 78736.1 3124.99   3
  -2   1   3 76494.0 5023.37   1
   2  -1  -3 73944.4 1600.32   2
  -2   1   3 77001.0 2233.94   2
  -2   1   2 10746.5 1017.11   3
   2  -1  -2 9640.87 1825.46   1
  -2   1   2 7186.12 1295.29   1
   2  -1  -2 8821.12 1098.44   3
   2  -1  -2 10722.9 619.604   2
  -2   1   1 49055.3 3101.30   1
  -2   1   1 46927.2 2350.01   3
   2  -1  -1 54155.5 3569.61   1
   2  -1  -1 49950.8 2644.70   3
   2  -1   0 74.7571 171.161   1
  -2   1   0 306.670 211.409   3
   2  -1   0 715.569 329.104   3
   2  -1   0 652.568 164.328   2
  -2   1   0 816.748 370.467   1
   2  -1   1 3184.03 641.838   3
  -2   1  -1 2832.85 611.662   3
   2  -1   1 2778.69 701.313   1
  -2   1  -1 2740.47 655.427   1
  -2   1  -1 2976.48 475.184   2
   2  -1   1 2767.77 361.342   2
  -2   1  -2 101418. 3716.60   3
   2  -1   2 96546.9 4062.64   1
  -2   1  -2 102461. 3836.48   1
  -2   1  -2 103199. 3053.94   2
   2  -1   2 102164. 2464.90   2
  -2   1  -2 109050. 1724.79   4
  -2   1  -3 61.9494 49.6622   4
   2  -1   3-5.17243 60.4774   2
   2  -1   3 199.796 214.011   1
  -2   1  -3-49.7889 134.741   1
  -2   1  -4 2094.76 569.591   1
  -2   1  -4 2212.17 230.335   4
   2  -1   4 1404.53 346.433   2
  -2   1  -5 4747.55 357.766   4
  -2   1  -5 3717.21 789.629   1
   2  -1   5 4335.91 677.733   2
  -2   1  -6 1594.15 256.860   4
   2  -1   6 1086.65 386.958   2
  -2   1  -6 1272.66 513.819   1
  -2   1  -7 1241.47 302.060   4
   2  -1   7 2663.65 656.061   2
  -2   1  -7 1306.12 631.308   1
   2  -1   8 1653.23 550.777   2
  -2   1  -8 1594.85 709.937   1
   2  -1   9 1354.20 605.046   2
  -2   1  -9 759.808 524.119   1
  -2   1 -10-16.6097 310.095   1
   2  -1  10 87.8938 322.167   2
   2  -1  11 38.6182 128.973   2
   2  -1  12 176.558 337.354   2
   2  -1  12 747.790 807.722   1
   2  -1  13-313.649 1319.18   1
  -2   0  15 1219.82 776.349   2
  -2   0  14 2290.70 2155.37   1
  -2   0  14 645.861 579.039   2
   2   0 -14 477.503 508.244   3
  -2   0  13 178.991 777.438   1
  -2   0  13 997.729 574.383   2
   2   0 -13 506.759 381.219   3
  -2   0  12 785.662 912.682   1
  -2   0  12 684.511 535.285   2
   2   0 -12 365.827 374.118   3
  -2   0  11 483.618 332.037   2
   2   0 -11 332.279 177.482   3
  -2   0  11 327.693 910.523   1
   2   0 -10 24644.9 2405.09   3
  -2   0  10 22351.7 2047.70   2
   2   0  -9 11787.4 1572.88   3
  -2   0   9 9115.98 1226.97   2
  -2   0   8 1369.34 434.987   2
   2   0  -8 1820.36 524.364   3
   2   0  -7 16.7472 179.773   3
  -2   0   7 99.6097 104.758   2
  -2   0   7-273.695 347.110   1
  -2   0   6-27.6951 140.052   1
   2   0  -6 817.858 238.314   2
   2   0  -6 901.834 386.798   3
  -2   0   6 1264.85 333.135   2
   2   0  -5 15874.4 1491.76   3
  -2   0   5 13066.9 2445.34   1
   2   0  -5 11482.2 753.999   2
  -2   0   5 18016.3 1091.07   2
  -2   0   4 40502.1 4063.96   1
   2   0  -4 37633.0 2263.47   3
   2   0  -4 31940.4 3572.90   1
   2   0  -4 28093.2 974.606   2
  -2   0   4 41383.0 1355.73   2
   2   0  -3 5363.20 882.115   3
  -2   0   3 5686.18 744.908   3
   2   0  -3 5196.12 1288.75   1
   2   0  -3 4512.15 292.483   2
  -2   0   3 6470.43 424.497   2
  -2   0   2 21379.0 1563.35   3
  -2   0   2 23418.4 2166.83   1
   2   0  -2 22899.5 1880.07   3
   2   0  -1 9231.35 1189.97   3
  -2   0   1 6563.77 969.848   3
   2   0  -1 8617.03 1315.53   1
  -2   0   1 7478.99 1077.84   1
   2   0  -1 7229.12 301.674   2
   2   0   0 7520.78 1056.61   3
  -2   0   0 5173.67 871.921   3
   2   0   0 6291.26 999.256   1
  -2   0   0 4511.32 744.234   1
  -2   0   0 5443.18 455.494   2
   2   0   0 5459.12 385.076   2
   2   0   1 141917. 4133.33   3
  -2   0  -1 117860. 4075.57   3
   2   0   1 111768. 4087.32   1
  -2   0  -1 135099. 4180.67   1
  -2   0  -1 133752. 2695.23   2
   2   0   1 118850. 2245.80   2
   2   0   2 41011.6 2551.79   1
  -2   0  -2 39905.9 2065.23   1
  -2   0  -2 42364.8 1787.67   2
   2   0   2 37756.0 1492.46   2
   2   0   3 5572.43 1029.73   1
  -2   0  -3 5976.67 380.436   4
   2   0   3 4620.13 594.441   2
  -2   0  -4 12798.9 506.920   4
  -2   0  -4 10397.7 1245.46   1
   2   0   4 10114.3 974.631   2
   2   0   5 640.487 277.060   2
  -2   0  -5 656.290 108.994   4
  -2   0  -5 572.630 381.846   1
   2   0   6 387.446 261.733   2
  -2   0  -6-178.040 234.749   1
   2   0   7 1665.79 551.657   2
  -2   0  -7 1457.16 602.684   1
  -2   0  -8 1365.95 726.985   1
   2   0   8 1189.19 576.637   2
   2   0   9-44.0056 114.926   2
  -2   0  -9 177.403 206.486   1
   2   0  10 229.736 267.687   2
   2   0  10 1357.60 1438.35   1
   2   0  11 670.857 522.439   2
   2   0  11 713.509 1629.18   1
   2   0  12 403.384 337.756   1
  -2  -1  15 14.5766 134.031   2
  -2  -1  14 411.119 1155.22   1
  -2  -1  14 162.730 85.3981   2
   2   1 -14 88.5508 198.977   3
  -2  -1  13-103.462 88.4929   2
   2   1 -13 81.2648 219.343   3
   2   1 -12-92.2255 152.839   3
  -2  -1  12 312.642 389.004   2
  -2  -1  12 166.549 797.436   1
  -2  -1  11 458.752 397.614   2
   2   1 -11 609.843 354.075   3
  -2  -1  11 1413.68 1327.69   1
  -2  -1  10 1191.19 457.513   2
   2   1 -10 1316.54 461.556   3
  -2  -1  10 1242.91 1201.12   1
   2   1  -9 33388.2 2541.28   3
  -2  -1   9 31603.8 2087.03   2
   2   1  -8 3296.80 784.314   3
  -2  -1   8 3253.30 593.450   2
  -2  -1   8 2241.45 1076.60   1
  -2  -1   7 4475.94 1427.98   1
   2   1  -7 5283.18 940.004   3
  -2  -1   7 5282.35 668.789   2
  -2  -1   6 182.388 107.906   2
   2   1  -6 312.951 233.891   3
  -2  -1   6-212.103 319.673   1
   2   1  -6 95.2367 91.9410   2
   2   1  -5 3363.42 734.469   3
   2   1  -5 2293.16 407.543   2
  -2  -1   5 3304.86 392.371   2
  -2  -1   5 3375.10 1082.80   1
   2   1  -4 1908.46 538.594   3
  -2  -1   4 1281.78 385.471   3
  -2  -1   4 2995.17 1007.22   1
   2   1  -4 1603.55 933.420   1
  -2  -1   4 1441.26 208.732   2
  -2  -1   4 1366.89 441.556   4
  -2  -1   3 125.863 54.4824   2
  -2  -1   3 84.0667 133.469   4
  -2  -1   3 41.6395 216.345   1
  -2  -1   3 442.149 250.013   3
   2   1  -3 540.317 485.033   1
   2   1  -3 304.215 224.722   3
   2   1  -2 21123.9 1976.09   3
   2   1  -2 19109.7 2148.79   1
  -2  -1   2 19092.0 1800.57   1
  -2  -1   2 20861.4 1727.71   3
   2   1  -1 406.877 239.174   1
  -2  -1   1 1009.04 410.743   3
  -2  -1   1 995.385 350.324   1
   2   1  -1 1768.30 566.169   3
  -2  -1   1 1666.60 214.274   2
   2   1  -1 1402.54 271.297   2
  -2  -1   0 541.637 147.299   2
   2   1   0 616.493 276.031   1
  -2  -1   0 449.651 231.126   1
  -2  -1   0 295.044 269.966   3
   2   1   0 643.442 313.030   3
   2   1   0 138.989 104.320   2
   2   1   1 2514.74 556.284   3
   2   1   1 1984.33 332.878   2
  -2  -1  -1 1624.20 347.872   1
  -2  -1  -1 2332.35 363.898   2
   2   1   1 1079.71 398.840   1
   2   1   2 1188.96 403.419   1
   2   1   2 1016.07 285.314   2
  -2  -1  -2 1096.24 306.331   1
  -2  -1  -2 1110.81 278.840   2
   2   1   3 855.995 305.599   2
  -2  -1  -3 835.587 259.962   4
   2   1   3 180.033 222.271   1
  -2  -1  -3 863.660 351.385   1
   2   1   4 1704.50 431.080   2
  -2  -1  -4 1629.42 473.885   1
  -2  -1  -4 964.002 289.952   4
   2   1   5 434.753 258.357   2
  -2  -1  -5 426.355 351.881   1
   2   1   6 353.647 294.410   2
  -2  -1  -6 407.067 382.757   1
   2   1   7 450.874 271.781   2
  -2  -1  -7 881.443 516.154   1
   2   1   8 476.217 356.199   2
   2   1   9 121.360 262.028   2
   2   1   9-563.187 984.788   1
   2   1  10 414.356 423.528   2
   2   1  10 1800.45 1745.68   1
   2   1  11 1406.08 835.470   2
   2   1  11 570.687 569.503   1
   2   1  12 414.426 570.681   1
  -2  -2  15 587.010 395.991   2
  -2  -2  14 479.341 487.054   2
   2   2 -14 98.8829 187.784   3
  -2  -2  14-513.414 845.855   1
  -2  -2  13 387.615 337.686   2
   2   2 -13 58.2326 96.2423   3
  -2  -2  13 725.046 872.785   1
   2   2 -12 790.432 468.976   3
  -2  -2  12 704.456 391.009   2
  -2  -2  12 114.314 698.574   1
   2   2 -11-183.774 246.046   3
  -2  -2  11 8.16057 105.396   2
  -2  -2  11 96.3910 78.2145   1
  -2  -2  10 2097.06 544.601   2
   2   2 -10 1173.99 509.755   3
  -2  -2  10 837.695 607.126   1
   2   2  -9 14495.7 1669.26   3
  -2  -2   9 15642.3 1347.23   2
   2   2  -8 4870.62 951.795   3
  -2  -2   8 4679.83 654.081   2
  -2  -2   8 4725.79 1573.68   1
   2   2  -7-37.1372 108.564   3
  -2  -2   7 64.4109 101.631   1
  -2  -2   6 39.1341 97.7421   2
   2   2  -6 358.251 307.376   3
  -2  -2   6 352.186 490.691   1
   2   2  -5 9982.92 1377.38   3
  -2  -2   5 6898.36 1549.12   1
  -2  -2   5 8346.65 694.838   2
  -2  -2   4 1967.77 753.112   1
  -2  -2   4 1862.67 456.549   3
   2   2  -4 2380.84 703.174   3
  -2  -2   4 2016.00 455.019   1
  -2  -2   4 1926.06 322.966   2
  -2  -2   3 214.674 282.979   1
  -2  -2   3 23.7389 20.8633   2
  -2  -2   3 129.845 157.068   3
   2   2  -3 472.976 394.617   3
   2   2  -3-107.494 254.129   1
   2   2  -2 3644.02 806.823   1
  -2  -2   2 4129.84 733.698   1
  -2  -2   2 3203.40 782.167   4
  -2  -2   2 4773.89 867.075   3
  -2  -2   2 4086.86 517.831   2
   2   2  -1 552.211 284.914   1
  -2  -2   1 429.608 157.993   2
  -2  -2   1 285.535 140.178   4
   2   2  -1 833.346 301.569   2
  -2  -2   1 682.112 334.777   3
   2   2  -1 912.982 437.096   3
  -2  -2   1 441.411 176.536   1
  -2  -2   0 16368.8 1585.35   4
   2   2   0 22041.1 1797.19   3
   2   2   0 19734.1 1378.97   2
   2   2   0 16441.5 1253.27   1
  -2  -2   0 17424.1 908.289   1
  -2  -2   0 20773.1 1210.46   2
  -2  -2  -1 1702.50 479.582   4
   2   2   1 2838.92 619.017   3
   2   2   1 2332.59 477.723   1
  -2  -2  -1 2123.59 329.517   1
  -2  -2  -1 2074.43 410.525   2
   2   2   1 1918.11 402.087   2
  -2  -2  -2 243539. 5705.46   4
   2   2   2 231739. 4951.10   2
  -2  -2  -3 40471.3 2078.94   4
  -2  -2  -3 45558.2 2220.63   1
   2   2   3 39640.4 2130.29   2
  -2  -2  -4 4676.40 548.699   4
   2   2   4 5209.29 833.625   2
  -2  -2  -5 1332.90 488.941   1
   2   2   5 1458.59 505.166   2
   2   2   6 85.9529 219.053   2
   2   2   7-64.4107 29.3383   2
   2   2   7 890.079 936.280   1
   2   2   8 362.418 401.492   2
   2   2   8 1077.32 894.729   1
   2   2   9 197.185 292.141   2
   2   2   9 1423.76 1039.23   1
   2   2  10 433.730 396.129   2
   2   2  10-666.810 433.927   1
   2   2  11-530.260 401.527   1
  -2  -3  15 583.700 441.156   2
   2   3 -15 449.174 473.261   3
  -2  -3  14 973.843 676.934   2
   2   3 -14-129.130 226.612   3
  -2  -3  14 39.0301 764.541   1
  -2  -3  13 289.331 177.652   2
   2   3 -13 466.255 358.062   3
  -2  -3  13 915.261 1062.56   1
  -2  -3  12 206.776 241.837   2
   2   3 -12 303.188 267.951   3
  -2  -3  12 1437.23 1212.96   1
   2   3 -11 208.237 195.649   3
  -2  -3  11 498.626 286.799   2
  -2  -3  11 887.496 1058.51   1
   2   3 -10 4526.57 982.657   3
  -2  -3  10 4410.67 755.796   2
  -2  -3  10 2536.30 1373.98   1
   2   3  -9 2207.69 660.511   3
  -2  -3   9 2304.69 494.141   2
  -2  -3   9 2746.30 1332.30   1
   2   3  -8 1199.83 496.010   3
  -2  -3   8 1383.01 372.957   2
  -2  -3   8 1697.17 886.151   1
  -2  -3   7 174.073 145.530   2
   2   3  -7 72.8357 210.296   3
  -2  -3   7 517.001 647.272   1
  -2  -3   6 3453.44 553.754   2
  -2  -3   6 2397.25 937.745   1
  -2  -3   5 197.328 174.285   1
   2   3  -5 39.0560 153.000   3
  -2  -3   5 48.9080 74.9447   2
   2   3  -4 88694.6 4802.35   4
   2   3  -4 86381.8 4370.77   3
  -2  -3   4 75701.7 2907.50   1
   2   3  -3 5920.56 1343.17   4
   2   3  -3 5005.82 1028.61   3
  -2  -3   3 4332.08 959.616   1
  -2  -3   3 4945.33 878.900   3
  -2  -3   3 5119.32 614.035   1
  -2  -3   3 3272.13 554.319   2
  -2  -3   2 15956.0 1680.21   3
  -2  -3   2 14702.6 1146.04   1
  -2  -3   2 16922.7 840.644   1
  -2  -3   2 16026.6 1262.22   2
  -2  -3   1 699.008 267.714   2
   2   3  -1 1483.11 503.631   2
   2   3  -1 926.380 392.767   3
  -2  -3   0 4578.33 908.315   4
   2   3   0 6413.88 1002.37   3
  -2  -3   0 5453.56 722.361   2
   2   3   0 4470.31 781.377   2
   2   3   1 349.115 241.450   2
  -2  -3  -1 471.092 308.303   4
   2   3   1 388.765 316.174   3
   2   3   1 159.438 108.117   1
  -2  -3  -2 3288.30 666.437   4
   2   3   2 3167.08 593.888   1
   2   3   2 2859.33 614.506   2
  -2  -3  -3 2870.87 498.378   4
   2   3   3 2781.53 1122.30   1
   2   3   3 2950.88 639.085   1
   2   3   3 3010.31 692.646   2
  -2  -3  -4 16918.5 766.624   4
   2   3   4 16290.8 2944.32   1
   2   3   4 19053.3 1813.87   2
   2   3   5 1271.34 544.885   2
   2   3   5 1098.41 729.251   1
   2   3   6 36.3532 229.441   2
   2   3   6-272.737 505.741   1
   2   3   7 462.715 436.580   2
   2   3   7 524.335 796.638   1
   2   3   8 501.882 477.480   2
   2   3   8 1447.68 1483.00   1
   2   3   9-355.637 384.197   2
   2   3   9-157.707 400.148   1
   2   3  10 696.028 643.827   2
   2   4 -15-98.8771 277.845   3
  -2  -4  15-40.6382 261.775   2
  -2  -4  14 324.544 263.831   2
   2   4 -14 248.613 321.022   3
  -2  -4  14-131.759 579.796   1
  -2  -4  13 275.949 329.872   2
   2   4 -13 464.083 435.867   3
  -2  -4  13 834.227 863.849   1
  -2  -4  12 183.498 160.225   2
   2   4 -12 386.285 320.485   3
  -2  -4  12 1040.13 836.186   1
  -2  -4  11-67.4470 166.258   2
   2   4 -11 110.988 63.0280   3
   2   4 -10 739.166 392.416   3
  -2  -4  10 815.218 326.774   2
  -2  -4  10 1882.99 1362.11   1
   2   4  -9 2354.62 740.597   3
  -2  -4   9 1154.20 367.790   2
  -2  -4   9 1088.67 665.901   1
  -2  -4   8 934.772 328.431   2
   2   4  -8 998.351 559.428   3
  -2  -4   8-38.2526 357.645   1
   2   4  -7 1023.34 645.004   4
   2   4  -7 895.527 518.344   3
  -2  -4   7 436.047 193.473   2
  -2  -4   7 1273.84 759.778   1
   2   4  -6 1257.34 508.550   3
   2   4  -6 1116.59 563.294   4
  -2  -4   6 558.012 453.432   1
  -2  -4   6 849.555 334.685   2
   2   4  -5 1112.98 667.288   4
   2   4  -5 3416.73 919.300   3
  -2  -4   5 1566.69 442.088   1
  -2  -4   5 2309.48 833.967   1
  -2  -4   4 7037.18 1179.40   1
   2   4  -4 9463.83 1723.93   4
  -2  -4   4 9009.85 884.516   1
  -2  -4   4 6284.94 921.579   2
   2   4  -3 8141.28 1383.08   3
  -2  -4   3 10730.1 1340.68   1
  -2  -4   3 11626.8 781.465   1
  -2  -4   3 9661.92 1053.64   2
   2   4  -2 429.747 423.535   4
  -2  -4   2 1097.84 406.159   2
   2   4  -1 447.257 290.161   2
   2   4  -1 336.724 281.489   4
   2   4  -1 611.070 352.552   3
   2   4   0 3314.84 710.875   3
   2   4   0 2206.46 629.277   2
   2   4   1 4870.05 935.586   2
   2   4   2 1424.30 333.827   1
  -2  -4  -2 819.793 289.899   4
   2   4   2 1782.48 587.430   2
   2   4   2 374.320 372.226   1
  -2  -4  -3 13245.5 923.441   4
   2   4   3 14149.1 1333.86   1
   2   4   3 14418.5 1703.29   2
   2   4   4 4537.79 960.731   2
   2   4   4 3051.29 1134.80   1
   2   4   5 677.143 433.863   2
   2   4   5 369.341 506.548   1
   2   4   6 1580.04 671.642   2
   2   4   6 29.9049 377.486   1
   2   4   7 616.898 770.026   1
   2   4   7 226.910 326.160   2
   2   4   8-181.063 259.305   2
   2   4   9 153.829 171.608   2
  -2  -5  15 175.465 322.932   2
   2   5 -15 630.019 484.455   3
  -2  -5  14 220.711 60.3188   2
   2   5 -14-204.963 269.392   3
  -2  -5  14-423.119 910.988   1
   2   5 -13 167.437 231.277   3
  -2  -5  13-46.3245 104.187   2
  -2  -5  13-76.9839 354.836   1
  -2  -5  12-71.0731 31.6483   2
   2   5 -12 148.871 161.734   3
  -2  -5  12 559.105 851.768   1
   2   5 -11 204.164 259.525   3
  -2  -5  11 46.0120 121.459   2
  -2  -5  11 730.051 625.612   1
  -2  -5  10 1781.37 547.445   2
   2   5 -10 1679.97 745.367   3
  -2  -5  10 626.039 677.173   1
  -2  -5   9 916.496 392.280   2
   2   5  -9 1815.44 948.372   4
   2   5  -9 519.654 366.605   3
  -2  -5   9 1647.25 874.798   1
   2   5  -8-309.099 433.790   4
   2   5  -8 166.734 335.464   3
  -2  -5   8 241.992 203.358   2
  -2  -5   8-47.5519 113.183   1
   2   5  -7 87.4582 543.644   4
   2   5  -7 344.710 341.924   3
  -2  -5   7 208.234 618.238   1
  -2  -5   7 407.998 246.595   2
   2   5  -6 1986.75 953.779   4
   2   5  -6 2096.28 730.996   3
  -2  -5   6 2662.29 1122.68   1
   2   5  -5 5137.51 1155.97   3
   2   5  -5 3801.82 1213.16   4
  -2  -5   5 4013.16 694.760   1
  -2  -5   5 3354.11 940.951   1
   2   5  -4 2342.41 913.818   3
   2   5  -4 1464.09 1021.13   4
  -2  -5   4 110.015 177.091   1
  -2  -5   4 1052.94 587.144   1
   2   5  -3 67287.5 3861.05   3
  -2  -5   3 45122.7 2458.29   1
  -2  -5   3 41829.7 1636.27   1
   2   5  -3 59030.0 4495.56   4
   2   5  -2 15115.1 2225.18   4
   2   5  -2 21331.1 1932.36   3
   2   5  -1 565.771 403.553   2
   2   5  -1 797.420 505.348   4
   2   5  -1 812.513 362.365   3
   2   5   0 414.248 339.139   4
   2   5   0 253.056 200.881   2
   2   5   0 780.806 410.976   3
   2   5   1 3879.51 950.620   2
   2   5   2 216.511 128.268   1
   2   5   2 665.892 192.202   1
   2   5   3 1179.88 536.375   2
   2   5   3 951.095 574.112   1
   2   5   4 54.2857 74.1796   2
   2   5   4 231.425 226.895   1
   2   5   5 1354.91 663.959   2
   2   5   6 73.4970 336.008   2
   2   5   7 375.448 518.483   2
   2   5   8-274.173 358.042   2
   2   6 -15 466.401 353.438   3
  -2  -6  14 80.6127 194.409   2
   2   6 -14 237.341 419.173   3
  -2  -6  14 148.222 427.169   1
   2   6 -13 179.471 338.958   3
  -2  -6  13 155.256 153.048   2
  -2  -6  13 186.474 292.409   1
  -2  -6  12-149.552 67.5049   2
   2   6 -12 465.253 426.338   3
  -2  -6  11 420.834 298.591   2
   2   6 -11 40.4173 22.1818   3
  -2  -6  11 1100.94 1073.54   1
  -2  -6  10 290.030 266.246   2
   2   6 -10 174.778 318.400   4
   2   6 -10 566.288 446.942   3
  -2  -6  10 844.033 1011.13   1
   2   6  -9 303.843 109.659   4
  -2  -6   9 77.2368 535.471   1
   2   6  -9 431.855 466.256   3
  -2  -6   9 1367.95 487.313   2
   2   6  -8 1552.35 910.158   4
   2   6  -8 1920.26 776.924   3
  -2  -6   8 1058.22 704.646   1
  -2  -6   8 445.632 414.258   2
   2   6  -7 32.0726 287.116   4
   2   6  -7 773.751 496.061   3
  -2  -6   7 511.282 592.122   1
   2   6  -6 970.856 598.197   4
   2   6  -6 430.573 370.426   3
  -2  -6   6 666.291 592.124   1
   2   6  -5 4342.20 1441.20   4
  -2  -6   5 1729.20 456.724   1
   2   6  -5 2692.25 907.979   3
  -2  -6   5 2207.72 757.559   1
   2   6  -4 2329.47 1116.58   4
  -2  -6   4 3034.70 597.357   1
  -2  -6   4 1443.67 479.467   1
   2   6  -3 482.566 459.046   4
   2   6  -3 168.319 144.063   3
   2   6  -2 657.554 604.385   4
   2   6  -2 839.614 401.094   3
   2   6  -1 182.744 287.284   2
   2   6  -1 459.020 458.936   4
   2   6  -1 414.513 292.769   3
   2   6   0 1034.54 631.958   4
   2   6   0 597.533 509.811   2
   2   6   1 356.367 414.606   4
   2   6   1 357.646 314.204   2
   2   6   2 1861.86 768.888   2
   2   6   3 521.592 509.709   2
   2   6   4-63.0410 207.436   2
   2   6   5-423.065 503.695   2
   2   6   6-51.1270 265.640   2
   2   6   7 1294.73 896.350   2
   2   6   8 67.0051 110.321   2
  -2  -7  14 546.227 368.377   2
  -2  -7  14 1054.04 997.722   1
   2   7 -13-12.2429 282.151   3
  -2  -7  13 187.339 269.483   2
  -2  -7  13-670.143 942.420   1
  -2  -7  12 70.4236 14.3379   2
   2   7 -12-122.548 169.062   3
  -2  -7  12-413.130 474.081   1
  -2  -7  11 341.605 288.356   2
   2   7 -11 1164.25 861.138   4
   2   7 -11 568.404 605.246   3
  -2  -7  11 25.1298 242.274   1
   2   7 -10 180.519 136.931   4
   2   7 -10 687.318 547.307   3
  -2  -7  10 169.975 334.302   1
  -2  -7  10-72.8633 133.665   2
   2   7  -9 4424.24 1488.37   4
   2   7  -9 4765.37 1231.15   3
  -2  -7   9 2356.63 726.555   2
  -2  -7   9 1848.66 978.334   1
  -2  -7   8-406.962 584.567   1
   2   7  -8 259.354 316.764   3
   2   7  -7 1353.82 855.046   4
   2   7  -7 3.74594 216.685   3
  -2  -7   7 1927.41 923.582   1
   2   7  -6 54.6289 504.203   4
   2   7  -6 253.075 336.472   3
  -2  -7   6 311.064 474.343   1
   2   7  -5 550.264 635.801   4
   2   7  -5 80.5673 150.224   3
  -2  -7   5 681.012 475.637   1
   2   7  -4 266.252 408.859   4
  -2  -7   4 346.472 217.907   1
   2   7  -4 254.837 292.839   3
   2   7  -3 1802.62 942.654   4
   2   7  -3 1320.63 511.310   3
   2   7  -2 945.487 691.734   4
   2   7  -2 1509.96 536.305   3
   2   7  -1 688.706 607.473   4
   2   7   0 1184.63 777.087   4
   2   7   0-509.720 494.442   2
   2   7   1 1109.20 629.924   4
   2   7   1 234.855 318.175   2
   2   7   2 22.0847 124.154   2
   2   7   3 285.617 343.577   2
   2   7   4 654.000 532.142   2
   2   7   5 78.0188 276.312   2
   2   7   6-183.654 118.823   2
   2   7   7-432.609 578.176   2
  -2  -8  14 1773.10 1450.25   1
  -2  -8  13-140.923 224.842   2
  -2  -8  13 306.497 725.035   1
  -2  -8  12 45.7235 204.058   2
   2   8 -12 529.029 578.748   4
  -2  -8  12 748.949 913.152   1
   2   8 -11 574.597 710.717   4
   2   8 -11-406.419 390.339   3
  -2  -8  11 672.300 809.935   1
  -2  -8  11 108.575 59.6286   2
   2   8 -10 149.155 280.666   4
   2   8 -10 1093.66 659.986   3
  -2  -8  10 470.408 781.500   1
  -2  -8  10 495.203 390.668   2
   2   8  -9-123.105 141.658   4
   2   8  -9-267.509 403.912   3
  -2  -8   9 105.521 345.293   2
   2   8  -8 1067.48 886.970   4
   2   8  -8 571.669 490.131   3
  -2  -8   8-342.631 445.609   1
   2   8  -7 539.021 629.193   4
   2   8  -7 226.023 430.046   3
  -2  -8   7 605.389 577.385   1
   2   8  -6 63.9527 147.182   4
   2   8  -6 362.001 388.249   3
  -2  -8   6 168.934 286.634   1
   2   8  -5-288.668 426.311   4
   2   8  -5 142.741 60.1939   3
   2   8  -4-12.8524 389.024   4
   2   8  -4 498.358 339.400   3
   2   8  -3 2696.70 1169.59   4
   2   8  -3-168.805 174.386   3
   2   8  -2 276.048 359.401   4
   2   8  -1-316.901 403.631   4
   2   8   0 458.404 523.376   4
   2   8   1-198.069 304.911   4
   2   8   1-33.3723 316.487   2
   2   8   2-324.863 319.913   2
   2   8   3 336.321 451.981   2
   2   8   4-42.8376 100.585   2
   2   8   5 407.709 387.921   2
  -2  -9  14 289.016 1036.22   1
  -2  -9  13-243.192 642.672   1
  -2  -9  12 55.5118 217.840   2
   2   9 -12 680.019 582.440   4
  -2  -9  12 692.305 656.762   1
   2   9 -11 1242.64 891.616   4
  -2  -9  11 231.311 402.716   2
  -2  -9  11 1215.95 1072.22   1
   2   9 -10 335.212 573.268   4
  -2  -9  10 586.815 550.973   1
  -2  -9  10-64.1649 164.501   2
   2   9  -9 907.291 933.432   4
  -2  -9   9 15.6946 321.892   1
   2   9  -8 63.4868 323.178   4
   2   9  -7-267.786 228.394   4
   2   9  -6 410.106 680.355   4
   2   9  -6 212.031 322.286   3
   2   9  -5 570.587 734.372   4
   2   9  -5-20.3790 108.312   3
   2   9  -4 2063.21 1259.32   4
   2   9  -4 1312.65 502.926   3
   2   9  -3 5313.78 1817.99   4
   2   9  -2-703.691 738.810   4
   2   9  -1 161.251 255.650   4
   2   9   0 16.9571 50.4513   4
   2   9   1-13.0355 189.048   4
   2   9   1 318.389 351.511   2
   2   9   2-746.114 561.438   2
   2   9   3-292.361 373.796   2
   2   9   4 664.445 722.365   2
   2  10 -12-244.467 150.486   4
  -2 -10  12-106.684 135.768   2
   2  10 -11 759.429 876.156   4
  -2 -10  11 316.582 250.554   2
   2  10 -10-55.9364 430.910   4
  -2 -10  10 394.956 525.912   2
   2  10  -9 200.641 242.925   4
   2  10  -8 1159.36 984.474   4
   2  10  -7 616.714 792.520   4
   2  10  -6 433.251 736.586   4
   2  10  -5-582.844 575.214   4
   2  10  -4-15.3162 355.179   4
   2  10  -3 3949.79 1688.93   4
   2  10  -2 1474.70 1097.19   4
   2  10  -1-508.358 611.014   4
   2  10   0 28.7088 346.375   4
   2  10   3-84.9148 239.065   2
   2  11 -11 96.6283 384.114   4
   2  11 -10-189.684 535.948   4
  -2 -11  10 339.721 417.452   2
   2  11  -9 961.243 1091.18   4
   2  11  -8-974.344 760.008   4
   2  11  -7 1370.86 1102.18   4
   2  11  -6-43.1434 762.431   4
   2  11  -5 1180.01 1031.96   4
   2  11  -4-68.5813 419.102   4
   2  11  -3 819.875 815.730   4
   2  11  -2 1751.59 1204.53   4
   2  11  -1 746.405 700.651   4
   2  12  -8 133.457 761.846   4
   2  12  -7 381.889 506.831   4
   2  12  -6 99.5362 666.018   4
   2  12  -5 49.8262 792.271   4
   2  12  -4 377.665 677.164   4
   2  12  -3 1568.01 1300.13   4
   2  12  -2 744.783 794.082   4
  -3  14  -6 1207.42 818.818   1
  -3  14  -7 936.177 783.597   1
  -3  14  -8 419.162 434.743   1
  -3  13   2-314.903 354.924   4
  -3  13   1 540.043 540.855   4
  -3  13   0-271.266 338.937   4
  -3  13  -1 214.125 124.405   4
  -3  13  -2 121.539 276.679   4
  -3  13  -2 170.032 438.938   1
  -3  13  -3 20.0506 201.901   4
  -3  13  -3 1469.16 863.252   1
  -3  13  -4 661.681 441.564   4
  -3  13  -4 17.1277 274.519   1
  -3  13  -5 371.961 424.574   4
  -3  13  -5 181.590 352.462   1
  -3  13  -6 483.241 470.102   4
  -3  13  -6 789.292 648.572   1
  -3  13  -7 324.111 274.687   1
  -3  13  -7 121.814 348.027   4
  -3  13  -8 1237.06 784.915   1
  -3  13  -9-137.517 417.060   1
  -3  12   3 14.7926 46.6814   4
  -3  12   2 337.412 313.960   4
  -3  12   2 651.696 724.660   1
  -3  12   1 942.299 466.372   4
  -3  12   1 497.113 535.084   1
  -3  12   0 1991.82 1093.80   1
  -3  12   0-2.62750 143.615   4
  -3  12  -1-60.8777 32.7000   4
  -3  12  -1-264.868 201.237   1
  -3  12  -2 301.046 522.907   1
  -3  12  -2 359.940 269.047   4
  -3  12  -3 830.352 605.064   1
  -3  12  -3 982.549 502.420   4
  -3  12  -4-105.523 475.619   1
  -3  12  -4 593.130 452.266   4
  -3  12  -5 1454.84 635.838   4
  -3  12  -5 540.761 514.048   1
  -3  12  -6 459.657 401.195   4
  -3  12  -6 1506.48 901.000   1
  -3  12  -7 465.116 534.586   1
  -3  12  -7 392.120 389.288   4
  -3  12  -8 265.997 391.038   1
  -3  12  -8 93.4863 377.793   4
   3 -12   8 911.327 740.908   2
  -3  12  -9 1150.05 887.555   4
  -3  12  -9 8.69828 390.771   1
   3 -12   9 1051.60 612.750   2
  -3  12 -10 855.131 827.083   4
  -3  11   4 154.213 246.221   4
  -3  11   4 1729.75 1035.88   1
  -3  11   3 366.272 321.028   4
  -3  11   3 1159.74 861.767   1
  -3  11   2 2.07724 131.103   4
  -3  11   2-323.958 563.570   1
  -3  11   1 671.635 313.972   4
  -3  11   1 192.290 324.710   1
  -3  11   0 651.693 333.706   4
  -3  11   0 378.902 508.041   1
  -3  11  -1 2175.17 627.889   4
  -3  11  -1 2101.75 1073.64   1
  -3  11  -2 1209.47 797.079   1
  -3  11  -2 869.104 402.276   4
  -3  11  -3 1470.07 497.545   4
  -3  11  -3 2573.81 1183.73   1
  -3  11  -4 601.630 354.536   4
  -3  11  -4 284.635 625.360   1
  -3  11  -5 455.872 299.607   4
  -3  11  -5 719.336 597.372   1
  -3  11  -6 846.164 541.446   4
  -3  11  -6 916.621 645.271   1
  -3  11  -7 267.248 343.502   4
  -3  11  -7 459.720 423.046   1
  -3  11  -8 1893.86 960.005   1
  -3  11  -8 1227.51 705.973   4
   3 -11   8 418.157 457.590   2
  -3  11  -9 90.5248 469.727   4
  -3  11  -9-149.322 287.706   1
   3 -11   9 50.1461 293.504   2
  -3  11 -10 348.631 443.118   4
  -3  11 -10 150.806 432.445   1
   3 -11  10-72.9913 66.4588   2
  -3  11 -11 785.220 917.269   4
  -3  10   7 1065.50 1060.74   1
  -3  10   6-336.047 345.269   1
  -3  10   5 1902.31 1215.71   1
  -3  10   5 1040.36 384.455   4
  -3  10   4 461.833 298.878   4
  -3  10   4-32.4208 168.735   1
  -3  10   3 227.680 232.668   4
  -3  10   3 209.042 260.308   1
  -3  10   2 455.030 237.168   4
  -3  10   2 716.291 361.992   1
  -3  10   1 177.759 179.791   4
  -3  10   1 396.148 555.445   1
  -3  10   0 1540.22 953.344   1
  -3  10   0 859.781 319.771   4
  -3  10  -1 6058.16 1685.80   1
  -3  10  -1 5376.26 811.246   4
  -3  10  -2 3495.52 1305.35   1
  -3  10  -2 3232.93 638.592   4
  -3  10  -3-75.4818 114.859   4
  -3  10  -3-271.034 331.583   1
  -3  10  -4 565.411 289.924   4
  -3  10  -4 628.852 669.226   1
  -3  10  -5 96.5325 342.374   1
  -3  10  -5 73.2310 99.8944   4
  -3  10  -6 274.534 311.240   4
  -3  10  -6 23.4388 139.472   1
  -3  10  -7-31.6064 109.109   4
   3 -10   7-26.4202 352.265   2
  -3  10  -7 473.587 505.485   1
  -3  10  -8 834.301 680.631   1
  -3  10  -8 50.2926 154.182   4
   3 -10   8 1165.25 674.034   2
  -3  10  -9-8.44256 238.296   1
   3 -10   9 2.25370 139.367   2
  -3  10 -10 557.754 438.066   4
  -3  10 -10 995.036 820.380   1
   3 -10  10 360.179 378.084   2
  -3  10 -11-663.140 699.723   4
  -3  10 -11 317.431 406.237   1
  -3   9   9 1555.73 1330.10   1
   3  -9  -9-147.828 374.305   3
   3  -9  -8 59.4094 210.081   3
  -3   9   8 566.523 982.952   1
  -3   9   8 287.121 638.580   2
   3  -9  -7 494.138 432.192   3
  -3   9   7 841.598 802.436   2
  -3   9   7 721.493 495.849   1
   3  -9  -6 709.643 498.653   3
  -3   9   6-246.832 300.850   2
  -3   9   6 387.676 582.043   1
   3  -9  -5 401.862 304.786   3
  -3   9   5-267.845 509.462   1
  -3   9   5 186.241 142.508   4
   3  -9  -4 244.257 262.402   3
  -3   9   4 517.311 257.918   4
  -3   9   4 131.660 165.042   1
  -3   9   3 0.61222 72.4950   4
   3  -9  -3-116.422 92.4399   3
  -3   9   3 3.12163 229.763   1
  -3   9   2 1215.28 355.064   4
   3  -9  -2 549.071 316.208   3
  -3   9   2 652.827 254.876   1
  -3   9   1 149.850 108.670   4
   3  -9  -1 231.437 246.337   3
  -3   9   1-251.508 35.2750   1
  -3   9   0 2413.14 982.361   1
  -3   9   0 2095.21 443.168   4
  -3   9  -1 1463.17 728.887   1
  -3   9  -1 1991.77 442.071   4
  -3   9  -2 7544.01 1864.27   1
  -3   9  -2 6425.12 816.262   4
  -3   9  -3 116.062 137.885   4
  -3   9  -3 693.634 676.181   1
  -3   9  -4 5356.28 814.046   4
  -3   9  -4 7255.44 1747.71   1
  -3   9  -5 857.752 342.622   4
  -3   9  -5 798.676 624.271   1
  -3   9  -6 486.228 263.874   4
  -3   9  -6-141.059 351.197   1
  -3   9  -7 94.8039 178.238   4
  -3   9  -7 448.046 515.863   1
   3  -9   7 809.882 659.367   2
  -3   9  -8 504.492 608.822   1
  -3   9  -8 682.773 349.908   4
   3  -9   8 900.242 691.335   2
  -3   9  -9 1073.81 676.221   4
  -3   9  -9 1273.47 910.049   1
   3  -9   9-93.5626 197.860   2
   3  -9  10 22.6058 227.631   2
  -3   9 -10-358.545 308.845   4
  -3   9 -10-269.525 475.076   1
   3  -9  11 855.483 641.797   2
  -3   9 -11 94.0160 311.457   1
  -3   8  10 1325.48 952.944   1
   3  -8 -10 733.493 586.577   3
   3  -8  -9 82.9050 344.114   3
  -3   8   9-420.992 626.277   2
  -3   8   8 555.063 833.767   2
  -3   8   8-271.652 781.209   1
   3  -8  -8 227.236 338.269   3
  -3   8   7 19.2383 466.327   1
   3  -8  -7-89.7623 29.6738   3
  -3   8   7 67.8472 123.103   2
  -3   8   6 426.650 221.573   4
  -3   8   6-424.734 746.114   1
  -3   8   6 671.880 445.996   2
   3  -8  -6 112.973 227.200   3
  -3   8   5 3250.27 1527.70   1
  -3   8   5 5796.15 671.084   4
   3  -8  -5 6391.66 1202.16   3
  -3   8   4 38635.4 4710.69   1
  -3   8   4 43010.4 1811.82   4
  -3   8   3 1529.23 320.375   4
   3  -8  -3 1398.70 485.944   3
  -3   8   3 787.544 763.921   1
   3  -8  -2 9326.46 1247.92   3
  -3   8   2 6681.31 1972.58   1
  -3   8   2 8976.05 787.358   4
  -3   8   1 455.649 142.316   4
   3  -8  -1 590.799 328.607   3
  -3   8   1 1089.23 676.894   1
  -3   8   0 586.233 212.046   4
   3  -8   0 751.068 363.186   3
  -3   8   0 1052.32 716.431   1
  -3   8  -1 275.125 519.641   1
  -3   8  -1 100.265 119.314   4
   3  -8   1-92.6014 101.310   3
   3  -8   2 4357.64 344.480   3
  -3   8  -2 6254.77 728.952   4
  -3   8  -2 6464.06 1598.34   1
  -3   8  -3 2670.46 1094.49   1
  -3   8  -3 3571.52 572.034   4
  -3   8  -4 2797.23 1160.67   1
  -3   8  -4 2343.35 475.898   4
  -3   8  -5 852.528 304.737   4
  -3   8  -5 404.139 471.760   1
  -3   8  -6 1004.13 356.476   4
  -3   8  -6 782.398 542.838   1
   3  -8   6 1351.87 616.716   2
  -3   8  -7 1594.97 806.870   1
  -3   8  -7 1161.18 391.461   4
   3  -8   7 2023.93 756.759   2
  -3   8  -8 1330.29 540.019   4
  -3   8  -8 787.226 600.506   1
   3  -8   8 1359.04 717.125   2
   3  -8   9-419.823 436.168   2
  -3   8  -9 261.196 367.347   4
  -3   8  -9-518.807 495.820   1
   3  -8  10 226.640 226.800   2
  -3   8 -10 67.3177 275.478   4
  -3   8 -10 168.384 193.915   1
   3  -8  11 501.893 440.725   2
  -3   8 -11 720.341 710.602   1
  -3   7  11 2939.86 2121.42   1
  -3   7  10 1232.39 1315.81   1
  -3   7  10 1516.52 1034.88   2
   3  -7 -10 526.567 447.788   3
  -3   7   9 512.244 643.645   1
  -3   7   9 227.798 487.668   2
   3  -7  -9 152.845 263.986   3
   3  -7  -8 108.774 297.941   3
  -3   7   8 180.112 487.426   2
  -3   7   7-122.605 93.8388   4
  -3   7   7 760.370 1088.38   1
   3  -7  -7 95.4937 245.224   3
  -3   7   7 769.054 597.399   2
  -3   7   6 883.187 1255.93   1
  -3   7   6-53.1717 199.596   2
   3  -7  -6 410.117 370.927   3
  -3   7   6 197.618 160.457   4
  -3   7   5-65.0412 105.971   4
   3  -7  -5 8.93509 183.001   3
  -3   7   5 350.176 614.328   1
  -3   7   5 833.086 648.710   2
   3  -7  -4 3839.55 832.994   3
  -3   7   4 3036.68 1376.94   1
  -3   7   4 3558.50 492.625   4
   3  -7  -3 8390.94 1202.99   3
  -3   7   3 6231.64 1903.37   1
  -3   7   3 7752.64 713.106   4
   3  -7  -2 15545.9 1588.51   3
  -3   7   2 18273.0 2980.91   1
  -3   7   2 17369.0 1049.40   4
  -3   7   1 168.675 130.736   4
   3  -7  -1 128.599 211.384   3
  -3   7   1-100.955 203.988   1
  -3   7   0 510.331 176.143   4
   3  -7   0 205.914 180.386   3
  -3   7   0 486.956 569.102   1
  -3   7  -1 1288.31 843.653   1
  -3   7  -1 1118.55 276.522   4
  -3   7  -1 1043.85 249.945   3
   3  -7   1 1435.56 430.408   3
  -3   7  -2 3980.69 506.520   3
   3  -7   2 4297.34 500.864   3
  -3   7  -2 3371.09 462.607   4
  -3   7  -3 173.271 141.572   4
  -3   7  -3-77.6654 262.012   1
  -3   7  -3 59.9756 89.2181   3
  -3   7  -4 418.724 465.947   1
  -3   7  -4 112.092 127.451   3
  -3   7  -4 26.9040 116.462   4
  -3   7  -5 275.544 208.141   4
  -3   7  -5 45.6346 148.169   3
  -3   7  -5 66.6734 156.196   1
   3  -7   5-235.024 260.855   2
  -3   7  -6 791.972 605.803   1
   3  -7   6 640.828 441.945   2
  -3   7  -6 929.490 333.394   4
  -3   7  -7 7123.61 1039.22   4
  -3   7  -7 7350.45 1651.83   1
   3  -7   7 7268.78 1381.04   2
  -3   7  -8 454.768 488.180   1
  -3   7  -8 1096.41 422.678   4
   3  -7   9 52.7608 200.386   2
  -3   7  -9 839.761 569.667   4
  -3   7  -9 953.707 661.036   1
   3  -7  10 674.795 393.726   2
  -3   7 -10 842.739 536.835   4
  -3   7 -10 576.430 582.535   1
   3  -7  11-160.733 89.3119   2
  -3   7 -11 435.112 464.177   1
  -3   7 -12 220.367 532.748   1
   3  -7  12 433.084 380.021   2
  -3   6  11 2050.31 1413.54   1
  -3   6  11 586.448 788.788   2
   3  -6 -11 528.956 567.818   3
  -3   6  10-268.796 542.665   1
  -3   6  10 1151.19 945.221   2
   3  -6 -10 317.650 383.374   3
  -3   6   9 954.097 1182.99   1
  -3   6   9 603.875 443.927   2
   3  -6  -9 561.226 498.144   3
  -3   6   8 464.679 197.331   4
  -3   6   8-240.553 295.207   1
  -3   6   8-272.385 380.469   2
   3  -6  -8 246.815 404.910   3
  -3   6   7 343.372 854.250   1
  -3   6   7-40.2085 350.725   2
   3  -6  -7 482.836 401.485   3
  -3   6   7 476.377 189.525   4
  -3   6   6-356.999 684.919   1
   3  -6  -6-91.0950 42.0391   3
  -3   6   6 175.040 287.024   2
  -3   6   6 348.895 144.881   4
  -3   6   5 1216.33 710.450   2
  -3   6   5 2506.45 1378.15   1
   3  -6  -5 1974.58 625.607   3
  -3   6   5 2051.06 363.295   4
   3  -6  -4 753.380 360.356   3
  -3   6   4 1716.76 706.594   2
  -3   6   4 925.012 251.012   4
  -3   6   4 289.205 472.431   1
   3  -6  -3 77649.9 3680.75   3
  -3   6   3 69800.0 5867.52   1
  -3   6   3 73357.9 2052.10   4
   3  -6  -2 3987.47 793.407   3
  -3   6   2 2123.12 1034.17   1
  -3   6   2 2076.70 338.214   4
   3  -6  -1 2469.19 676.499   3
  -3   6   1 2661.83 1043.08   1
  -3   6   1 3497.10 432.108   4
  -3   6   0 2665.67 451.025   3
   3  -6   0 1978.88 607.842   3
  -3   6   0 2761.95 1017.74   1
  -3   6   0 2510.98 386.549   4
  -3   6  -1 785.669 222.505   4
  -3   6  -1 1259.67 334.162   3
   3  -6   1 937.281 372.527   3
  -3   6  -1 257.851 374.157   1
  -3   6  -2 1817.10 916.559   1
  -3   6  -2 1630.68 442.094   3
  -3   6  -2 1529.83 299.741   4
   3  -6   2 1399.58 340.605   3
   3  -6   3 2881.43 438.214   3
  -3   6  -3 2234.17 1014.72   1
  -3   6  -3 1017.78 413.185   3
  -3   6  -3 2376.24 371.798   4
  -3   6  -4 1496.22 802.765   1
  -3   6  -4 826.626 352.900   3
  -3   6  -4 1813.32 348.847   4
   3  -6   5 2093.99 710.485   2
  -3   6  -5 3342.20 1010.10   1
  -3   6  -5 2859.96 475.398   4
   3  -6   6 3371.96 890.255   2
  -3   6  -6 2593.37 924.761   1
  -3   6  -6 2764.56 500.083   4
  -3   6  -7 882.629 563.157   1
  -3   6  -7 377.802 307.646   4
   3  -6   7 381.010 245.344   2
   3  -6   8 3914.67 978.708   2
  -3   6  -8 2529.64 691.209   4
  -3   6  -8 2093.25 909.588   1
  -3   6  -9 496.935 360.817   4
  -3   6  -9 845.926 681.176   1
   3  -6   9 350.413 346.422   2
   3  -6  10 872.182 514.950   2
  -3   6 -10 687.104 685.336   1
   3  -6  11 284.871 367.762   2
  -3   6 -11 777.628 542.074   1
   3  -6  12 480.781 395.574   2
  -3   6 -12-96.2216 206.147   1
  -3   5  12-1161.45 832.391   1
  -3   5  12 935.385 806.034   2
  -3   5  11 527.511 611.987   2
   3  -5 -11 706.353 516.744   3
  -3   5  10 629.593 1168.57   1
  -3   5  10 128.384 416.845   2
   3  -5 -10-31.3367 146.260   3
  -3   5   9 2488.46 1836.47   1
   3  -5  -9 4859.98 1199.81   3
  -3   5   9 2648.37 1104.38   2
  -3   5   8 335.012 141.989   4
  -3   5   8-182.117 304.665   2
   3  -5  -8 285.868 352.734   3
  -3   5   7 117.848 62.2564   4
  -3   5   7 423.219 950.240   1
  -3   5   7 591.168 531.811   2
   3  -5  -7 67.1035 52.9399   3
  -3   5   6 668.476 850.580   1
  -3   5   6 1131.36 719.270   2
   3  -5  -6-197.513 212.465   3
  -3   5   6-105.401 105.891   4
  -3   5   5-87.1895 242.655   1
   3  -5  -5 56.0810 120.717   3
  -3   5   5 237.659 229.162   2
  -3   5   5-35.5056 58.9906   4
   3  -5  -4 22426.2 2016.17   3
  -3   5   4 19822.5 3232.88   1
  -3   5   4 17752.6 2041.13   2
  -3   5   4 21868.3 1081.79   4
   3  -5  -3 13796.6 1575.33   3
  -3   5   3 16028.8 2796.30   1
  -3   5   3 17759.0 960.142   4
   3  -5  -2 5260.47 970.460   3
  -3   5   2 4981.13 1349.24   1
  -3   5   2 5665.98 532.680   4
  -3   5   1 39733.8 1997.90   3
   3  -5  -1 34320.3 2487.49   3
  -3   5   1 43272.1 4063.41   1
  -3   5   1 39627.5 1402.62   4
  -3   5   0 2081.69 467.962   3
   3  -5   0 1343.14 533.740   3
  -3   5   0 2307.45 341.679   4
  -3   5   0 3189.80 1041.14   1
  -3   5  -1 3981.02 665.370   3
   3  -5   1 3739.82 818.264   3
  -3   5  -1 3343.32 409.538   4
  -3   5  -1 2788.47 957.321   1
  -3   5  -2 8022.00 1087.11   3
   3  -5   2 10507.5 1101.15   3
  -3   5  -2 7135.35 1572.82   1
  -3   5  -2 10316.3 733.687   4
  -3   5  -3 623.196 176.592   4
  -3   5  -3 199.950 320.666   1
  -3   5  -3 241.649 254.822   3
   3  -5   3 385.799 183.361   3
  -3   5  -4 3963.52 1044.76   1
   3  -5   4 3478.85 845.107   2
  -3   5  -4 2836.11 413.824   4
  -3   5  -5-44.2315 26.8626   4
   3  -5   5-135.214 173.082   2
   3  -5   6 2957.21 765.944   2
  -3   5  -6 2227.13 837.247   1
  -3   5  -6 2540.76 469.128   4
   3  -5   7 492.170 322.452   2
  -3   5  -7 503.118 221.765   4
  -3   5  -7-7.55908 154.594   1
  -3   5  -8 8017.26 1100.73   4
  -3   5  -8 7039.37 1607.21   1
   3  -5   8 9878.82 1432.37   2
  -3   5  -9 5512.86 1082.52   4
   3  -5   9 3997.74 1039.31   2
  -3   5  -9 4035.04 1319.92   1
   3  -5  10 449.166 328.329   2
  -3   5 -10 886.256 732.847   1
   3  -5  11 599.009 417.732   2
  -3   5 -11 725.631 666.253   1
   3  -5  12 727.417 536.612   2
  -3   5 -12 85.1962 275.953   1
  -3   4  13-944.271 797.500   2
  -3   4  12-877.885 999.571   1
   3  -4 -12-60.0314 112.262   3
  -3   4  12 224.848 608.859   2
  -3   4  11-564.634 880.870   1
  -3   4  11-79.5318 270.375   2
   3  -4 -11 648.693 572.028   3
  -3   4  10-520.764 577.427   1
  -3   4  10 366.481 432.439   2
   3  -4 -10 209.547 119.515   3
  -3   4   9 1255.19 1602.29   1
  -3   4   9 85.6493 231.935   2
   3  -4  -9 380.074 440.086   3
  -3   4   9 22.2248 200.577   4
  -3   4   8-120.243 538.840   1
  -3   4   8 236.559 316.298   2
   3  -4  -8 509.983 339.948   3
  -3   4   8-125.056 108.634   4
  -3   4   7 254.270 153.893   4
  -3   4   7-218.079 669.068   1
  -3   4   7-138.990 320.223   2
   3  -4  -7 919.093 430.884   3
  -3   4   6 2448.21 1331.51   1
  -3   4   6 2039.40 778.107   2
   3  -4  -6 1406.18 521.862   3
  -3   4   6 2477.83 438.989   4
  -3   4   5 380.944 475.769   1
  -3   4   5 1358.21 578.044   2
   3  -4  -5 850.123 434.314   3
  -3   4   5 1485.16 306.586   4
   3  -4  -4 15755.7 1702.82   3
  -3   4   4 14845.3 2775.23   1
  -3   4   4 13677.0 1596.55   2
  -3   4   4 16725.5 990.207   4
  -3   4   3 32.9965 52.1930   4
  -3   4   3-289.266 423.291   1
   3  -4  -3 173.992 187.672   3
  -3   4   2 10962.6 773.494   4
   3  -4  -2 9914.02 1351.76   3
  -3   4   2 8775.36 1839.22   1
   3  -4  -2 7951.50 1177.99   2
  -3   4   1 851.085 213.609   4
  -3   4   1 969.914 335.315   3
   3  -4  -1 510.759 322.362   2
   3  -4  -1 1472.00 598.789   3
  -3   4   1 1232.01 551.267   1
  -3   4   0 18328.0 1538.15   3
   3  -4   0 21200.9 1972.07   3
  -3   4   0 17788.1 2430.68   1
  -3   4   0 22860.6 1031.65   4
   3  -4   1 3283.08 783.038   3
  -3   4  -1 2056.97 580.239   3
  -3   4  -1 2824.05 357.239   4
  -3   4  -1 3329.14 976.687   1
  -3   4  -2 8322.20 1219.14   3
   3  -4   2 12281.0 1274.81   3
  -3   4  -2 11672.9 1910.32   1
  -3   4  -2 11728.3 743.162   4
   3  -4   3 17507.6 1342.08   3
  -3   4  -3 13808.1 2058.92   1
   3  -4   3 14318.3 1541.43   2
  -3   4  -3 13539.7 811.382   4
  -3   4  -4 1015.08 236.662   4
  -3   4  -4 669.376 420.063   1
   3  -4   4 1196.94 409.290   2
   3  -4   5 88.5349 12.6996   2
  -3   4  -5 37.5473 33.4046   4
  -3   4  -5 129.919 266.013   1
   3  -4   6 1636.49 523.648   2
  -3   4  -6 908.819 465.168   1
  -3   4  -6 1592.17 342.954   4
   3  -4   7 1107.76 426.795   2
  -3   4  -7 1692.40 389.424   4
  -3   4  -7 897.525 630.086   1
   3  -4   8 1080.30 515.177   2
  -3   4  -8 1072.44 403.365   4
  -3   4  -8 615.777 547.698   1
   3  -4   9 1282.41 540.035   2
  -3   4  -9 1052.02 708.966   1
   3  -4  10 772.406 453.531   2
  -3   4 -10 1169.68 859.739   1
   3  -4  11 883.441 565.284   2
  -3   4 -11-20.0879 245.683   1
   3  -4  12 1153.11 688.908   2
  -3   4 -12-477.957 351.884   1
  -3   3  13 911.757 2164.86   1
  -3   3  13 591.687 566.349   2
  -3   3  12 287.267 497.583   2
   3  -3 -12 774.632 526.654   3
  -3   3  11 13.8884 286.282   2
   3  -3 -11-217.133 192.339   3
  -3   3  10 217.658 169.558   4
  -3   3  10 149.533 775.902   1
  -3   3  10 22.6131 381.376   2
   3  -3 -10 215.861 290.826   3
  -3   3   9 901.217 420.141   1
  -3   3   9 1355.23 683.741   2
   3  -3  -9 1738.29 635.078   3
  -3   3   9 1384.98 309.038   4
  -3   3   8 171.142 182.470   1
   3  -3  -8-5.87903 158.513   3
  -3   3   7 442.286 178.093   4
  -3   3   7 1277.98 1446.32   1
  -3   3   7 619.111 442.909   2
   3  -3  -7 800.490 481.322   3
  -3   3   6 1740.99 1303.92   1
  -3   3   6 1702.89 614.485   2
   3  -3  -6 2445.49 701.338   3
  -3   3   6 2156.61 367.355   4
  -3   3   5 1279.37 907.022   1
  -3   3   5 1156.29 467.886   2
   3  -3  -5 1472.29 579.234   3
  -3   3   5 1612.51 304.759   4
  -3   3   4 554.947 176.729   4
   3  -3  -4 466.717 246.483   2
  -3   3   4 809.077 658.991   1
   3  -3  -4 448.718 375.695   3
  -3   3   4 365.007 227.909   2
   3  -3  -3 19043.3 1894.72   3
  -3   3   3 21219.1 2939.56   1
   3  -3  -3 19475.2 1492.88   2
  -3   3   3 19658.7 1051.80   4
  -3   3   2 5338.50 540.117   4
   3  -3  -2 5116.75 984.472   3
  -3   3   2 4222.54 1204.24   1
   3  -3  -2 4288.36 722.950   2
   3  -3  -1 8455.47 1303.27   3
  -3   3   1 8107.92 1053.31   3
  -3   3   1 11499.5 1913.89   1
  -3   3   1 9352.07 670.080   4
  -3   3   0 3728.47 803.126   3
   3  -3   0 4600.41 952.629   3
  -3   3   0 5302.16 1250.20   1
  -3   3   0 6481.79 547.634   4
  -3   3  -1 1253.34 618.694   1
  -3   3  -1 1111.76 466.005   3
   3  -3   1 2324.11 664.571   3
   3  -3   1 1778.79 495.925   2
  -3   3  -1 1997.40 315.824   4
   3  -3   2 6085.51 934.483   3
  -3   3  -2 7504.28 1463.78   1
   3  -3   2 7207.46 924.564   2
  -3   3  -2 6663.67 551.048   4
  -3   3  -3 50024.6 3633.70   1
   3  -3   3 55569.7 2584.45   2
  -3   3  -3 51514.4 1518.70   4
   3  -3   4 220.409 212.770   2
  -3   3  -4 480.642 136.360   4
  -3   3  -4 230.191 283.066   1
   3  -3   5 1414.86 477.098   2
  -3   3  -5 1486.60 590.884   1
  -3   3  -5 1676.08 276.379   4
  -3   3  -6 49.6704 94.4804   4
   3  -3   6 144.610 205.047   2
  -3   3  -6 466.598 312.310   1
   3  -3   7 2139.18 590.917   2
  -3   3  -7 1317.73 320.980   4
  -3   3  -7 2361.07 829.823   1
   3  -3   8 323.149 282.491   2
  -3   3  -8-1.90822 244.458   1
  -3   3  -9-6.51502 152.628   1
   3  -3   9 882.328 476.004   2
   3  -3  10 296.002 378.798   2
  -3   3 -10 388.609 465.586   1
   3  -3  11 555.842 423.689   2
  -3   3 -11 840.104 739.444   1
  -3   3 -12 362.119 442.570   1
  -3   2  14 1332.31 840.521   2
  -3   2  13 2581.87 2667.32   1
  -3   2  13 393.496 577.375   2
   3  -2 -13 527.473 503.945   3
  -3   2  12 133.703 342.021   2
   3  -2 -12 35.0257 104.029   3
  -3   2  12-207.035 957.715   1
  -3   2  11-20.6716 216.112   2
   3  -2 -11 909.377 611.256   3
  -3   2  11 1044.68 1617.73   1
  -3   2  10 457.048 1131.93   1
   3  -2 -10 896.159 554.805   3
  -3   2  10 382.842 522.414   2
  -3   2   9 2270.26 1649.26   1
  -3   2   9 2690.25 837.103   2
   3  -2  -9 3410.50 940.454   3
  -3   2   8 83.9959 482.870   2
   3  -2  -8 12.8941 181.747   3
  -3   2   7 530.400 333.064   2
   3  -2  -7 695.811 438.376   3
  -3   2   7 850.227 1207.11   1
  -3   2   6 1005.45 1049.74   1
  -3   2   6 672.379 371.748   2
   3  -2  -6 1666.06 580.342   3
   3  -2  -5 222.679 139.969   2
  -3   2   5 247.320 547.323   1
  -3   2   5 247.386 210.728   2
   3  -2  -5 262.602 214.995   3
   3  -2  -4 80157.1 4014.25   3
  -3   2   4 68641.7 5392.27   1
   3  -2  -4 71427.1 1980.42   2
  -3   2   4 70648.7 2688.55   2
   3  -2  -3 108083. 4757.85   3
  -3   2   3 100980. 6088.82   1
   3  -2  -3 99682.3 2557.75   2
   3  -2  -2 14798.7 1803.55   3
  -3   2   2 12835.4 2019.86   1
   3  -2  -2 12479.2 1031.80   2
   3  -2  -1 18350.0 1963.22   3
  -3   2   1 18847.9 2319.09   1
   3  -2   0 4416.37 986.976   3
   3  -2   0 2974.38 486.561   2
  -3   2   0 3688.88 974.028   1
  -3   2   0 2586.92 372.659   4
   3  -2   1 6908.59 1170.26   3
  -3   2  -1 3906.19 1017.29   1
   3  -2   1 5645.15 650.633   2
  -3   2  -1 6132.25 542.981   4
  -3   2  -2 1350.72 566.493   1
  -3   2  -2 1445.19 281.449   4
   3  -2   2 1572.99 471.113   3
   3  -2   2 1403.08 342.430   2
  -3   2  -3 14273.3 779.552   4
  -3   2  -3 12769.8 1656.30   1
   3  -2   3 11844.3 1060.50   2
  -3   2  -4 13163.1 1670.02   1
  -3   2  -4 17765.7 860.281   4
   3  -2   4 15285.6 1264.14   2
  -3   2  -5 4726.98 1003.34   1
   3  -2   5 4408.45 729.977   2
  -3   2  -5 5458.85 481.112   4
  -3   2  -6 412.600 354.173   1
  -3   2  -6 65.6111 64.1785   4
   3  -2   6 277.415 215.469   2
   3  -2   7 289.575 211.446   2
  -3   2  -7 559.484 419.233   1
  -3   2  -7 363.790 166.082   4
   3  -2   8 1272.64 541.041   2
  -3   2  -8 1051.26 725.714   1
   3  -2   9 739.646 466.695   2
  -3   2  -9 576.731 439.507   1
   3  -2  10 145.811 391.351   2
  -3   2 -10 1001.46 743.146   1
  -3   2 -11 1476.44 782.867   1
   3  -2  11 773.158 438.155   2
  -3   2 -12 437.273 563.301   1
  -3   1  14 253.064 232.319   2
  -3   1  13 322.149 1277.96   1
  -3   1  13 263.482 380.108   2
   3  -1 -13 296.665 355.343   3
  -3   1  12 469.560 555.183   2
   3  -1 -12 860.379 618.647   3
  -3   1  12 293.888 1219.27   1
  -3   1  11 1424.26 1535.83   1
  -3   1  11 275.356 314.478   2
   3  -1 -11-115.747 231.690   3
  -3   1  10 3388.34 1665.98   1
  -3   1  10 3403.44 846.703   2
   3  -1 -10 3915.13 1019.44   3
  -3   1   9 5360.10 2014.36   1
   3  -1  -9 5577.18 1179.41   3
  -3   1   9 4371.06 944.175   2
  -3   1   8 5177.16 2474.08   1
   3  -1  -8 6118.82 1193.05   3
  -3   1   8 5783.98 975.311   2
  -3   1   7 7166.85 2675.52   1
   3  -1  -7 6934.34 1240.61   3
  -3   1   7 3700.11 714.477   2
   3  -1  -6 476.099 154.291   2
  -3   1   6 496.961 258.660   2
   3  -1  -6 838.128 434.978   3
  -3   1   6 652.723 752.833   1
   3  -1  -5 11122.5 1551.13   3
  -3   1   5 11917.5 2430.34   1
   3  -1  -5 6730.86 482.022   2
  -3   1   5 11146.1 1013.45   2
  -3   1   4 5698.92 1444.01   1
   3  -1  -4 6078.76 375.571   2
  -3   1   4 6593.11 649.044   2
  -3   1   3 6167.20 1362.68   1
   3  -1  -3 5373.97 306.294   2
   3  -1  -2 29825.2 2656.51   3
  -3   1   2 33985.7 3222.09   1
   3  -1  -2 21202.8 684.406   2
   3  -1  -2 20421.0 875.791   2
   3  -1  -1 76589.5 5007.19   1
  -3   1   1 74146.9 4232.31   1
   3  -1  -1 69668.8 1352.88   2
   3  -1   0-34.6286 59.7301   2
   3  -1   0 76.4207 287.528   1
   3  -1   0-100.705 208.962   3
  -3   1   0-149.266 307.828   1
   3  -1   1 5314.27 1007.08   3
  -3   1  -1 4362.65 980.548   1
  -3   1  -2 3686.26 815.247   1
   3  -1   2 3840.13 487.505   2
  -3   1  -2 4890.16 505.448   4
  -3   1  -3 423.082 133.423   4
   3  -1   3 231.154 150.401   2
  -3   1  -3 694.711 367.593   1
   3  -1   3 325.428 270.762   3
   3  -1   4 1096.65 326.189   2
  -3   1  -4 1748.32 253.163   4
  -3   1  -4 1132.89 444.107   1
  -3   1  -5 172.929 88.4308   4
  -3   1  -5 177.539 194.644   1
   3  -1   5 161.681 204.328   2
  -3   1  -6 417.493 125.164   4
   3  -1   6 539.967 304.490   2
  -3   1  -6 585.345 424.784   1
  -3   1  -7 641.880 444.519   1
   3  -1   7 1.07919 90.3611   2
   3  -1   8 1270.77 570.774   2
  -3   1  -8 1082.85 547.700   1
  -3   1  -9-213.496 206.158   1
   3  -1   9-168.886 316.609   2
   3  -1  10 489.242 478.009   2
  -3   1 -10 414.209 436.276   1
  -3   1 -11 481.648 554.655   1
   3  -1  11 203.547 251.698   2
   3  -1  12 1637.88 1674.95   1
  -3   0  14 2453.78 1730.28   1
   3   0 -14 79.8881 239.330   3
  -3   0  13-825.470 459.130   1
  -3   0  13 462.356 338.247   2
   3   0 -13 938.238 690.293   3
  -3   0  12 1985.75 2068.49   1
  -3   0  12 56.7778 244.250   2
   3   0 -12 393.529 433.380   3
  -3   0  11 1444.24 1562.97   1
  -3   0  11 720.108 359.851   2
   3   0 -11 208.716 247.620   3
   3   0 -10 5665.19 1189.24   3
  -3   0  10 4044.90 2231.32   1
  -3   0  10 5599.35 962.977   2
  -3   0   9 12898.1 3425.41   1
  -3   0   9 17533.1 1577.85   2
  -3   0   8-449.308 674.574   1
  -3   0   8 27.6969 75.3084   2
   3   0  -8-89.5323 87.1415   3
   3   0  -7 8769.40 1466.84   3
  -3   0   7 8901.92 2506.41   1
   3   0  -7 5770.18 636.231   2
  -3   0   7 9900.28 968.140   2
   3   0  -6 7130.08 1326.69   3
  -3   0   6 8061.02 2333.70   1
   3   0  -6 3889.77 463.579   2
  -3   0   6 7821.92 782.578   2
  -3   0   5 2299.79 1149.12   1
   3   0  -5 2133.12 737.436   3
  -3   0   5 1340.30 268.823   2
   3   0  -5 824.663 185.383   2
   3   0  -4 7389.77 1366.94   3
  -3   0   4 7392.53 1599.54   1
   3   0  -3 77274.7 4414.02   3
  -3   0   3 58059.4 4093.69   1
   3   0  -2 51628.2 3576.48   3
   3   0  -2 45877.6 4176.50   1
  -3   0   2 43334.9 3229.37   1
   3   0  -1 1895.80 694.020   1
   3   0  -1 2530.52 775.391   3
  -3   0   1 3285.41 839.078   1
   3   0  -1 2088.29 220.521   2
   3   0   0 15775.1 1970.66   1
  -3   0   0 17983.0 1735.39   1
  -3   0   0 20116.1 1131.65   2
   3   0   0 17129.7 845.133   2
   3   0   1 507.491 159.841   2
  -3   0  -1 1832.73 621.648   1
   3   0   1 905.677 508.309   1
   3   0   1 1216.53 460.587   3
  -3   0  -1 1133.26 300.764   2
   3   0   2 9.23973 51.9434   2
  -3   0  -2-12.8911 130.985   1
   3   0   2 89.3680 129.664   3
  -3   0  -3 9949.92 1220.60   1
   3   0   3 10314.9 964.778   2
  -3   0  -3 12305.2 779.855   4
  -3   0  -4 309.446 122.922   4
   3   0   4 275.540 204.054   2
  -3   0  -4 76.2551 55.1884   1
  -3   0  -5 664.008 151.840   4
   3   0   5 651.776 312.365   2
  -3   0  -5 373.109 263.673   1
   3   0   6 264.173 222.607   2
  -3   0  -6 578.173 450.501   1
   3   0   7 672.812 394.206   2
  -3   0  -7 183.681 229.203   1
   3   0   8 16.0085 153.697   2
  -3   0  -8-147.967 276.206   1
  -3   0  -9 55.0181 314.073   1
   3   0   9 70.6461 299.814   2
   3   0  10 212.844 295.749   2
   3   0  11-246.327 1504.89   1
  -3  -1  14 586.363 956.527   1
   3   1 -14-40.3620 98.0502   3
  -3  -1  13-87.8985 679.446   1
  -3  -1  13 517.784 324.096   2
   3   1 -13 88.9250 130.522   3
  -3  -1  12 1358.84 1695.69   1
  -3  -1  12 77.7159 82.5443   2
   3   1 -12 143.438 229.025   3
  -3  -1  11 771.047 811.069   1
  -3  -1  11 358.745 305.403   2
   3   1 -11 168.610 257.397   3
  -3  -1  10 1278.74 1221.60   1
  -3  -1  10 1036.45 436.435   2
   3   1 -10 2308.82 800.146   3
   3   1  -9 39675.8 3301.81   3
  -3  -1   9 37288.8 2176.53   2
   3   1  -8 36721.7 3115.19   3
  -3  -1   8 34468.5 1859.39   2
  -3  -1   7 543.126 720.467   1
  -3  -1   7 2.81728 65.4662   2
   3   1  -7 307.068 402.876   3
  -3  -1   6 214.927 724.877   1
  -3  -1   6 518.911 166.577   2
   3   1  -6 306.341 161.505   3
  -3  -1   5 1679.35 1056.07   1
   3   1  -5 1948.17 771.364   3
  -3  -1   5 1592.05 222.571   2
  -3  -1   4 3240.03 987.067   1
   3   1  -4 4062.25 1027.99   3
   3   1  -3 25618.6 2682.24   3
   3   1  -3 21649.7 2914.44   1
  -3  -1   3 18696.4 2186.16   1
   3   1  -2 259.726 378.285   1
  -3  -1   2 791.476 423.335   1
   3   1  -2 905.543 509.290   3
  -3  -1   2 563.386 110.965   2
   3   1  -1 8694.22 1550.52   3
   3   1  -1 6229.47 1242.43   1
  -3  -1   1 6206.47 1007.50   1
  -3  -1   1 7344.52 529.218   2
   3   1  -1 7097.86 643.582   2
   3   1   0 10695.0 1543.75   3
   3   1   0 6857.77 1234.19   1
  -3  -1   0 7950.07 1073.93   1
  -3  -1   0 9098.23 736.947   2
   3   1   0 7411.12 702.434   2
  -3  -1  -1 104.915 122.954   2
   3   1   1 344.817 168.992   2
  -3  -1  -1 100.954 90.0463   1
   3   1   1-223.775 189.390   1
   3   1   1 207.393 191.881   3
   3   1   2 5883.52 1128.21   1
  -3  -1  -2 8025.58 974.318   1
   3   1   2 6987.87 755.818   2
  -3  -1  -3 6386.15 856.714   4
  -3  -1  -3 8249.89 1019.99   1
   3   1   3 7283.94 856.926   2
   3   1   4 216.012 136.171   2
  -3  -1  -4 143.357 169.882   4
  -3  -1  -4 251.822 99.2247   4
  -3  -1  -4-56.0744 53.6520   1
   3   1   5 733.112 359.531   2
  -3  -1  -5 962.333 482.800   1
  -3  -1  -5 1401.50 197.886   4
   3   1   6 267.267 251.457   2
  -3  -1  -6 528.140 395.294   1
   3   1   7 61.1968 41.7100   2
  -3  -1  -7 160.286 286.133   1
   3   1   8 311.609 322.590   2
  -3  -1  -8 520.600 456.535   1
   3   1   9-304.233 321.064   2
   3   1   9 566.644 920.516   1
   3   1  10-47.6183 128.151   2
   3   1  10 350.220 998.741   1
  -3  -2  14 1323.02 1635.85   1
   3   2 -14-93.0127 289.212   3
  -3  -2  13 281.693 946.458   1
  -3  -2  13 51.3322 183.271   2
   3   2 -13 358.367 500.656   3
  -3  -2  12 62.9662 229.860   2
   3   2 -12 5.89996 177.285   3
  -3  -2  11 264.333 725.592   1
  -3  -2  11 13.8476 160.378   2
   3   2 -11-477.122 441.330   3
  -3  -2  10 825.541 972.594   1
  -3  -2  10 1672.08 483.700   2
   3   2 -10 1038.38 638.706   3
  -3  -2   9 51.4277 89.8595   2
   3   2  -9 106.166 78.6831   3
   3   2  -8 34326.0 3158.62   3
  -3  -2   8 36865.9 1750.72   2
  -3  -2   7 1664.20 1275.96   1
   3   2  -7 3603.75 1014.65   3
  -3  -2   7 3548.34 446.124   2
   3   2  -6 17168.9 2274.65   3
  -3  -2   6 12588.2 2550.53   1
  -3  -2   6 13340.6 748.061   2
  -3  -2   5 157.389 84.3947   2
   3   2  -5-55.6999 250.233   3
  -3  -2   4 2261.38 925.232   1
  -3  -2   4 2722.31 265.721   2
   3   2  -4 3261.14 1227.44   1
  -3  -2   4 2101.85 305.912   2
  -3  -2   3 1006.07 523.958   1
   3   2  -3 2062.60 822.100   3
  -3  -2   3 1483.17 213.748   2
   3   2  -3 1498.67 598.917   1
   3   2  -2 48.4969 100.693   1
  -3  -2   2 384.618 335.679   1
   3   2  -2 617.339 347.380   3
  -3  -2   2 953.308 210.167   2
   3   2  -1 2887.77 825.037   1
  -3  -2   1 2521.06 528.134   1
  -3  -2   1 3189.77 436.396   2
   3   2  -1 2667.09 541.570   2
  -3  -2   0 64.7929 75.0650   2
   3   2   0 17.5467 22.9128   2
   3   2   0 267.065 245.578   1
  -3  -2   0 124.018 162.299   1
   3   2   0-41.5340 106.179   3
  -3  -2  -1 733.009 263.190   1
   3   2   1 840.750 309.024   2
   3   2   1 143.465 221.266   1
   3   2   1 986.045 439.582   3
  -3  -2  -2 1012.47 333.953   1
   3   2   2 2246.01 671.993   3
   3   2   2 1798.97 588.407   1
   3   2   2 2246.44 518.315   2
  -3  -2  -3 209.140 142.053   1
  -3  -2  -3 161.819 208.571   4
   3   2   3 486.286 251.104   2
   3   2   4 508.356 286.221   2
  -3  -2  -4 412.182 238.557   1
   3   2   5 506.683 365.222   2
  -3  -2  -5 611.553 347.989   1
  -3  -2  -6-222.719 212.081   1
   3   2   6-86.9032 92.6177   2
   3   2   7 611.962 415.111   2
   3   2   8-3.70033 61.7899   2
   3   2   8-287.451 595.219   1
   3   2   9 453.863 431.878   2
   3   3 -15-71.4058 328.930   3
  -3  -3  14-113.232 403.221   1
   3   3 -14 1471.73 841.791   3
  -3  -3  13-48.3950 506.518   1
  -3  -3  13-75.2787 58.2861   2
  -3  -3  12 163.484 470.713   1
  -3  -3  12 432.247 339.846   2
   3   3 -12 130.080 281.048   3
  -3  -3  11-20.7019 138.276   2
   3   3 -11 191.666 336.235   3
  -3  -3  11 156.411 348.861   1
  -3  -3  10-41.3758 50.1869   2
   3   3 -10 210.648 310.449   3
  -3  -3  10 566.893 809.876   1
  -3  -3   9 336.767 519.563   1
  -3  -3   9 1037.06 320.622   2
   3   3  -9 1434.98 672.243   3
  -3  -3   8 8106.16 2055.98   1
  -3  -3   8 14661.7 1022.78   2
   3   3  -7 14370.1 2242.87   3
  -3  -3   7 9163.59 2142.54   1
  -3  -3   7 10594.9 849.552   2
  -3  -3   6 1299.10 742.843   1
   3   3  -6 1556.95 752.096   3
  -3  -3   6 2046.82 369.550   2
  -3  -3   5 210.797 142.458   2
  -3  -3   5 677.063 206.424   2
  -3  -3   4 1902.61 751.237   1
   3   3  -4 2940.81 1021.73   3
  -3  -3   4 2717.43 450.883   2
  -3  -3   3 569.370 179.844   2
  -3  -3   3 336.105 230.952   1
   3   3  -3 560.393 403.686   1
  -3  -3   2 115.238 116.760   2
   3   3  -2 132.858 361.179   3
  -3  -3   2 297.533 173.040   1
   3   3  -2 230.288 289.934   1
   3   3  -1 524.021 346.092   1
  -3  -3   1 526.117 200.595   2
  -3  -3   1 867.774 242.637   1
   3   3  -1 512.036 244.325   2
   3   3  -1 1164.38 543.944   3
   3   3   0-7.01647 83.0842   1
  -3  -3   0 163.392 96.3859   1
   3   3   0 234.276 204.827   2
  -3  -3  -1 1230.73 278.887   1
   3   3   1 1050.63 421.989   2
   3   3   1 658.903 303.918   1
   3   3   1 1234.06 531.073   3
   3   3   2 1140.83 432.151   2
   3   3   2 802.052 309.357   1
  -3  -3  -2 1233.27 326.509   1
   3   3   3 13059.8 1449.16   1
  -3  -3  -3 14103.9 1195.54   1
   3   3   3 12378.8 1424.43   2
   3   3   4 4544.20 885.283   2
   3   3   5 313.617 278.764   2
   3   3   5-544.583 514.986   1
   3   3   6 222.406 135.465   2
   3   3   6 251.476 406.378   1
   3   3   7 165.243 53.7814   2
   3   3   8 307.427 440.770   2
   3   3   9 18.5969 247.251   2
   3   4 -15 682.025 544.753   3
  -3  -4  14-663.614 1178.84   1
   3   4 -14 661.595 614.010   3
   3   4 -13 476.836 482.652   3
  -3  -4  13 273.083 1029.11   1
  -3  -4  12-59.1258 158.788   2
   3   4 -12-257.849 288.461   3
  -3  -4  12-263.077 633.141   1
  -3  -4  11 46.7598 26.4994   2
   3   4 -11 863.842 712.864   3
  -3  -4  11 506.986 960.323   1
  -3  -4  10 573.710 259.879   2
   3   4 -10 461.838 549.706   3
  -3  -4  10 657.680 938.496   1
   3   4  -9 4329.18 1272.33   3
  -3  -4   9 3618.50 610.072   2
  -3  -4   9 2422.02 1134.28   1
   3   4  -8 4865.70 1408.35   3
  -3  -4   8 4665.92 658.339   2
  -3  -4   7 139.909 93.4508   1
   3   4  -7 298.018 428.430   3
  -3  -4   7 78.6576 10.9537   2
   3   4  -6 121.334 294.753   3
  -3  -4   6 216.032 198.981   2
  -3  -4   6 60.2648 360.002   1
  -3  -4   5-26.1374 86.8234   1
  -3  -4   5-33.9447 34.4480   2
  -3  -4   4 111.419 399.228   1
  -3  -4   4-21.6802 28.3188   1
  -3  -4   4 138.507 119.396   2
   3   4  -4 616.376 642.976   3
  -3  -4   3 6471.24 883.769   1
  -3  -4   3 8454.40 688.678   1
  -3  -4   3 6910.40 866.203   2
  -3  -4   2 1763.12 252.874   1
  -3  -4   2 2300.98 470.700   2
   3   4  -1 1252.63 486.572   2
   3   4  -1 1140.54 544.079   3
   3   4   0 267.610 273.177   2
   3   4   0 163.416 292.363   3
   3   4   1 901.054 440.847   2
   3   4   1 2185.62 746.509   3
   3   4   2 208.211 245.279   2
   3   4   2 236.478 214.967   1
   3   4   3-51.7886 219.265   2
   3   4   3-64.9439 246.369   1
   3   4   4 449.485 271.805   2
   3   4   5 2379.20 836.887   2
   3   4   6 666.727 494.114   2
   3   4   7 497.117 388.782   2
   3   4   8 487.749 502.318   2
   3   5 -15 182.557 378.840   3
   3   5 -14 474.208 450.920   3
  -3  -5  14-3222.22 1739.08   1
   3   5 -13 869.798 644.787   3
  -3  -5  13 1003.17 1380.02   1
  -3  -5  12 178.941 149.685   2
   3   5 -12 45.4891 256.436   3
  -3  -5  12 442.799 665.650   1
  -3  -5  11 102.146 97.0033   2
   3   5 -11 714.839 534.996   3
  -3  -5  11 708.076 734.101   1
  -3  -5  10 132.673 191.212   2
   3   5 -10 253.909 336.183   3
  -3  -5  10 882.597 894.610   1
  -3  -5   9 883.930 369.475   2
   3   5  -9 1213.69 721.948   3
  -3  -5   9 693.454 619.169   1
   3   5  -8 983.176 717.187   3
  -3  -5   8 910.950 818.038   1
  -3  -5   8 320.097 198.803   2
  -3  -5   7 863.210 553.784   1
   3   5  -7-220.844 337.890   3
  -3  -5   7 432.247 225.753   2
  -3  -5   6 148.795 274.129   1
   3   5  -6 374.764 415.028   3
  -3  -5   5 55.0951 149.763   1
  -3  -5   5 326.750 193.079   1
   3   5  -5 368.943 140.275   3
  -3  -5   4 279.299 214.019   1
  -3  -5   4 193.513 93.3938   1
   3   5  -4 663.600 508.191   3
   3   5  -3 1105.11 597.822   3
   3   5  -2 1893.09 708.687   3
   3   5  -1 661.670 487.173   2
   3   5  -1 1085.85 542.814   3
   3   5   0 476.559 406.588   2
   3   5   0 592.524 391.492   3
   3   5   1 213.245 293.176   2
   3   5   2 669.291 452.864   2
   3   5   3-239.005 253.405   2
   3   5   4 117.010 250.495   2
   3   5   5 686.915 471.845   2
   3   5   6 660.062 479.446   2
   3   5   7 823.232 630.327   2
   3   6 -15 538.618 494.334   3
   3   6 -14 880.410 716.555   3
  -3  -6  14 1364.11 1258.13   1
   3   6 -13 1051.49 730.441   3
  -3  -6  13 1074.13 1135.12   1
   3   6 -12 444.376 601.287   3
  -3  -6  12 904.542 832.451   1
  -3  -6  11 287.887 284.419   2
   3   6 -11-227.750 343.407   3
  -3  -6  11-284.611 216.624   1
  -3  -6  10 81.1489 148.440   2
   3   6 -10 1539.39 1038.41   3
  -3  -6  10 338.357 720.409   1
   3   6  -9 310.722 153.622   3
  -3  -6   9 111.349 753.031   1
  -3  -6   9 559.247 336.265   2
   3   6  -8 1219.25 797.334   3
  -3  -6   8 1945.27 1056.23   1
  -3  -6   8 821.357 357.322   2
  -3  -6   7 483.720 562.141   1
   3   6  -7-22.4982 280.464   3
  -3  -6   6 498.758 360.559   1
   3   6  -6-390.682 508.474   3
  -3  -6   5 583.995 313.398   1
   3   6  -5 310.520 482.501   3
  -3  -6   4 440.849 180.187   1
   3   6  -4 1241.05 755.102   3
   3   6  -3 134.228 382.995   3
   3   6  -2 11882.1 1683.37   3
   3   6  -1 7058.87 1275.65   3
   3   6  -1 4944.36 1205.36   2
   3   6   0-25.1420 278.285   2
   3   6   1-16.5627 114.512   2
   3   6   2 834.673 552.471   2
   3   6   3-61.3507 143.395   2
   3   6   4 217.359 34.6444   2
   3   6   5 420.606 587.374   2
   3   6   6 306.736 376.082   2
  -3  -7  14 263.000 593.866   1
   3   7 -13 192.124 265.355   3
  -3  -7  13-142.845 333.356   1
   3   7 -12 448.190 642.197   3
  -3  -7  12-707.001 912.721   1
   3   7 -11 522.130 279.747   3
  -3  -7  11-46.6156 404.847   1
   3   7 -10 432.217 634.007   3
  -3  -7  10 255.744 213.962   2
  -3  -7  10 167.745 261.979   1
   3   7  -9 669.094 662.001   3
  -3  -7   9-53.5386 125.584   2
  -3  -7   9 404.495 507.307   1
  -3  -7   8 683.513 656.169   1
   3   7  -8 397.070 390.846   3
  -3  -7   8 1226.72 525.950   2
  -3  -7   7 548.138 315.740   1
   3   7  -7 1286.76 1018.24   4
   3   7  -7 2082.88 945.560   3
   3   7  -6 80.2082 258.303   4
   3   7  -6 749.179 487.169   3
   3   7  -5 502.336 619.266   4
   3   7  -5 571.185 602.613   3
   3   7  -4-166.759 52.2261   4
   3   7  -4 776.323 408.271   3
   3   7  -3 623.533 380.038   3
   3   7  -2 405.532 321.487   3
   3   7   0 875.663 643.071   2
   3   7   1 673.669 577.122   2
   3   7   2 517.308 474.362   2
   3   7   3 569.352 555.471   2
   3   7   4 595.365 567.510   2
   3   7   5-251.857 369.908   2
  -3  -8  14 539.465 969.352   1
  -3  -8  13 106.964 710.363   1
  -3  -8  12 526.959 838.151   1
   3   8 -11 867.117 717.120   3
  -3  -8  11 595.874 729.770   1
   3   8 -10 671.511 617.416   3
   3   8  -9-225.999 380.953   3
  -3  -8   9 206.785 638.915   2
   3   8  -8 569.006 849.369   4
   3   8  -8-100.237 369.280   3
   3   8  -7 785.864 781.496   4
   3   8  -7 1381.12 786.513   3
   3   8  -6 221.225 166.389   4
   3   8  -6 647.738 517.290   3
   3   8  -5 879.432 878.011   4
   3   8  -5 67.9026 247.088   3
   3   8  -4 374.100 613.198   4
   3   8  -4 322.035 391.891   3
   3   8  -3 521.556 403.808   3
   3   8   1 325.523 393.885   2
   3   8   2 186.303 167.226   2
   3   8   3 329.371 353.832   2
   3   8   4 168.082 345.444   2
   3   9  -9 254.239 343.771   4
   3   9  -8 524.925 852.953   4
   3   9  -7-26.6986 469.256   4
   3   9  -7 298.175 470.287   3
   3   9  -6-292.321 451.278   4
   3   9  -6 155.665 243.253   3
   3   9  -5 744.042 697.421   4
   3   9  -5 489.001 446.864   3
   3   9  -4 877.492 834.291   4
   3   9  -4-113.724 285.185   3
   3   9   2-266.105 363.148   2
   3   9   3 312.653 432.864   2
   3  10  -9 698.708 897.890   4
   3  10  -8 728.549 731.155   4
   3  10  -7-667.504 915.157   4
   3  10  -6 378.810 805.187   4
   3  10  -5 629.951 893.007   4
   3  10  -4 207.932 791.670   4
   3  11  -8 1350.84 1121.63   4
   3  11  -7-4.54683 286.970   4
   3  11  -6 716.871 697.024   4
   3  11  -5 549.649 928.588   4
  -4  14  -2 498.753 570.168   1
  -4  14  -3 1404.49 960.520   1
  -4  14  -4 879.315 657.379   1
  -4  14  -5-178.976 342.489   1
  -4  13   3 523.388 432.759   4
  -4  13   2 375.569 263.850   4
  -4  13   1 881.615 825.944   1
  -4  13   1 565.573 363.239   4
  -4  13   0 216.304 251.820   4
  -4  13   0 471.077 602.333   1
  -4  13  -1 77.3628 120.497   4
  -4  13  -1-521.800 758.023   1
  -4  13  -2-57.4115 204.160   4
  -4  13  -2 836.184 1010.64   1
  -4  13  -3 1361.34 558.051   4
  -4  13  -3 886.652 503.943   1
  -4  13  -4 521.815 312.085   4
  -4  13  -4-184.282 391.875   1
  -4  13  -5 907.764 517.144   4
  -4  13  -5 595.826 689.943   1
  -4  13  -6 307.471 502.027   1
  -4  13  -7 1345.77 1108.91   1
  -4  12   4 200.294 217.648   4
  -4  12   4 1282.56 1027.52   1
  -4  12   3 427.668 314.544   4
  -4  12   3 490.264 670.007   1
  -4  12   2 115.798 184.086   4
  -4  12   2 433.338 652.308   1
  -4  12   1 566.639 641.021   1
  -4  12   1 37.2649 154.140   4
  -4  12   0 1050.81 803.892   1
  -4  12   0 143.478 210.120   4
  -4  12  -1 37.6508 171.853   4
  -4  12  -1 206.162 155.428   1
  -4  12  -2 1486.12 515.286   4
  -4  12  -2 2333.76 1307.40   1
  -4  12  -3 1131.80 944.520   1
  -4  12  -3 529.599 376.838   4
  -4  12  -4 234.638 296.257   4
  -4  12  -4-91.8073 261.079   1
  -4  12  -5 568.525 302.063   4
  -4  12  -5 709.406 766.910   1
  -4  12  -6 122.725 204.348   4
  -4  12  -6-68.6842 233.545   1
  -4  12  -7 728.597 566.088   4
  -4  12  -7 315.690 625.920   1
   4 -12   7 594.414 633.344   2
  -4  12  -8-397.188 288.172   1
  -4  12  -8-138.918 321.233   4
  -4  11   6-164.642 431.443   1
  -4  11   5-35.3887 111.677   4
  -4  11   5 546.468 828.847   1
  -4  11   4 790.299 778.225   1
  -4  11   4-24.2179 96.0720   4
  -4  11   3 282.523 219.588   4
  -4  11   3 1470.59 968.607   1
  -4  11   2 468.076 297.928   4
  -4  11   2 393.020 546.106   1
  -4  11   1 577.230 313.450   4
  -4  11   1 884.709 778.460   1
  -4  11   0 178.127 158.724   4
  -4  11   0 501.830 594.200   1
  -4  11  -1 1368.68 409.634   4
  -4  11  -1 691.319 501.296   1
  -4  11  -2 786.868 321.882   4
  -4  11  -2 1743.64 1073.97   1
  -4  11  -3 687.485 281.418   4
  -4  11  -3 157.417 265.460   1
  -4  11  -4 901.043 371.522   4
  -4  11  -4 937.456 867.924   1
  -4  11  -5 60.3578 157.744   4
  -4  11  -5 492.259 557.946   1
  -4  11  -6 739.182 410.477   4
  -4  11  -6 277.798 549.698   1
  -4  11  -7 460.114 312.942   4
  -4  11  -7 1004.54 787.708   1
   4 -11   7 983.929 663.165   2
  -4  11  -8-24.0171 256.221   1
  -4  11  -8 153.330 106.402   4
  -4  11  -9 547.727 748.120   1
  -4  11  -9-138.135 320.987   4
   4 -11   9 523.389 535.918   2
  -4  11 -10-150.909 464.468   4
  -4  10   8 517.212 786.572   1
  -4  10   7 597.876 316.002   1
  -4  10   6 252.576 841.211   1
  -4  10   5 123.895 171.442   4
  -4  10   5 796.894 903.320   1
  -4  10   4 554.795 271.792   4
  -4  10   4 356.381 918.205   1
  -4  10   3 1410.79 409.054   4
  -4  10   3 2264.84 1092.78   1
  -4  10   2 385.288 226.668   4
  -4  10   2-337.595 516.384   1
  -4  10   1 83.6148 112.969   4
  -4  10   1 596.022 418.632   1
  -4  10   0 2300.14 1065.39   1
  -4  10   0 2526.80 502.076   4
  -4  10  -1 372.657 273.077   4
  -4  10  -1 367.562 156.343   1
  -4  10  -2 1663.31 432.411   4
  -4  10  -2 1878.74 1069.51   1
  -4  10  -3 1745.31 485.511   4
  -4  10  -3 795.092 526.806   1
  -4  10  -4 1787.77 465.334   4
  -4  10  -4 1247.23 857.606   1
  -4  10  -5 572.560 323.045   4
  -4  10  -5 1492.48 956.185   1
  -4  10  -6 167.524 261.873   4
  -4  10  -6-40.2809 253.477   1
   4 -10   6-327.833 344.849   2
  -4  10  -7-1.30466 117.609   4
  -4  10  -7-16.2952 279.014   1
   4 -10   7 375.633 431.990   2
  -4  10  -8 520.684 455.211   4
  -4  10  -8 659.158 672.361   1
   4 -10   8 643.886 482.290   2
  -4  10  -9 1107.17 621.125   4
  -4  10  -9 302.920 481.242   1
   4 -10   9 621.716 481.829   2
  -4  10 -10 375.708 463.047   4
   4  -9  -9 198.030 90.5971   3
  -4   9   9 488.389 577.344   1
   4  -9  -8 416.695 426.486   3
  -4   9   8 2239.10 1836.03   1
   4  -9  -7 299.894 367.818   3
  -4   9   7-170.256 631.410   1
  -4   9   6 110.628 126.500   4
   4  -9  -6-113.349 373.377   3
  -4   9   6 61.2889 394.751   1
   4  -9  -5 858.830 503.697   3
  -4   9   5 567.727 618.613   1
  -4   9   5 117.548 122.611   4
   4  -9  -4 3524.82 1029.59   3
  -4   9   4 3285.57 1473.24   1
  -4   9   4 2903.40 517.607   4
  -4   9   3 768.197 261.514   4
   4  -9  -3 482.060 436.966   3
  -4   9   2 142.055 126.893   4
   4  -9  -2 844.778 542.743   3
  -4   9   2 540.701 658.122   1
  -4   9   1 2414.11 1285.52   1
  -4   9   1 1818.77 393.004   4
  -4   9   0 313.323 138.398   4
  -4   9   0 586.803 504.409   1
  -4   9  -1 763.756 274.294   4
  -4   9  -1 2012.75 1278.55   1
  -4   9  -2 8294.08 2172.20   1
  -4   9  -2 7484.80 850.018   4
  -4   9  -3 5033.30 1759.50   1
  -4   9  -3 3544.54 605.737   4
  -4   9  -4 106.394 176.093   4
  -4   9  -4 947.846 625.325   1
  -4   9  -5 736.965 355.705   4
  -4   9  -5 320.364 555.371   1
  -4   9  -6 176.175 104.686   4
  -4   9  -6 184.292 53.0627   1
   4  -9   6 219.917 264.531   2
  -4   9  -7 46.2389 34.0402   4
  -4   9  -7 727.248 734.926   1
   4  -9   7 324.564 415.408   2
  -4   9  -8 192.177 212.401   4
  -4   9  -8 43.1153 254.915   1
   4  -9   8-84.5988 180.451   2
  -4   9  -9 248.148 143.466   4
  -4   9  -9-65.8062 293.351   1
   4  -9  10 381.795 407.072   2
  -4   9 -10 1292.97 994.167   1
   4  -8 -10 831.562 677.106   3
  -4   8  10-827.425 803.074   2
  -4   8   9 1260.66 1492.34   1
   4  -8  -9 216.034 410.994   3
  -4   8   9 818.204 778.740   2
  -4   8   8 118.182 843.888   1
   4  -8  -8 473.466 482.543   3
  -4   8   8 2123.24 1221.35   2
   4  -8  -7 524.477 455.887   3
  -4   8   7 5.34877 600.103   1
  -4   8   7-25.8866 39.2970   4
  -4   8   6-225.641 159.837   4
   4  -8  -6-110.739 159.832   3
  -4   8   5 290.579 132.370   4
   4  -8  -5-202.765 262.906   3
  -4   8   5 175.874 633.777   1
   4  -8  -4 487.274 450.059   3
  -4   8   4 510.709 551.402   1
  -4   8   4 923.321 283.591   4
  -4   8   3 1261.59 332.260   4
   4  -8  -3 1211.91 645.892   3
  -4   8   3 1419.90 962.232   1
  -4   8   2 466.860 200.338   4
   4  -8  -2 369.975 440.182   3
  -4   8   2 742.904 592.312   1
   4  -8  -1 2751.63 784.757   3
  -4   8   1 1687.45 1142.03   1
  -4   8   1 2947.38 472.656   4
   4  -8   0 1026.48 522.865   3
  -4   8   0 302.446 156.364   4
  -4   8   0 585.345 594.744   1
  -4   8  -1 3642.72 1356.74   1
   4  -8   1 3711.12 805.322   3
  -4   8  -1 2499.10 459.807   4
  -4   8  -2 6934.84 1884.29   1
   4  -8   2 5463.16 709.598   3
  -4   8  -2 5154.13 632.717   4
  -4   8  -3 2500.73 1131.69   1
  -4   8  -3 2098.08 392.158   4
  -4   8  -4 940.475 754.979   1
  -4   8  -4 140.604 88.2522   4
  -4   8  -5 3761.71 1259.84   1
   4  -8   5 3570.91 1131.84   2
  -4   8  -5 3998.37 669.193   4
  -4   8  -6 614.362 256.089   4
  -4   8  -6 1187.04 823.688   1
   4  -8   6 931.187 567.062   2
  -4   8  -7 657.527 305.166   4
  -4   8  -7 23.3551 329.606   1
   4  -8   7 854.015 516.971   2
   4  -8   8 383.926 368.823   2
  -4   8  -8 2.93668 422.656   1
  -4   8  -8 244.899 319.769   4
   4  -8   9-340.411 360.415   2
  -4   8  -9-173.671 247.573   4
  -4   8  -9 333.641 130.260   1
   4  -8  10 495.799 492.693   2
  -4   8 -10 568.683 439.705   1
  -4   7  11-335.916 738.947   2
  -4   7  10 1213.78 1817.16   1
   4  -7 -10 368.959 510.356   3
  -4   7  10 810.874 919.950   2
   4  -7  -9 131.916 485.357   3
  -4   7   9-147.757 842.735   1
  -4   7   9 398.211 746.557   2
  -4   7   8-151.322 113.734   4
  -4   7   8 469.458 624.157   1
   4  -7  -8 158.266 268.138   3
  -4   7   8-73.2011 284.274   2
  -4   7   7 354.223 775.401   1
   4  -7  -7 251.445 261.424   3
  -4   7   7 15.3671 595.250   2
  -4   7   7 457.598 220.634   4
  -4   7   6 255.928 147.283   4
  -4   7   6 421.728 570.730   1
   4  -7  -6-138.621 290.619   3
  -4   7   5 1625.25 355.662   4
   4  -7  -5 2327.79 794.245   3
  -4   7   5 3041.62 1449.09   1
   4  -7  -4 2859.75 923.292   3
  -4   7   4 2780.19 1489.29   1
  -4   7   4 4221.74 563.825   4
   4  -7  -3 73414.2 4498.94   3
  -4   7   3 74159.0 6667.66   1
  -4   7   3 75360.0 2385.43   4
   4  -7  -2 6570.04 1359.19   3
  -4   7   2 4438.33 1474.72   1
  -4   7   2 6574.60 682.644   4
   4  -7  -1 19333.9 2197.94   3
  -4   7   1 18150.0 3102.13   1
  -4   7   1 18068.8 1146.87   4
  -4   7   0 17.0748 108.438   4
   4  -7   0 970.574 586.923   3
  -4   7   0 649.785 650.589   1
  -4   7  -1 1834.00 966.350   1
   4  -7   1 2672.85 697.816   3
  -4   7  -1 2246.75 411.211   4
  -4   7  -2 519.601 219.268   4
  -4   7  -2 14.9623 65.4254   1
   4  -7   2 345.924 242.072   3
  -4   7  -3 2451.90 454.345   4
  -4   7  -3 6770.57 1910.97   1
   4  -7   3 5039.68 689.234   3
  -4   7  -4 2653.38 1189.39   1
   4  -7   4 1002.97 610.160   2
  -4   7  -4 1701.09 341.775   4
   4  -7   5 1842.81 792.254   2
  -4   7  -5 1163.23 316.211   4
  -4   7  -5 1038.19 620.179   1
  -4   7  -6 1152.70 340.118   4
  -4   7  -6 230.140 406.758   1
   4  -7   6 786.616 488.506   2
   4  -7   7 1804.79 678.511   2
  -4   7  -7 1524.31 464.855   4
  -4   7  -7 1113.10 847.055   1
   4  -7   8 692.207 498.011   2
  -4   7  -8 485.014 359.158   4
  -4   7  -8 565.679 534.039   1
  -4   7  -9-153.288 137.616   4
  -4   7  -9 30.8950 173.684   1
   4  -7  10 315.177 356.821   2
  -4   7 -10 511.476 817.039   1
  -4   6  11-318.040 498.303   2
   4  -6 -11-383.036 329.552   3
  -4   6  10 663.675 759.804   1
  -4   6  10 968.903 743.186   2
   4  -6 -10-136.972 190.324   3
  -4   6   9 1440.31 1700.74   1
  -4   6   9 2066.67 809.957   2
   4  -6  -9 646.260 493.472   3
  -4   6   8 585.710 232.100   4
  -4   6   8-464.188 650.995   1
   4  -6  -8 327.940 386.834   3
  -4   6   8 40.2593 465.992   2
  -4   6   7 932.091 265.696   4
  -4   6   7 2179.21 1478.64   1
   4  -6  -7 944.357 538.863   3
  -4   6   7 1264.45 640.923   2
  -4   6   6 56.1440 177.175   1
   4  -6  -6-128.133 213.024   3
  -4   6   6-46.0887 90.6996   2
  -4   6   6 493.006 215.992   4
  -4   6   5-736.673 886.238   1
  -4   6   5 66.9676 86.4614   4
  -4   6   4-1.76212 74.1898   4
   4  -6  -4 1180.21 655.006   3
  -4   6   4 333.349 699.663   1
   4  -6  -3 7303.26 1408.58   3
  -4   6   3 6806.28 1996.14   1
  -4   6   3 9915.38 840.930   4
   4  -6  -2 15215.3 2030.29   3
  -4   6   2 17128.7 2910.56   1
  -4   6   2 19804.7 1177.19   4
   4  -6  -1 25384.9 2618.34   3
  -4   6   1 28723.0 3807.74   1
  -4   6   1 31615.6 1462.31   4
  -4   6   0 1027.56 257.456   4
   4  -6   0 488.316 403.062   3
  -4   6   0 733.985 501.252   1
  -4   6  -1 88.6898 389.598   1
  -4   6  -1 108.129 84.6450   4
   4  -6   1-44.7695 96.9173   3
  -4   6  -2 736.069 527.090   1
  -4   6  -2 363.848 174.249   4
   4  -6   2 901.956 401.398   3
  -4   6  -3 4886.51 1596.58   1
   4  -6   3 5891.69 869.768   3
   4  -6   3 4535.95 1057.69   2
  -4   6  -3 4439.50 563.361   4
  -4   6  -4 763.443 691.369   1
  -4   6  -4 92.9834 152.554   4
   4  -6   4-38.2772 214.314   2
  -4   6  -5 132.339 123.197   4
  -4   6  -5 373.844 537.732   1
   4  -6   5 420.912 400.901   2
   4  -6   6 413.916 371.872   2
  -4   6  -6 34.6711 10.6712   4
  -4   6  -6 162.909 178.985   1
   4  -6   7 1000.87 515.039   2
  -4   6  -7 389.499 255.065   4
  -4   6  -7 397.920 429.294   1
  -4   6  -8 1354.12 464.807   4
  -4   6  -8 1990.92 955.266   1
   4  -6   8 1599.44 654.125   2
  -4   6  -9 1615.66 886.717   1
   4  -6   9 386.481 410.026   2
  -4   6 -10 189.979 295.039   1
   4  -6  10 596.931 454.242   2
  -4   6 -11 1076.70 761.859   1
   4  -6  11 53.3034 227.969   2
  -4   5  11 442.914 783.086   1
  -4   5  11 726.355 774.251   2
   4  -5 -11-122.750 158.141   3
  -4   5  10 153.291 385.528   1
  -4   5  10 459.266 440.944   2
   4  -5 -10 149.638 191.269   3
  -4   5   9 657.174 227.754   4
  -4   5   9 730.482 595.322   2
   4  -5  -9 21.9573 386.046   3
  -4   5   8 56.2689 105.179   4
  -4   5   8-21.4017 369.920   1
  -4   5   8 540.673 642.306   2
   4  -5  -8 360.676 261.456   3
  -4   5   7 46.0529 132.004   4
  -4   5   7 843.525 949.508   1
  -4   5   7-109.321 149.305   2
   4  -5  -7 273.817 370.525   3
  -4   5   6 265.013 149.153   4
  -4   5   6 591.401 833.796   1
   4  -5  -6 1703.94 787.340   3
  -4   5   6 516.490 377.732   2
  -4   5   5-108.945 119.404   4
  -4   5   5 718.678 977.488   1
   4  -5  -5 552.595 351.481   3
   4  -5  -4 5186.79 1203.94   3
  -4   5   4 3779.29 1652.51   1
  -4   5   4 7042.42 747.005   4
  -4   5   3 1206.94 282.539   4
   4  -5  -3 854.907 576.657   3
  -4   5   3 827.007 643.709   1
   4  -5  -2 63432.7 4149.30   3
  -4   5   2 69339.6 5787.88   1
  -4   5   2 74863.2 2249.05   4
   4  -5  -1 6059.64 1358.41   3
  -4   5   1 4274.99 541.036   4
  -4   5   1 5933.62 1741.05   1
   4  -5   0 9903.27 1621.03   3
  -4   5   0 7495.58 1773.24   1
  -4   5   0 11610.5 865.512   4
   4  -5   1 9769.95 1537.94   3
  -4   5  -1 7123.93 1717.46   1
  -4   5  -1 8690.30 751.520   4
  -4   5  -2 581.326 213.892   4
  -4   5  -2 1354.94 785.948   1
   4  -5   2 699.881 357.692   3
   4  -5   2 517.521 319.092   2
  -4   5  -3 1196.03 281.083   4
   4  -5   3 653.730 339.740   2
   4  -5   3 784.305 334.363   3
  -4   5  -4 55.9824 40.7264   4
  -4   5  -4 663.417 494.917   1
   4  -5   4 343.996 232.120   2
   4  -5   5 910.995 420.178   2
  -4   5  -5 861.667 269.257   4
  -4   5  -5 735.479 615.438   1
   4  -5   6 1946.38 676.112   2
  -4   5  -6 678.734 592.510   1
  -4   5  -6 1917.26 406.886   4
   4  -5   7 816.650 411.919   2
  -4   5  -7 194.258 516.814   1
  -4   5  -7 437.275 231.081   4
  -4   5  -8 621.672 278.799   4
  -4   5  -8 609.690 585.982   1
   4  -5   8 16.9379 228.170   2
   4  -5   9 281.041 306.355   2
  -4   5  -9 724.049 518.913   1
   4  -5  10 285.308 417.316   2
  -4   5 -10 14.2277 179.594   1
  -4   5 -11-436.995 592.326   1
   4  -5  11 95.9986 205.424   2
  -4   4  12 729.162 1105.03   1
   4  -4 -12-524.627 378.830   3
  -4   4  11 2033.34 1846.79   1
  -4   4  11-208.288 444.157   2
   4  -4 -11 579.265 550.641   3
  -4   4  10 388.578 186.597   4
  -4   4  10 1686.90 1731.00   1
  -4   4  10 225.243 317.756   2
   4  -4 -10 614.216 610.007   3
  -4   4   9 453.339 226.759   4
  -4   4   9 306.024 433.161   1
  -4   4   9 944.599 629.484   2
   4  -4  -9-45.8448 254.061   3
  -4   4   8 7750.09 2525.06   1
   4  -4  -8 9951.87 1837.54   3
  -4   4   8 4974.26 1162.66   2
  -4   4   8 8261.05 812.899   4
  -4   4   7 783.697 249.029   4
  -4   4   7-136.612 149.493   2
   4  -4  -7 1134.06 580.819   3
  -4   4   6 1161.74 286.479   4
  -4   4   6 1362.32 834.489   1
  -4   4   6 780.569 444.417   2
   4  -4  -6 940.584 606.595   3
  -4   4   5 1353.98 1025.88   1
   4  -4  -5 311.775 455.800   3
  -4   4   5 239.275 139.241   4
  -4   4   4 1981.51 1088.72   1
   4  -4  -4 1874.42 680.006   3
  -4   4   4 1880.75 369.146   4
   4  -4  -3 12375.8 1919.11   3
  -4   4   3 11459.9 2326.85   1
   4  -4  -3 10290.7 1310.87   2
  -4   4   3 13017.8 941.801   4
  -4   4   2 22135.7 1216.69   4
   4  -4  -2 22847.9 2563.43   3
  -4   4   2 19091.0 2939.85   1
   4  -4  -2 14918.9 1627.16   2
   4  -4  -1 9698.67 1711.50   3
  -4   4   1 8283.40 1944.00   1
   4  -4  -1 4923.10 1017.20   2
  -4   4   1 9778.14 852.665   4
   4  -4   0 36289.2 3109.51   3
  -4   4   0 32101.7 3498.38   1
  -4   4   0 42335.4 1744.59   4
  -4   4  -1 143.763 134.116   4
  -4   4  -1 90.5968 63.9287   1
   4  -4   1 295.084 295.083   2
  -4   4  -2 255.847 161.378   4
  -4   4  -2 293.745 585.422   1
   4  -4   2 74.9272 91.3184   3
   4  -4   2-101.635 154.422   2
  -4   4  -3 2191.35 980.953   1
   4  -4   3 2843.89 701.922   3
  -4   4  -3 2136.69 376.605   4
   4  -4   3 2010.78 581.367   2
   4  -4   4-36.9305 24.5352   2
  -4   4  -4 81.1412 129.940   4
  -4   4  -4-162.201 124.294   1
   4  -4   5 506.319 272.615   2
  -4   4  -5 713.857 237.661   4
  -4   4  -5 928.150 542.719   1
  -4   4  -6-258.662 151.863   1
   4  -4   6 10.2080 220.874   2
  -4   4  -6 78.0581 99.4419   4
   4  -4   7 566.978 362.799   2
  -4   4  -7 762.363 260.182   4
  -4   4  -7 877.978 642.676   1
   4  -4   8 665.882 449.239   2
  -4   4  -8-160.703 182.589   1
   4  -4   9 326.739 144.830   2
  -4   4  -9 1294.39 772.606   1
   4  -4  10 713.346 562.063   2
  -4   4 -10 561.871 569.542   1
  -4   4 -11 743.285 804.564   1
  -4   3  12-308.520 1004.14   1
   4  -3 -12 304.163 406.720   3
  -4   3  11 223.422 154.295   2
   4  -3 -11-212.566 271.009   3
  -4   3  10 420.258 208.314   4
  -4   3  10 719.183 892.684   1
  -4   3  10 798.137 506.503   2
   4  -3 -10 11.4887 185.716   3
  -4   3   9 167.064 170.624   4
  -4   3   9 40.2559 177.814   1
  -4   3   9 489.645 433.205   2
   4  -3  -9-15.1994 671.075   3
  -4   3   8 557.292 1042.64   1
  -4   3   8 115.204 169.364   2
   4  -3  -8 341.225 383.106   3
  -4   3   7 472.500 457.807   1
  -4   3   7 167.650 165.265   2
   4  -3  -7 156.024 189.862   3
  -4   3   6-86.8382 190.634   1
  -4   3   6 310.273 260.141   2
   4  -3  -6 113.766 143.200   3
   4  -3  -5 314.517 152.656   2
  -4   3   5 841.898 634.906   1
   4  -3  -5 1056.62 574.803   3
   4  -3  -4 344.637 172.873   2
  -4   3   4-274.352 160.435   1
   4  -3  -4 271.040 304.636   3
   4  -3  -3 14337.0 2073.77   3
  -4   3   3 10511.0 2239.95   1
   4  -3  -3 13879.7 1199.15   2
   4  -3  -2 2295.09 584.453   2
   4  -3  -2 3793.42 1023.42   3
  -4   3   2 2283.22 974.265   1
  -4   3   2 3540.86 509.914   4
   4  -3  -1 4757.66 1204.30   3
  -4   3   1 4334.92 1226.56   1
  -4   3   1 5145.30 624.744   4
   4  -3   0 1614.27 625.635   3
  -4   3   0 517.706 530.295   1
  -4   3   0 1375.37 287.647   4
   4  -3   0 1253.00 387.921   2
  -4   3  -1 2656.75 959.201   1
   4  -3   1 1737.49 733.167   3
   4  -3   1 1906.78 445.032   2
  -4   3  -1 2350.38 404.462   4
   4  -3   2 71.3250 95.7775   2
  -4   3  -2-14.4078 74.5447   4
  -4   3  -2-88.2530 304.769   1
   4  -3   2 6.45580 71.0420   3
   4  -3   3 1140.30 363.245   2
  -4   3  -3 1317.30 667.481   1
   4  -3   3 2097.32 632.493   3
  -4   3  -3 2221.06 377.920   4
  -4   3  -4 2463.97 799.337   1
   4  -3   4 2728.08 592.583   2
  -4   3  -4 3021.80 432.425   4
  -4   3  -5 93.3802 103.159   4
   4  -3   5-7.41010 127.287   2
  -4   3  -5 25.0044 183.155   1
  -4   3  -6-25.8667 90.4031   4
   4  -3   6 61.1482 96.4330   2
  -4   3  -6 23.2181 181.760   1
   4  -3   7 385.578 272.926   2
  -4   3  -7 383.254 414.157   1
   4  -3   8 134.640 161.046   2
  -4   3  -8 73.9814 315.702   1
  -4   3  -9 1173.50 623.784   1
   4  -3   9 126.037 281.150   2
   4  -3  10 340.211 380.017   2
  -4   3 -10 974.093 737.770   1
  -4   3 -11-324.117 417.317   1
  -4   2  13 1348.15 1926.82   1
   4  -2 -13-280.678 354.297   3
  -4   2  12 1316.97 1015.16   1
   4  -2 -12 1269.88 725.620   3
  -4   2  11-223.360 853.184   1
  -4   2  11 646.883 496.518   2
   4  -2 -11 55.2935 52.5612   3
  -4   2  10 582.941 1002.42   1
  -4   2  10 228.143 363.353   2
   4  -2 -10 1225.99 713.092   3
  -4   2   9 554.279 943.220   1
  -4   2   9 318.400 344.126   2
   4  -2  -9 283.921 333.111   3
  -4   2   8 996.907 949.469   1
  -4   2   8 838.431 455.412   2
   4  -2  -8 326.575 397.256   3
  -4   2   7 1235.48 462.441   2
   4  -2  -7 1574.24 653.238   3
   4  -2  -6 300.835 103.893   2
  -4   2   6 162.927 495.061   1
  -4   2   6 163.501 117.947   2
   4  -2  -6 31.7479 237.616   3
  -4   2   5 3959.27 1499.01   1
   4  -2  -5 4158.95 1174.10   3
   4  -2  -5 1874.62 260.247   2
   4  -2  -4 24.5134 43.4887   2
  -4   2   4 246.196 555.015   1
   4  -2  -4 648.125 576.523   3
  -4   2   3 833.574 666.948   1
   4  -2  -3 2921.48 1032.92   3
   4  -2  -3 2072.27 314.120   2
   4  -2  -2 6741.56 1526.27   3
  -4   2   2 4427.44 1238.56   1
   4  -2  -2 4389.54 458.857   2
   4  -2  -2 5729.01 707.366   2
   4  -2  -1 707.442 404.798   3
  -4   2   1 1418.31 744.715   1
   4  -2  -1 521.938 159.187   2
   4  -2   0 517.162 158.001   2
  -4   2   0 632.103 419.774   1
   4  -2   0 971.639 471.421   3
  -4   2  -1 912.778 294.684   4
   4  -2   1-38.8117 66.8098   2
  -4   2  -1 1554.36 785.151   1
   4  -2   1 1760.71 698.955   3
   4  -2   2 575.557 221.360   2
  -4   2  -2 258.492 207.478   1
  -4   2  -2 1035.40 261.036   4
   4  -2   2 1123.69 479.121   3
  -4   2  -3 425.045 144.655   4
  -4   2  -3 273.535 393.837   1
   4  -2   3 642.335 383.809   3
   4  -2   3 403.879 207.771   2
  -4   2  -4 6012.54 1240.45   1
   4  -2   4 5361.31 780.596   2
  -4   2  -4 7008.36 644.741   4
  -4   2  -5-17.7466 69.5889   4
  -4   2  -5 15.5104 19.5786   1
   4  -2   5-39.3134 98.4829   2
  -4   2  -6 1062.84 259.178   4
   4  -2   6 588.250 372.268   2
  -4   2  -6 502.867 311.551   1
   4  -2   7 783.004 468.137   2
  -4   2  -7 173.925 320.167   1
   4  -2   8 584.871 436.936   2
  -4   2  -8-145.960 185.318   1
   4  -2   9-300.908 347.460   2
  -4   2  -9 1042.29 688.122   1
  -4   2 -10 1031.45 729.693   1
   4  -2  10 184.857 336.781   2
  -4   2 -11 553.223 519.353   1
  -4   1  13 1014.67 968.970   1
   4  -1 -13 317.533 497.811   3
  -4   1  12 801.169 671.873   1
   4  -1 -12 747.446 623.657   3
  -4   1  11-1366.46 1521.43   1
   4  -1 -11 379.996 476.458   3
  -4   1  10 326.472 939.737   1
  -4   1  10 34.5140 278.079   2
   4  -1 -10 405.222 381.156   3
  -4   1   9 851.513 965.869   1
  -4   1   9-78.6560 109.867   2
   4  -1  -9-45.1285 226.073   3
  -4   1   8 4436.99 1964.26   1
   4  -1  -8 5115.97 1326.95   3
  -4   1   8 4844.41 866.763   2
  -4   1   7-43.5820 234.576   1
  -4   1   7 189.095 127.949   2
   4  -1  -7 170.712 242.443   3
   4  -1  -7-49.0397 71.1204   2
  -4   1   6 1471.37 990.372   1
  -4   1   6 529.100 193.744   2
   4  -1  -6 635.940 450.458   3
   4  -1  -6 372.324 118.204   2
   4  -1  -5 682.815 449.299   3
   4  -1  -5 489.565 103.171   2
  -4   1   4 419.224 484.509   1
   4  -1  -4 26.9838 216.059   3
   4  -1  -3 17748.6 2586.38   3
  -4   1   3 15872.5 2357.29   1
   4  -1  -2 43451.2 3836.13   3
  -4   1   2 35914.4 3392.07   1
   4  -1  -2 21626.2 525.716   2
   4  -1  -2 18858.5 901.578   2
   4  -1  -1 579.450 127.742   2
   4  -1  -1 701.572 608.767   3
  -4   1   1 1.75968 249.331   1
  -4   1   0 2182.68 750.430   1
   4  -1   0 1693.64 771.170   3
   4  -1   0 895.277 201.811   2
   4  -1   1 27.2924 60.0188   2
  -4   1  -1 762.432 577.165   1
   4  -1   1 720.234 557.685   3
   4  -1   2 1076.62 307.917   2
  -4   1  -2 1054.74 524.622   1
   4  -1   2 1590.21 626.807   3
  -4   1  -2 1038.99 314.578   4
  -4   1  -3 345.535 183.314   4
   4  -1   3 266.442 151.302   2
  -4   1  -3 565.847 344.432   1
   4  -1   3 176.631 249.794   3
  -4   1  -4 1150.03 563.331   1
  -4   1  -4 1240.85 281.053   4
   4  -1   4 1218.97 371.273   2
  -4   1  -5 1278.57 570.405   1
   4  -1   5 2511.31 612.933   2
  -4   1  -5 3012.16 402.791   4
   4  -1   6 1280.57 479.867   2
  -4   1  -6 474.496 424.758   1
   4  -1   7 291.759 266.729   2
  -4   1  -7 463.429 401.275   1
   4  -1   8 146.482 345.776   2
  -4   1  -8 8.19593 214.843   1
  -4   1  -9 32.9282 298.445   1
   4  -1   9 170.250 172.924   2
   4  -1  10 342.185 445.739   2
  -4   1 -10 771.700 560.994   1
  -4   0  13 909.657 1503.33   1
   4   0 -13 240.938 431.662   3
  -4   0  12 3380.96 2485.82   1
   4   0 -12 51.2959 246.561   3
   4   0 -11 646.609 581.939   3
  -4   0  10 60.2196 191.718   2
   4   0 -10 135.675 378.862   3
  -4   0   9 5422.92 2296.85   1
  -4   0   9 2201.43 539.398   2
   4   0  -9 4481.34 1325.47   3
  -4   0   8 8509.83 2560.39   1
   4   0  -8 9790.14 1955.47   3
  -4   0   8 7376.22 910.662   2
  -4   0   7 976.185 876.456   1
   4   0  -7 1242.84 793.552   3
  -4   0   7 1994.31 398.863   2
  -4   0   6 1652.97 1033.09   1
   4   0  -6 2146.58 872.573   3
  -4   0   5-140.079 518.387   1
   4   0  -5 307.944 244.204   3
   4   0  -4 6009.35 1529.55   3
  -4   0   4 3699.72 1133.98   1
   4   0  -3 7532.95 1588.88   3
  -4   0   3 3761.30 996.629   1
   4   0  -2 465.962 572.673   3
  -4   0   2 1047.69 652.837   1
   4   0  -1 3314.37 355.929   2
  -4   0   1 4102.66 997.692   1
   4   0   0 20046.5 2480.86   3
  -4   0   0 17574.1 2038.71   1
  -4   0   0 14630.5 1178.36   2
   4   0   0 11778.5 774.817   2
   4   0   1 141.303 117.427   2
  -4   0  -1 313.620 303.873   1
   4   0   1 521.527 405.652   3
   4   0   2 622.740 244.478   2
  -4   0  -2 713.602 409.814   1
   4   0   2 1139.40 557.053   3
  -4   0  -3 842.210 243.197   4
   4   0   3 385.026 257.487   2
   4   0   3 1051.30 586.747   3
  -4   0  -3 347.949 274.287   1
  -4   0  -4 94.2391 41.2389   4
   4   0   4-33.3556 92.9931   2
  -4   0  -4 132.131 239.633   1
  -4   0  -5 45.5637 66.7461   4
   4   0   5 161.180 213.573   2
  -4   0  -5 146.263 262.719   1
   4   0   6 1290.91 597.185   2
  -4   0  -6 181.185 308.496   1
   4   0   7 205.121 224.944   2
  -4   0  -7 513.362 420.189   1
  -4   0  -8 1002.07 611.252   1
   4   0   8 394.870 320.652   2
   4   0   9 177.041 223.430   2
  -4  -1  14 2222.70 1983.51   1
   4   1 -14 591.810 581.854   3
  -4  -1  13 963.230 1728.68   1
   4   1 -13 647.767 735.281   3
  -4  -1  12 1285.65 1180.81   1
   4   1 -12 212.737 460.568   3
  -4  -1  11 1685.61 1797.72   1
   4   1 -11-163.851 235.980   3
  -4  -1  10-1074.47 1055.80   1
   4   1 -10-125.037 160.808   3
  -4  -1   9 2594.51 527.200   2
   4   1  -9 3007.41 1123.33   3
   4   1  -8 14483.5 2451.22   3
  -4  -1   8 14637.2 3353.67   1
  -4  -1   8 10499.4 896.552   2
  -4  -1   7 480.143 515.698   1
  -4  -1   7 70.3610 71.6744   2
   4   1  -7 75.7348 84.3105   3
  -4  -1   6 7127.01 1721.90   1
   4   1  -6 8903.07 1962.62   3
  -4  -1   5 998.256 653.536   1
   4   1  -5 2503.03 1032.41   3
  -4  -1   4 1078.15 605.129   1
   4   1  -4 2170.25 965.437   3
  -4  -1   3 3009.25 945.833   1
   4   1  -3 4237.40 1280.81   3
   4   1  -2 8480.14 1773.02   3
  -4  -1   2 6269.13 1247.33   1
   4   1  -2 3496.72 450.831   2
  -4  -1   1 10304.8 776.495   2
   4   1  -1 9734.62 834.078   2
  -4  -1   0 273.704 309.599   1
   4   1   0 285.458 160.782   2
   4   1   0-110.870 217.655   3
  -4  -1   0 100.070 113.899   2
   4   1   1 5180.19 1179.50   3
  -4  -1  -1 2907.31 695.197   1
   4   1   2 969.810 308.651   2
  -4  -1  -2 768.861 323.109   1
   4   1   3 263.013 215.233   2
  -4  -1  -3 60.6715 133.821   1
  -4  -1  -4 826.110 231.492   4
   4   1   4 406.150 236.967   2
  -4  -1  -4 551.198 315.582   1
  -4  -1  -5-190.628 253.972   1
   4   1   5 251.113 173.128   2
   4   1   6-38.0024 43.7676   2
  -4  -1  -6-16.2440 41.6814   1
   4   1   7 632.121 415.418   2
  -4  -1  -7-154.905 182.868   1
   4   1   8 52.7313 164.546   2
   4   1   9 74.5469 107.542   2
  -4  -2  14 512.512 1453.36   1
   4   2 -14 863.177 760.905   3
  -4  -2  13 664.473 646.446   1
   4   2 -13 510.575 473.776   3
  -4  -2  12-1049.86 1369.52   1
   4   2 -12-21.4085 252.783   3
   4   2 -11 298.129 415.956   3
  -4  -2  11 1822.90 1247.36   1
   4   2 -10-216.870 409.200   3
  -4  -2  10 1718.35 1423.66   1
  -4  -2   9 1332.67 1468.98   1
   4   2  -9 2222.50 981.350   3
   4   2  -8 26322.5 3485.45   3
  -4  -2   8 19774.4 3893.36   1
  -4  -2   8 18309.9 1006.39   2
  -4  -2   7 35256.6 4434.98   1
  -4  -2   7 27219.5 941.990   2
  -4  -2   6 481.089 639.231   1
   4   2  -6 1771.61 863.280   3
  -4  -2   5 757.690 600.020   1
   4   2  -5 662.148 562.427   3
  -4  -2   4 369.849 322.158   1
   4   2  -4-14.7619 208.331   3
  -4  -2   3 472.847 348.456   1
   4   2  -3 397.261 517.349   3
  -4  -2   3 66.7456 39.9473   2
   4   2  -2 2237.87 971.888   1
  -4  -2   2 3681.46 402.552   2
  -4  -2   2 2682.20 734.900   1
   4   2  -2 3130.38 548.545   2
  -4  -2   1-86.7546 63.4482   2
  -4  -2   1-506.394 349.372   1
   4   2  -1 725.687 471.652   1
   4   2  -1-52.4267 81.9861   2
   4   2  -1 310.165 472.712   3
   4   2   0 1041.52 553.719   1
   4   2   0 1198.33 354.501   2
  -4  -2   0 1491.94 438.977   1
   4   2   0 1967.62 799.573   3
   4   2   1 1020.14 363.361   2
   4   2   1 1198.72 565.817   1
  -4  -2  -1 1268.82 389.686   1
   4   2   2 298.303 236.427   2
  -4  -2  -2 122.405 171.968   1
   4   2   2 59.0955 134.795   3
   4   2   3-267.735 227.171   2
  -4  -2  -3-84.1100 180.635   1
   4   2   4 665.897 355.027   2
  -4  -2  -4 683.785 374.283   1
   4   2   5 208.513 264.686   2
   4   2   6 442.397 369.598   2
   4   2   7 119.578 111.544   2
   4   2   8-330.414 302.756   2
  -4  -3  14 1912.17 1619.82   1
   4   3 -14-124.153 407.041   3
  -4  -3  13 761.074 860.158   1
   4   3 -13 457.817 535.549   3
  -4  -3  12-56.4749 379.870   1
   4   3 -12 856.732 758.214   3
  -4  -3  11-197.969 434.298   1
   4   3 -11-2.94162 74.2635   3
  -4  -3  10 2823.01 1534.89   1
   4   3 -10 23.6983 312.849   3
  -4  -3   9 2640.29 1607.41   1
   4   3  -9 2338.19 1052.06   3
   4   3  -8 1277.34 930.273   3
   4   3  -7 13976.6 2609.95   3
  -4  -3   7 11609.8 641.261   2
  -4  -3   6 1640.47 768.007   1
   4   3  -6 2053.11 1066.19   3
  -4  -3   6 1123.15 141.368   2
  -4  -3   5 9233.08 1673.88   1
  -4  -3   5 7515.42 386.191   2
  -4  -3   5 9211.05 441.312   2
  -4  -3   4 217.880 84.4287   2
  -4  -3   4 377.578 385.565   1
   4   3  -4 327.947 468.100   3
  -4  -3   3 527.132 155.737   2
   4   3  -3 1239.26 809.184   3
  -4  -3   3 1235.15 473.714   1
   4   3  -3 156.311 155.341   1
  -4  -3   2-176.251 136.309   1
   4   3  -2-15.5122 36.4867   1
   4   3  -1 395.157 364.671   1
   4   3  -1 398.066 270.652   2
  -4  -3   1 119.932 98.7786   1
   4   3  -1 68.3609 367.345   3
  -4  -3   0 325.119 175.581   1
   4   3   0-88.9103 143.273   2
   4   3   0 509.135 308.586   3
   4   3   1-116.458 144.279   2
  -4  -3  -1 174.625 139.967   1
   4   3   2 139.348 154.762   2
   4   3   3 335.823 205.847   2
   4   3   4 852.605 469.782   2
   4   3   5-252.202 223.005   2
   4   3   6 298.877 366.397   2
   4   3   7 3.81602 152.324   2
   4   3   8 165.415 429.780   2
  -4  -4  14-224.993 918.058   1
   4   4 -14 395.846 633.261   3
   4   4 -13 1351.30 849.474   3
  -4  -4  13-819.532 1009.43   1
  -4  -4  12-770.868 868.752   1
   4   4 -12 123.048 379.917   3
  -4  -4  11 107.116 370.291   1
   4   4 -11 378.217 346.225   3
  -4  -4  10-632.463 1067.62   1
   4   4 -10 249.670 252.306   3
  -4  -4   9-493.498 551.136   1
   4   4  -9 390.673 379.377   3
   4   4  -8 924.927 614.534   3
  -4  -4   7 3631.93 1262.42   1
   4   4  -7 9787.96 2206.86   3
  -4  -4   6 5404.70 1370.22   1
  -4  -4   6 5299.39 533.669   2
  -4  -4   5 1468.16 650.401   1
   4   4  -5 1295.09 744.841   3
  -4  -4   4 297.763 220.171   1
   4   4  -4 2613.05 1099.33   3
   4   4  -3 277.214 379.075   3
  -4  -4   3-50.2768 60.8557   1
  -4  -4   2 127.733 92.4318   1
   4   4  -2 848.988 601.471   3
   4   4  -1 333.066 346.206   2
   4   4  -1 122.921 229.258   3
   4   4   0-24.5276 224.079   2
   4   4   0-174.620 223.702   3
   4   4   1 123.029 245.053   2
   4   4   1 430.453 424.603   3
   4   4   2 56.4728 145.470   2
   4   4   3-121.474 18.4741   2
   4   4   4 505.811 357.480   2
   4   4   5 1360.62 610.246   2
   4   4   6 630.632 467.516   2
   4   4   7 675.645 617.061   2
  -4  -5  14 382.319 1244.33   1
   4   5 -14 965.931 683.783   3
  -4  -5  13 774.775 891.420   1
   4   5 -13 758.812 733.918   3
  -4  -5  12 1113.65 1264.19   1
   4   5 -12 438.572 548.433   3
  -4  -5  11 304.815 879.269   1
   4   5 -11 895.366 837.147   3
  -4  -5  10 942.347 917.954   1
   4   5 -10-36.7077 339.609   3
  -4  -5   9 1468.13 1084.52   1
   4   5  -9 885.060 603.833   3
  -4  -5   8 705.262 476.636   1
   4   5  -8 2161.64 1226.37   3
  -4  -5   7 1831.60 1010.96   1
   4   5  -7 4836.53 1486.32   3
  -4  -5   6-735.128 573.966   1
   4   5  -6 796.019 790.697   3
  -4  -5   5 157.087 180.867   1
   4   5  -5 282.394 702.493   3
   4   5  -4-154.083 83.5819   3
   4   5  -3 336.061 352.250   3
   4   5  -2 1389.92 696.819   3
   4   5  -1 820.976 452.367   2
   4   5  -1 861.436 504.793   3
   4   5   0-392.560 333.440   2
   4   5   0 76.0867 293.089   3
   4   5   1-110.540 122.904   2
   4   5   2 45.8904 105.705   2
   4   5   3 9.82197 239.198   2
   4   5   4 122.718 177.920   2
   4   5   5 943.086 681.594   2
   4   5   6-63.4025 254.050   2
  -4  -6  14 351.997 847.288   1
   4   6 -14 123.126 289.609   3
  -4  -6  13 1779.38 1473.53   1
   4   6 -13 391.402 444.090   3
  -4  -6  12-1054.15 1135.11   1
   4   6 -12-154.598 241.452   3
  -4  -6  11 1068.88 1282.07   1
   4   6 -11 188.303 271.340   3
  -4  -6  10 1595.46 1263.92   1
   4   6 -10 250.257 543.413   3
  -4  -6   9 1133.75 991.506   1
   4   6  -9-223.511 429.673   3
  -4  -6   8 611.242 629.971   1
   4   6  -8 1093.30 668.774   3
   4   6  -7-213.794 380.523   3
   4   6  -6 271.725 449.502   3
   4   6  -5 370.213 471.801   3
   4   6  -4 659.694 474.188   3
   4   6  -3 160.191 432.217   3
   4   6  -2-241.607 360.167   3
   4   6  -1 207.527 356.584   2
   4   6  -1 404.205 410.566   3
   4   6   0 169.594 236.455   2
   4   6   1 58.3369 37.5131   2
   4   6   2 208.708 153.679   2
   4   6   3 75.2426 23.1653   2
   4   6   4 339.664 291.139   2
   4   6   5 61.9130 68.3687   2
  -4  -7  14-219.485 835.990   1
   4   7 -13 467.888 634.344   3
   4   7 -12 287.058 259.464   3
   4   7 -11 143.124 501.072   3
   4   7 -10-244.014 405.144   3
   4   7  -9-127.696 161.438   3
   4   7  -8 241.562 309.692   3
   4   7  -7 503.831 645.086   3
   4   7  -6 683.920 579.406   3
   4   7  -5 938.238 631.226   3
   4   7  -4 240.499 447.700   3
   4   7  -3-2.05353 234.729   3
   4   7  -2-174.950 244.480   3
   4   7   0 235.241 108.768   2
   4   7   1 802.214 538.497   2
   4   7   2 364.323 505.147   2
   4   7   3 246.249 257.843   2
   4   7   4-256.164 373.098   2
   4   8 -11-182.035 392.649   3
   4   8 -10 1084.61 881.238   3
   4   8  -9 101.502 327.653   3
   4   8  -8 1172.76 755.493   3
   4   8  -7 948.667 705.525   3
   4   8  -6-63.6266 211.649   3
   4   8  -5 750.617 650.729   3
   4   8  -4 237.098 284.069   3
   4   8  -3 539.579 456.050   3
   4   8   1 153.045 198.869   2
   4   8   2-612.354 425.611   2
   4   8   3-26.3261 193.439   2
   4   9  -6-98.3053 234.437   3
   4   9  -5 506.533 509.017   3
   4   9  -4-34.0113 171.282   3
  -5  13   1 107.769 643.838   1
  -5  13   0-106.575 507.654   1
  -5  13  -1 822.777 1226.50   1
  -5  13  -2 467.566 499.277   1
  -5  13  -3 776.414 937.810   1
  -5  13  -4 1522.50 1156.03   1
  -5  12   4 160.659 226.730   4
  -5  12   4 301.968 655.138   1
  -5  12   3 212.553 211.955   4
  -5  12   3 74.2405 480.570   1
  -5  12   2 357.938 296.407   4
  -5  12   2 360.044 517.139   1
  -5  12   1-29.4217 150.063   1
  -5  12   1 197.623 205.988   4
  -5  12   0 167.142 162.293   1
  -5  12   0 550.614 345.857   4
  -5  12  -1 296.799 270.354   4
  -5  12  -1-70.2331 525.655   1
  -5  12  -2 391.331 283.859   4
  -5  12  -2 2139.37 1425.79   1
  -5  12  -3-121.243 124.402   4
  -5  12  -3 966.205 838.595   1
  -5  12  -4 576.589 241.212   4
  -5  12  -4 710.131 805.688   1
  -5  12  -5 1051.54 415.031   4
  -5  12  -5 457.229 515.838   1
  -5  12  -6 1536.39 1161.00   1
   5 -12   6 1396.71 963.247   2
  -5  11   5-195.279 206.052   4
  -5  11   5 1352.03 1202.64   1
  -5  11   4 382.089 291.755   4
  -5  11   4 1064.33 1102.68   1
  -5  11   3 64.8289 137.784   4
  -5  11   3 793.611 864.713   1
  -5  11   2 641.450 324.814   4
  -5  11   2 529.556 731.275   1
  -5  11   1 1784.36 468.025   4
  -5  11   1 868.463 938.795   1
  -5  11   0 855.692 791.309   1
  -5  11   0 738.507 288.160   4
  -5  11  -1 142.690 121.520   4
  -5  11  -1 295.541 842.652   1
  -5  11  -2-282.970 285.250   1
  -5  11  -2 159.969 136.821   4
  -5  11  -3 730.520 229.919   4
  -5  11  -3 3413.24 1736.39   1
  -5  11  -4-42.2286 116.061   4
  -5  11  -4-169.948 233.995   1
  -5  11  -5 621.551 296.459   4
  -5  11  -5 670.105 719.325   1
   5 -11   5 96.9147 115.925   2
  -5  11  -6 1574.12 544.202   4
  -5  11  -6 1679.85 803.024   1
   5 -11   6 1227.39 712.105   2
  -5  11  -7-54.1648 119.756   4
  -5  11  -7-255.602 271.875   1
   5 -11   7-163.329 300.469   2
  -5  11  -8 104.953 282.764   4
  -5  10   7 1940.00 1580.26   1
  -5  10   6 693.576 294.382   4
  -5  10   6 2164.61 1568.67   1
  -5  10   5 215.799 191.534   4
  -5  10   5-75.1826 606.846   1
  -5  10   4 170.344 170.165   4
  -5  10   4-1031.54 1101.70   1
  -5  10   3-119.356 156.758   4
  -5  10   3-697.125 607.417   1
  -5  10   2 354.314 232.938   4
  -5  10   2 1115.35 978.434   1
  -5  10   1 195.463 187.817   4
  -5  10   1 623.576 644.195   1
  -5  10   0 784.873 672.113   1
  -5  10   0 465.986 196.561   4
  -5  10  -1 270.593 172.567   4
  -5  10  -1 634.993 694.411   1
  -5  10  -2 854.771 312.925   4
  -5  10  -2 2593.00 1321.66   1
  -5  10  -3 633.521 276.485   4
  -5  10  -3 1180.54 885.324   1
  -5  10  -4 295.084 204.369   4
  -5  10  -4 2139.42 1303.23   1
  -5  10  -5 402.369 274.471   4
  -5  10  -5 204.793 295.102   1
   5 -10   5 591.900 563.058   2
  -5  10  -6 345.849 277.148   4
  -5  10  -6 97.9784 342.783   1
  -5  10  -7 572.355 359.935   4
  -5  10  -7-30.2348 472.269   1
   5 -10   7 514.428 469.173   2
  -5  10  -8-534.815 734.476   1
  -5  10  -8 615.096 371.295   4
   5 -10   8 132.363 348.063   2
  -5  10  -9 357.100 440.597   4
  -5   9   8 790.276 1172.88   1
  -5   9   7 702.372 280.591   4
  -5   9   7 2770.63 1387.22   1
  -5   9   6 593.583 265.602   4
   5  -9  -6 1318.64 793.262   3
  -5   9   6 2199.47 1519.67   1
  -5   9   5 547.993 243.484   4
   5  -9  -5 663.410 521.347   3
  -5   9   5-20.0315 505.710   1
  -5   9   4 566.721 320.780   4
  -5   9   4-13.8992 303.885   1
  -5   9   3 504.550 221.645   4
  -5   9   3-582.538 675.410   1
  -5   9   2 1017.61 310.589   4
  -5   9   2 2220.83 1172.49   1
  -5   9   1 46.9626 80.7451   4
  -5   9   1 78.3288 369.951   1
  -5   9   0-530.309 571.405   1
  -5   9   0 59.5273 41.7159   4
  -5   9  -1 2685.49 1496.84   1
  -5   9  -1 2269.77 464.366   4
  -5   9  -2 163.043 121.598   4
  -5   9  -2 438.279 654.002   1
  -5   9  -3 341.856 208.744   4
  -5   9  -3 605.581 592.154   1
  -5   9  -4 1346.17 384.378   4
  -5   9  -4 1990.07 917.054   1
   5  -9   4 2153.13 955.979   2
  -5   9  -5 377.276 240.282   4
  -5   9  -5 1064.16 884.128   1
   5  -9   5-37.9867 370.992   2
  -5   9  -6-163.941 184.417   4
  -5   9  -6 269.218 496.753   1
   5  -9   6 139.071 314.712   2
  -5   9  -7 179.748 165.719   4
  -5   9  -7 53.9576 678.066   1
   5  -9   7 596.126 506.991   2
   5  -9   8 107.041 300.920   2
  -5   9  -8 182.271 605.051   1
  -5   9  -8 244.471 232.440   4
   5  -9   9 1166.35 782.746   2
   5  -8  -9 832.361 762.428   3
  -5   8   9 1703.71 1637.48   1
  -5   8   8 623.301 285.193   4
   5  -8  -8 548.456 572.344   3
  -5   8   8-82.8012 643.193   1
  -5   8   7 682.994 273.267   4
   5  -8  -7-33.8778 358.140   3
  -5   8   6 1263.01 372.058   4
   5  -8  -6 1789.83 975.062   3
  -5   8   6 1771.41 1566.90   1
  -5   8   5 559.424 224.411   4
   5  -8  -5 731.813 755.730   3
  -5   8   5 644.212 742.307   1
  -5   8   4-96.0723 117.887   4
   5  -8  -4 379.354 509.661   3
   5  -8  -3 2886.90 1033.41   3
  -5   8   3 1502.98 803.412   1
  -5   8   3 2656.27 499.683   4
  -5   8   2 1348.27 358.672   4
   5  -8  -2 227.676 327.857   3
  -5   8   2 1601.96 1008.44   1
  -5   8   1-32.5295 86.1269   4
   5  -8  -1 317.865 426.943   3
  -5   8   1-493.979 416.610   1
   5  -8   0 2309.28 814.868   3
  -5   8   0 1937.05 425.850   4
  -5   8   0 1787.16 997.794   1
  -5   8  -1 1722.44 991.452   1
  -5   8  -1 1201.80 350.038   4
   5  -8   1 1210.66 420.886   3
  -5   8  -2 686.453 271.276   4
  -5   8  -2 432.960 361.927   1
   5  -8   2 243.987 215.607   3
   5  -8   3 1914.01 785.081   2
  -5   8  -3 2348.08 486.266   4
  -5   8  -4 2061.17 1134.94   1
   5  -8   4 1951.06 839.264   2
  -5   8  -4 2925.13 538.123   4
  -5   8  -5 209.596 189.389   4
  -5   8  -5 492.723 656.147   1
   5  -8   5 312.304 319.334   2
  -5   8  -6 626.133 345.315   4
  -5   8  -6-392.989 230.165   1
   5  -8   6 1012.58 551.055   2
   5  -8   7 576.211 401.447   2
  -5   8  -7-269.450 223.920   4
  -5   8  -7-10.0053 433.431   1
   5  -8   8 321.137 449.016   2
  -5   8  -8 879.956 649.350   1
  -5   8  -8 414.202 294.689   4
   5  -8   9-98.2852 126.622   2
  -5   8  -9 428.876 459.432   1
   5  -7 -10-243.444 347.435   3
  -5   7   9 2795.34 1644.41   1
   5  -7  -9 610.034 598.949   3
  -5   7   8 421.964 231.928   4
  -5   7   8 333.434 137.547   1
   5  -7  -8 366.763 398.022   3
  -5   7   7 798.494 282.379   4
  -5   7   7-293.129 564.787   1
   5  -7  -7 477.710 399.667   3
  -5   7   6 273.775 177.833   4
   5  -7  -6 774.430 536.436   3
  -5   7   6 799.287 1200.24   1
  -5   7   5 86.8401 129.531   4
   5  -7  -5 333.568 486.793   3
  -5   7   5 857.456 717.096   1
  -5   7   4 656.620 255.194   4
   5  -7  -4 448.170 428.737   3
  -5   7   4 814.791 614.089   1
  -5   7   3 1348.48 352.414   4
   5  -7  -3 1269.65 733.408   3
  -5   7   3 2069.95 1357.62   1
  -5   7   2 1618.78 381.425   4
   5  -7  -2 877.296 601.790   3
  -5   7   2 202.195 276.636   1
  -5   7   1 195.271 82.1551   4
   5  -7  -1 98.0011 192.268   3
  -5   7   1 32.8523 735.786   1
   5  -7   0 2782.72 989.431   3
  -5   7   0 3866.48 1481.50   1
  -5   7   0 3333.21 534.863   4
  -5   7  -1 1904.57 1165.90   1
  -5   7  -1 1074.06 357.274   4
   5  -7   1 970.797 477.675   3
  -5   7  -2 618.695 263.988   4
  -5   7  -2 1416.36 1185.94   1
   5  -7   2 1216.02 456.600   3
   5  -7   2 1391.39 642.898   2
  -5   7  -3 4420.75 1786.06   1
   5  -7   3 5607.27 1039.99   3
   5  -7   3 4763.50 1230.97   2
  -5   7  -3 3928.07 588.852   4
  -5   7  -4 330.841 181.428   4
  -5   7  -4 444.534 717.233   1
   5  -7   4 146.337 277.649   2
  -5   7  -5 101.783 76.7352   4
  -5   7  -5 170.783 523.602   1
   5  -7   5 367.966 298.334   2
   5  -7   6 1095.31 543.122   2
  -5   7  -6 1609.90 426.605   4
  -5   7  -6 856.946 919.127   1
   5  -7   7-56.0429 171.240   2
  -5   7  -7-83.3251 67.3459   4
  -5   7  -7 74.4428 365.199   1
   5  -7   8 896.958 534.269   2
  -5   7  -8 306.036 448.846   1
   5  -7   9 5.54699 163.378   2
  -5   7  -9-362.661 441.221   1
  -5   6  10 893.615 1501.89   1
   5  -6 -10 1218.48 986.135   3
  -5   6   9 89.8017 52.7150   4
   5  -6  -9-254.232 284.187   3
  -5   6   8-53.6922 99.9079   4
  -5   6   8-725.063 1011.83   1
   5  -6  -8-154.804 355.853   3
  -5   6   7 713.257 276.881   4
  -5   6   7 120.480 345.637   1
   5  -6  -7 345.798 455.230   3
  -5   6   6 835.153 275.676   4
   5  -6  -6 833.349 700.297   3
  -5   6   5 593.183 227.255   4
   5  -6  -5 530.228 454.270   3
  -5   6   5 39.6909 567.706   1
   5  -6  -4 1557.82 926.346   3
  -5   6   4 1294.58 874.833   1
  -5   6   4 2772.92 502.005   4
  -5   6   3 515.004 192.857   4
   5  -6  -3 523.617 495.369   3
  -5   6   3 391.949 546.565   1
   5  -6  -2 47837.6 4236.41   3
  -5   6   2 53531.3 2156.71   4
   5  -6  -1 9850.64 1962.96   3
  -5   6   1 8408.79 2362.25   1
  -5   6   1 10348.8 941.527   4
   5  -6   0 10669.2 1924.76   3
  -5   6   0 13618.9 2546.57   1
  -5   6   0 13592.8 1083.08   4
  -5   6  -1 595.936 715.156   1
  -5   6  -1 221.131 166.104   4
   5  -6   1 23.6225 199.962   3
   5  -6   1 19.2723 110.709   2
  -5   6  -2 953.158 294.191   4
  -5   6  -2 314.089 336.468   1
   5  -6   2 1285.32 585.267   3
   5  -6   2 911.882 465.742   2
  -5   6  -3 631.760 242.715   4
  -5   6  -3 358.613 470.485   1
   5  -6   3 1022.25 568.966   3
   5  -6   3 631.420 436.045   2
  -5   6  -4 1973.20 1087.59   1
  -5   6  -4 2200.84 443.933   4
   5  -6   4 1396.88 560.798   2
   5  -6   5 251.825 258.386   2
  -5   6  -5 673.320 255.439   4
  -5   6  -5 1237.26 792.956   1
   5  -6   6 995.039 519.162   2
  -5   6  -6 317.425 201.554   4
  -5   6  -6 1147.84 718.978   1
   5  -6   7 378.385 388.178   2
  -5   6  -7-109.947 266.300   1
  -5   6  -7 253.367 225.000   4
   5  -6   8 939.924 571.696   2
  -5   6  -8 129.084 151.115   1
   5  -6   9 302.624 386.186   2
  -5   6  -9 579.227 699.070   1
  -5   5  11 2134.02 1830.42   1
   5  -5 -11 630.928 666.264   3
  -5   5  10 407.313 247.732   4
  -5   5  10-331.806 824.305   1
   5  -5 -10-6.24542 124.649   3
  -5   5   9 311.935 196.054   4
  -5   5   9 55.9479 350.925   1
   5  -5  -9 191.282 386.038   3
  -5   5   8 1350.39 424.621   4
  -5   5   8 2526.29 1450.74   1
   5  -5  -8 1823.99 926.602   3
  -5   5   7 74.4814 107.210   4
  -5   5   7 181.627 831.157   1
   5  -5  -7-38.0981 281.171   3
  -5   5   6 1336.43 1224.56   1
   5  -5  -6 1311.85 880.264   3
  -5   5   6 2292.01 504.759   4
  -5   5   5 506.544 219.938   4
  -5   5   5-62.4085 352.304   1
  -5   5   4 1183.03 396.835   4
   5  -5  -4 619.091 367.242   3
  -5   5   4-22.7745 613.590   1
  -5   5   3-264.095 232.423   4
   5  -5  -3 322.786 345.584   3
  -5   5   3 122.280 698.688   1
   5  -5  -2 7302.80 1725.89   3
  -5   5   2 7795.22 2054.39   1
  -5   5   2 8127.65 888.727   4
  -5   5   1 15421.4 1191.76   4
   5  -5  -1 16120.2 2504.38   3
  -5   5   1 14610.7 2704.87   1
   5  -5   0 24162.0 2912.45   3
  -5   5   0 26842.9 1509.65   4
  -5   5  -1 1842.04 1135.61   1
   5  -5   1 2968.62 1002.08   3
   5  -5   1 1966.87 621.516   2
  -5   5  -1 2972.77 500.327   4
  -5   5  -2 467.892 202.639   4
  -5   5  -2 326.036 566.479   1
   5  -5   2 849.091 584.851   3
   5  -5   2 82.0916 172.705   2
   5  -5   3 269.759 229.941   2
  -5   5  -3 397.099 214.944   4
  -5   5  -3 683.059 805.656   1
   5  -5   3 447.073 250.751   3
   5  -5   4 2021.01 595.285   2
  -5   5  -4 2098.00 993.131   1
  -5   5  -4 2975.03 509.609   4
   5  -5   5 121.278 120.542   2
  -5   5  -5 252.669 150.845   4
  -5   5  -5 407.132 539.133   1
   5  -5   6 102.154 196.013   2
  -5   5  -6 281.718 158.651   4
  -5   5  -6 352.415 116.227   1
   5  -5   7 123.543 119.751   2
  -5   5  -7 502.066 572.770   1
   5  -5   8-71.6926 113.912   2
  -5   5  -8 171.166 113.402   1
   5  -5   9-101.985 190.217   2
  -5   5  -9 439.801 536.171   1
  -5   4  11 2749.23 2114.42   1
   5  -4 -11 481.705 593.684   3
  -5   4  10 187.372 157.756   4
  -5   4  10 1287.45 1301.71   1
   5  -4 -10 1063.98 960.854   3
  -5   4   9 498.587 257.335   4
  -5   4   9 782.838 1407.98   1
   5  -4  -9-161.215 269.499   3
  -5   4   8 792.028 260.106   4
  -5   4   8 365.422 486.678   1
   5  -4  -8 880.419 623.052   3
  -5   4   7 126.643 107.596   4
  -5   4   7-362.736 643.204   1
   5  -4  -7 428.182 436.959   3
  -5   4   6 62.9526 105.879   4
  -5   4   6 373.045 588.898   1
   5  -4  -6 542.096 515.639   3
  -5   4   5 865.573 322.253   4
  -5   4   5 697.742 878.935   1
   5  -4  -5 839.020 669.229   3
  -5   4   4 282.768 186.956   4
   5  -4  -4 17.2030 151.974   3
  -5   4   4 482.508 419.543   1
   5  -4  -3 4003.40 697.486   2
   5  -4  -3 3536.28 1252.15   3
  -5   4   3 2988.22 1132.29   1
  -5   4   3 4971.26 672.329   4
   5  -4  -2 6219.00 1550.11   3
   5  -4  -2 3956.78 796.005   2
  -5   4   2 5215.35 1548.56   1
  -5   4   2 4198.31 611.396   4
   5  -4  -1 30584.1 3397.95   3
   5  -4  -1 26134.7 1868.18   2
  -5   4   1 32254.7 1663.28   4
   5  -4   0 3656.82 1146.27   3
   5  -4   0 3052.55 602.907   2
  -5   4   0 4989.51 777.894   4
  -5   4   0 3352.53 1228.06   1
   5  -4   1 8765.15 1641.85   3
  -5   4  -1 8403.07 1969.70   1
  -5   4  -1 7080.68 779.273   4
   5  -4   2 9001.32 1555.68   3
  -5   4  -2 9523.25 2181.43   1
   5  -4   2 6753.86 931.576   2
  -5   4  -2 9393.92 891.617   4
   5  -4   3 92.3913 96.0072   2
  -5   4  -3 373.456 233.234   4
  -5   4  -3 234.618 439.050   1
   5  -4   3 480.539 319.133   3
   5  -4   4 665.791 388.647   2
  -5   4  -4 798.245 290.850   4
  -5   4  -4 889.044 704.960   1
   5  -4   5-4.82773 51.7092   2
  -5   4  -5 171.741 153.160   4
  -5   4  -5 489.663 477.225   1
  -5   4  -6 433.398 493.776   1
   5  -4   6-45.7091 117.185   2
  -5   4  -6 80.2059 31.5614   4
   5  -4   7 77.6282 240.677   2
  -5   4  -7-148.455 289.552   1
   5  -4   8 1.66231 29.6746   2
  -5   4  -8 72.1010 385.647   1
   5  -4   9 604.076 409.567   2
  -5   4  -9 936.604 841.152   1
  -5   4 -10 859.104 729.167   1
  -5   3  12 1061.52 1433.37   1
   5  -3 -12 604.680 749.401   3
  -5   3  11 297.022 227.442   4
  -5   3  11 1279.24 1320.24   1
   5  -3 -11 886.863 873.938   3
  -5   3  10 311.060 213.732   4
  -5   3  10 1272.17 1404.70   1
   5  -3 -10 441.476 171.875   3
  -5   3   9 863.170 1284.04   1
   5  -3  -9 214.454 353.577   3
  -5   3   8-269.692 528.840   1
   5  -3  -8 667.205 777.639   3
   5  -3  -7 10688.7 2296.06   3
  -5   3   7 4498.72 1871.16   1
  -5   3   6 1705.00 1051.39   1
   5  -3  -6 3081.61 1198.28   3
  -5   3   5 816.575 929.471   1
   5  -3  -5 1523.32 842.549   3
  -5   3   4 701.686 590.333   1
   5  -3  -4-85.6396 322.630   3
   5  -3  -3 1503.73 300.503   2
   5  -3  -3 2393.65 1020.31   3
  -5   3   3 1168.46 797.407   1
   5  -3  -3 1956.27 371.593   2
   5  -3  -2 3021.20 610.920   2
   5  -3  -2 3820.15 1331.76   3
  -5   3   2 3457.85 1199.12   1
   5  -3  -2 1860.75 338.258   2
  -5   3   2 2359.77 504.937   4
   5  -3  -1 9826.83 1979.25   3
  -5   3   1 10724.1 2090.26   1
   5  -3  -1 7706.92 724.663   2
  -5   3   1 12458.2 1118.19   4
  -5   3   0 3072.86 1087.95   1
   5  -3   0 3004.66 477.993   2
  -5   3   0 3500.20 554.034   4
   5  -3   1 21209.1 2609.61   3
  -5   3  -1 15012.9 2385.43   1
  -5   3  -1 18532.8 1264.51   4
  -5   3  -2-23.4921 22.3270   4
   5  -3   2-103.283 112.640   2
   5  -3   2-74.9648 88.6722   3
  -5   3  -3 263.901 190.390   4
   5  -3   3 50.5560 51.0762   2
  -5   3  -3 38.0743 224.394   1
  -5   3  -4-122.239 160.606   4
   5  -3   4-4.00801 66.3516   2
  -5   3  -4 105.968 270.649   1
  -5   3  -5-90.6727 105.175   4
   5  -3   5 140.125 191.593   2
  -5   3  -5 88.9519 383.771   1
   5  -3   6 285.976 219.254   2
  -5   3  -6-101.422 248.505   1
   5  -3   7 80.4324 217.669   2
  -5   3  -7-23.2881 187.067   1
   5  -3   8 305.361 362.332   2
  -5   3  -8 1061.96 737.860   1
  -5   3  -9-214.048 197.700   1
   5  -3   9 686.982 465.013   2
  -5   3 -10 871.062 955.730   1
  -5   2  12-471.920 1130.92   1
   5  -2 -12 496.461 504.232   3
  -5   2  11 827.384 683.517   1
   5  -2 -11 79.8666 528.869   3
  -5   2  10 2065.60 1468.95   1
   5  -2 -10 92.6865 367.550   3
  -5   2   9-195.418 405.389   1
   5  -2  -9 570.143 503.939   3
  -5   2   8 1059.98 989.445   1
   5  -2  -8 696.364 744.092   3
  -5   2   7-41.1132 377.814   1
   5  -2  -7-443.685 417.442   3
  -5   2   6 556.147 591.993   1
   5  -2  -6-303.638 448.552   3
  -5   2   5 236.909 494.791   1
   5  -2  -5 673.904 633.596   3
  -5   2   4 373.279 456.210   1
   5  -2  -4 21.7248 132.761   3
   5  -2  -3-219.863 190.917   3
  -5   2   3 300.175 382.320   1
   5  -2  -2 5810.19 1591.43   3
  -5   2   2 4638.49 1292.54   1
   5  -2  -2 2491.22 236.140   2
   5  -2  -2 3044.25 496.889   2
   5  -2  -1 3771.88 1206.19   3
   5  -2  -1 1492.12 241.137   2
  -5   2   1 3167.01 1073.16   1
  -5   2   0 492.794 231.660   4
  -5   2   0 736.192 455.488   1
   5  -2   0 140.953 119.010   2
   5  -2   0 691.088 560.769   3
  -5   2  -1 488.451 247.320   4
   5  -2   1 321.387 152.991   2
  -5   2  -1 613.592 484.747   1
   5  -2   1 1195.76 721.984   3
  -5   2  -2-16.4010 89.3845   4
   5  -2   2-1.05989 52.2460   2
  -5   2  -2 129.829 378.755   1
   5  -2   2-140.475 291.792   3
  -5   2  -3 1103.92 343.402   4
   5  -2   3 485.648 266.206   2
  -5   2  -3 290.111 294.089   1
   5  -2   3 421.396 281.850   3
  -5   2  -4 26.0885 116.101   4
   5  -2   4-130.161 150.456   2
  -5   2  -4 255.359 135.246   1
  -5   2  -5 495.167 186.261   4
  -5   2  -5 438.254 476.117   1
   5  -2   5 298.022 239.649   2
   5  -2   6 286.025 215.764   2
  -5   2  -6 577.600 478.597   1
   5  -2   7 391.727 408.962   2
  -5   2  -7-235.562 295.619   1
   5  -2   8-226.082 136.735   2
  -5   2  -8 717.065 480.156   1
   5  -2   9 406.043 545.268   2
  -5   2  -9 609.174 577.672   1
  -5   1  13 2553.75 1938.90   1
   5  -1 -13 1160.24 929.872   3
  -5   1  12-1037.76 997.456   1
   5  -1 -12-130.042 279.951   3
  -5   1  11 1405.68 1261.09   1
   5  -1 -11 2866.17 1356.06   3
  -5   1  10 144.878 674.653   1
   5  -1 -10 95.1091 222.937   3
  -5   1   9-490.510 303.327   1
   5  -1  -9 1080.48 979.597   3
  -5   1   8 1168.97 1025.94   1
   5  -1  -8 718.634 721.204   3
  -5   1   7 769.378 767.634   1
   5  -1  -7 580.644 465.411   3
  -5   1   6 2028.04 1052.99   1
   5  -1  -6 1828.06 1079.91   3
  -5   1   5 970.204 754.824   1
   5  -1  -5-199.754 376.326   3
  -5   1   4-191.129 493.530   1
   5  -1  -4 1621.61 1050.53   3
   5  -1  -3 91.5497 140.140   3
  -5   1   3 312.155 499.498   1
   5  -1  -2 1461.53 839.710   3
  -5   1   2 1544.33 735.690   1
   5  -1  -1 460.115 124.309   2
   5  -1  -1 1391.57 830.873   3
  -5   1   1 1318.37 627.828   1
  -5   1   0 5.87063 171.136   1
   5  -1   0 155.826 85.0014   2
   5  -1   0 197.007 341.417   3
   5  -1   1 239.228 157.215   2
  -5   1  -1 702.996 569.852   1
   5  -1   1 184.768 200.629   3
  -5   1  -2 329.880 212.813   4
   5  -1   2 101.000 124.138   2
  -5   1  -2 649.738 518.424   1
   5  -1   2 439.263 360.905   3
  -5   1  -3 459.994 197.920   4
   5  -1   3 607.850 298.407   2
   5  -1   3-131.808 48.2260   3
  -5   1  -3 161.602 244.039   1
  -5   1  -4 311.892 269.490   1
  -5   1  -4 114.139 125.731   4
   5  -1   4 77.1061 169.762   2
   5  -1   5 656.213 364.760   2
  -5   1  -5 26.7910 121.004   1
   5  -1   6 639.771 381.531   2
  -5   1  -6-160.650 249.377   1
   5  -1   7 243.580 329.429   2
  -5   1  -7 202.081 355.451   1
   5  -1   8-18.5761 160.938   2
   5  -1   9 646.292 521.425   2
  -5   0  13-467.522 853.412   1
   5   0 -13 405.759 627.609   3
  -5   0  12 2076.10 1659.44   1
   5   0 -12 1142.85 945.354   3
  -5   0  11-371.205 385.361   1
   5   0 -11 1603.25 1158.81   3
  -5   0  10-922.622 860.007   1
   5   0 -10-76.6981 403.329   3
  -5   0   9 797.227 969.078   1
   5   0  -9 925.782 750.618   3
  -5   0   8 1045.56 1001.13   1
   5   0  -8 1254.91 1002.29   3
  -5   0   7 2474.04 1432.07   1
   5   0  -7 3176.95 1428.70   3
  -5   0   6 546.487 548.723   1
   5   0  -6 259.900 696.828   3
  -5   0   5 195.293 247.954   1
   5   0  -5 1433.92 818.553   3
  -5   0   4 473.776 371.975   1
   5   0  -4 346.520 586.961   3
   5   0  -3 499.813 523.170   3
  -5   0   3 54.6290 338.612   1
   5   0  -2 1205.52 770.600   3
  -5   0   2 951.904 618.921   1
  -5   0   1 6915.74 1370.10   1
   5   0  -1 3972.97 458.706   2
  -5   0   0-240.154 211.730   1
   5   0   0-5.23817 56.1919   2
   5   0   0-120.506 311.770   3
   5   0   1 57.9004 66.0812   2
  -5   0  -1 482.202 379.927   1
   5   0   1 91.8102 228.138   3
   5   0   2 157.875 129.082   2
  -5   0  -2 169.581 266.460   1
   5   0   2-32.5822 339.565   3
  -5   0  -3 80.7844 120.588   4
   5   0   3 44.6305 70.9391   2
   5   0   3 334.069 242.199   3
  -5   0  -4 568.516 287.470   4
   5   0   4 250.565 279.653   2
  -5   0  -4 318.655 210.205   1
   5   0   5 50.3131 146.741   2
  -5   0  -5 259.925 289.846   1
   5   0   6-24.0738 110.807   2
   5   0   7 339.082 356.263   2
   5   0   8 652.833 495.668   2
  -5  -1  13-1005.73 1235.52   1
   5   1 -13 489.516 621.023   3
  -5  -1  12-701.727 673.717   1
   5   1 -12 741.042 764.234   3
  -5  -1  11 296.380 711.216   1
   5   1 -11 262.897 725.594   3
  -5  -1  10 385.478 698.421   1
   5   1 -10 729.884 783.378   3
  -5  -1   9 26.1236 239.562   1
   5   1  -9 68.1778 554.745   3
  -5  -1   8 1248.39 832.971   1
   5   1  -8 800.342 828.869   3
  -5  -1   7 5096.27 1579.98   1
   5   1  -7 7536.95 2084.78   3
  -5  -1   6 1735.68 961.032   1
   5   1  -6 362.562 613.635   3
  -5  -1   5 871.164 668.499   1
   5   1  -5 757.449 719.759   3
  -5  -1   4 519.741 574.122   1
   5   1  -4 876.549 814.649   3
   5   1  -3-11.7320 37.0229   3
  -5  -1   3 570.206 522.360   1
   5   1  -2 472.404 165.769   2
  -5  -1   2 1073.49 524.926   1
   5   1  -1 168.697 139.582   2
   5   1  -1 33.7116 32.7337   3
   5   1   0 366.441 221.818   2
  -5  -1   0 659.253 422.211   1
   5   1   0 1112.41 707.333   3
   5   1   1 864.269 312.102   2
  -5  -1  -1 2193.32 669.390   1
   5   1   1 3049.69 1079.05   3
   5   1   2-23.7642 106.761   2
   5   1   2-159.252 181.242   3
  -5  -1  -2 137.409 206.055   1
  -5  -1  -3 30.9021 66.0813   4
   5   1   3 394.781 295.207   2
  -5  -1  -3 83.8404 216.175   1
   5   1   4 598.749 375.642   2
   5   1   5 78.2248 198.851   2
   5   1   6 430.580 435.951   2
   5   1   7 73.6480 247.348   2
   5   1   8 720.613 579.929   2
  -5  -2  13 928.239 1223.97   1
   5   2 -13 645.842 774.954   3
  -5  -2  12 1127.24 1445.29   1
   5   2 -12 368.073 636.566   3
  -5  -2  11-503.053 1210.82   1
   5   2 -11 405.907 509.261   3
  -5  -2  10 592.472 791.471   1
   5   2 -10-76.8553 455.034   3
  -5  -2   9 544.147 462.503   1
   5   2  -9-37.5023 387.483   3
  -5  -2   8 1582.14 1090.11   1
   5   2  -8 1091.50 675.198   3
  -5  -2   7 1787.16 1042.84   1
   5   2  -7 4153.58 1581.02   3
  -5  -2   6 831.850 750.092   1
   5   2  -6 454.719 582.930   3
  -5  -2   5 2375.86 1003.61   1
   5   2  -5 3610.64 1419.97   3
  -5  -2   4-85.0668 173.994   1
   5   2  -4 130.538 212.663   3
   5   2  -3 33.8901 245.962   3
  -5  -2   3 16.9600 210.516   1
  -5  -2   2 1506.45 568.194   1
   5   2  -2 1212.32 839.122   3
  -5  -2   1 664.226 355.198   1
   5   2  -1 4.57888 88.2888   2
   5   2  -1 938.175 654.937   3
   5   2   0 730.004 338.385   2
  -5  -2   0 1369.93 457.529   1
   5   2   1-65.4953 27.7409   2
   5   2   1 334.136 429.126   3
   5   2   2 424.706 257.450   2
   5   2   2 562.417 490.334   3
   5   2   3 365.684 280.206   2
   5   2   4 336.755 256.786   2
   5   2   5 108.622 204.583   2
   5   2   6-104.923 130.882   2
   5   2   7 297.247 342.689   2
  -5  -3  13 842.778 1479.82   1
   5   3 -13-181.291 341.136   3
  -5  -3  12 1201.54 1001.29   1
   5   3 -12-140.613 263.510   3
  -5  -3  11 1673.73 1197.92   1
   5   3 -11 1390.18 1106.79   3
  -5  -3  10 326.982 709.606   1
   5   3 -10 27.6686 111.566   3
  -5  -3   9 172.650 387.438   1
   5   3  -9 44.2349 143.574   3
  -5  -3   8 1696.52 943.396   1
   5   3  -8 1629.83 1058.31   3
  -5  -3   7 2392.11 1041.84   1
   5   3  -7 6495.90 2101.94   3
   5   3  -6 21493.8 3601.52   3
  -5  -3   6 12494.8 2173.37   1
  -5  -3   5 413.003 395.527   1
   5   3  -5 3373.94 1386.71   3
   5   3  -4-279.199 576.798   3
  -5  -3   4 1131.53 568.768   1
   5   3  -3 88.2696 697.238   3
  -5  -3   3 193.048 226.574   1
   5   3  -2 49.8153 148.212   3
   5   3  -1 873.223 396.313   2
   5   3  -1 1634.22 826.904   3
   5   3   0 182.884 219.432   2
   5   3   0-268.740 417.386   3
   5   3   1 116.037 224.460   2
   5   3   1 398.462 486.283   3
   5   3   2 1093.58 522.282   2
   5   3   3 233.559 232.594   2
   5   3   4 1062.93 551.088   2
   5   3   5 59.8973 118.806   2
   5   3   6 425.894 439.263   2
  -5  -4  14 2442.41 1997.90   1
  -5  -4  13 479.135 1251.53   1
   5   4 -13 1122.18 1096.73   3
  -5  -4  12 17.8227 198.408   1
   5   4 -12 934.267 957.935   3
  -5  -4  11-659.944 749.377   1
   5   4 -11-107.609 138.224   3
  -5  -4  10-897.281 962.605   1
   5   4 -10 295.636 676.443   3
  -5  -4   9 752.972 684.864   1
   5   4  -9 280.817 552.956   3
  -5  -4   8 745.138 766.961   1
   5   4  -8 670.227 681.865   3
  -5  -4   7 276.027 255.295   1
   5   4  -7 1324.91 1045.70   3
  -5  -4   6 1988.23 879.597   1
   5   4  -6 3296.10 1459.73   3
   5   4  -5 1650.60 1088.00   3
   5   4  -4 9173.05 2246.71   3
   5   4  -3 1152.25 810.803   3
   5   4  -2 398.811 471.097   3
   5   4  -1 386.233 290.961   2
   5   4  -1 2065.77 924.602   3
   5   4   0-174.218 195.822   2
   5   4   0-119.363 278.709   3
   5   4   1 268.375 319.862   2
   5   4   1 554.353 535.153   3
   5   4   2 273.303 267.334   2
   5   4   3-270.014 203.567   2
   5   4   4 417.361 357.866   2
   5   4   5 528.757 418.692   2
   5   4   6 866.303 541.899   2
  -5  -5  14-935.089 1492.63   1
  -5  -5  13-693.620 1208.31   1
   5   5 -13 846.275 822.269   3
  -5  -5  12 1222.21 917.284   1
   5   5 -12 671.032 746.087   3
  -5  -5  11 1728.79 1433.04   1
   5   5 -11-428.113 246.607   3
  -5  -5  10 23.2590 415.206   1
   5   5 -10 1316.62 964.314   3
   5   5  -9 733.291 720.000   3
   5   5  -8 511.135 693.582   3
   5   5  -7-882.459 936.820   3
   5   5  -6 1168.08 817.171   3
   5   5  -5 7731.74 2193.71   3
   5   5  -4 2399.46 1198.51   3
   5   5  -3 422.373 336.050   3
   5   5  -2-60.5471 376.794   3
   5   5  -1 327.477 540.839   3
   5   5   0 306.566 440.803   3
   5   5   1 434.635 371.390   2
   5   5   2 57.7147 259.947   2
   5   5   3-11.8699 192.641   2
   5   5   4 419.544 456.101   2
   5   6 -13 453.158 874.573   3
   5   6 -12 710.235 776.688   3
   5   6 -11 538.386 327.496   3
   5   6 -10-215.934 530.646   3
   5   6  -9 22.3071 245.476   3
   5   6  -8 2526.06 1321.31   3
   5   6  -7 1216.09 743.626   3
   5   6  -6 1871.45 1153.88   3
   5   6  -5 937.138 918.232   3
   5   6  -4 767.453 754.232   3
   5   6  -3 880.989 608.482   3
   5   6  -2 676.420 553.425   3
   5   6  -1 315.125 564.789   3
   5   7 -13 1769.60 1111.30   3
   5   7 -12 1269.18 1125.91   3
   5   7 -11 412.073 492.892   3
   5   7 -10-929.180 875.209   3
   5   7  -9 1033.58 972.369   3
   5   7  -8 51.2387 502.730   3
   5   7  -7 1629.09 1029.45   3
   5   7  -6 1451.15 1012.38   3
   5   7  -5 770.911 786.933   3
   5   7  -4 706.447 641.619   3
   5   7  -3 503.670 444.262   3
   5   7  -2 613.871 613.051   3
   5   8 -10 426.703 415.534   3
   5   8  -9 1569.91 1147.16   3
   5   8  -8 800.787 790.893   3
   5   8  -7-483.333 451.793   3
   5   8  -6 149.738 188.627   3
   5   8  -5 378.170 349.517   3
   5   8  -4 75.0214 392.964   3
   5   8  -3-93.3747 210.867   3
   5   9  -5 452.241 436.258   3
   5   9  -4-8.43183 279.354   3
   6 -12   4 1643.52 976.107   2
  -6  11   3-31.6251 137.374   4
  -6  11   3 690.329 618.099   1
  -6  11   2 782.633 343.723   4
  -6  11   2 761.904 853.018   1
  -6  11   1 796.638 677.139   1
  -6  11   1 119.850 156.270   4
  -6  11   0 1019.48 871.509   1
  -6  11   0 99.4452 165.566   4
  -6  11  -1 222.015 141.035   4
  -6  11  -1 1166.59 985.773   1
  -6  11  -2-82.9814 131.377   4
  -6  11  -2 610.283 741.149   1
  -6  11  -3 514.931 302.028   4
   6 -11   3 351.232 453.353   2
  -6  11  -4-4.20362 205.507   4
  -6  11  -4 647.846 1010.18   1
   6 -11   4 679.858 639.456   2
   6 -11   5 1206.82 788.819   2
  -6  10   6 6.05805 92.0496   4
  -6  10   5 227.435 182.203   4
  -6  10   5 1193.78 1324.42   1
  -6  10   4-145.718 182.800   4
  -6  10   4-371.631 830.702   1
  -6  10   3 150.137 157.395   4
  -6  10   3 581.971 414.831   1
  -6  10   2 381.424 217.283   4
  -6  10   2 811.304 1069.81   1
  -6  10   1 1140.28 1131.02   1
  -6  10   1 538.865 295.959   4
  -6  10   0 932.916 841.104   1
  -6  10   0 1635.55 473.437   4
  -6  10  -1 542.123 286.595   4
  -6  10  -1 1270.23 1045.78   1
  -6  10  -2-25.5561 90.6541   4
  -6  10  -2-426.642 710.843   1
  -6  10  -3 93.2522 167.357   4
  -6  10  -3 312.650 140.075   1
  -6  10  -4 751.288 326.432   4
  -6  10  -4 1175.91 839.509   1
   6 -10   4 853.028 681.104   2
  -6  10  -5 238.890 187.190   4
  -6  10  -5 13.0664 476.126   1
   6 -10   5 585.085 629.694   2
  -6  10  -6 331.691 259.475   4
   6 -10   6-251.865 189.525   2
  -6  10  -7 361.816 259.954   4
  -6   9   7 1007.38 372.944   4
  -6   9   6 614.631 286.995   4
  -6   9   6 285.355 556.525   1
  -6   9   5 885.522 327.878   4
  -6   9   5 1451.33 1476.69   1
  -6   9   4 189.101 122.774   4
  -6   9   4 814.313 872.250   1
  -6   9   3 432.003 234.799   4
  -6   9   3 1780.10 1354.59   1
  -6   9   2 382.545 234.505   4
  -6   9   2 116.439 117.584   1
  -6   9   1 738.923 305.348   4
  -6   9   1 468.025 700.578   1
  -6   9   0 538.693 777.416   1
  -6   9   0 109.318 95.4087   4
  -6   9  -1 764.975 292.461   4
  -6   9  -1 868.749 962.522   1
  -6   9  -2 513.163 253.564   4
  -6   9  -2-150.663 263.059   1
  -6   9  -3 442.821 255.354   4
  -6   9  -3 839.207 515.919   1
   6  -9   3 638.162 557.775   2
  -6   9  -4 487.409 246.756   4
   6  -9   4-231.917 269.231   2
  -6   9  -5 81.5568 192.195   4
  -6   9  -5 468.766 778.576   1
   6  -9   5 243.443 333.709   2
   6  -9   6 566.667 478.910   2
  -6   9  -6 51.3531 87.7517   4
  -6   9  -6-385.618 587.697   1
   6  -9   7-238.065 393.254   2
  -6   9  -7 232.571 197.760   4
   6  -8  -9-170.627 495.584   3
  -6   8   8 371.753 206.722   4
   6  -8  -8-317.729 408.304   3
  -6   8   7 1084.44 354.946   4
   6  -8  -7 804.789 845.096   3
  -6   8   6 1289.34 396.008   4
   6  -8  -6 750.662 657.604   3
  -6   8   6 2790.28 1799.49   1
  -6   8   5 886.266 350.251   4
   6  -8  -5 2421.87 1100.14   3
  -6   8   5 2182.86 1396.99   1
  -6   8   4 1840.24 459.984   4
   6  -8  -4 2763.46 1195.66   3
  -6   8   4 384.362 745.542   1
  -6   8   3 411.820 234.971   4
   6  -8  -3 743.951 693.608   3
  -6   8   3 370.065 158.450   1
  -6   8   2 534.824 263.902   4
   6  -8  -2 387.152 704.556   3
  -6   8   2 1273.06 1143.75   1
  -6   8   1 571.577 258.178   4
   6  -8  -1 640.795 545.323   3
  -6   8   1 1790.78 1162.48   1
  -6   8   0 313.472 812.212   1
  -6   8   0 179.382 137.737   4
   6  -8   0 777.217 662.554   3
  -6   8  -1 274.592 169.544   4
  -6   8  -1-81.0380 240.773   1
   6  -8   1 390.955 429.529   2
  -6   8  -2 1084.14 355.286   4
  -6   8  -2 1466.41 1233.43   1
   6  -8   2 1257.07 702.144   2
  -6   8  -3 105.985 166.332   4
  -6   8  -3 153.601 1581.19   1
   6  -8   3 804.532 473.924   2
  -6   8  -4 334.049 214.717   4
   6  -8   4 843.764 511.088   2
   6  -8   5-37.9955 248.092   2
  -6   8  -5 471.612 208.815   4
  -6   8  -5 395.856 517.922   1
   6  -8   6 309.898 422.203   2
  -6   8  -6 277.998 260.343   4
  -6   8  -7-35.9940 36.4270   4
  -6   8  -7 151.417 416.961   1
   6  -8   8 140.801 316.522   2
  -6   7   9-88.9298 139.697   4
   6  -7  -9 314.058 598.198   3
  -6   7   8-310.585 244.177   4
   6  -7  -8 882.732 1001.92   3
  -6   7   8-304.087 1023.31   1
  -6   7   7 901.939 359.370   4
   6  -7  -7 1507.35 872.910   3
  -6   7   7 3140.01 2214.64   1
  -6   7   6 147.450 160.080   4
   6  -7  -6-50.9753 142.273   3
  -6   7   6 595.380 863.924   1
  -6   7   5 1811.90 484.316   4
   6  -7  -5 1732.12 1088.71   3
  -6   7   5 598.639 1033.71   1
  -6   7   4 573.859 239.977   4
   6  -7  -4 1133.32 726.232   3
  -6   7   3 139.746 114.194   4
   6  -7  -3 469.297 740.144   3
  -6   7   3-111.074 469.221   1
  -6   7   2 519.793 243.811   4
   6  -7  -2 529.222 516.405   3
  -6   7   2 1381.91 1167.31   1
  -6   7   1 1166.46 379.243   4
   6  -7  -1 669.500 503.705   3
  -6   7   1 733.186 788.308   1
  -6   7   0 462.601 671.025   1
  -6   7   0 153.305 200.708   4
   6  -7   0 284.611 361.524   3
   6  -7   0 752.519 512.892   2
  -6   7  -1 741.137 241.799   4
  -6   7  -1 1898.55 1236.70   1
   6  -7   1 1006.71 623.086   3
   6  -7   1 2161.76 724.577   2
  -6   7  -2 906.240 313.080   4
  -6   7  -2 1886.53 1097.56   1
   6  -7   2 549.324 385.052   3
   6  -7   2 1805.47 641.268   2
  -6   7  -3 444.523 254.845   4
  -6   7  -3 411.317 775.556   1
   6  -7   3 715.249 501.660   3
   6  -7   3 421.497 294.814   2
   6  -7   4 1170.80 568.272   2
  -6   7  -4 620.458 258.808   4
  -6   7  -4 796.756 507.930   1
   6  -7   5 1055.47 581.222   2
  -6   7  -5 1377.83 435.199   4
  -6   7  -5 1454.87 1049.89   1
   6  -7   6 88.4873 78.8547   2
  -6   7  -6 79.7484 127.333   4
  -6   7  -6-187.143 343.604   1
  -6   7  -7 533.187 725.796   1
   6  -7   7 136.064 213.198   2
   6  -7   8 470.773 372.357   2
  -6   6  10 1055.64 385.118   4
   6  -6 -10 1789.42 1209.46   3
  -6   6   9 386.441 217.680   4
  -6   6   9 601.806 1378.49   1
   6  -6  -9 105.711 102.644   3
  -6   6   8 992.062 357.907   4
  -6   6   8-116.810 219.497   1
   6  -6  -8 1110.16 825.672   3
  -6   6   7 200.421 160.772   4
   6  -6  -7 1131.99 974.856   3
  -6   6   6 259.559 241.365   4
   6  -6  -6 474.114 560.631   3
  -6   6   6 111.701 704.995   1
  -6   6   5 343.652 181.882   4
   6  -6  -5-80.4523 344.685   3
  -6   6   5-448.525 814.970   1
  -6   6   4 546.387 273.516   4
   6  -6  -4 1035.10 954.793   3
  -6   6   4 167.001 415.133   1
   6  -6  -3 3220.13 1310.16   3
  -6   6   3 2910.35 1495.21   1
  -6   6   3 2567.47 535.382   4
  -6   6   2 1990.29 483.944   4
   6  -6  -2 1555.15 927.984   3
  -6   6   2 2366.58 1141.33   1
  -6   6   1 1080.26 342.043   4
   6  -6  -1 826.598 696.945   3
   6  -6  -1 184.911 239.890   2
  -6   6   0 362.423 817.826   1
  -6   6   0 194.782 212.446   4
   6  -6   0 875.984 780.386   3
   6  -6   0 20.7799 80.1742   2
  -6   6  -1 1983.75 467.858   4
  -6   6  -1 1946.24 1323.74   1
   6  -6   1 1852.36 805.085   3
   6  -6   1 1278.88 501.782   2
   6  -6   2 565.786 337.249   2
  -6   6  -2 927.978 313.222   4
  -6   6  -2 8.64408 574.789   1
   6  -6   2 225.150 376.609   3
   6  -6   3 654.623 379.024   2
  -6   6  -3 412.915 242.578   4
  -6   6  -3 1188.40 870.165   1
   6  -6   3 521.648 422.235   3
   6  -6   4 1572.62 544.175   2
  -6   6  -4 1369.67 391.689   4
  -6   6  -4 1662.90 955.184   1
   6  -6   5-43.6974 108.231   2
  -6   6  -5 259.100 163.054   4
  -6   6  -5 136.136 459.837   1
   6  -6   6 822.268 479.511   2
  -6   6  -6 451.529 264.370   4
  -6   6  -6 623.526 654.689   1
   6  -6   7 184.971 209.560   2
  -6   6  -7 401.121 444.030   1
   6  -6   8 389.505 325.532   2
  -6   6  -8 813.551 584.572   1
  -6   5  10 418.181 305.647   4
  -6   5  10 580.113 908.334   1
   6  -5 -10-38.2496 251.625   3
  -6   5   9 587.742 382.333   4
  -6   5   9 993.418 1256.20   1
   6  -5  -9 943.078 827.739   3
  -6   5   8 77.6556 169.061   4
  -6   5   8 714.102 1037.61   1
   6  -5  -8 351.784 489.853   3
  -6   5   7 441.476 275.991   4
  -6   5   7 127.204 341.143   1
   6  -5  -7 599.703 796.818   3
  -6   5   6-30.0323 32.8305   4
   6  -5  -6 283.336 363.088   3
  -6   5   5 729.461 276.390   4
   6  -5  -5 789.195 761.517   3
  -6   5   5-211.280 633.501   1
  -6   5   4 838.539 378.942   4
   6  -5  -4 215.102 414.960   3
  -6   5   4 1900.96 1311.61   1
  -6   5   3 1181.97 399.257   4
   6  -5  -3 688.331 738.656   3
  -6   5   3 114.037 521.221   1
  -6   5   2 322.651 186.888   4
   6  -5  -2-26.0666 213.176   3
   6  -5  -2 268.566 237.862   2
   6  -5  -1 16865.7 2882.67   3
  -6   5   1 14012.3 2683.83   1
   6  -5  -1 11081.6 1198.21   2
  -6   5   1 16551.3 1438.21   4
  -6   5   0 4369.48 1566.25   1
   6  -5   0 4876.23 1509.96   3
   6  -5   0 3259.91 671.622   2
  -6   5   0 6116.78 817.692   4
   6  -5   1 1259.05 425.733   2
  -6   5  -1 2480.90 1225.93   1
   6  -5   1 2102.34 984.235   3
  -6   5  -1 4387.14 686.411   4
   6  -5   2 438.927 339.268   2
  -6   5  -2 458.726 246.158   4
   6  -5   2 383.031 374.390   3
   6  -5   3-48.5443 12.7660   2
  -6   5  -3 310.536 152.000   4
  -6   5  -3-22.4619 321.496   1
   6  -5   3 141.477 161.496   3
   6  -5   4 109.841 114.685   2
  -6   5  -4 706.337 268.707   4
  -6   5  -4 440.409 534.202   1
   6  -5   5 198.929 222.863   2
  -6   5  -5-93.6681 265.716   1
   6  -5   6 61.6065 197.859   2
  -6   5  -6 1502.32 962.198   1
   6  -5   7 155.839 185.326   2
  -6   5  -7 1778.67 951.817   1
   6  -5   8 296.905 372.037   2
  -6   5  -8 341.713 218.645   1
  -6   4  11-43.6751 145.862   4
   6  -4 -11-4.37902 123.601   3
  -6   4  10 627.236 279.761   4
  -6   4  10-13.1144 917.973   1
   6  -4 -10 1298.79 1160.36   3
  -6   4   9 320.511 203.921   4
  -6   4   9 720.644 952.854   1
   6  -4  -9 318.461 566.629   3
  -6   4   8-187.301 207.199   4
  -6   4   8-243.140 388.367   1
  -6   4   7 550.033 252.310   4
  -6   4   7 996.414 1082.03   1
   6  -4  -7 267.918 618.084   3
  -6   4   6 220.470 191.474   4
  -6   4   6 792.236 899.409   1
   6  -4  -6 309.062 365.574   3
  -6   4   5 1470.90 447.654   4
   6  -4  -5 1176.14 922.946   3
  -6   4   5 1233.53 951.728   1
  -6   4   4 97.6877 166.859   4
   6  -4  -4-420.186 468.685   3
  -6   4   4 3.73137 253.644   1
  -6   4   3 907.374 324.031   4
   6  -4  -3 490.770 671.738   3
  -6   4   3-10.4394 523.429   1
  -6   4   2 42.1499 172.272   4
   6  -4  -2-359.862 293.177   3
   6  -4  -1 3484.32 1403.60   3
   6  -4  -1 2724.40 456.249   2
  -6   4   1 3552.54 1319.15   1
  -6   4   1 4640.26 715.567   4
  -6   4   0 4752.55 1545.47   1
   6  -4   0 5179.04 1564.08   3
   6  -4   0 3736.07 581.956   2
   6  -4   1 10592.0 1988.24   3
  -6   4  -1 10257.1 2247.96   1
   6  -4   1 5462.66 751.560   2
  -6   4  -1 8862.47 1003.87   4
   6  -4   2-141.518 164.782   2
  -6   4  -2 1540.99 1023.22   1
   6  -4   2 2257.27 980.831   3
  -6   4  -2 2827.55 532.432   4
  -6   4  -3-148.765 175.491   4
   6  -4   3-47.2513 100.397   2
  -6   4  -3 202.148 371.699   1
   6  -4   3-55.0649 256.145   3
  -6   4  -4 220.633 237.421   4
   6  -4   4 98.0189 187.059   2
  -6   4  -4-10.1321 255.792   1
  -6   4  -5 507.974 243.342   4
   6  -4   5 527.479 285.809   2
  -6   4  -5 367.302 373.914   1
  -6   4  -6 137.586 458.681   1
   6  -4   6 334.173 290.826   2
   6  -4   7 612.296 478.838   2
  -6   4  -7-112.940 181.991   1
   6  -4   8-757.869 504.976   2
  -6   4  -8 874.270 699.738   1
  -6   3  11 267.173 253.247   4
  -6   3  11 1400.01 1754.85   1
   6  -3 -11 101.660 463.452   3
  -6   3  10 207.526 242.252   4
  -6   3  10 12.2180 436.216   1
   6  -3 -10-316.710 810.363   3
  -6   3   9-267.548 391.741   1
   6  -3  -9 1855.59 1217.62   3
  -6   3   8 588.728 778.142   1
   6  -3  -8 649.427 626.318   3
  -6   3   7 2196.20 1468.76   1
   6  -3  -7 631.526 745.818   3
  -6   3   6 176.255 146.344   1
   6  -3  -6-95.0518 422.946   3
   6  -3  -5 1115.45 917.148   3
  -6   3   5 1807.25 1235.55   1
   6  -3  -4 399.601 496.143   3
  -6   3   4 1582.37 1120.89   1
  -6   3   3 95.3670 264.274   4
   6  -3  -3 1300.62 972.305   3
  -6   3   3 241.340 663.513   1
  -6   3   2 1421.92 482.994   4
   6  -3  -2 1595.82 1036.73   3
  -6   3   2 2139.95 1081.94   1
   6  -3  -1 3002.27 1272.44   3
  -6   3   1 2484.03 575.714   4
  -6   3   1 1455.68 775.888   1
  -6   3   0 3308.29 1180.89   1
   6  -3   0 7226.28 1840.30   3
   6  -3   0 2261.70 368.990   2
  -6   3   0 5998.45 829.312   4
  -6   3  -1 1002.80 377.535   4
   6  -3   1 503.529 202.813   2
  -6   3  -1 950.956 962.763   1
   6  -3   1 660.491 464.387   3
   6  -3   2 1087.40 323.660   2
  -6   3  -2 2680.71 1178.52   1
   6  -3   2 2563.59 980.558   3
  -6   3  -2 4159.73 714.157   4
   6  -3   3 1434.49 469.593   2
  -6   3  -3 4802.67 1316.67   1
   6  -3   3 3719.42 1226.20   3
  -6   3  -3 4007.56 668.153   4
  -6   3  -4 117.781 92.7422   4
   6  -3   4-84.6448 71.4197   2
  -6   3  -5 323.475 121.143   1
   6  -3   5 46.1279 158.675   2
   6  -3   6 179.652 195.901   2
  -6   3  -6 1004.11 640.306   1
   6  -3   7 308.241 352.444   2
  -6   3  -7 245.838 1003.13   1
   6  -3   8 333.518 419.797   2
  -6   3  -8 7.78691 264.155   1
  -6   2  11 851.226 1087.28   1
   6  -2 -11 112.624 607.159   3
  -6   2  10 1539.22 1379.08   1
   6  -2 -10 985.297 1185.28   3
  -6   2   9 1760.29 1356.76   1
   6  -2  -9 610.860 770.792   3
  -6   2   8-542.315 627.153   1
   6  -2  -8 802.756 328.350   3
  -6   2   7-388.111 753.704   1
   6  -2  -7-742.030 784.632   3
  -6   2   6 3597.93 1555.80   1
   6  -2  -6 4227.41 1620.21   3
  -6   2   5 3038.90 1305.09   1
   6  -2  -5 3204.79 1423.61   3
   6  -2  -4-249.043 426.308   3
  -6   2   4 284.301 55.1651   1
   6  -2  -3 79.8654 569.790   3
  -6   2   3 1163.67 772.786   1
   6  -2  -2 1021.84 770.083   3
  -6   2   2 1285.64 644.170   1
  -6   2   1 403.359 466.381   1
   6  -2  -1 522.347 516.119   3
  -6   2   0 1210.27 705.965   1
   6  -2   0 3030.96 1185.43   3
  -6   2   0 2523.72 580.776   4
  -6   2  -1 1157.94 372.010   4
   6  -2   1 931.382 289.168   2
  -6   2  -1 1703.66 926.108   1
   6  -2   1 2318.28 960.175   3
   6  -2   2 1698.52 442.404   2
  -6   2  -2 1880.98 927.459   1
   6  -2   2 4296.11 1316.87   3
  -6   2  -2 4680.48 792.673   4
  -6   2  -3 42.0304 144.886   4
   6  -2   3-51.3612 91.4674   2
  -6   2  -3-189.323 217.218   1
   6  -2   3 69.6943 279.740   3
  -6   2  -4 540.013 233.622   4
   6  -2   4-85.4194 137.914   2
  -6   2  -4 234.817 350.767   1
   6  -2   5 149.743 203.550   2
  -6   2  -5 225.189 203.827   1
   6  -2   6 575.945 353.865   2
  -6   2  -6 345.648 374.893   1
   6  -2   7 175.070 286.922   2
   6  -2   8 174.853 162.632   2
  -6   1  12 681.746 864.858   1
   6  -1 -12 385.005 740.240   3
  -6   1  11 1301.44 1488.43   1
   6  -1 -11 310.409 728.860   3
  -6   1  10 479.660 220.672   1
   6  -1 -10 426.468 523.038   3
  -6   1   9 823.226 1057.80   1
   6  -1  -9 38.7100 434.339   3
  -6   1   8 716.447 841.737   1
   6  -1  -8 453.335 836.695   3
  -6   1   7 2277.51 1151.97   1
   6  -1  -7 931.959 927.302   3
  -6   1   6-746.742 735.885   1
   6  -1  -6 102.275 561.770   3
  -6   1   5 348.532 476.257   1
   6  -1  -5 1549.73 1003.28   3
   6  -1  -4 978.887 891.886   3
  -6   1   4 348.736 426.005   1
   6  -1  -3 167.111 490.838   3
  -6   1   3 1221.90 779.076   1
   6  -1  -2-36.4630 493.316   3
  -6   1   2 280.909 461.569   1
  -6   1   1 1122.82 518.079   1
   6  -1  -1 1584.00 927.989   3
  -6   1   0 1397.03 779.169   1
   6  -1   0 796.180 595.037   3
  -6   1  -1 510.191 277.489   4
  -6   1  -1 142.092 207.362   1
   6  -1   1 148.643 357.389   3
  -6   1  -2 377.958 213.033   4
   6  -1   2 242.334 160.692   2
  -6   1  -2 298.551 364.130   1
   6  -1   2 291.438 519.009   3
  -6   1  -3 245.497 175.999   4
   6  -1   3 111.559 41.1785   2
   6  -1   3 176.658 330.417   3
  -6   1  -3 317.822 453.307   1
  -6   1  -4 657.065 419.237   1
   6  -1   4 605.252 328.397   2
   6  -1   5 492.235 300.287   2
   6  -1   6 213.962 300.541   2
   6  -1   7 163.791 205.715   2
  -6   0  12 742.421 954.670   1
   6   0 -12 1153.69 1185.03   3
  -6   0  11 85.9404 688.104   1
   6   0 -11 61.4823 473.844   3
  -6   0  10 1376.38 1337.56   1
   6   0 -10 3120.99 2047.71   3
  -6   0   9 651.207 603.773   1
   6   0  -9 1198.53 1053.68   3
  -6   0   8 729.985 727.125   1
   6   0  -8 507.283 706.518   3
  -6   0   7 108.154 101.757   1
   6   0  -7-562.100 738.336   3
  -6   0   6 526.359 349.116   1
   6   0  -6-357.753 316.872   3
  -6   0   5 19.6949 253.629   1
   6   0  -5 1266.55 1031.37   3
   6   0  -4 626.124 668.890   3
  -6   0   4 25.0387 319.206   1
   6   0  -3 625.228 820.488   3
  -6   0   3 120.501 230.326   1
   6   0  -2 400.657 427.916   3
  -6   0   2 342.519 329.618   1
  -6   0   1 713.256 496.896   1
   6   0  -1 1300.31 886.203   3
  -6   0   0 519.292 465.848   1
   6   0   0 454.931 370.926   3
  -6   0  -1 493.479 402.255   1
   6   0   1 570.497 604.073   3
  -6   0  -2 227.240 200.172   4
   6   0   2 662.131 554.879   3
  -6   0  -2 107.568 87.0382   1
  -6  -1  12-774.421 1031.54   1
   6   1 -12 117.726 138.454   3
  -6  -1  11 677.241 770.368   1
   6   1 -11 2103.21 1426.66   3
  -6  -1  10 182.444 377.539   1
   6   1 -10 703.067 681.717   3
  -6  -1   9 28.9693 437.066   1
   6   1  -9 283.191 457.628   3
  -6  -1   8 905.493 863.480   1
   6   1  -8 611.216 826.636   3
  -6  -1   7-470.510 367.016   1
   6   1  -7 541.812 850.568   3
  -6  -1   6 326.956 352.210   1
   6   1  -6 348.863 500.529   3
   6   1  -5-16.2662 423.291   3
  -6  -1   5-199.027 179.894   1
   6   1  -4 869.995 759.034   3
  -6  -1   4-69.1597 216.309   1
   6   1  -3 198.800 270.970   3
  -6  -1   3 395.669 334.298   1
  -6  -1   2 511.236 503.113   1
   6   1  -2 842.342 855.507   3
  -6  -1   1-296.085 500.905   1
   6   1  -1 44.6619 75.1682   3
   6   1   0 553.152 506.882   3
   6   1   1 131.602 375.280   3
   6   1   2 675.384 591.909   3
  -6  -2  13 1007.10 1240.59   1
  -6  -2  12-403.110 903.242   1
   6   2 -12 44.6615 319.401   3
  -6  -2  11-577.289 915.894   1
   6   2 -11 1088.56 1218.25   3
  -6  -2  10 1203.42 1074.88   1
   6   2 -10 309.268 623.325   3
  -6  -2   9 15.3614 362.763   1
   6   2  -9 154.385 756.980   3
  -6  -2   8 835.038 852.020   1
   6   2  -8-1067.21 898.086   3
  -6  -2   7 571.497 416.700   1
   6   2  -7-81.9173 214.944   3
  -6  -2   6 937.818 517.617   1
   6   2  -6 1931.67 1011.29   3
   6   2  -5-238.068 508.425   3
  -6  -2   5 1052.11 739.845   1
   6   2  -4 563.745 616.048   3
  -6  -2   4 253.114 216.778   1
   6   2  -3 531.936 525.589   3
   6   2  -2 333.315 501.954   3
   6   2  -1-181.327 133.107   3
   6   2   0 38.0412 68.5985   3
   6   2   1 629.533 563.250   3
  -6  -3  13-11.2201 234.866   1
  -6  -3  12 378.542 589.794   1
   6   3 -12 976.536 1093.34   3
  -6  -3  11 838.997 873.195   1
   6   3 -11 150.409 627.955   3
  -6  -3  10 832.004 817.184   1
   6   3 -10 518.499 861.977   3
  -6  -3   9-266.719 167.963   1
   6   3  -9 1381.68 1374.07   3
  -6  -3   8 459.014 547.577   1
   6   3  -8 410.066 691.701   3
   6   3  -7-581.022 905.144   3
   6   3  -6 130.911 540.577   3
   6   3  -5 183.035 680.438   3
   6   3  -4 1615.10 1082.22   3
   6   3  -3 294.500 477.629   3
   6   3  -2 587.569 655.090   3
   6   3  -1 701.510 548.138   3
   6   3   0 957.257 711.091   3
   6   3   1 300.420 519.664   3
   6   4 -12 219.145 664.496   3
   6   4 -11 229.821 823.518   3
   6   4 -10-140.896 697.111   3
   6   4  -9 1351.76 1276.21   3
   6   4  -8 1408.21 1332.57   3
   6   4  -7-852.263 733.501   3
   6   4  -6 1513.22 1088.82   3
   6   4  -5 4210.28 1793.38   3
   6   4  -4 2265.18 1265.97   3
   6   4  -3-224.019 353.470   3
   6   4  -2 55.3522 155.268   3
   6   4  -1 350.706 407.475   3
   6   4   0 315.381 511.121   3
   6   5 -11 2576.78 1607.78   3
   6   5 -10 813.883 1094.02   3
   6   5  -9-402.597 586.811   3
   6   5  -8 1137.01 1245.25   3
   6   5  -7 1181.41 1004.81   3
   6   5  -6 839.738 641.374   3
   6   5  -5 191.944 478.558   3
   6   5  -4 1025.87 752.156   3
   6   5  -3 74.5575 226.363   3
   6   5  -2 621.204 583.124   3
   6   5  -1 427.921 492.438   3
   6   5   0 15.3339 1112.28   3
   6   6 -11 784.732 993.892   3
   6   6 -10 998.726 1102.23   3
   6   6  -9 403.668 861.214   3
   6   6  -8 1449.88 1300.10   3
   6   6  -7 278.114 722.967   3
   6   6  -6 265.729 732.485   3
   6   6  -5 419.929 575.596   3
   6   6  -4 513.931 669.726   3
   6   6  -3 507.238 666.077   3
   6   6  -2 728.703 715.450   3
   6   6  -1 424.459 688.388   3
   6   7 -10 1404.83 1338.34   3
   6   7  -9-242.887 199.952   3
   6   7  -8 668.656 853.092   3
   6   7  -7 1267.94 1074.49   3
   6   7  -6-777.509 771.370   3
   6   7  -5 1374.58 1088.64   3
   6   7  -4 859.638 723.099   3
   6   7  -3 1078.91 926.632   3
   6   8  -8-428.240 773.673   3
   6   8  -7 28.2112 508.724   3
   6   8  -6-832.238 773.005   3
   6   8  -5 1450.63 1060.38   3
  -7   9   4 828.137 363.518   4
  -7   9   3 454.855 328.531   4
  -7   9   3 229.881 845.557   1
  -7   9   2 1003.96 401.307   4
  -7   9   2-898.966 821.364   1
  -7   9   1 1269.29 1147.96   1
  -7   9   1 412.096 321.526   4
  -7   9   0 134.193 112.905   4
  -7   9   0 489.730 753.709   1
  -7   9  -1 718.677 338.965   4
  -7   9  -1 1980.21 1294.00   1
  -7   9  -2 697.142 293.286   4
  -7   9  -2 129.026 475.032   1
  -7   9  -3-154.751 203.338   4
  -7   9  -3-609.245 634.296   1
  -7   9  -4 130.025 186.919   4
   7  -8  -7 1296.99 997.873   3
  -7   8   6 513.874 318.102   4
   7  -8  -6 101.940 464.324   3
  -7   8   5 496.567 317.639   4
   7  -8  -5 286.259 548.967   3
  -7   8   5 1441.15 983.113   1
  -7   8   4 1605.77 504.286   4
   7  -8  -4 1676.43 1171.78   3
  -7   8   4 525.975 768.310   1
  -7   8   3 416.445 261.029   4
  -7   8   3 589.099 422.733   1
  -7   8   2 459.835 346.732   4
  -7   8   2 184.105 658.170   1
  -7   8   1-175.821 583.121   1
  -7   8   1 16.0982 159.710   4
  -7   8   0 401.701 308.003   4
  -7   8   0-234.366 170.766   1
  -7   8  -1 329.416 303.230   4
  -7   8  -1 368.271 633.607   1
  -7   8  -2 54.8039 143.170   4
  -7   8  -2 325.841 209.868   1
  -7   8  -3 455.842 287.868   4
  -7   8  -3 888.746 951.200   1
  -7   8  -4 319.603 251.714   4
  -7   8  -4 182.953 736.390   1
  -7   8  -5 171.954 185.821   4
  -7   7   8-57.5270 106.887   4
   7  -7  -8 2977.50 1641.17   3
  -7   7   7 255.231 65.9484   4
   7  -7  -7 482.913 569.696   3
  -7   7   6 797.219 340.587   4
   7  -7  -6 750.077 1036.19   3
  -7   7   6 504.325 560.353   1
  -7   7   5 1755.82 548.762   4
   7  -7  -5 348.240 597.340   3
  -7   7   5 502.332 584.187   1
  -7   7   4 1334.80 428.631   4
   7  -7  -4-846.261 826.243   3
  -7   7   4 1162.85 1031.03   1
  -7   7   3 1705.09 531.726   4
   7  -7  -3 1740.64 1163.91   3
  -7   7   3 1386.75 977.778   1
  -7   7   2 676.127 296.685   4
   7  -7  -2 134.009 431.271   3
  -7   7   2 97.9612 542.040   1
  -7   7   1 656.429 938.188   1
  -7   7   1-162.509 176.416   4
   7  -7  -1 810.892 734.000   3
  -7   7   0 242.811 200.517   4
  -7   7   0 186.230 367.023   1
   7  -7   0 266.872 284.267   3
  -7   7  -1-70.4937 75.4903   4
   7  -7   1 796.450 699.546   3
  -7   7  -2 540.109 265.744   4
  -7   7  -2-120.936 575.278   1
   7  -7   2-395.253 476.216   3
  -7   7  -3 444.506 211.708   4
  -7   7  -3 1097.13 852.244   1
  -7   7  -4-261.722 190.367   4
  -7   7  -4 268.137 596.128   1
  -7   7  -5-228.995 226.593   4
  -7   7  -5 263.655 587.387   1
  -7   6   9-45.0642 137.896   4
  -7   6   8 195.769 183.884   4
   7  -6  -8 836.152 740.604   3
  -7   6   7 223.965 241.362   4
   7  -6  -7 95.0568 338.031   3
  -7   6   7 976.071 961.821   1
  -7   6   6 1002.07 447.806   4
   7  -6  -6 993.731 859.131   3
  -7   6   6 2111.75 1708.57   1
  -7   6   5 333.275 334.426   4
   7  -6  -5 345.337 637.734   3
  -7   6   5-4.94461 503.207   1
  -7   6   4 755.310 388.061   4
   7  -6  -4 734.516 896.662   3
  -7   6   4-9.37802 430.901   1
  -7   6   3 1418.78 453.097   4
   7  -6  -3-7.30402 504.988   3
  -7   6   3 1802.98 1318.74   1
  -7   6   2 63.6425 127.285   4
   7  -6  -2 1218.95 920.036   3
  -7   6   2 645.372 843.083   1
  -7   6   1 567.139 561.637   1
  -7   6   1 578.888 313.386   4
   7  -6  -1-29.7373 212.669   3
  -7   6   0 631.562 305.120   4
  -7   6   0 1119.77 920.891   1
   7  -6   0 569.044 614.329   3
  -7   6  -1 67.5527 90.7341   4
  -7   6  -1-367.186 642.884   1
   7  -6   1-264.958 330.922   3
  -7   6  -2 278.409 165.054   4
   7  -6   2 9.14075 184.702   3
  -7   6  -3 466.694 288.762   4
  -7   6  -3 687.374 643.146   1
   7  -6   3 43.4912 266.598   3
  -7   6  -4 497.973 276.204   4
  -7   6  -4 229.296 597.030   1
  -7   6  -5 280.911 268.227   4
  -7   6  -5 691.374 736.293   1
  -7   5   9 2872.19 735.579   4
   7  -5  -9 3170.09 1533.61   3
  -7   5   8 350.206 271.622   4
  -7   5   8 435.686 968.155   1
   7  -5  -8 266.432 572.898   3
  -7   5   7 384.159 290.478   4
   7  -5  -7 2011.16 1322.00   3
  -7   5   7 2598.77 2114.16   1
  -7   5   6 605.937 370.066   4
   7  -5  -6 730.020 644.352   3
  -7   5   6 1904.15 1640.40   1
  -7   5   5 7.18678 31.7446   4
   7  -5  -5-497.715 234.069   3
  -7   5   4 726.770 422.376   4
   7  -5  -4 1463.41 1014.32   3
  -7   5   4 90.6742 581.936   1
  -7   5   3 758.907 434.591   4
   7  -5  -3-232.291 458.390   3
  -7   5   3 624.292 1040.77   1
  -7   5   2 903.522 400.155   4
   7  -5  -2 1517.85 964.945   3
  -7   5   2 801.710 223.898   1
  -7   5   1 640.383 602.013   1
  -7   5   1 887.935 364.787   4
   7  -5  -1 333.814 492.694   3
  -7   5   0 700.647 380.879   4
  -7   5   0 134.891 423.044   1
   7  -5   0 706.965 574.836   3
  -7   5  -1 159.462 181.400   4
   7  -5   1-173.650 456.583   3
  -7   5  -2 601.550 336.947   4
  -7   5  -2 292.380 566.897   1
   7  -5   2 112.794 232.687   3
  -7   5  -3 503.369 282.740   4
  -7   5  -3 69.3024 300.392   1
   7  -5   3 489.713 551.006   3
  -7   5  -4 14.8098 86.8926   4
  -7   5  -4 113.966 223.966   1
  -7   5  -5 477.158 699.457   1
  -7   5  -6 171.591 393.448   1
  -7   4  10 1232.12 456.483   4
  -7   4   9 208.570 235.040   4
  -7   4   9 359.724 995.405   1
   7  -4  -9 721.234 975.961   3
  -7   4   8 779.607 408.730   4
  -7   4   8 575.943 837.675   1
   7  -4  -8 406.961 433.242   3
  -7   4   7 237.007 310.275   4
   7  -4  -7 182.594 270.825   3
  -7   4   7-578.943 761.224   1
  -7   4   6 1017.74 449.983   4
   7  -4  -6-609.495 841.239   3
  -7   4   6 1024.83 944.342   1
  -7   4   5 357.104 262.114   4
   7  -4  -5-223.466 266.357   3
  -7   4   4-21.1015 119.233   4
   7  -4  -4 354.297 748.640   3
  -7   4   4 158.702 485.562   1
  -7   4   3 1200.93 444.663   4
   7  -4  -3 922.406 728.249   3
  -7   4   3 316.793 668.171   1
  -7   4   2 424.044 307.666   4
   7  -4  -2-187.457 328.076   3
  -7   4   1 918.103 446.891   4
  -7   4   1 912.879 841.416   1
   7  -4  -1 406.766 661.195   3
  -7   4   0 1886.37 531.768   4
  -7   4   0 367.547 333.595   1
   7  -4   0 931.489 825.928   3
  -7   4  -1 1413.18 423.487   4
  -7   4  -1 534.117 666.407   1
   7  -4   1 2067.04 967.983   3
  -7   4  -2 840.856 343.930   4
  -7   4  -2 1227.62 999.255   1
   7  -4   2 508.661 555.127   3
  -7   4  -3 460.613 279.792   4
  -7   4  -3 1224.72 857.857   1
   7  -4   3 1333.36 902.055   3
  -7   4  -4-22.5478 447.199   1
  -7   4  -5-768.727 586.212   1
  -7   4  -6-95.7739 237.459   1
  -7   3  10 448.015 330.638   4
  -7   3  10 802.661 995.040   1
   7  -3 -10 814.196 1062.10   3
  -7   3   9 1505.56 574.960   4
  -7   3   9 1278.72 1443.30   1
   7  -3  -9 2136.63 1554.31   3
  -7   3   8 466.882 912.695   1
   7  -3  -8 1443.63 1299.90   3
  -7   3   7 427.695 857.113   1
   7  -3  -7 19.3700 86.4455   3
   7  -3  -6 888.833 873.436   3
  -7   3   6-317.131 541.695   1
  -7   3   5 157.784 222.673   4
   7  -3  -5 333.849 202.152   3
  -7   3   5-50.0165 339.958   1
  -7   3   4 700.501 345.843   4
   7  -3  -4-4.13628 208.847   3
  -7   3   4 870.216 738.240   1
  -7   3   3-86.5296 105.787   4
  -7   3   3-614.586 587.890   1
  -7   3   2 788.750 347.684   4
   7  -3  -2 87.1335 274.709   3
  -7   3   2 821.264 701.507   1
  -7   3   1 191.727 216.270   4
  -7   3   1 719.974 714.603   1
   7  -3  -1-83.3737 266.733   3
  -7   3   0 845.806 347.965   4
  -7   3   0 2048.46 979.999   1
   7  -3   0 828.927 655.756   3
  -7   3  -1 1929.62 565.330   4
  -7   3  -1 1948.99 1116.17   1
   7  -3   1-180.669 496.184   3
  -7   3  -2 1607.71 479.190   4
  -7   3  -2 1158.30 772.126   1
   7  -3   2 2401.04 1128.22   3
  -7   3  -3 335.371 260.613   4
  -7   3  -3 998.663 696.265   1
   7  -3   3 442.951 543.455   3
  -7   3  -4 162.829 430.094   1
  -7   2  10-278.857 572.749   1
   7  -2 -10-783.076 863.353   3
  -7   2   9 860.199 976.078   1
   7  -2  -9 1390.59 1270.24   3
  -7   2   8 412.429 656.111   1
   7  -2  -8 629.830 992.581   3
  -7   2   7 307.043 549.195   1
   7  -2  -7 1475.73 1185.75   3
   7  -2  -6 1218.08 1139.80   3
  -7   2   6-70.0275 473.583   1
   7  -2  -5 1620.32 1239.90   3
  -7   2   5-543.998 436.889   1
   7  -2  -4 1283.43 1051.65   3
  -7   2   4 325.847 527.563   1
   7  -2  -3-266.128 542.040   3
  -7   2   3 1425.47 1115.25   1
  -7   2   2 434.202 582.629   1
  -7   2   2 202.937 261.817   4
   7  -2  -2-176.623 198.177   3
  -7   2   1 903.339 422.286   4
  -7   2   1 1036.41 874.596   1
   7  -2  -1 1081.63 891.094   3
  -7   2   0-35.4501 93.8875   4
  -7   2   0 295.956 486.746   1
   7  -2   0 881.229 625.590   3
  -7   2  -1 1179.77 442.028   4
  -7   2  -1 293.368 368.183   1
   7  -2   1 867.605 617.704   3
  -7   2  -2 167.144 53.7827   4
  -7   2  -2-553.137 494.176   1
   7  -2   2-310.574 176.199   3
   7  -2   3 34.4250 327.913   3
  -7   1  11 100.074 860.167   1
  -7   1  10-296.775 540.621   1
   7  -1 -10-11.3705 596.120   3
  -7   1   9 1120.62 900.236   1
   7  -1  -9 1266.94 1368.50   3
  -7   1   8 727.815 1021.60   1
   7  -1  -8 1100.15 1069.19   3
  -7   1   7 238.450 327.305   1
   7  -1  -7-279.314 566.637   3
   7  -1  -6-870.369 816.624   3
  -7   1   6-774.414 642.203   1
   7  -1  -5 1930.41 1227.29   3
  -7   1   5 936.840 840.586   1
   7  -1  -4 2770.26 1455.71   3
  -7   1   4 1432.36 959.446   1
   7  -1  -3 936.446 943.769   3
  -7   1   3 2.68904 385.523   1
  -7   1   2 973.733 743.619   1
   7  -1  -2-582.238 713.680   3
  -7   1   1-97.6313 399.921   1
   7  -1  -1 716.557 796.225   3
  -7   1   0 236.642 246.844   4
  -7   1   0 261.058 540.516   1
   7  -1   0 135.902 284.905   3
  -7   1  -1 39.9834 135.831   4
   7  -1   1-37.8682 494.685   3
  -7   1  -2 555.810 336.427   4
   7  -1   2 681.222 660.543   3
  -7   0  11 230.508 391.896   1
  -7   0  10 160.579 816.115   1
   7   0 -10 1297.64 1376.67   3
  -7   0   9 4851.67 2176.20   1
   7   0  -9 313.000 729.053   3
  -7   0   8 540.829 818.531   1
   7   0  -8 825.034 1134.91   3
  -7   0   7 475.506 644.671   1
   7   0  -7 764.012 1014.24   3
   7   0  -6 45.5945 285.985   3
  -7   0   6-415.786 545.851   1
   7   0  -5 28.4866 402.026   3
  -7   0   5-64.7404 342.468   1
   7   0  -4 661.485 762.673   3
  -7   0   4 342.534 659.180   1
  -7   0   3 259.733 490.656   1
   7   0  -3 2092.89 1298.15   3
   7   0  -2-19.1960 446.794   3
   7   0  -1 780.382 676.260   3
   7   0   0 310.668 611.305   3
  -7   0  -1 270.991 213.950   4
   7   0   1 496.147 659.611   3
   7   0   2 204.506 368.299   3
  -7  -1  11-491.692 281.810   1
  -7  -1  10 1564.26 1453.36   1
   7   1 -10 807.060 1276.69   3
  -7  -1   9 132.916 272.437   1
   7   1  -9 420.616 991.923   3
  -7  -1   8 159.325 572.717   1
   7   1  -8 290.894 789.488   3
  -7  -1   7 564.441 567.972   1
   7   1  -7 629.671 1244.07   3
   7   1  -6 1325.90 1152.15   3
  -7  -1   6 1079.02 792.043   1
   7   1  -5-74.3904 258.112   3
   7   1  -4 448.691 546.414   3
   7   1  -3 35.5936 97.2750   3
   7   1  -2 300.448 396.631   3
   7   1  -1 824.910 831.268   3
   7   1   0 200.311 537.955   3
   7   1   1-471.431 416.006   3
  -7  -2  11 394.698 323.254   1
   7   2 -10 971.427 1373.10   3
   7   2  -9 809.888 892.593   3
   7   2  -8 783.166 1021.40   3
   7   2  -7 22726.6 6316.49   3
   7   2  -6 813.711 737.154   3
   7   2  -5 282.593 425.296   3
   7   2  -4-209.870 288.749   3
   7   2  -3 86.3064 539.130   3
   7   2  -2 213.523 593.293   3
   7   2  -1 17.0390 282.076   3
   7   2   0-487.789 628.072   3
   7   3  -9-131.874 804.483   3
   7   3  -8 290.909 741.877   3
   7   3  -7 1219.75 1282.83   3
   7   3  -6-270.681 478.044   3
   7   3  -5 757.067 1057.68   3
   7   3  -4 1236.07 1138.29   3
   7   3  -3 1448.00 1207.91   3
   7   3  -2 667.108 675.263   3
   7   3  -1 45.1750 389.876   3
   7   4  -8 1468.78 1082.51   3
   7   4  -7 1577.46 1216.32   3
   7   4  -6 529.657 790.793   3
   7   4  -5-1263.93 1101.19   3
   7   4  -4 1510.67 1294.83   3
   7   4  -3 178.143 385.845   3
   8  -7  -6 422.132 720.236   3
   8  -7  -5 1168.70 1181.48   3
   8  -7  -4-1106.27 879.641   3
   8  -7  -3 314.418 401.354   3
   8  -7  -2-188.475 382.165   3
  -8   7   1 704.810 956.457   1
   8  -6  -6 888.950 1170.41   3
   8  -6  -5-24.3368 61.4401   3
   8  -6  -4 263.030 672.473   3
  -8   6   4 675.418 695.256   1
   8  -6  -3 485.751 887.276   3
  -8   6   3-1015.57 1004.77   1
  -8   6   2 652.536 765.278   1
  -8   6   2 285.788 281.147   4
   8  -6  -2 1487.31 1075.17   3
  -8   6   1-33.9045 123.715   4
   8  -6  -1-94.5834 423.360   3
  -8   6   0 437.651 309.702   4
  -8   6   0 269.897 657.468   1
   8  -6   0-131.505 565.883   3
  -8   6  -1 414.641 295.164   4
  -8   6  -1 233.856 514.688   1
   8  -6   1 395.511 514.070   3
   8  -6   2-361.044 575.213   3
   8  -5  -6 201.168 65.1107   3
  -8   5   6 997.483 958.275   1
   8  -5  -5 914.215 700.197   3
  -8   5   5 1290.93 1199.07   1
  -8   5   4 185.000 254.065   4
   8  -5  -4 348.630 361.704   3
  -8   5   4 1297.55 1193.14   1
  -8   5   3 226.069 287.600   4
   8  -5  -3 1063.30 884.514   3
  -8   5   3 520.729 807.823   1
  -8   5   2 1753.14 1023.01   1
  -8   5   2 777.924 334.178   4
   8  -5  -2 1344.42 1140.18   3
  -8   5   1 242.567 139.047   4
  -8   5   1 838.152 952.485   1
   8  -5  -1-392.314 495.977   3
  -8   5   0 690.145 357.600   4
  -8   5   0 1406.56 1079.43   1
   8  -5   0-42.5955 298.250   3
  -8   5  -1 182.117 133.207   4
  -8   5  -1 506.095 664.421   1
   8  -5   1 492.586 617.452   3
  -8   5  -2 60.8371 56.3005   4
   8  -5   2-797.271 704.769   3
   8  -4  -7 1198.48 1134.88   3
  -8   4   7 1289.18 1300.75   1
   8  -4  -6 2003.90 1485.09   3
  -8   4   6 1097.12 901.271   1
  -8   4   5 589.321 411.295   4
   8  -4  -5-414.303 372.762   3
  -8   4   5 575.610 721.305   1
  -8   4   4 195.743 204.482   4
   8  -4  -4 891.458 866.210   3
  -8   4   4-204.725 542.069   1
  -8   4   3-282.170 201.492   4
   8  -4  -3-498.996 678.841   3
  -8   4   3 204.827 705.314   1
  -8   4   2 213.182 259.793   4
  -8   4   2 214.460 541.421   1
   8  -4  -2 1391.17 1282.96   3
  -8   4   1 827.057 475.529   4
  -8   4   1-89.5986 384.058   1
   8  -4  -1 113.314 404.563   3
  -8   4   0 839.996 360.272   4
  -8   4   0-29.1686 400.581   1
  -8   4  -1 213.387 222.293   4
  -8   4  -1-354.272 554.952   1
   8  -4   1 868.149 790.843   3
  -8   4  -2 381.598 277.358   4
  -8   4  -2 508.537 706.227   1
   8  -4   2 110.742 394.488   3
  -8   3   8-593.285 182.603   1
   8  -3  -7 295.911 780.293   3
  -8   3   7 2161.49 1546.87   1
   8  -3  -6 1002.79 1106.25   3
  -8   3   6 451.731 771.084   1
  -8   3   5 176.266 218.893   4
   8  -3  -5 349.790 760.007   3
  -8   3   5-279.859 464.658   1
  -8   3   4 59.1837 14.9414   4
   8  -3  -4 412.197 882.098   3
  -8   3   4 773.345 758.917   1
  -8   3   3 731.348 800.580   1
  -8   3   3 464.672 310.301   4
   8  -3  -3 613.323 875.248   3
  -8   3   2-3.19161 44.5392   4
  -8   3   2 471.798 520.329   1
   8  -3  -2 526.796 702.255   3
  -8   3   1-731.560 377.532   4
  -8   3   1 512.742 863.396   1
   8  -3  -1 340.422 681.102   3
  -8   3   0 30.9149 135.088   4
   8  -3   0-125.711 315.157   3
  -8   3  -1 303.133 244.511   4
   8  -3   1 263.450 480.542   3
  -8   2   8 2577.07 1634.35   1
   8  -2  -7 1791.02 1508.44   3
  -8   2   7 754.792 1074.54   1
   8  -2  -6 1244.82 1227.09   3
  -8   2   6 281.728 836.325   1
   8  -2  -5 309.373 761.759   3
  -8   2   5 805.009 537.627   1
  -8   2   4 170.905 211.633   4
   8  -2  -4-501.454 636.135   3
  -8   2   4 877.612 987.734   1
  -8   2   3 188.160 208.271   4
  -8   2   3 1128.46 988.266   1
   8  -2  -3 2280.79 1480.33   3
  -8   2   2 159.070 188.898   4
  -8   2   2 1218.15 1042.08   1
   8  -2  -2 897.154 1072.45   3
  -8   2   1-41.9592 86.9586   4
   8  -2  -1 214.983 274.125   3
  -8   2   0 42.1682 131.758   4
   8  -2   0 187.649 549.618   3
  -8   2  -1-144.266 42.4823   4
  -8   1   9 19.0046 654.228   1
  -8   1   8-971.159 1026.77   1
  -8   1   7 769.057 872.473   1
   8  -1  -6 322.811 662.914   3
  -8   1   6 1178.11 1140.95   1
   8  -1  -5-488.671 961.106   3
  -8   1   5 244.543 686.049   1
   8  -1  -4 1785.18 1416.83   3
   8  -1  -3-840.614 799.832   3
  -8   1   2 446.691 253.399   4
   8  -1  -2 1172.88 950.739   3
  -8   1   1-93.2158 136.509   4
  -8   1   0 199.803 105.360   4
   8   0  -5 278.755 481.715   3
   8   0  -4 416.343 777.143   3
  -8   0   1 356.572 280.151   4
  -8   0   0 392.226 269.546   4
   0   0   0    0.00    0.00   0
TITL 2016-SEPT14-MANJU-2-BETANAPYHO-ESTER in P-1
REM P-1 (#2 in standard setting)
CELL 0.71073   6.050430  10.218849  10.874389 106.0620 102.9228 103.3580
ZERR    3.00   0.001091   0.001315   0.001574   0.0120   0.0144   0.0138
LATT  1
SFAC C H N O
UNIT 33.00 30.00 3.00 3.00
TREF
HKLF 4
END
;
_shelx_hkl_checksum              49024
_shelx_res_file
;
    2016-sept14-manju-2-betanapyho-ester.res created by SHELXL-2014/7
TITL 2016-SEPT14-MANJU-2-BETANAPYHO-ESTER in P-1 #2
REM reset to P-1 #2
CELL 0.71073 6.05043 10.218849 10.874389 106.062 102.9228 103.358
ZERR 2 0.001091 0.001315 0.001574 0.012 0.0144 0.0138
LATT 1
SFAC C H O
UNIT 28 28 6
L.S. 4
PLAN  20
SIZE 0.23 0.26 0.31
BOND
MORE -1
BOND $H
CONF
fmap 2
acta 52
SHEL 999 0.82
OMIT 0 0 1
REM <olex2.extras>
REM <HklSrc "%.\\2016-SEPT14-MANJU-2-BETANAPYHO-ESTER.hkl">
REM </olex2.extras>
WGHT    0.113000    0.044300
FVAR      12.02127
O1    3    0.233652    0.356898    0.961779    11.00000    0.09224    0.07893 =
         0.09006    0.03829    0.04604    0.05632
O2    3    0.273872    0.466837    0.767342    11.00000    0.10656    0.10765 =
         0.10275    0.05267    0.04625    0.07769
O3    3    0.503991    0.336434    0.704888    11.00000    0.10721    0.08727 =
         0.07884    0.04365    0.04732    0.06457
C1    1    0.029968    0.326270    1.114327    11.00000    0.06997    0.07622 =
         0.07947    0.02402    0.02389    0.04371
AFIX  43
H1    2   -0.033650    0.396919    1.098763    11.00000   -1.20000
AFIX   0
C2    1   -0.030752    0.264236    1.201719    11.00000    0.07901    0.08422 =
         0.08418    0.02557    0.04302    0.05091
AFIX  43
H2    2   -0.138245    0.291485    1.244554    11.00000   -1.20000
AFIX   0
C3    1    0.066945    0.158139    1.229173    11.00000    0.07553    0.07175 =
         0.07216    0.02318    0.03466    0.03550
C4    1    0.008287    0.089685    1.318129    11.00000    0.08544    0.09502 =
         0.08582    0.03029    0.04590    0.04593
AFIX  43
H4    2   -0.100095    0.113617    1.361835    11.00000   -1.20000
AFIX   0
C5    1    0.107036   -0.010824    1.341439    11.00000    0.11432    0.09316 =
         0.08890    0.04397    0.04724    0.04818
AFIX  43
H5    2    0.068553   -0.053305    1.402467    11.00000   -1.20000
AFIX   0
C6    1    0.264549   -0.050955    1.275418    11.00000    0.12274    0.08000 =
         0.09435    0.04179    0.04494    0.05799
AFIX  43
H6    2    0.327803   -0.121975    1.290286    11.00000   -1.20000
AFIX   0
C7    1    0.326330    0.012932    1.189504    11.00000    0.09401    0.08113 =
         0.08704    0.03528    0.04102    0.05358
AFIX  43
H7    2    0.435970   -0.012488    1.147566    11.00000   -1.20000
AFIX   0
C8    1    0.226149    0.118552    1.162212    11.00000    0.07031    0.06052 =
         0.06949    0.01984    0.02578    0.03422
C9    1    0.289119    0.186103    1.072506    11.00000    0.07064    0.06990 =
         0.07811    0.02324    0.03191    0.04331
AFIX  43
H9    2    0.400144    0.162862    1.030699    11.00000   -1.20000
AFIX   0
C10   1    0.187304    0.285126    1.047320    11.00000    0.06682    0.06593 =
         0.06709    0.02308    0.02927    0.03452
C11   1    0.381299    0.313900    0.886180    11.00000    0.08362    0.06928 =
         0.07276    0.02958    0.03051    0.04227
AFIX  23
H11A  2    0.324692    0.210493    0.842892    11.00000   -1.20000
H11B  2    0.543182    0.341200    0.944976    11.00000   -1.20000
AFIX   0
C12   1    0.378170    0.384259    0.781712    11.00000    0.06931    0.07037 =
         0.07376    0.02538    0.02615    0.03888
C13   1    0.521342    0.393380    0.598762    11.00000    0.10400    0.09285 =
         0.06859    0.03852    0.03251    0.05399
AFIX  23
H13A  2    0.584415    0.497194    0.635541    11.00000   -1.20000
H13B  2    0.364875    0.366284    0.534080    11.00000   -1.20000
AFIX   0
C14   1    0.682331    0.333921    0.533066    11.00000    0.12090    0.13080 =
         0.09219    0.05461    0.05434    0.07164
AFIX 137
H14A  2    0.693402    0.367909    0.460030    11.00000   -1.50000
H14B  2    0.620471    0.231135    0.499172    11.00000   -1.50000
H14C  2    0.837966    0.363996    0.597212    11.00000   -1.50000
AFIX   0
HKLF 4
REM  2016-SEPT14-MANJU-2-BETANAPYHO-ESTER in P-1 #2
REM R1 =  0.0827 for    1133 Fo > 4sig(Fo)  and  0.1633 for all    2265 data
REM    155 parameters refined using      0 restraints
END
WGHT      0.1130      0.0443
REM Highest difference peak  0.164,  deepest hole -0.209,  1-sigma level  0.046
Q1    1   0.3904  0.1324  0.9970  11.00000  0.05    0.16
Q2    1   0.6376  0.3395  0.7431  11.00000  0.05    0.16
Q3    1   0.2677  0.0044  1.3875  11.00000  0.05    0.15
Q4    1   0.8304  0.3231  0.5873  11.00000  0.05    0.15
Q5    1   0.1705  0.1005  1.3755  11.00000  0.05    0.15
Q6    1   0.4991  0.1950  1.1127  11.00000  0.05    0.15
Q7    1   0.3707  0.3174  1.1191  11.00000  0.05    0.14
Q8    1  -0.0039  0.1465  1.3979  11.00000  0.05    0.14
Q9    1   0.4970  0.3802  0.8064  11.00000  0.05    0.14
Q10   1   0.1740  0.3072  1.2791  11.00000  0.05    0.13
Q11   1  -0.2916  0.0406  1.2927  11.00000  0.05    0.13
Q12   1   0.2460  0.3957  0.7341  11.00000  0.05    0.13
Q13   1   0.2219  0.1689  1.2502  11.00000  0.05    0.13
Q14   1   0.1073  0.4452  0.9384  11.00000  0.05    0.12
Q15   1   1.0386  0.3811  0.6754  11.00000  0.05    0.12
Q16   1  -0.2413  0.0433  1.3634  11.00000  0.05    0.12
Q17   1   0.1963 -0.0817  1.4857  11.00000  0.05    0.12
Q18   1   0.0609  0.2806  0.4940  11.00000  0.05    0.12
Q19   1  -0.0481  0.1949  1.3839  11.00000  0.05    0.12
Q20   1   0.1998  0.4369  0.6185  11.00000  0.05    0.12
;
_shelx_res_checksum              86864
loop_
_space_group_symop_operation_xyz
'x, y, z'
'-x, -y, -z'
loop_
_atom_site_type_symbol
_atom_site_label
_atom_site_fract_x
_atom_site_fract_y
_atom_site_fract_z
_atom_site_U_iso_or_equiv
_atom_site_adp_type
_atom_site_calc_flag
_atom_site_occupancy
O O1 0.2337(4) 0.3569(3) 0.9618(2) 0.0765(8) Uani d 1
O O2 0.2739(5) 0.4668(3) 0.7673(3) 0.0915(10) Uani d 1
O O3 0.5040(5) 0.3364(3) 0.7049(2) 0.0783(9) Uani d 1
C C1 0.0300(6) 0.3263(4) 1.1143(4) 0.0719(11) Uani d 1
H H1 -0.0336 0.3969 1.0988 0.086 Uiso calc 1
C C2 -0.0308(6) 0.2642(4) 1.2017(4) 0.0755(11) Uani d 1
H H2 -0.1382 0.2915 1.2446 0.091 Uiso calc 1
C C3 0.0669(6) 0.1581(4) 1.2292(4) 0.0692(10) Uani d 1
C C4 0.0083(7) 0.0897(4) 1.3181(4) 0.0823(12) Uani d 1
H H4 -0.1001 0.1136 1.3618 0.099 Uiso calc 1
C C5 0.1070(8) -0.0108(5) 1.3414(4) 0.0904(13) Uani d 1
H H5 0.0686 -0.0533 1.4025 0.108 Uiso calc 1
C C6 0.2645(8) -0.0510(4) 1.2754(4) 0.0896(13) Uani d 1
H H6 0.3278 -0.1220 1.2903 0.108 Uiso calc 1
C C7 0.3263(7) 0.0129(4) 1.1895(4) 0.0789(12) Uani d 1
H H7 0.4360 -0.0125 1.1476 0.095 Uiso calc 1
C C8 0.2261(6) 0.1186(4) 1.1622(3) 0.0641(10) Uani d 1
C C9 0.2891(6) 0.1861(4) 1.0725(4) 0.0679(10) Uani d 1
H H9 0.4001 0.1629 1.0307 0.082 Uiso calc 1
C C10 0.1873(6) 0.2851(4) 1.0473(3) 0.0626(9) Uani d 1
C C11 0.3813(6) 0.3139(4) 0.8862(3) 0.0696(10) Uani d 1
H H11A 0.3247 0.2105 0.8429 0.084 Uiso calc 1
H H11B 0.5432 0.3412 0.9450 0.084 Uiso calc 1
C C12 0.3782(6) 0.3843(4) 0.7817(3) 0.0672(10) Uani d 1
C C13 0.5213(7) 0.3934(4) 0.5988(4) 0.0809(12) Uani d 1
H H13A 0.5844 0.4972 0.6355 0.097 Uiso calc 1
H H13B 0.3649 0.3663 0.5341 0.097 Uiso calc 1
C C14 0.6823(7) 0.3339(5) 0.5331(4) 0.1014(15) Uani d 1
H H14A 0.6934 0.3679 0.4600 0.152 Uiso calc 1
H H14B 0.6205 0.2311 0.4992 0.152 Uiso calc 1
H H14C 0.8380 0.3640 0.5972 0.152 Uiso calc 1
loop_
_atom_site_aniso_label
_atom_site_aniso_U_11
_atom_site_aniso_U_22
_atom_site_aniso_U_33
_atom_site_aniso_U_12
_atom_site_aniso_U_13
_atom_site_aniso_U_23
O1 0.0922(19) 0.0789(17) 0.0901(18) 0.0563(15) 0.0460(15) 0.0383(15)
O2 0.107(2) 0.108(2) 0.103(2) 0.0777(18) 0.0463(16) 0.0527(17)
O3 0.107(2) 0.0873(18) 0.0788(17) 0.0646(16) 0.0473(15) 0.0437(14)
C1 0.070(2) 0.076(3) 0.079(3) 0.044(2) 0.024(2) 0.024(2)
C2 0.079(3) 0.084(3) 0.084(3) 0.051(2) 0.043(2) 0.026(2)
C3 0.076(2) 0.072(2) 0.072(2) 0.035(2) 0.0347(19) 0.0232(19)
C4 0.085(3) 0.095(3) 0.086(3) 0.046(2) 0.046(2) 0.030(2)
C5 0.114(3) 0.093(3) 0.089(3) 0.048(3) 0.047(3) 0.044(2)
C6 0.123(4) 0.080(3) 0.094(3) 0.058(3) 0.045(3) 0.042(3)
C7 0.094(3) 0.081(3) 0.087(3) 0.054(2) 0.041(2) 0.035(2)
C8 0.070(2) 0.061(2) 0.069(2) 0.0342(19) 0.0258(18) 0.0198(18)
C9 0.071(2) 0.070(2) 0.078(2) 0.0433(19) 0.0319(19) 0.023(2)
C10 0.067(2) 0.066(2) 0.067(2) 0.0345(18) 0.0293(18) 0.0231(18)
C11 0.084(2) 0.069(2) 0.073(2) 0.042(2) 0.0305(19) 0.0296(19)
C12 0.069(2) 0.070(2) 0.074(2) 0.039(2) 0.0261(18) 0.0254(19)
C13 0.104(3) 0.093(3) 0.069(2) 0.054(2) 0.033(2) 0.039(2)
C14 0.121(4) 0.131(4) 0.092(3) 0.072(3) 0.054(3) 0.055(3)
loop_
_atom_type_symbol
_atom_type_description
_atom_type_scat_dispersion_real
_atom_type_scat_dispersion_imag
_atom_type_scat_source
C C 0.0033 0.0016 'International Tables Vol C Tables 4.2.6.8 and 6.1.1.4'
H H 0.0000 0.0000 'International Tables Vol C Tables 4.2.6.8 and 6.1.1.4'
O O 0.0106 0.0060 'International Tables Vol C Tables 4.2.6.8 and 6.1.1.4'
loop_
_geom_angle_atom_site_label_1
_geom_angle_atom_site_label_2
_geom_angle_atom_site_label_3
_geom_angle
C10 O1 C11 116.5(2)
C12 O3 C13 117.0(3)
C2 C1 H1 119.8
C2 C1 C10 120.4(3)
C10 C1 H1 119.8
C1 C2 H2 119.5
C1 C2 C3 121.0(3)
C3 C2 H2 119.5
C4 C3 C2 123.2(3)
C8 C3 C2 118.1(3)
C8 C3 C4 118.7(3)
C3 C4 H4 119.5
C5 C4 C3 121.0(4)
C5 C4 H4 119.5
C4 C5 H5 119.6
C4 C5 C6 120.7(4)
C6 C5 H5 119.6
C5 C6 H6 120.0
C7 C6 C5 120.0(4)
C7 C6 H6 120.0
C6 C7 H7 119.6
C6 C7 C8 120.9(4)
C8 C7 H7 119.6
C3 C8 C7 118.6(3)
C3 C8 C9 119.9(3)
C9 C8 C7 121.5(3)
C8 C9 H9 120.1
C10 C9 C8 119.9(3)
C10 C9 H9 120.1
O1 C10 C1 114.3(3)
C9 C10 O1 125.0(3)
C9 C10 C1 120.7(3)
O1 C11 H11A 109.8
O1 C11 H11B 109.8
O1 C11 C12 109.3(3)
H11A C11 H11B 108.3
C12 C11 H11A 109.8
C12 C11 H11B 109.8
O2 C12 O3 125.0(4)
O2 C12 C11 125.7(3)
O3 C12 C11 109.3(3)
O3 C13 H13A 110.2
O3 C13 H13B 110.2
O3 C13 C14 107.7(3)
H13A C13 H13B 108.5
C14 C13 H13A 110.2
C14 C13 H13B 110.2
C13 C14 H14A 109.5
C13 C14 H14B 109.5
C13 C14 H14C 109.5
H14A C14 H14B 109.5
H14A C14 H14C 109.5
H14B C14 H14C 109.5
loop_
_geom_bond_atom_site_label_1
_geom_bond_atom_site_label_2
_geom_bond_distance
O1 C10 1.372(4)
O1 C11 1.406(4)
O2 C12 1.187(4)
O3 C12 1.322(4)
O3 C13 1.442(4)
C1 H1 0.9300
C1 C2 1.350(5)
C1 C10 1.393(4)
C2 H2 0.9300
C2 C3 1.418(5)
C3 C4 1.402(5)
C3 C8 1.397(5)
C4 H4 0.9300
C4 C5 1.355(5)
C5 H5 0.9300
C5 C6 1.384(5)
C6 H6 0.9300
C6 C7 1.349(5)
C7 H7 0.9300
C7 C8 1.421(5)
C8 C9 1.411(5)
C9 H9 0.9300
C9 C10 1.358(5)
C11 H11A 0.9700
C11 H11B 0.9700
C11 C12 1.502(5)
C13 H13A 0.9700
C13 H13B 0.9700
C13 C14 1.474(5)
C14 H14A 0.9600
C14 H14B 0.9600
C14 H14C 0.9600
loop_
_geom_torsion_atom_site_label_1
_geom_torsion_atom_site_label_2
_geom_torsion_atom_site_label_3
_geom_torsion_atom_site_label_4
_geom_torsion
O1 C11 C12 O2 2.2(5)
O1 C11 C12 O3 -175.8(3)
C1 C2 C3 C4 -179.5(4)
C1 C2 C3 C8 -0.6(6)
C2 C1 C10 O1 -179.9(3)
C2 C1 C10 C9 -2.5(6)
C2 C3 C4 C5 -179.8(4)
C2 C3 C8 C7 179.6(3)
C2 C3 C8 C9 1.4(6)
C3 C4 C5 C6 -1.5(7)
C3 C8 C9 C10 -2.7(6)
C4 C3 C8 C7 -1.5(6)
C4 C3 C8 C9 -179.7(3)
C4 C5 C6 C7 1.8(7)
C5 C6 C7 C8 -1.9(6)
C6 C7 C8 C3 1.8(6)
C6 C7 C8 C9 -180.0(4)
C7 C8 C9 C10 179.1(3)
C8 C3 C4 C5 1.4(6)
C8 C9 C10 O1 -179.6(3)
C8 C9 C10 C1 3.3(6)
C10 O1 C11 C12 170.1(3)
C10 C1 C2 C3 1.2(6)
C11 O1 C10 C1 -176.7(3)
C11 O1 C10 C9 6.1(5)
C12 O3 C13 C14 176.0(3)
C13 O3 C12 O2 2.2(6)
C13 O3 C12 C11 -179.7(3)
