#------------------------------------------------------------------------------
#$Date: 2016-10-01 05:05:09 +0300 (Sat, 01 Oct 2016) $
#$Revision: 186861 $
#$URL: file:///home/coder/svn-repositories/cod/cif/1/54/42/1544228.cif $
#------------------------------------------------------------------------------
#
# This file is available in the Crystallography Open Database (COD),
# http://www.crystallography.net/. The original data for this entry
# were provided by IUCr Journals, http://journals.iucr.org/.
#
# The file may be used within the scientific community so long as
# proper attribution is given to the journal article from which the
# data were obtained.
#
data_1544228
loop_
_publ_author_name
'Golen, James A.'
'Manke, David R.'
_publ_section_title
;
 5,7-Dichloro-1<i>H</i>-indole-2,3-dione
;
_journal_coeditor_code           SJ4060
_journal_issue                   9
_journal_name_full               IUCrData
_journal_page_first              x161510
_journal_paper_doi               10.1107/S2414314616015108
_journal_volume                  1
_journal_year                    2016
_chemical_formula_iupac          'C8 H3 Cl2 N O2'
_chemical_formula_moiety         'C8 H3 Cl2 N O2'
_chemical_formula_sum            'C8 H3 Cl2 N O2'
_chemical_formula_weight         216.01
_chemical_name_systematic
;
5,7-Dichloro-1<i>H</i>-indole-2,3-dione
;
_space_group_crystal_system      monoclinic
_space_group_IT_number           14
_space_group_name_Hall           '-P 2ybc'
_space_group_name_H-M_alt        'P 1 21/c 1'
_symmetry_space_group_name_Hall  '-P 2ybc'
_symmetry_space_group_name_H-M   'P 1 21/c 1'
_atom_sites_solution_hydrogens   mixed
_atom_sites_solution_primary     direct
_audit_creation_method
;
Olex2 1.2
(compiled 2016.02.19 svn.r3266 for OlexSys, GUI svn.r5155)
;
_cell_angle_alpha                90
_cell_angle_beta                 108.041(7)
_cell_angle_gamma                90
_cell_formula_units_Z            4
_cell_length_a                   11.0789(17)
_cell_length_b                   4.9866(8)
_cell_length_c                   15.049(2)
_cell_measurement_reflns_used    6137
_cell_measurement_temperature    120(2)
_cell_measurement_theta_max      70.40
_cell_measurement_theta_min      4.20
_cell_volume                     790.5(2)
_computing_cell_refinement
;
SAINT (Bruker, 2014)
;
_computing_data_collection
;
APEX2 (Bruker, 2014)
;
_computing_data_reduction
;
SAINT (Bruker, 2014)
;
_computing_molecular_graphics
;
<i>OLEX2</i> (Dolomanov <i>et al.</i>,  2009)
;
_computing_publication_material
;
<i>OLEX2</i> (Dolomanov <i>et al.</i>,  2009) and publCIF (Westrip,
2010)
;
_computing_structure_refinement
;
SHELXL2014 (Sheldrick, 2015)
;
_computing_structure_solution
;
SHELXS97 (Sheldrick, 2008)
;
_diffrn_ambient_temperature      120.15
_diffrn_measured_fraction_theta_full 0.997
_diffrn_measured_fraction_theta_max 0.994
_diffrn_measurement_device_type  'Bruker D8 Venture CMOS'
_diffrn_measurement_method       '\f and \w scans'
_diffrn_radiation_monochromator  'HELIOS MX'
_diffrn_radiation_type           CuK\a
_diffrn_radiation_wavelength     1.54178
_diffrn_reflns_av_R_equivalents  0.0589
_diffrn_reflns_limit_h_max       13
_diffrn_reflns_limit_h_min       -13
_diffrn_reflns_limit_k_max       6
_diffrn_reflns_limit_k_min       -5
_diffrn_reflns_limit_l_max       18
_diffrn_reflns_limit_l_min       -18
_diffrn_reflns_number            10168
_diffrn_reflns_theta_full        68.250
_diffrn_reflns_theta_max         70.345
_diffrn_reflns_theta_min         4.197
_diffrn_standards_number         0
_exptl_absorpt_coefficient_mu    7.075
_exptl_absorpt_correction_T_max  0.4684
_exptl_absorpt_correction_T_min  0.2881
_exptl_absorpt_correction_type   multi-scan
_exptl_absorpt_process_details
;
(SADABS; Bruker, 2014)
;
_exptl_crystal_colour            orange
_exptl_crystal_density_diffrn    1.815
_exptl_crystal_description       block
_exptl_crystal_F_000             432
_exptl_crystal_size_max          0.24
_exptl_crystal_size_mid          0.16
_exptl_crystal_size_min          0.05
_refine_diff_density_max         0.311
_refine_diff_density_min         -0.339
_refine_ls_extinction_method     none
_refine_ls_goodness_of_fit_ref   1.058
_refine_ls_hydrogen_treatment    mixed
_refine_ls_matrix_type           full
_refine_ls_number_parameters     121
_refine_ls_number_reflns         1496
_refine_ls_number_restraints     1
_refine_ls_restrained_S_all      1.057
_refine_ls_R_factor_all          0.0396
_refine_ls_R_factor_gt           0.0353
_refine_ls_shift/su_max          0.000
_refine_ls_shift/su_mean         0.000
_refine_ls_structure_factor_coef Fsqd
_refine_ls_weighting_details
'w=1/[\s^2^(Fo^2^)+(0.0359P)^2^+0.9613P] where P=(Fo^2^+2Fc^2^)/3'
_refine_ls_weighting_scheme      calc
_refine_ls_wR_factor_gt          0.0836
_refine_ls_wR_factor_ref         0.0861
_reflns_number_gt                1356
_reflns_number_total             1496
_reflns_threshold_expression     'I > 2\s(I)'
_cod_data_source_file            sj4060sup1.cif
_cod_data_source_block           I
_cod_database_code               1544228
_shelx_space_group_comment
;
The symmetry employed for this shelxl refinement is uniquely defined
by the following loop, which should always be used as a source of
symmetry information in preference to the above space-group names.
They are only intended as comments.
;
_shelx_estimated_absorpt_t_min   0.282
_shelx_estimated_absorpt_t_max   0.719
_shelx_hkl_file
;
  -1   0   0  315.17   19.80
   1   0   0  312.87   19.80
  -2   0   0  122.39    8.30
   2   0   0  130.09    8.30
  -3   0   0  279.97   19.50
   3   0   0  329.67   19.50
  -4   0   0 1751.82   98.39
  -4   0   0 1385.46   97.39
   4   0   0 1481.45   97.49
   4   0   0 1571.64   97.39
  -5   0   0  944.61   60.59
  -5   0   0 1056.49   61.29
   5   0   0  853.91   60.79
  -6   0   0  206.98   13.50
  -6   0   0  201.18   14.80
  -6   0   0  160.08   16.10
  -7   0   0  680.43   44.70
  -7   0   0  677.83   45.50
   7   0   0  710.83   45.90
   7   0   0  710.93   47.20
   8   0   0  673.73   50.09
  -8   0   0  739.33   48.00
  -8   0   0  772.42   50.59
  -8   0   0  765.72   47.80
  -9   0   0   -1.30    8.60
  -9   0   0    7.00    5.50
  -9   0   0   12.40    4.50
 -10   0   0    7.50    4.70
 -10   0   0   -0.40    9.20
 -10   0   0    9.70    4.10
 -10   0   0    4.70    4.90
 -11   0   0   12.30    6.50
 -11   0   0   22.10    3.60
 -12   0   0   19.30    2.80
  12   0   0   13.00    4.70
 -12   0   0   20.70    3.60
   0  -1   0   -3.00    0.40
   0  -1   0   -2.90    0.80
   0  -1   0   -3.30    0.40
   0  -1   0   -2.80    0.30
   0  -1   0   -2.70    1.30
   0   1   0   -2.30    1.40
   0   1   0   -2.30    0.60
  -1  -1   0  347.27   21.30
  -1  -1   0  288.97   20.60
   1  -1   0  311.47   20.50
   1  -1   0  348.97   20.50
   1  -1   0  352.46   21.70
  -1  -1   0  315.87   20.60
   1  -1   0  328.77   20.50
  -1  -1   0  274.87   20.30
   1  -1   0  322.17   20.70
  -1   1   0  331.17   20.50
  -1   1   0  329.87   20.50
  -1   1   0  326.67   21.60
   1   1   0  329.37   20.70
   2  -1   0 2061.19  125.09
  -2  -1   0 2192.88  125.19
  -2  -1   0 2050.69  125.79
  -2  -1   0 2013.10  124.99
   2  -1   0 2011.00  125.19
  -2   1   0 1834.92  125.09
   2   1   0 1942.01  124.99
  -2   1   0 1973.30  125.09
   2   1   0 2081.39  125.19
  -2   1   0 1778.92  125.99
  -3  -1   0   30.20    2.60
   3  -1   0   34.00    2.80
  -3  -1   0   29.60    3.60
   3  -1   0   35.90    3.70
   3  -1   0   37.20    3.20
  -3   1   0   35.50    2.90
   3   1   0   30.90    2.80
   3   1   0   27.10    2.70
   3   1   0   34.90    2.80
  -3   1   0   34.10    3.10
   4  -1   0  230.28   16.40
  -4  -1   0  242.78   15.80
   4  -1   0  244.68   15.90
   4  -1   0  249.97   16.10
  -4  -1   0  229.38   15.80
  -4   1   0  247.78   17.40
  -4   1   0  253.57   16.40
   4   1   0  246.18   15.80
  -4   1   0  251.17   16.00
  -4   1   0  227.38   16.20
   5  -1   0  332.57   23.50
  -5  -1   0  353.86   22.70
  -5  -1   0  360.16   22.40
  -5  -1   0  350.66   23.20
   5  -1   0  369.66   22.70
   5  -1   0  350.86   22.60
  -5   1   0  356.06   22.90
  -5   1   0  293.27   23.10
  -5   1   0  330.97   24.40
   6  -1   0  346.57   24.40
  -6   1   0  383.46   24.50
  -6   1   0  373.26   27.50
  -7  -1   0  183.58   16.60
  -7  -1   0  150.08   11.00
   7  -1   0  156.48   15.50
   7  -1   0  152.78   14.30
  -7  -1   0  159.28   16.10
  -7   1   0  130.99   12.20
   7   1   0  152.48   16.00
   7   1   0  148.09   13.40
  -7   1   0  131.19   13.60
  -7   1   0  146.59   16.80
  -7   1   0  158.18   13.70
   8  -1   0  493.05   33.50
   8  -1   0  494.15   34.40
  -8  -1   0  512.55   32.70
  -8  -1   0  534.15   33.70
   8   1   0  560.64   33.70
  -8   1   0  469.55   33.10
  -8   1   0  494.45   35.30
  -8   1   0  495.25   33.50
  -8   1   0  444.06   33.70
  -9  -1   0 1117.79   78.09
  -9  -1   0 1312.27   77.49
  -9  -1   0 1156.38   77.49
   9  -1   0 1168.18   78.39
  -9   1   0 1369.96   77.39
   9   1   0 1334.67   77.99
  -9   1   0 1094.59   78.79
  -9   1   0 1146.89   78.09
 -10  -1   0  201.28   15.00
 -10  -1   0  207.58   16.30
  10  -1   0  179.18   17.60
 -10   1   0  204.88   18.50
 -10   1   0  229.18   15.00
 -10   1   0  209.08   16.30
 -11  -1   0   41.00    5.50
 -11  -1   0   57.29    7.00
  11  -1   0   45.20    8.90
 -11  -1   0   52.39    6.80
 -11   1   0   35.80    7.50
  11   1   0   37.90    6.90
 -11   1   0   47.10    7.00
 -12  -1   0  160.48   11.50
  12  -1   0  147.69   12.80
 -12  -1   0  157.58   10.60
 -12   1   0  145.69   11.30
  12   1   0  162.08   12.20
   0  -2   0 1947.51  125.49
   0  -2   0 2092.19  125.69
   0  -2   0 1971.30  125.49
   0  -2   0 2030.40  127.89
   0   2   0 1973.40  128.09
   1  -2   0  652.23   46.00
   1  -2   0  798.62   46.00
  -1  -2   0  779.92   46.20
  -1  -2   0  758.52   48.10
  -1  -2   0  788.42   45.60
   1  -2   0  705.13   48.60
  -1  -2   0  731.03   46.50
  -1  -2   0  617.14   45.60
   1  -2   0  812.12   46.00
  -1   2   0  694.83   48.40
  -1   2   0  664.43   46.20
  -2  -2   0  194.58   13.30
  -2  -2   0  193.88   14.70
   2  -2   0  219.18   12.80
  -2  -2   0  178.38   13.10
   2  -2   0  195.38   12.90
   2  -2   0  182.68   12.90
  -2   2   0  201.48   15.60
  -2   2   0  183.28   13.00
  -3  -2   0  818.72   54.69
  -3  -2   0  820.72   53.69
   3  -2   0  922.41   53.29
   3  -2   0  852.61   53.29
   3  -2   0  773.32   54.79
  -3  -2   0  878.91   53.59
   3  -2   0  841.82   53.59
  -3  -2   0  808.12   52.79
  -3   2   0  792.92   53.29
  -3   2   0  871.21   56.09
   3   2   0  852.91   53.59
   4  -2   0  807.42   47.60
   4  -2   0  731.93   47.10
  -4  -2   0  773.92   48.00
  -4  -2   0  725.83   46.00
   4  -2   0  753.92   46.50
  -4  -2   0  716.63   47.10
  -4  -2   0  692.33   46.00
   4  -2   0  770.22   46.60
  -4   2   0  625.44   46.70
  -4   2   0  788.62   49.90
   4   2   0  623.04   46.70
  -5  -2   0   24.10    5.70
  -5  -2   0   28.90    4.10
   5  -2   0   38.90    6.20
   5  -2   0   27.20    4.40
   5   2   0   25.20    9.30
  -5   2   0   14.30    7.20
  -5   2   0   38.00   11.90
  -6  -2   0  157.78   10.50
   6  -2   0  115.49   13.90
   6  -2   0  142.69   10.90
   6  -2   0  140.69   13.40
   6   2   0  136.89   15.30
  -6   2   0  167.38   14.90
  -6   2   0  148.29   17.20
  -6   2   0  156.08   15.60
   6   2   0  114.69   13.50
   7  -2   0  301.37   23.00
   7  -2   0  336.57   24.30
   7  -2   0  314.27   22.40
  -7   2   0  308.57   24.60
  -7   2   0  358.06   26.50
   7   2   0  338.77   23.40
  -7   2   0  363.46   25.20
  -8  -2   0   51.69    8.50
   8  -2   0   44.90    8.00
  -8  -2   0   38.50    5.30
   8  -2   0   40.90    7.00
   8  -2   0   47.90    8.40
  -8   2   0   32.80    7.80
  -8   2   0   27.80    8.20
   8   2   0   42.00    7.70
   9  -2   0    6.50    4.90
  -9  -2   0   18.20    8.30
  -9  -2   0   24.70    5.90
   9  -2   0   13.30    6.20
  -9  -2   0   18.90    3.90
   9   2   0   20.30    4.80
   9   2   0   14.60    6.90
  -9   2   0   15.90    7.30
  -9   2   0   11.20    6.60
  10  -2   0   38.10    6.10
 -10  -2   0   32.20    5.00
 -10  -2   0   32.50    6.30
 -10  -2   0   31.40    4.80
  10   2   0   17.50    6.20
 -10   2   0   33.40    6.90
 -11  -2   0    4.50    3.70
 -11  -2   0   -0.50    2.40
 -11  -2   0    3.10    4.30
  11  -2   0    0.40    4.50
 -11   2   0    3.10    4.20
 -11   2   0    1.50    4.80
  11   2   0    6.40    4.50
 -12  -2   0   18.60    2.80
 -12  -2   0   13.30    3.60
 -12   2   0   -3.30    5.90
  12   2   0    9.40    3.70
   0  -3   0   -1.40    3.00
   0  -3   0    1.70    1.00
   0  -3   0    1.70    2.50
   0  -3   0   -1.10    1.40
   0   3   0   -8.60   10.20
   1  -3   0  190.68   13.90
   1  -3   0  212.18   13.40
   1  -3   0  198.68   13.50
  -1  -3   0  212.48   14.50
   1  -3   0  197.58   13.70
  -1   3   0  195.08   22.20
   2  -3   0  139.19    9.60
   2  -3   0  119.59    9.10
  -2  -3   0  119.49   11.80
  -2   3   0  152.88   28.80
  -2   3   0  122.99   13.10
  -2   3   0  140.09   12.90
   2   3   0  115.89   11.70
   3  -3   0   73.69    6.30
  -3  -3   0   81.39   12.60
  -3   3   0   73.49   11.50
  -3   3   0   69.89    9.80
   3   3   0   69.19    9.60
   4  -3   0   62.89   10.50
   4  -3   0   77.79   11.00
   4  -3   0   61.39    6.40
   4   3   0   81.19    9.50
  -4   3   0   65.69   10.70
   4   3   0   93.29   15.90
  -4   3   0   73.09   10.70
   4   3   0   80.99   11.80
   5  -3   0   44.50    7.30
   5  -3   0   51.89    8.40
  -5  -3   0   38.20    5.90
   5  -3   0   43.50    5.30
  -5   3   0   49.99    9.10
   5   3   0   40.80    8.90
  -5   3   0   38.50    7.50
   5   3   0   29.90    6.20
   6  -3   0  221.38   15.70
   6  -3   0  231.98   18.30
   6  -3   0  231.38   17.10
  -6  -3   0  226.78   15.10
   6   3   0  210.28   18.40
   6   3   0  180.78   16.90
  -6   3   0  226.98   18.20
   7  -3   0  540.45   38.30
   7  -3   0  574.44   39.30
   7  -3   0  556.14   38.00
   7   3   0  614.84   38.70
   7   3   0  579.54   39.80
  -7   3   0  616.64   39.90
   8  -3   0    0.10    4.50
  -8  -3   0    1.70    3.10
   8  -3   0    7.50    5.20
   8  -3   0    2.40    4.50
  -8   3   0   -0.20    6.20
   8   3   0    4.50    6.80
   8   3   0   -3.50    4.30
   9  -3   0   67.49    6.90
   9  -3   0   58.39    8.60
  -9  -3   0   54.59    6.70
  -9  -3   0   60.09    7.70
   9   3   0   76.19    7.60
   9   3   0   54.69   10.00
  -9   3   0   46.50    7.60
  10  -3   0   47.70    6.70
 -10  -3   0   47.30    6.30
 -10   3   0   43.80    8.00
  10   3   0   43.10    8.50
  11  -3   0  104.39    8.00
 -11  -3   0   99.39    7.70
 -11   3   0   90.29    8.80
  11   3   0   97.39    9.40
   0  -4   0   26.60    4.60
   0   4   0   36.40    5.80
   1  -4   0  162.38   11.90
   1   4   0  182.18   14.10
  -1   4   0  169.38   13.70
  -1   4   0  175.18   15.30
   2  -4   0  842.82   50.19
  -2   4   0  774.62   51.29
  -2   4   0  756.72   51.59
   2   4   0  760.72   51.09
   3  -4   0  288.07   20.20
   3   4   0  311.27   21.70
  -3   4   0  310.47   21.90
  -3   4   0  298.17   22.40
   4  -4   0   11.50    7.00
   4  -4   0    7.10    7.30
   4  -4   0    8.30    3.00
  -4   4   0   18.40    6.10
   4   4   0   16.80    5.20
  -4   4   0   17.80    6.00
   5  -4   0   87.29   11.10
   5  -4   0   82.39    7.90
   5  -4   0   87.29   12.30
   5   4   0   82.59    9.50
  -5   4   0   87.49   11.10
   5   4   0  123.89   16.50
  -5   4   0   77.69   10.50
   6  -4   0  175.08   14.70
   6  -4   0  163.98   12.70
   6  -4   0  168.18   13.80
   6   4   0  153.98   13.70
   6   4   0  159.08   17.20
  -6   4   0  180.38   15.20
   7  -4   0   50.29    7.10
   7  -4   0   51.49    7.30
  -7  -4   0   51.99    6.10
   7  -4   0   44.30    7.00
   7   4   0   44.60    8.80
   7   4   0   57.09    7.50
  -7   4   0   48.10    8.40
  -8  -4   0   18.00    4.90
   8  -4   0   12.00    3.20
   8  -4   0   14.20    4.40
   8   4   0    9.10    7.00
   8   4   0   14.00    3.90
  -8   4   0   10.80    4.70
  -8   4   0   11.00    4.30
   9  -4   0    8.10    3.60
   9  -4   0   10.70    2.10
  -9   4   0   10.30    3.60
  -9   4   0    2.30    3.70
   9   4   0   -1.30    6.00
   9   4   0   14.40    3.80
   0  -5   0    2.10    3.30
   0   5   0   -0.80    4.20
   1  -5   0   84.59    8.00
  -1   5   0  110.19   10.10
   1   5   0  105.59    9.80
   2  -5   0   39.00    5.30
   2   5   0   43.90    6.10
  -2   5   0   50.79    7.20
   3  -5   0   62.99   10.30
   3  -5   0   57.19    6.70
   3   5   0   85.09    8.90
  -3   5   0   69.29    8.40
   4  -5   0    1.10    4.00
   4   5   0    2.40    4.10
  -4   5   0   -0.70    3.90
   5  -5   0   -1.80    5.50
   5  -5   0   -0.10    3.50
   5  -5   0    2.40    3.60
  -5   5   0   -0.80    3.70
   5   5   0   -1.70    4.20
   6  -5   0   16.30    5.00
   6  -5   0   19.50    4.10
  -6   5   0   15.60    3.80
   7  -5   0  358.26   22.80
   7  -5   0  317.17   23.40
  -7   5   0  361.26   23.30
   7   5   0  364.66   23.20
   0   6   0    9.00    3.90
   1   6   0   91.99    9.40
  -1   6   0  109.19    9.40
  -2   6   0   47.90    6.50
   2   6   0   52.09    6.90
 -13   0   1    3.90    2.80
  13   0  -1    1.60    3.50
 -12   0   1    1.90    2.40
 -12   0   1    1.60    2.30
 -11   0   1   -0.90    7.30
 -11   0   1    5.90    2.90
 -11   0   1    7.50    6.00
 -11   0   1    2.90    3.80
 -10   0   1    3.60    5.00
 -10   0   1    3.80    4.00
 -10   0   1   -1.20    8.00
 -10   0   1    3.40    4.40
  -9   0   1   -4.40    7.70
  -9   0   1    0.10    3.80
  -8   0   1    0.80    5.00
  -8   0   1   -1.80    3.10
   8   0  -1    7.40   10.00
  -8   0   1   -1.90    8.60
  -7   0   1    2.40    2.80
  -7   0   1   -3.00    6.00
   7   0  -1    4.40    5.30
  -7   0   1   -2.50    7.10
  -6   0   1    1.90    2.40
   6   0  -1   -6.00    3.90
  -6   0   1   -3.40    5.40
  -6   0   1   -0.10    3.00
  -5   0   1    1.00    1.90
  -5   0   1    0.70    2.70
   5   0  -1    1.20    2.20
  -2   0   1   -5.60    0.50
   2   0  -1   -5.80    0.60
  -2   0   1   -6.00    0.60
  -1   0   1   -2.10    0.40
   1   0  -1   -2.20    0.40
   0   0  -1   -0.70    0.10
   0   0   1   -0.60    0.20
   0   0  -1   -0.90    0.20
   0   0   1   -0.60    0.10
   1   0   1   -0.20    0.50
  -1   0  -1   -0.50    0.40
  -1   0  -1   -1.00    0.40
   1   0   1   -0.60    0.40
   2   0   1   -3.00    0.80
  -2   0  -1   -4.10    0.80
   2   0   1   -4.30    0.80
  -3   0  -1   -1.00    1.10
   3   0   1   -1.00    0.90
  -3   0  -1    0.30    1.50
   3   0   1   -2.20    1.30
   4   0   1   -0.90    1.40
   4   0   1   -1.60    2.30
  -4   0  -1   -0.90    1.80
  -5   0  -1   -2.30    1.80
  -5   0  -1   -3.60    3.30
   5   0   1    0.60    1.10
   5   0   1    0.50    2.60
  -6   0  -1   -2.30    5.00
   6   0   1    1.50    6.40
  -6   0  -1   -3.40    2.40
  -7   0  -1   -2.10   10.70
  -7   0  -1    0.40    3.00
  -7   0  -1   -1.10    5.80
   7   0   1  -15.50    9.50
  -7   0  -1    1.40    5.70
  -8   0  -1   -9.10    4.70
  -8   0  -1   15.70   10.40
   8   0   1   -0.40   11.90
  -9   0  -1   -3.90    4.70
  -9   0  -1    4.70   11.00
  -9   0  -1   -1.40    3.90
  -9   0  -1    2.00    4.90
 -10   0  -1    0.60    4.70
 -10   0  -1    3.70    3.60
 -10   0  -1    3.60    4.90
 -11   0  -1    1.10    3.10
 -11   0  -1  -11.20    7.50
 -11   0  -1    0.40    2.70
 -12   0  -1   -0.60    2.70
 -12   0  -1    1.50    2.10
  12   0   1    7.00    4.30
 -12  -1   1  129.89    9.60
 -12  -1   1  121.69    8.70
 -12  -1   1  118.69   11.80
 -12   1   1   98.89   11.50
 -12   1   1  120.59    9.50
  12   1  -1  115.49   10.30
 -11  -1   1    2.90    4.20
 -11  -1   1   -6.20    4.00
  11  -1  -1   -6.60    6.00
 -11   1   1   -3.90    6.00
 -11   1   1    8.30    4.10
 -10  -1   1  144.19   19.10
 -10  -1   1  176.28   14.00
  10  -1  -1  198.18   16.20
 -10  -1   1  180.18   15.10
 -10  -1   1  182.18   13.40
 -10   1   1  173.48   15.00
 -10   1   1  192.58   13.60
 -10   1   1  177.18   17.60
   9  -1  -1  108.69   12.80
  -9  -1   1   89.99   10.00
  -9  -1   1   90.39   15.80
  -9  -1   1  101.09    8.50
  -9   1   1   98.59   13.70
  -9   1   1   88.09    9.60
  -9   1   1   87.49   11.10
   9   1  -1   93.49    9.40
  -8  -1   1  350.46   20.90
  -8  -1   1  314.67   22.30
  -8  -1   1  303.47   23.30
   8  -1  -1  294.57   22.20
  -8  -1   1  308.17   25.10
   8  -1  -1  302.27   23.60
   8   1  -1  292.97   24.20
  -8   1   1  283.67   22.70
  -8   1   1  306.07   21.80
  -8   1   1  300.87   23.90
   8   1  -1  322.87   21.80
  -7  -1   1   57.79    5.50
   7  -1  -1   57.89    8.00
  -7  -1   1   51.19    8.50
   7  -1  -1   41.10    7.70
   7  -1  -1   51.19    8.50
  -7  -1   1   51.89    9.40
  -7   1   1   54.89    7.80
  -7   1   1   66.99   12.40
   7   1  -1   45.60   11.20
  -7   1   1   48.40    8.00
  -7   1   1   55.99    7.70
   7   1  -1   39.20    7.10
   6  -1  -1   -0.20    4.40
  -6  -1   1   -0.30    2.30
   6  -1  -1    4.60    3.40
  -6   1   1   10.40    5.80
   6   1  -1    2.30    3.80
  -6   1   1    5.20    4.00
   5  -1  -1    4.90    2.80
   5  -1  -1   10.40    2.80
  -5  -1   1    5.90    2.80
  -5  -1   1    7.20    2.00
   5  -1  -1   10.80    4.70
  -5   1   1    8.70    3.00
  -5   1   1    7.80    3.80
  -5   1   1    9.50    3.90
  -5   1   1    4.70    4.40
  -4  -1   1  128.99    8.90
   4  -1  -1  122.19    9.40
  -4  -1   1  116.69    9.00
   4  -1  -1  145.89    9.10
  -4  -1   1  124.59    8.70
   4   1  -1  137.29    9.10
  -4   1   1  134.79    9.40
  -4   1   1  147.99   10.70
  -4   1   1  125.29    9.00
  -3  -1   1 3087.89  189.98
   3  -1  -1 3063.49  189.98
  -3  -1   1 3010.60  189.78
   3  -1  -1 2960.30  189.88
   3   1  -1 3239.28  189.88
   3   1  -1 2946.71  189.98
  -3   1   1 2880.11  189.78
  -3   1   1 3031.80  189.98
  -3   1   1 3040.40  191.08
   2  -1  -1 5333.07  335.97
  -2  -1   1 5511.35  334.87
  -2   1   1 5493.55  335.77
  -2   1   1 5044.00  334.67
  -1  -1   1   98.59    6.60
   1  -1  -1   91.99    6.30
   1  -1  -1  102.79    7.80
   1  -1  -1  101.09    6.20
  -1  -1   1   94.79    6.30
  -1  -1   1  101.59    6.60
  -1  -1   1   98.69    7.00
   1   1  -1   95.99    7.20
  -1   1   1  100.29    6.40
   1   1  -1   95.29    6.30
   1   1  -1   88.19    6.60
  -1   1   1   95.29    7.70
  -1   1   1   97.79    6.30
   1   1  -1   99.79    6.60
   0  -1  -1   77.39    5.20
   0  -1   1   70.89    5.10
   0  -1   1   72.39    4.90
   0  -1   1   78.19    5.00
   0  -1  -1   71.19    4.90
   0  -1  -1   69.49    6.10
   0  -1  -1   72.49    4.80
   0   1  -1   78.59    6.00
   0   1  -1   71.79    4.90
   0   1   1   73.49    6.20
   0   1  -1   72.79    5.20
   0   1  -1   76.39    5.10
   1  -1   1 1054.29   60.99
   1  -1   1  888.61   60.89
   1  -1   1  961.20   60.99
  -1  -1  -1  946.31   60.99
  -1  -1  -1  959.70   62.09
   1  -1   1  992.60   61.09
  -1   1  -1  979.10   61.99
  -1   1  -1  975.40   60.89
   2  -1   1   14.20    1.70
  -2  -1  -1   13.20    1.30
   2  -1   1   15.10    2.30
   2  -1   1   15.90    1.90
   2  -1   1   14.80    1.90
  -2  -1  -1   16.10    1.60
   2   1   1   16.70    1.80
  -2   1  -1   16.50    1.90
   2   1   1   16.00    1.40
   2   1   1   14.00    1.30
  -2   1  -1   19.20    3.30
  -2   1  -1   17.80    1.80
   3  -1   1  283.17   19.80
   3  -1   1  319.47   19.90
   3  -1   1  343.57   19.90
  -3  -1  -1  313.37   19.60
   3  -1   1  290.77   20.00
   3   1   1  293.97   19.60
   3   1   1  300.77   19.60
  -3   1  -1  285.27   19.90
  -3   1  -1  322.77   21.30
  -3   1  -1  309.07   19.80
   3   1   1  316.07   19.70
   4  -1   1  310.37   20.40
   4  -1   1  340.17   20.50
  -4  -1  -1  319.37   20.30
  -4  -1  -1  295.37   20.30
   4  -1   1  317.47   20.90
  -4   1  -1  334.77   20.70
  -4   1  -1  286.67   20.70
  -4   1  -1  303.37   20.60
  -4   1  -1  317.77   22.20
   5  -1   1   -0.20    2.70
  -5  -1  -1   -1.00    3.10
   5  -1   1   -1.00    3.00
   5  -1   1    9.70    5.80
   5  -1   1   -3.50    2.80
  -5   1  -1   -3.00    2.80
   5   1   1    1.00    2.90
  -5   1  -1    0.60    5.70
  -5   1  -1   -1.10    4.70
  -5   1  -1    2.40    4.30
  -6  -1  -1  662.63   45.00
   6  -1   1  683.03   45.90
   6  -1   1  744.23   45.40
   6  -1   1  700.13   46.60
   6   1   1  667.73   47.00
  -6   1  -1  745.43   46.30
  -6   1  -1  646.54   45.80
  -6   1  -1  809.12   49.30
  -6   1  -1  683.53   45.40
   7  -1   1   62.59    8.90
   7  -1   1   34.80    7.60
  -7  -1  -1   41.80    5.20
  -7  -1  -1   49.60    9.30
  -7   1  -1   43.50    6.50
  -7   1  -1   70.09   13.40
  -7   1  -1   45.80    7.30
   7   1   1   45.80    7.40
  -7   1  -1   43.10    7.60
   8  -1   1   21.80    7.30
  -8  -1  -1   30.20    6.30
  -8  -1  -1   16.60    6.20
  -8  -1  -1   30.60    4.70
  -8   1  -1   11.00    5.80
  -8   1  -1   14.80    5.20
  -8   1  -1   23.70    6.30
   8   1   1   21.40    5.60
  -8   1  -1   19.20    8.20
  -9  -1  -1   -1.20    3.60
  -9  -1  -1    2.20    5.00
   9  -1   1   -1.50    6.00
  -9  -1  -1   11.60    5.50
  -9   1  -1    0.90    4.40
  -9   1  -1    5.70    8.00
  -9   1  -1    0.80    5.30
 -10  -1  -1   13.10    4.90
 -10  -1  -1    5.20    3.60
  10  -1   1    7.30    6.50
 -10  -1  -1    7.70    4.20
 -10   1  -1   11.00    7.90
 -10   1  -1    8.50    3.90
 -10   1  -1   -2.00    4.70
 -11  -1  -1   18.10    4.00
 -11  -1  -1   16.20    4.30
  11   1   1   25.50    5.60
 -11   1  -1   17.70    3.70
 -11   1  -1   17.00    9.10
  12  -1   1   21.70    6.30
 -12  -1  -1   25.30    3.40
 -12  -1  -1   29.00    4.70
  12   1   1   33.60    6.40
 -12   1  -1   29.40    5.20
  12  -2  -1   24.70    4.40
 -12  -2   1   17.40    2.60
 -12   2   1   22.80    5.00
  12   2  -1   32.30    5.50
  11  -2  -1   40.70    6.40
 -11  -2   1   27.90    5.10
 -11  -2   1   36.80    6.00
 -11   2   1   51.89    8.60
  11   2  -1   43.60    7.70
 -11   2   1   48.00    7.40
 -10  -2   1  321.57   21.40
 -10  -2   1  301.57   22.40
  10  -2  -1  319.37   22.30
  10  -2  -1  254.87   21.80
 -10  -2   1  332.77   21.20
 -10   2   1  304.97   23.30
  10   2  -1  296.57   23.30
 -10   2   1  307.57   22.30
  10   2  -1  346.67   21.60
   9  -2  -1  223.98   19.00
  -9  -2   1  237.58   16.60
  -9  -2   1  260.17   18.30
   9  -2  -1  235.28   17.30
  -9   2   1  229.48   19.90
   9   2  -1  253.87   17.70
  -9   2   1  218.18   19.40
   8  -2  -1  189.58   15.80
  -8  -2   1  210.88   14.50
   8  -2  -1  207.48   15.60
  -8  -2   1  214.78   17.90
  -8  -2   1  177.68   19.20
   8  -2  -1  181.88   17.80
   8   2  -1  233.78   16.20
   8   2  -1  219.18   18.80
  -8   2   1  215.88   18.40
  -8   2   1  204.88   18.70
  -8   2   1  197.68   19.70
   7  -2  -1   63.19    7.10
   7  -2  -1   72.59    9.50
  -7  -2   1   58.69    6.00
   7  -2  -1   70.19   11.40
   7   2  -1   84.09   12.90
  -7   2   1   51.09    9.40
  -7   2   1   63.89   10.60
  -7   2   1   64.19   12.80
   7   2  -1   66.49    8.70
   6  -2  -1   12.20    6.50
   6  -2  -1    6.10    7.10
  -6  -2   1    5.40    2.60
   6  -2  -1    8.70    3.20
  -6   2   1    9.20    7.90
   6   2  -1   -7.40    9.00
  -6   2   1   28.50   10.40
   6   2  -1    2.40    5.30
  -6   2   1    6.20    7.40
   5  -2  -1  764.92   47.90
   5  -2  -1  725.53   47.50
  -5  -2   1  794.32   48.50
  -5  -2   1  692.53   47.10
  -5   2   1  734.63   51.49
   4  -2  -1  482.95   30.30
  -4  -2   1  460.75   29.70
  -4  -2   1  476.15   30.90
   4  -2  -1  427.96   30.80
  -4  -2   1  436.06   29.80
   4  -2  -1  486.55   30.20
  -4   2   1  499.95   33.70
   4   2  -1  468.75   30.70
  -3  -2   1  497.95   32.10
   3  -2  -1  515.85   32.70
   3  -2  -1  528.25   32.60
  -3  -2   1  530.75   33.00
   3  -2  -1  514.45   32.40
   3  -2  -1  416.26   33.00
  -3   2   1  528.55   35.50
   3   2  -1  520.95   32.90
  -2  -2   1  324.57   19.60
   2  -2  -1  277.67   19.30
   2  -2  -1  292.87   19.20
   2  -2  -1  301.17   19.00
  -2  -2   1  301.17   20.70
  -2  -2   1  276.37   18.80
  -2  -2   1  284.07   19.50
  -2   2   1  291.07   21.80
  -2   2   1  296.17   19.00
   2   2  -1  314.57   19.70
  -1  -2   1 3537.25  211.78
   1  -2  -1 3204.28  209.78
  -1  -2   1 3713.23  210.88
   1  -2  -1 3152.88  209.88
   1  -2  -1 3297.67  209.78
  -1  -2   1 3297.17  210.08
  -1  -2   1 3232.98  209.78
  -1  -2   1 3126.99  209.78
  -1   2   1 3768.72  212.88
   1   2  -1 3207.08  212.08
   1   2  -1 3306.77  210.38
   0  -2   1   53.79    3.80
   0  -2  -1   49.50    5.10
   0  -2  -1   52.59    3.90
   0  -2   1   58.59    3.90
   0  -2  -1   50.59    3.50
   0  -2  -1   52.49    3.50
   0  -2   1   58.29    4.20
   0  -2  -1   51.49    7.30
   0   2  -1   46.00    4.90
   0   2  -1   52.19    6.90
   0   2   1   47.70    7.10
   1  -2   1  340.87   22.40
   1  -2   1  363.46   23.10
   1  -2   1  385.16   22.50
  -1  -2  -1  352.06   23.00
  -1  -2  -1  351.66   25.00
  -1  -2  -1  348.47   22.60
   1  -2   1  341.27   22.50
   1  -2   1  334.87   22.50
  -1   2  -1  327.57   22.80
  -1   2  -1  362.36   25.10
   2  -2   1    6.90    1.90
  -2  -2  -1    9.10    2.20
  -2  -2  -1    5.70    4.20
  -2  -2  -1    7.00    2.50
   2  -2   1    3.20    1.40
   2  -2   1    4.60    2.30
  -2   2  -1   10.80    4.50
  -2   2  -1    3.20    2.20
   3  -2   1   28.40    6.00
  -3  -2  -1   26.10    4.30
   3  -2   1   20.50    4.10
   3  -2   1   18.80    2.70
  -3  -2  -1   22.40    7.00
  -3  -2  -1   29.50    4.60
   3  -2   1   28.30    3.20
  -3   2  -1   13.50    3.20
  -3   2  -1   17.20    6.00
  -4  -2  -1   43.70    9.80
  -4  -2  -1   55.39    7.80
   4  -2   1   63.29    5.10
   4  -2   1   51.69    5.70
  -4  -2  -1   51.09    4.40
  -4  -2  -1   39.70    5.30
  -4   2  -1   59.19   10.40
  -4   2  -1   49.40    8.60
   5  -2   1  939.71   57.19
   5  -2   1  931.61   56.29
   5  -2   1  826.02   56.49
   5  -2   1  894.21   55.69
  -5  -2  -1  760.32   59.29
  -5  -2  -1  906.61   55.39
  -5   2  -1  837.22   60.09
   5   2   1  856.31   57.09
   5   2   1  935.21   57.69
  -5   2  -1  828.12   57.09
   6  -2   1   22.70    5.90
   6  -2   1   29.00    5.00
   6  -2   1   29.70    7.10
   6   2   1   25.20    6.80
   6   2   1   28.50    7.30
  -6   2  -1   16.10    7.30
  -6   2  -1   30.30    8.60
  -6   2  -1   23.60    8.70
   7  -2   1  469.65   28.30
   7  -2   1  397.36   28.50
   7  -2   1  374.16   29.10
  -7  -2  -1  423.46   27.70
  -7   2  -1  494.55   29.90
   7   2   1  397.46   29.70
  -7   2  -1  362.86   29.60
   7   2   1  453.65   29.10
   8  -2   1  165.38   14.20
  -8  -2  -1  136.19   10.80
  -8  -2  -1  116.99   15.30
  -8  -2  -1  125.49   16.60
   8  -2   1  122.79   12.30
   8   2   1  149.88   12.60
   8   2   1  160.58   14.30
  -8   2  -1  139.79   14.40
  -8   2  -1  153.68   15.30
  -9  -2  -1  171.78   15.70
   9  -2   1  139.59   14.30
   9  -2   1  168.58   12.90
  -9  -2  -1  142.19   12.00
  -9  -2  -1  163.78   14.10
  -9   2  -1  175.18   14.50
   9   2   1  167.28   13.40
   9   2   1  151.48   14.90
  -9   2  -1  168.28   15.90
  10  -2   1   37.70    6.40
 -10  -2  -1   32.50    6.30
 -10  -2  -1   40.70    6.10
 -10   2  -1   48.60    8.40
 -10   2  -1   40.90    7.40
  10   2   1   33.10    7.00
 -11  -2  -1   13.40    2.80
 -11  -2  -1    4.50    4.10
 -11  -2  -1   22.20    4.40
  11  -2   1   14.40    4.40
  11   2   1    3.80    4.50
 -11   2  -1   27.00    5.50
 -11   2  -1   10.20    4.10
  11  -3  -1   -1.20    2.50
 -11  -3   1    0.60    2.20
  11   3  -1    1.80    4.20
 -11   3   1    1.80    3.70
  10  -3  -1   84.29    8.70
 -10  -3   1   79.69    8.40
 -10  -3   1   81.09    7.60
  10  -3  -1   78.49    6.90
 -10   3   1   84.69    9.70
  10   3  -1   86.59    7.50
  10   3  -1   71.49    9.60
   9  -3  -1   63.19    8.40
  -9  -3   1   84.99   10.90
  -9  -3   1   61.39    6.80
   9  -3  -1   64.89    7.20
   9   3  -1   63.39   10.20
   9   3  -1   67.89    7.30
  -9   3   1   68.69    9.80
  -8  -3   1  103.69    8.50
   8  -3  -1  104.89   10.00
   8  -3  -1  114.39    9.70
   8  -3  -1   73.29   11.10
   8   3  -1   91.39   13.30
  -8   3   1   97.09   13.20
   7  -3  -1    4.30    3.50
   7  -3  -1    4.60    7.00
   7  -3  -1   10.90    5.10
  -7  -3   1    5.10    3.20
   7   3  -1   17.90    7.60
   7   3  -1    7.60    4.70
  -7   3   1   11.40    7.10
   6  -3  -1   -2.10    5.30
  -6  -3   1    3.80    2.90
   6  -3  -1  -13.10    6.30
   6  -3  -1   -1.60    2.90
  -6   3   1   -0.70    6.00
  -6   3   1   -6.00    6.10
   6   3  -1    6.00    7.70
   6   3  -1    1.40    4.60
   6   3  -1    4.90    9.10
   5  -3  -1   35.90    8.00
  -5  -3   1   39.00    5.40
   5  -3  -1   46.10    9.20
   5  -3  -1   47.00    5.40
   5   3  -1   76.29   13.90
   5   3  -1   51.49   10.50
   5   3  -1   43.20    6.70
  -5   3   1   56.19    8.50
   4  -3  -1  289.57   25.80
   4  -3  -1  247.88   30.80
  -4  -3   1  320.97   20.20
   4  -3  -1  317.37   20.80
  -4   3   1  314.87   23.40
  -4   3   1  306.87   23.00
   4   3  -1  318.47   22.10
   4   3  -1  332.17   27.20
   3  -3  -1  157.38   10.80
  -3  -3   1  138.99   14.70
  -3   3   1  139.39   15.50
   3   3  -1  149.39   12.90
   3   3  -1  195.78   21.20
  -3   3   1  132.99   14.00
   2  -3  -1  556.74   36.10
  -2  -3   1  535.65   37.10
   2  -3  -1  582.14   36.10
  -2   3   1  617.64   46.40
   2   3  -1  553.24   37.10
  -2   3   1  537.15   37.80
  -1  -3   1  136.99   10.50
   1  -3  -1  118.19    8.70
  -1  -3   1  118.89    9.60
   1  -3  -1  135.69    9.30
   1  -3  -1  124.89    8.80
   0  -3   1  182.78   12.40
   0  -3   1  189.98   12.40
   0  -3   1  191.28   12.20
   0  -3   1  185.38   13.30
   0  -3  -1  179.68   12.80
   0   3  -1  178.88   21.60
   1  -3   1  406.36   28.10
   1  -3   1  439.06   28.60
  -1  -3  -1  442.16   28.60
   1  -3   1  451.25   28.10
  -1   3  -1  457.75   36.10
  -1   3  -1  433.66   29.80
   2  -3   1  414.26   28.10
  -2  -3  -1  402.26   29.40
  -2   3  -1  466.15   30.30
   2   3   1  467.45   30.60
   3  -3   1   23.80    3.80
   3   3   1   16.80    6.40
  -3   3  -1   19.60    6.60
   3   3   1   23.30    9.20
   4  -3   1   88.09   12.70
   4  -3   1   97.19    7.40
   4  -3   1   86.49   12.90
   4   3   1   86.49   12.80
  -4   3  -1   79.19   10.70
   4   3   1   81.99   11.00
   5  -3   1   25.20    4.40
  -5  -3  -1   39.20    6.10
   5  -3   1   32.00    6.20
   5  -3   1   18.90    6.50
  -5   3  -1   29.30    6.30
   5   3   1   33.80    7.40
   5   3   1   23.40    6.20
   6  -3   1  552.24   37.20
   6  -3   1  546.25   37.80
   6  -3   1  597.44   38.60
  -6   3  -1  605.04   39.10
   6   3   1  597.04   39.00
   6   3   1  526.15   38.20
   7  -3   1  157.08   13.70
   7  -3   1  182.28   15.10
  -7  -3  -1  149.09   12.10
  -7   3  -1  190.78   15.60
   7   3   1  166.38   15.30
  -8  -3  -1   12.20    3.50
   8  -3   1    8.40    4.20
   8  -3   1    3.60    5.10
   8  -3   1   13.60    5.60
   8   3   1    7.70    6.40
   8   3   1    9.20    5.00
  -8   3  -1   14.40    6.20
   9  -3   1    2.30    4.40
  -9  -3  -1    1.80    5.90
   9  -3   1    7.60    3.20
  -9  -3  -1    7.00    3.60
   9   3   1    8.30    4.40
  -9   3  -1   -2.50    4.80
   9   3   1   -1.00    5.70
  10  -3   1  180.18   13.10
 -10  -3  -1  167.98   12.90
 -10  -3  -1  172.28   13.00
 -10   3  -1  182.08   14.00
  10   3   1  180.68   14.50
   9  -4  -1   23.20    4.20
   9  -4  -1   29.50    4.10
   9   4  -1   41.30    5.40
  -9   4   1   38.00    7.10
  -9   4   1   32.10    5.50
   8  -4  -1   43.10    5.80
   8  -4  -1   41.30    5.80
   8  -4  -1   26.90    5.10
  -8  -4   1   35.00    5.20
  -8   4   1   22.50    5.90
   8   4  -1   32.50    5.60
   8   4  -1   42.40    8.50
   7  -4  -1    6.90    3.90
   7  -4  -1   15.30    3.90
   7  -4  -1    6.70    4.90
   7   4  -1   16.80    4.10
  -7   4   1    7.10    5.40
   7   4  -1   19.20    8.90
   6  -4  -1   11.00    6.60
   6  -4  -1    4.80    3.30
   6  -4  -1   14.10    5.30
  -6  -4   1   10.20    4.20
   6   4  -1   10.80    4.40
  -6   4   1    5.40    6.60
   5  -4  -1  229.38   18.00
  -5  -4   1  173.48   14.10
   5  -4  -1  172.08   14.10
   5  -4  -1  213.78   16.40
  -5   4   1  213.18   17.00
   5   4  -1  186.38   15.30
  -5   4   1  199.88   16.40
   4  -4  -1   24.70   10.60
   4  -4  -1   39.00    8.90
   4   4  -1   38.10    6.00
  -4   4   1   32.40    7.30
  -4   4   1   32.50    7.40
   3  -4  -1    7.90    3.00
  -3   4   1    4.60    6.10
   3   4  -1   11.50    4.60
  -3   4   1   15.30    6.00
  -2  -4   1    5.50    3.10
   2  -4  -1    4.40    2.60
   2   4  -1    5.30    4.30
  -2   4   1    7.60    6.50
  -2   4   1    7.80    5.40
   1  -4  -1  173.08   13.30
  -1  -4   1  198.88   13.30
   1   4  -1  203.08   15.10
  -1   4   1  204.08   15.50
  -1   4   1  193.38   16.90
   0  -4  -1   41.30    6.30
   0  -4   1   46.10    5.00
   0   4   1   59.99    8.80
   0   4  -1   44.40    7.20
   1  -4   1   55.09    5.40
   1   4   1   68.39    9.30
  -1   4  -1   53.79    7.90
  -1   4  -1   65.79    9.00
   2  -4   1    2.30    2.20
  -2   4  -1    4.90    4.70
  -2   4  -1   10.20    5.10
   2   4   1    1.90    4.90
   3  -4   1    5.10    2.40
   3  -4   1   -4.40    7.70
  -3   4  -1    3.30    5.10
  -3   4  -1    7.60    5.10
   3   4   1  -13.40    9.30
   3   4   1    2.70    5.10
   4  -4   1    8.60    5.70
   4  -4   1    7.10    6.50
   4  -4   1    3.80    2.80
  -4   4  -1    6.50    5.50
   4   4   1    3.40    9.10
   4   4   1   10.90    5.90
  -4   4  -1    7.20    5.40
   5  -4   1    7.10    3.10
   5  -4   1   24.40    6.40
   5  -4   1   16.40    5.20
  -5   4  -1   13.80    5.70
   5   4   1   10.70    5.50
  -5   4  -1   13.00    5.90
   5   4   1   21.40    7.80
   6  -4   1   -1.40    3.40
   6  -4   1   -2.40    4.00
   6  -4   1   -0.30    5.10
   6   4   1    1.20    6.90
   6   4   1    9.40    5.10
  -6   4  -1    2.60    4.60
   7  -4   1   44.80    7.50
  -7  -4  -1   71.59    8.20
   7  -4   1   66.29    7.30
   7  -4   1   50.79    8.10
   7   4   1   73.09    8.80
  -7   4  -1   65.29    9.60
  -7   4  -1   51.69    8.00
   7   4   1   65.09   11.50
   8  -4   1    9.10    5.60
  -8  -4  -1   16.10    5.60
   8  -4   1   16.90    4.20
   8  -4   1   15.80    3.10
  -8   4  -1    8.40    3.90
   8   4   1    9.50    6.30
  -8   4  -1   14.20    4.60
   8   4   1   16.20    4.60
   9  -4   1   87.79    6.50
   9  -4   1   78.69    7.70
  -9   4  -1   84.59    7.60
  -9   4  -1   95.39    8.30
   9   4   1   82.09    9.90
   7  -5  -1    0.90    2.20
   7  -5  -1    5.40    4.30
  -7   5   1   -1.90    3.20
   7   5  -1   -0.50    3.30
   6  -5  -1    6.70    3.70
   6  -5  -1   18.90    5.80
   6  -5  -1   11.60    3.50
  -6   5   1   11.00    3.80
   6   5  -1   17.70    4.00
   5  -5  -1   -0.30    3.50
   5  -5  -1    1.80    3.60
   5   5  -1    3.30    3.60
  -5   5   1    1.70    4.30
   4  -5  -1    0.00    4.60
   4  -5  -1    4.00    3.40
  -4   5   1    2.20    4.50
   4   5  -1    5.90    3.80
   3  -5  -1    1.50    3.10
   3   5  -1    6.10    3.80
  -3   5   1    2.40    4.50
   2  -5  -1    9.30    3.20
  -2   5   1   14.00    4.70
   2   5  -1    9.60    3.90
   1  -5  -1   89.29    8.30
  -1  -5   1   84.19    8.30
   1   5  -1  112.19    9.70
  -1   5   1  106.79   10.40
   0  -5   1    9.10    3.00
   0   5   1    6.30    4.90
   0   5  -1    1.40    4.00
   1  -5   1   41.10    5.40
   1   5   1   59.19    8.40
  -1   5  -1   50.89    6.90
   2  -5   1   49.70    5.90
  -2   5  -1   62.99    7.10
   2   5   1   60.29    8.50
   3  -5   1   15.20    4.70
   3  -5   1    9.10    3.30
  -3   5  -1   13.00    4.40
   3   5   1    1.10    4.80
   4  -5   1   29.20    5.10
   4  -5   1   16.00    3.90
  -4   5  -1   15.30    4.30
   4   5   1   16.20    5.30
   5  -5   1   15.50    5.70
   5  -5   1   36.50    6.00
   5  -5   1   26.00    4.00
  -5   5  -1   23.40    4.70
   5   5   1   34.00    5.70
   6  -5   1   -1.30    4.30
   6  -5   1    2.00    2.70
   6  -5   1   -5.60    4.20
  -6   5  -1   -3.80    3.40
   6   5   1    2.20    4.90
   7  -5   1    7.80    2.60
   7  -5   1    7.40    2.20
  -7   5  -1    8.20    3.00
  -2   6   1   -4.80    4.00
   2   6  -1    4.30    3.50
  -1   6   1   43.20    6.90
   1   6  -1   40.90    6.30
   0   6   1   63.69    8.60
   0   6  -1   71.89    6.90
  -1   6  -1   16.10    3.50
   1   6   1   13.80    5.40
  13   0  -2   51.39    5.90
 -13   0   2   49.00    4.90
 -12   0   2  762.92   48.00
 -12   0   2  737.03   47.20
 -12   0   2  729.43   48.60
 -11   0   2 1178.38   71.69
 -11   0   2 1043.10   70.09
 -11   0   2 1095.49   70.99
 -10   0   2   53.99   10.80
 -10   0   2   46.30    7.50
 -10   0   2   63.79    9.40
  -9   0   2  341.87   21.20
  -9   0   2  305.97   21.40
   9   0  -2  286.17   25.20
  -9   0   2  286.07   23.70
   8   0  -2  376.56   31.40
  -8   0   2  440.96   26.80
   8   0  -2  418.46   27.50
  -8   0   2  409.46   29.30
  -8   0   2  402.36   27.20
   8   0  -2  351.26   30.30
  -8   0   2  387.76   28.10
  -7   0   2  727.93   47.70
  -7   0   2  668.83   45.50
  -7   0   2  759.42   45.00
   7   0  -2  692.23   45.80
  -7   0   2  645.24   46.30
  -6   0   2   11.40    5.60
   6   0  -2    1.10    3.80
  -6   0   2   11.90    2.80
  -5   0   2    8.10    1.90
  -5   0   2   16.10    3.40
  -4   0   2 3717.43  239.08
  -4   0   2 3600.04  238.88
   4   0  -2 4116.09  238.98
  -3   0   2 1645.24  104.09
   3   0  -2 1665.03  103.99
  -2   0   2 1357.06   84.49
   2   0  -2 1358.26   84.69
   2   0  -2 1391.16   84.59
  -2   0   2 1282.97   84.59
  -1   0   2  116.29    7.50
  -1   0   2  114.79    7.40
   1   0  -2  103.79    7.40
   0   0  -2  492.15   31.70
   0   0   2  507.15   31.70
   0   0  -2  523.85   31.60
   0   0   2  485.95   31.60
   1   0   2 1097.59   68.49
  -1   0  -2 1109.29   68.49
  -1   0  -2 1047.60   68.49
   1   0   2 1082.69   68.49
   2   0   2  553.84   34.80
  -2   0  -2  581.44   34.80
  -2   0  -2  512.85   34.70
   3   0   2  430.86   29.10
   3   0   2  432.06   28.90
  -3   0  -2  439.96   29.00
  -3   0  -2  512.15   29.00
   4   0   2 2816.62  169.38
  -4   0  -2 2567.44  169.08
  -5   0  -2   -0.60    1.90
   5   0   2    4.60    3.30
  -5   0  -2    1.90    4.30
  -6   0  -2 1077.49   70.99
  -6   0  -2 1215.28   72.29
  -6   0  -2 1065.69   72.99
  -7   0  -2  710.83   46.30
   7   0   2  727.03   49.00
  -7   0  -2  718.63   47.10
  -8   0  -2   17.90    5.10
  -8   0  -2   30.70    5.30
  -9   0  -2   55.09    7.50
  -9   0  -2   65.39    8.00
  -9   0  -2   60.49    9.40
 -10   0  -2  487.35   29.80
 -10   0  -2  436.66   30.50
 -10   0  -2  432.66   30.40
 -11   0  -2  144.29   10.30
  11   0   2  139.99   12.80
 -12   0  -2   19.90    3.20
  12   0   2   21.90    4.90
 -13  -1   2   41.80    3.80
 -13  -1   2   39.80    4.50
  13  -1  -2   43.80    6.00
 -13   1   2   38.10    5.20
  13   1  -2   36.60    5.70
 -12  -1   2  143.79   10.10
 -12  -1   2  140.79   10.90
 -12  -1   2  133.29   12.20
  12   1  -2  143.69   11.70
 -12   1   2  144.19   10.70
 -12   1   2  137.19   12.30
  11  -1  -2   44.20    7.30
 -11  -1   2   45.30    9.10
 -11  -1   2   39.50    7.40
 -11  -1   2   39.00    6.80
 -11   1   2   63.59   10.00
 -11   1   2   59.29    7.10
 -10  -1   2  169.38   17.70
  10  -1  -2  194.58   16.30
 -10  -1   2  189.38   13.70
 -10  -1   2  176.08   14.10
 -10   1   2  173.48   17.00
 -10   1   2  195.08   14.00
 -10   1   2  200.48   15.90
  -9  -1   2   61.89   11.20
  -9  -1   2   70.19    7.00
   9  -1  -2   88.59   11.30
  -9  -1   2   70.59   10.20
  -9  -1   2   79.99    8.90
  -9   1   2   69.19    8.60
   9   1  -2   74.19    8.20
   9   1  -2   76.49   13.80
  -9   1   2   59.99   10.70
  -9   1   2   65.19   10.10
  -8  -1   2   -2.70    6.90
  -8  -1   2   18.80    3.10
  -8  -1   2   14.70    5.50
  -8  -1   2   16.50    8.10
   8  -1  -2    0.00    6.50
   8  -1  -2    1.90    6.00
   8   1  -2   35.10    9.90
  -8   1   2   13.40    7.60
  -8   1   2    5.60    8.00
   8   1  -2    4.90    4.50
  -8   1   2   10.10    6.10
   7  -1  -2  398.16   29.30
   7  -1  -2  382.56   26.80
  -7  -1   2  434.26   28.40
  -7  -1   2  407.46   29.10
   7   1  -2  422.66   27.70
  -7   1   2  389.76   27.20
   7   1  -2  402.36   30.10
  -7   1   2  384.66   29.50
   6  -1  -2  137.69    9.90
  -6  -1   2  130.99    8.70
   6  -1  -2  112.89    9.40
  -6  -1   2  127.99   10.60
  -6   1   2  102.79   12.00
  -6   1   2  111.89   11.40
  -6   1   2  111.29   10.70
  -5  -1   2   22.20    3.40
   5  -1  -2   21.10    3.30
  -5  -1   2   18.30    3.50
   5  -1  -2   29.90    3.80
  -5  -1   2   27.00    3.20
  -5   1   2   27.90    5.00
  -5   1   2   27.40    5.70
  -5   1   2   16.70    4.60
   5   1  -2   20.80    3.50
  -4  -1   2 1449.35  100.99
  -4  -1   2 1667.73  101.49
  -4  -1   2 1584.64  101.29
   4  -1  -2 1769.92  101.39
   4   1  -2 1730.33  101.49
  -4   1   2 1525.05  101.39
  -4   1   2 1534.45  102.49
  -3  -1   2 9902.91  618.14
   3  -1  -2 9999.00  618.04
   3  -1  -2 9715.63  619.44
   2  -1  -2 2161.58  143.79
  -2  -1   2 2352.46  142.49
   2  -1  -2 2470.15  142.49
  -2  -1   2 2221.38  142.69
   2   1  -2 2310.17  142.89
   2   1  -2 2251.57  142.49
  -2   1   2 2189.48  143.59
  -2   1   2 2505.45  142.49
   2   1  -2 1986.70  142.59
   1  -1  -2    8.30    2.70
  -1  -1   2   10.50    1.20
  -1  -1   2    8.10    1.60
   1  -1  -2   10.10    1.30
  -1  -1   2   10.30    1.60
   1   1  -2   12.10    1.60
   1   1  -2   10.40    1.70
   1   1  -2   10.30    2.30
  -1   1   2   10.80    1.10
   0  -1  -2  649.14   48.00
   0  -1   2  761.52   46.80
   0  -1   2  790.12   46.80
   0  -1   2  733.93   46.90
   0  -1  -2  705.13   46.60
   0   1  -2  768.42   46.90
   0   1  -2  722.23   47.80
   0   1   2  759.92   46.60
   0   1  -2  746.73   46.80
   0   1  -2  794.22   46.90
   1  -1   2 2523.35  163.68
   1  -1   2 2773.12  163.68
  -1  -1  -2 2812.82  163.68
   1  -1   2 2613.74  163.68
  -1   1  -2 2483.45  163.68
   1   1   2 2570.84  163.38
  -1   1  -2 2602.74  163.68
  -1   1  -2 2481.65  163.68
  -2  -1  -2 1146.09   71.79
   2  -1   2 1110.69   71.99
   2  -1   2 1182.88   71.99
   2  -1   2 1066.29   71.99
   2  -1   2 1135.69   71.89
  -2   1  -2 1175.98   71.99
   2   1   2 1117.79   71.69
   2   1   2 1204.58   71.69
  -3  -1  -2   31.60    2.90
   3  -1   2   38.90    3.30
  -3  -1  -2   28.70    3.70
   3  -1   2   33.90    3.10
   3  -1   2   33.50    3.70
   3  -1   2   32.60    3.80
  -3   1  -2   32.40    3.60
  -3   1  -2   34.20    4.40
   3   1   2   32.30    2.80
  -3   1  -2   29.90    3.50
   3   1   2   37.00    3.20
   4  -1   2  227.38   18.10
  -4  -1  -2  249.28   17.30
   4  -1   2  275.87   17.50
  -4   1  -2  289.37   17.60
  -4   1  -2  263.97   17.90
  -4   1  -2  271.37   18.00
  -4   1  -2  266.57   19.60
  -5  -1  -2 2506.75  160.78
   5  -1   2 2411.06  160.88
  -5   1  -2 2888.41  161.08
  -5   1  -2 2433.16  163.38
   6  -1   2  165.78   14.90
  -6  -1  -2  160.78   11.50
   6  -1   2  160.38   14.20
  -6   1  -2  167.98   19.90
   6   1   2  153.98   16.40
  -6   1  -2  146.39   14.10
  -6   1  -2  174.28   13.70
  -6   1  -2  162.28   12.20
   7  -1   2  293.77   21.60
  -7  -1  -2  284.07   19.20
   7  -1   2  253.17   21.00
  -7  -1  -2  264.87   21.50
  -7  -1  -2  293.27   21.90
  -7   1  -2  279.87   20.10
  -7   1  -2  322.97   20.90
  -7   1  -2  288.57   23.60
  -7   1  -2  264.97   19.90
   7   1   2  287.77   21.40
  -8  -1  -2   66.39    9.80
  -8  -1  -2   39.90    6.80
   8  -1   2   33.80    7.30
  -8  -1  -2   30.10    5.50
  -8   1  -2   36.50    9.30
  -8   1  -2   43.80    6.10
  -8   1  -2   49.70    7.00
  -8   1  -2   37.00    6.70
   9  -1   2   53.29    8.30
  -9  -1  -2   44.70    6.00
  -9  -1  -2   34.90    6.60
  -9   1  -2   62.19    9.00
  -9   1  -2   29.00    9.70
  -9   1  -2   42.10    7.40
 -10  -1  -2  123.39   10.80
 -10  -1  -2  142.59   10.80
  10  -1   2  128.39   13.80
 -10  -1  -2  134.09   11.70
 -10   1  -2  140.09   11.50
 -10   1  -2  125.49   10.50
 -10   1  -2  134.09   16.50
 -11  -1  -2   30.30    5.50
  11  -1   2   30.10    6.80
 -11  -1  -2   26.10    5.50
 -11  -1  -2   29.20    4.30
 -11   1  -2   29.90    6.10
  11   1   2   21.00    5.30
 -11   1  -2   18.70    3.80
 -12  -1  -2   59.59    4.60
 -12  -1  -2   44.40    5.20
 -12   1  -2   56.49    5.90
  12   1   2   60.19    7.00
  12  -2  -2  141.99   11.40
 -12  -2   2  151.98   11.40
 -12  -2   2  145.79   10.50
 -12   2   2  146.09   12.20
  12   2  -2  180.88   12.20
 -11  -2   2  108.59    9.40
 -11  -2   2  125.19   10.50
  11  -2  -2   91.79    9.80
 -11  -2   2  113.49    9.20
 -11   2   2  104.69   10.50
 -11   2   2  114.39   11.30
  11   2  -2  127.29   11.40
  10  -2  -2   50.19    6.90
 -10  -2   2   53.19    7.10
  10  -2  -2   56.19    8.80
 -10  -2   2   45.70    5.90
  10   2  -2   54.79    6.70
  10   2  -2   37.90    7.30
 -10   2   2   57.39    8.30
 -10   2   2   31.60    6.80
   9  -2  -2  275.47   21.90
  -9  -2   2  306.57   21.00
   9  -2  -2  318.07   20.60
  -9  -2   2  278.07   22.70
  -9  -2   2  285.17   19.80
  -9  -2   2  281.17   23.50
  -9   2   2  264.97   24.00
   9   2  -2  325.87   20.80
  -9   2   2  295.07   23.10
  -9   2   2  268.87   22.60
   8  -2  -2  200.38   18.00
   8  -2  -2  229.08   16.30
  -8  -2   2  204.08   19.10
   8  -2  -2  236.58   15.80
  -8  -2   2  190.88   17.70
  -8   2   2  221.58   19.90
  -8   2   2  181.08   19.40
   8   2  -2  204.18   19.70
  -8   2   2  194.78   19.10
   8   2  -2  226.78   16.20
   7  -2  -2  340.17   27.20
   7  -2  -2  367.16   26.10
   7  -2  -2  354.36   25.20
  -7  -2   2  419.86   24.80
  -7   2   2  404.66   28.20
  -7   2   2  377.16   28.00
   7   2  -2  381.86   28.20
  -7   2   2  371.46   29.30
   7   2  -2  368.06   26.00
   6  -2  -2    5.80    3.20
   6  -2  -2    3.60    7.10
  -6  -2   2    3.70    2.30
   6  -2  -2   12.00    7.40
   6  -2  -2    9.50    6.60
  -6   2   2   -5.70   12.50
  -6   2   2   -0.60    7.20
  -6   2   2   -3.80   11.90
   6   2  -2    0.40    5.00
   6   2  -2   -8.60    9.10
  -6   2   2   -5.80    8.10
  -5  -2   2 1857.41  117.89
   5  -2  -2 1853.51  117.19
   5  -2  -2 1853.81  117.39
  -5  -2   2 1698.83  116.69
   5   2  -2 1977.60  117.99
  -5   2   2 1902.11  120.99
  -4  -2   2  139.09   10.40
  -4  -2   2  119.59    8.80
  -4  -2   2  126.29    8.60
   4  -2  -2  117.29   10.50
   4  -2  -2  130.49    9.20
   4  -2  -2  111.09    9.10
  -4   2   2  130.29   13.70
   4   2  -2  127.89   10.20
   3  -2  -2  192.48   12.60
  -3  -2   2  194.98   12.30
   3  -2  -2  167.08   16.80
   3  -2  -2  168.08   13.80
  -3  -2   2  179.18   12.40
  -3  -2   2  206.88   13.50
   3  -2  -2  188.08   12.80
   3   2  -2  167.88   12.10
   3   2  -2  206.48   13.50
  -3   2   2  208.18   16.20
  -2  -2   2  372.56   23.90
  -2  -2   2  383.86   24.40
  -2  -2   2  386.96   24.50
   2  -2  -2  396.46   24.00
   2  -2  -2  328.37   24.10
  -2   2   2  437.46   27.30
   2   2  -2  318.57   23.60
   2   2  -2  382.16   26.10
   2   2  -2  366.16   24.50
  -1  -2   2   19.60    3.00
  -1  -2   2   21.30    2.20
   1  -2  -2   23.30    1.90
   1  -2  -2   23.00    2.20
  -1  -2   2   20.80    3.30
   1   2  -2   28.80    3.50
   1   2  -2   24.60    4.30
   1   2  -2   23.10    5.30
   0  -2   2  597.94   38.50
   0  -2  -2  590.94   39.10
   0  -2  -2  562.74   41.30
   0  -2   2  607.94   38.50
   0  -2  -2  630.14   38.40
   0  -2   2  675.53   39.10
   0  -2   2  565.94   38.40
   0  -2   2  614.24   38.60
   0   2  -2  591.84   41.00
   0   2  -2  586.74   39.00
   0   2  -2  658.13   39.10
  -1  -2  -2    0.80    1.50
   1  -2   2    0.70    1.60
  -1  -2  -2    5.50    4.70
   1  -2   2    0.10    1.80
   1  -2   2    2.20    2.80
   1  -2   2    2.70    1.70
  -1  -2  -2    0.40    2.40
   1  -2   2   -1.30    1.30
  -1   2  -2    5.50    3.80
  -1   2  -2    0.70    2.20
  -2  -2  -2   17.70    2.90
   2  -2   2   17.30    2.70
  -2  -2  -2   18.60    3.30
  -2  -2  -2   18.90    6.20
   2  -2   2   17.80    3.20
   2  -2   2   15.20    2.70
  -2   2  -2   17.90    5.70
  -3  -2  -2   -2.40    6.40
   3  -2   2    3.10    4.40
   3  -2   2   -1.20    2.70
   3  -2   2   -3.40    4.20
   3  -2   2    0.20    1.80
  -3  -2  -2   -3.60    2.90
  -3   2  -2    0.80    3.50
  -3   2  -2    3.30    5.80
   4  -2   2    1.50    4.10
  -4  -2  -2    2.50    9.00
  -4  -2  -2   -0.30    2.60
   4  -2   2   -1.10    2.00
   4  -2   2    6.80    5.50
  -4   2  -2   -1.30    7.60
   5  -2   2   23.80    6.90
   5  -2   2   29.70    7.30
   5  -2   2   21.10    5.90
   5  -2   2   26.90    4.30
  -5   2  -2   34.10    7.50
   5   2   2   37.30    7.20
  -5   2  -2   19.50    7.80
   5   2   2   35.40    8.80
  -6  -2  -2  227.38   15.20
   6  -2   2  201.18   17.50
   6  -2   2  208.38   16.90
   6  -2   2  241.98   15.90
  -6   2  -2  220.98   18.20
   6   2   2  224.58   18.70
   6   2   2  228.28   17.60
   7  -2   2  516.65   35.50
   7  -2   2  531.25   34.50
   7   2   2  533.95   35.50
   7   2   2  491.45   35.70
  -7   2  -2  498.45   35.90
  -7   2  -2  554.94   35.50
  -8  -2  -2   87.79    8.70
  -8  -2  -2  118.09   14.40
   8  -2   2  114.99   10.40
   8  -2   2  111.69   11.90
  -8  -2  -2   90.19   13.60
  -8   2  -2  105.89   13.00
  -8   2  -2  102.99   12.60
   8   2   2   95.69   12.00
  -8   2  -2  147.09   17.80
   8   2   2  112.79   11.90
  -9  -2  -2  213.08   17.70
   9  -2   2  226.58   16.90
  -9  -2  -2  201.18   15.20
   9   2   2  213.28   17.40
  -9   2  -2  220.68   16.60
  -9   2  -2  210.58   18.20
 -10  -2  -2  126.59    9.80
 -10  -2  -2  114.89    9.60
 -10  -2  -2  112.69   11.30
  10  -2   2   88.89   10.80
 -10   2  -2  129.59   10.80
 -10   2  -2  119.99   12.20
  10   2   2  112.79   11.50
 -11  -2  -2   50.39    7.40
 -11  -2  -2   55.09    5.20
  11  -2   2   66.69    8.00
 -11   2  -2   44.10    6.90
  11   2   2   46.30    7.30
  11  -3  -2   32.20    5.50
 -11   3   2   38.80    6.50
  11   3  -2   49.40    7.50
  10  -3  -2   11.40    3.90
  10  -3  -2   11.70    3.20
 -10  -3   2   22.90    3.90
 -10  -3   2   14.70    4.10
  10   3  -2   17.00    5.90
 -10   3   2   18.70    5.40
  10   3  -2   21.10    3.90
   9  -3  -2   31.80    6.20
  -9  -3   2   22.30    6.00
  -9  -3   2   19.60    3.70
   9  -3  -2   34.90    6.20
   9  -3  -2   32.60    4.30
   9   3  -2   20.00    6.60
   9   3  -2   23.80    4.20
  -9   3   2   21.90    7.00
   8  -3  -2    6.30    6.50
   8  -3  -2    3.50    3.90
   8  -3  -2   10.30    4.40
   8   3  -2   10.50    4.50
   8   3  -2    1.20    7.40
  -8   3   2   -1.90    6.50
  -8   3   2   12.50    7.10
  -7  -3   2   26.00    4.60
   7  -3  -2   26.00    7.20
   7  -3  -2   30.20    6.10
   7  -3  -2   23.90    4.60
   7   3  -2   46.50   10.20
   7   3  -2   42.40    9.50
  -7   3   2   24.50    7.60
   7   3  -2   21.30    5.30
  -7   3   2   23.20    8.30
   6  -3  -2   52.79    6.20
   6  -3  -2   48.60    7.50
   6  -3  -2   51.39    8.70
  -6  -3   2   58.29    5.80
   6   3  -2   69.49   12.80
   6   3  -2   60.19   11.20
  -6   3   2   55.09   10.30
   6   3  -2   55.39    8.00
  -6   3   2   69.29   11.40
   5  -3  -2  269.37   24.30
  -5  -3   2  310.77   20.80
   5  -3  -2  346.57   21.50
   5  -3  -2  310.07   25.20
  -5   3   2  329.27   23.80
   5   3  -2  337.17   25.70
   5   3  -2  305.67   22.30
  -5   3   2  322.17   24.70
   4  -3  -2  357.06   29.10
   4  -3  -2  350.46   23.90
  -4  -3   2  370.36   23.30
   4   3  -2  360.06   25.00
  -4   3   2  351.76   26.80
   4   3  -2  345.97   28.30
  -4   3   2  380.46   26.20
   4   3  -2  362.56   30.10
   3  -3  -2   44.90    6.90
   3  -3  -2   33.20    4.80
  -3  -3   2   39.90    4.10
  -3   3   2   29.30    8.90
   3   3  -2   35.70    6.10
   3   3  -2   29.30   13.30
  -3   3   2   41.00    8.00
   2  -3  -2   95.19    7.70
  -2  -3   2   99.99   10.60
  -2  -3   2   89.19    6.90
   2  -3  -2   89.59    7.50
  -2  -3   2   86.49    6.70
  -2  -3   2   97.09    6.50
  -2   3   2  100.69   11.80
   2   3  -2   96.39    9.60
   1  -3  -2  203.88   16.20
   1  -3  -2  223.78   15.20
  -1  -3   2  255.17   15.70
  -1  -3   2  249.58   17.30
  -1  -3   2  253.77   15.80
  -1  -3   2  237.28   15.90
   1   3  -2  263.27   26.50
   1   3  -2  244.98   17.50
   0  -3   2  491.65   32.30
   0  -3   2  515.25   32.40
   0  -3   2  530.45   33.10
   0   3  -2  488.45   40.10
   0   3  -2  502.95   33.60
   1  -3   2  341.47   24.30
   1  -3   2  370.96   23.40
   1  -3   2  363.36   23.70
  -1   3  -2  367.16   32.80
  -1   3  -2  339.97   24.90
  -1   3  -2  381.36   25.60
   2  -3   2  131.89   10.30
   2   3   2  160.38   15.60
   2   3   2  155.68   14.90
  -2   3  -2  158.28   13.40
   3  -3   2  383.36   26.40
   3  -3   2  400.26   23.40
   3  -3   2  325.57   26.60
  -3   3  -2  343.67   25.10
   3   3   2  324.47   25.60
   3   3   2  338.07   25.90
   4  -3   2  893.71   54.99
   4  -3   2  730.23   55.09
   4  -3   2  939.41   54.19
   4   3   2  876.21   55.59
  -4   3  -2  864.11   55.29
   4   3   2  763.12   55.29
   5  -3   2  318.27   22.40
   5  -3   2  320.27   20.80
   5  -3   2  303.17   21.90
  -5   3  -2  309.17   22.80
   5   3   2  327.47   22.90
   5   3   2  273.07   22.70
   6  -3   2    8.70    3.70
  -6  -3  -2    5.50    2.90
   6  -3   2    0.50    5.30
   6  -3   2    9.00    4.70
   6   3   2    2.70    6.10
   6   3   2   -1.80    6.00
  -6   3  -2    4.10    5.90
   7  -3   2   24.00    6.10
   7  -3   2   36.20    5.60
  -7  -3  -2   31.20    5.40
   7   3   2   40.60    7.70
  -7   3  -2   47.90    9.30
   7   3   2   37.40    7.00
   8  -3   2  129.09   12.00
  -8  -3  -2  116.79   10.30
   8  -3   2  121.19   10.40
   8   3   2  133.79   13.20
  -8   3  -2  163.78   13.40
   9  -3   2   42.50    7.30
   9  -3   2   52.19    5.90
  -9  -3  -2   46.30    6.50
   9   3   2   38.00    6.80
  -9   3  -2   49.10    7.00
  10  -3   2   35.60    5.70
 -10  -3  -2   44.30    5.80
 -10  -3  -2   33.90    6.00
  10   3   2   39.00    6.30
 -10   3  -2   42.70    7.80
  10  -4  -2  208.78   14.80
  10  -4  -2  235.28   14.20
 -10   4   2  223.88   15.40
 -10   4   2  185.28   14.70
  10   4  -2  235.38   14.70
   9  -4  -2  121.79   11.10
   9  -4  -2  138.29    9.90
  -9  -4   2  137.69   12.60
   9   4  -2  163.18   10.80
  -9   4   2  133.49   11.50
  -9   4   2  150.98   11.10
   8  -4  -2   59.89    8.30
   8  -4  -2   50.39    6.60
  -8  -4   2   55.29    6.70
   8  -4  -2   47.40    7.10
  -8   4   2   49.10    9.40
   8   4  -2   56.59    6.70
   7  -4  -2   32.10    6.00
   7  -4  -2   29.30    6.20
  -7  -4   2   33.80    5.90
   7  -4  -2   46.70    6.80
  -7   4   2   32.50    6.90
   7   4  -2   33.70    5.90
   6  -4  -2  294.27   20.60
   6  -4  -2  268.97   19.60
   6  -4  -2  279.37   22.10
  -6  -4   2  299.97   19.20
   6   4  -2  258.27   20.00
  -6   4   2  298.17   22.20
   5  -4  -2  204.58   17.50
  -5  -4   2  193.18   14.10
   5  -4  -2  203.58   14.60
   5  -4  -2  195.68   19.30
   5   4  -2  181.38   15.50
  -5   4   2  240.98   18.70
  -5   4   2  187.58   17.10
   4  -4  -2   81.49    7.60
  -4  -4   2   83.99    7.20
   4   4  -2   82.19    9.30
  -4   4   2   82.59   12.30
  -4   4   2   82.99   11.20
   3  -4  -2   65.99    6.70
  -3  -4   2   74.89    6.30
  -3   4   2   92.69   10.50
  -3   4   2   62.09    9.70
   3   4  -2   65.39    8.70
  -2  -4   2  540.65   32.50
   2  -4  -2  447.86   32.70
  -2   4   2  524.65   35.30
  -2   4   2  512.45   34.40
   2   4  -2  503.85   33.70
  -1  -4   2   50.79    5.00
   1  -4  -2   35.70    5.80
   1   4  -2   48.00    7.00
  -1   4   2   42.40    7.20
   0  -4   2    5.60    2.30
   0   4   2   10.40    5.70
   0   4  -2    4.40    4.20
   1  -4   2   82.89    6.60
  -1   4  -2   78.49    8.70
   1   4   2   72.39   10.20
  -1   4  -2   93.39    9.60
   1   4   2   66.79   13.00
   2  -4   2   60.99    5.70
  -2   4  -2   65.79    8.70
   2   4   2   69.59   10.90
  -2   4  -2   55.29    9.00
   2   4   2   63.49   10.00
   3  -4   2   54.19    5.90
   3  -4   2   71.69   10.60
   3  -4   2   62.09    8.80
  -3   4  -2   69.29    8.90
   3   4   2   69.99    9.90
   3   4   2   70.99   10.20
  -3   4  -2   63.89    8.90
   4  -4   2  895.31   61.69
   4  -4   2  976.50   61.39
   4  -4   2 1071.79   60.99
   4   4   2  806.22   61.89
  -4   4  -2  964.60   62.09
  -4   4  -2  953.50   61.69
   4   4   2  992.10   62.59
   5  -4   2   22.20    5.70
   5  -4   2   32.10    4.60
   5  -4   2   21.50    5.10
   5   4   2   16.50    6.60
   5   4   2   35.70    7.50
  -5   4  -2   24.20    5.70
  -5   4  -2   27.20    6.40
   6  -4   2   13.70    4.20
   6  -4   2   14.10    4.10
  -6   4  -2   13.50    4.90
   6   4   2   22.40    6.10
  -6   4  -2    4.90    5.20
   6   4   2    0.80    5.60
   7  -4   2   25.10    5.20
   7  -4   2   29.60    4.20
  -7   4  -2   30.70    5.20
   7   4   2   14.10    6.30
   7   4   2   18.50    5.70
  -7   4  -2   24.40    5.30
   8  -4   2  208.58   13.50
   8  -4   2  195.38   14.40
   8   4   2  161.88   15.70
  -8   4  -2  187.48   14.20
  -8   4  -2  225.08   15.30
   9  -4   2    9.70    3.40
  -9   4  -2   15.30    3.90
  -9   4  -2   10.80    3.20
   9   4   2    6.30    4.90
   7  -5  -2    9.40    2.70
   7  -5  -2   18.30    5.20
  -7   5   2    9.80    3.50
   7   5  -2   14.30    3.40
   6  -5  -2    1.30    3.80
   6  -5  -2   -4.20    3.20
   6   5  -2    0.30    3.00
  -6   5   2   -2.60    3.90
   5  -5  -2  177.48   13.80
   5  -5  -2  173.68   13.00
   5   5  -2  171.18   13.00
  -5   5   2  183.28   13.70
   4  -5  -2  129.69   10.10
   4  -5  -2  131.49   12.60
   4   5  -2  124.99   10.20
  -4   5   2  107.39   11.00
   3  -5  -2  211.88   14.80
  -3   5   2  191.38   16.40
   3   5  -2  224.38   15.50
   2  -5  -2  213.18   15.50
  -2  -5   2  222.18   15.30
   2   5  -2  235.48   16.10
  -2   5   2  218.68   16.80
   1  -5  -2  171.68   13.80
  -1  -5   2  172.48   13.20
   1   5  -2  212.08   14.40
  -1   5   2  218.48   15.70
   0  -5   2  221.48   15.70
   0   5   2  240.38   17.80
   0   5  -2  232.98   16.80
   1  -5   2   -0.10    2.60
   1   5   2   -1.40    5.70
  -1   5  -2    3.70    3.50
   2  -5   2   66.39    9.20
   2  -5   2   82.89    6.90
   2   5   2   67.79   10.20
   3  -5   2  282.97   18.70
   3  -5   2  276.07   19.10
   3   5   2  233.08   20.20
  -3   5  -2  306.77   19.70
   4  -5   2  119.89    9.40
   4  -5   2  121.49    9.40
   4  -5   2  104.89   11.40
  -4   5  -2  107.09   10.10
   5  -5   2    2.30    5.10
   5  -5   2    4.90    2.80
   5  -5   2   -1.40    3.60
   5   5   2   -5.80    7.00
  -5   5  -2    0.60    3.20
   6  -5   2   30.40    4.20
   6  -5   2   33.00    4.30
  -6   5  -2   29.40    5.30
   2   6  -2   89.79    7.70
  -2   6   2  100.59   10.60
   1   6  -2   99.09    7.70
  -1   6   2   69.99   12.00
   0   6  -2   44.00    5.70
  -1   6  -2    9.60    3.30
 -13   0   3   -0.90    2.60
 -12   0   3    3.80    3.30
 -12   0   3    5.80    2.50
 -12   0   3    0.10    5.80
 -11   0   3   -4.20    6.10
 -11   0   3   -4.60    3.10
 -11   0   3   -0.10    4.10
 -11   0   3    0.80    5.80
 -10   0   3   -1.40    4.20
 -10   0   3   -4.70    6.40
  10   0  -3   -2.90    9.90
  -9   0   3    3.30    6.50
   9   0  -3   -4.80    8.20
  -9   0   3    1.30    3.60
  -9   0   3    1.80    4.40
  -9   0   3   -2.10    5.60
   9   0  -3    2.50   11.40
   8   0  -3    0.80    8.50
   8   0  -3   -2.50    4.00
   8   0  -3   16.10   12.80
  -8   0   3    0.80    6.80
  -8   0   3    1.80    3.10
  -8   0   3    1.70    4.80
  -8   0   3   -2.80    6.10
  -7   0   3   -0.40    4.70
  -7   0   3    3.10    2.70
  -7   0   3   -3.50    6.40
  -7   0   3    5.50    7.00
   7   0  -3    8.60    5.20
  -7   0   3   -6.10    5.30
   6   0  -3   -4.50    3.50
  -6   0   3    8.50    5.90
  -6   0   3   -2.00    2.10
  -5   0   3    2.30    2.90
   5   0  -3   -0.40    2.20
   5   0  -3    2.10    4.10
  -4   0   3    0.50    1.20
  -4   0   3   -1.20    1.90
   4   0  -3   -0.50    1.60
  -4   0   3   -0.10    1.80
   3   0  -3    0.30    0.90
   3   0  -3    0.10    1.20
  -3   0   3    1.40    1.30
  -3   0   3   -0.60    0.80
  -2   0   3    0.50    0.80
   2   0  -3    0.10    1.10
  -2   0   3    0.40    1.10
   1   0  -3   -8.00    0.80
  -1   0   3   -8.40    0.70
  -1   0   3   -7.80    0.50
   1   0  -3   -8.20    0.50
   0   0  -3   -0.50    0.80
   0   0   3    1.60    0.60
   0   0  -3   -0.30    0.50
   0   0   3    0.30    0.80
   1   0   3   -1.60    0.90
  -1   0  -3   -1.30    0.70
   1   0   3   -0.90    1.00
  -1   0  -3   -1.10    1.00
  -2   0  -3    0.50    1.00
   2   0   3    1.50    1.40
  -2   0  -3    1.10    1.20
  -2   0  -3    3.70    1.40
   2   0   3    0.50    1.10
   3   0   3    0.40    1.50
   3   0   3    1.40    2.20
  -4   0  -3   -2.30    2.90
   4   0   3    0.80    2.40
  -5   0  -3    0.90    2.10
   5   0   3   -0.60    4.10
  -6   0  -3    7.40    5.30
  -6   0  -3   -1.20    2.40
  -7   0  -3    5.50    5.10
  -7   0  -3   -1.20    2.90
  -7   0  -3    2.80    4.70
  -8   0  -3    6.80    4.60
  -8   0  -3   -2.20    4.40
  -8   0  -3   -3.90    3.20
  -9   0  -3    3.70    4.50
  -9   0  -3    1.70    4.30
  -9   0  -3    6.60    4.70
 -10   0  -3   -7.10    5.20
  10   0   3   -9.40    5.30
 -10   0  -3   -0.70    2.80
 -10   0  -3    2.40    3.60
 -11   0  -3   -1.90    2.30
 -11   0  -3   -0.50    2.30
  11   0   3    1.70    5.20
 -13  -1   3  105.09    8.20
 -13  -1   3  109.09    7.70
 -13   1   3  108.79    8.30
 -13   1   3  117.49    9.90
  13   1  -3  108.09    9.10
 -12  -1   3   -4.00    6.60
 -12  -1   3    1.90    3.30
 -12  -1   3   -0.20    2.20
 -12  -1   3   -0.40    5.00
 -12   1   3    6.20    3.40
 -12   1   3    5.30    4.90
 -11  -1   3   48.00    8.30
 -11  -1   3   48.30    6.30
  11  -1  -3   49.80    9.10
 -11  -1   3   55.19    7.30
 -11  -1   3   51.89    6.80
 -11   1   3   45.40    7.00
 -11   1   3   48.80    9.80
 -10  -1   3    8.40    3.70
  10  -1  -3   18.20    6.60
 -10  -1   3    5.00    4.20
 -10  -1   3   -1.50    6.60
 -10  -1   3   -1.40    5.50
 -10   1   3    7.00    4.50
 -10   1   3    0.70    6.40
  10   1  -3    4.70    4.00
 -10   1   3   10.90    5.30
  -9  -1   3   -6.80    4.30
   9  -1  -3   -2.40    5.80
   9  -1  -3    7.00    5.70
  -9  -1   3    8.20    5.60
  -9  -1   3   11.00    6.30
  -9  -1   3    2.90    3.00
   9   1  -3    8.20    8.70
   9   1  -3   -0.30    4.00
  -9   1   3    3.90    5.80
  -9   1   3    9.80    6.80
  -9   1   3   -7.20    4.50
  -8  -1   3   52.19    6.70
   8  -1  -3   29.90    7.70
  -8  -1   3   57.89    8.40
  -8  -1   3   50.69    5.20
   8  -1  -3   59.49    9.20
  -8   1   3   31.40   11.80
  -8   1   3   42.50    8.80
   8   1  -3   45.30   10.30
   8   1  -3   44.40    6.30
   7  -1  -3  213.88   17.90
   7  -1  -3  231.28   15.30
   7  -1  -3  194.18   16.60
  -7  -1   3  200.48   17.40
  -7  -1   3  234.08   17.00
  -7  -1   3  209.68   14.30
  -7   1   3  178.38   18.70
   7   1  -3  179.78   19.30
   7   1  -3  221.28   16.20
  -7   1   3  205.18   18.00
  -6  -1   3  186.78   12.10
  -6  -1   3  151.08   13.50
   6  -1  -3  170.78   13.00
   6  -1  -3  193.68   12.80
   6   1  -3  167.48   14.10
  -6   1   3  185.28   15.30
  -5  -1   3  268.57   16.80
  -5  -1   3  273.97   17.40
   5  -1  -3  290.57   17.20
   5  -1  -3  278.47   17.20
  -5  -1   3  250.97   17.30
   5   1  -3  220.08   17.50
  -5   1   3  233.98   18.00
  -5   1   3  261.97   18.70
  -5   1   3  212.88   17.90
   4  -1  -3  278.47   18.80
  -4  -1   3  258.37   16.80
   4  -1  -3  269.87   16.80
  -4  -1   3  260.17   17.00
  -4  -1   3  235.78   16.60
  -4   1   3  225.48   18.00
  -4   1   3  250.77   17.10
   4   1  -3  267.97   17.20
   3  -1  -3  194.98   16.00
  -3  -1   3  222.28   14.80
   3  -1  -3  213.08   14.80
  -3  -1   3  218.68   14.60
   3  -1  -3  215.38   14.60
  -3  -1   3  236.98   14.50
  -3   1   3  225.48   14.20
  -3   1   3  216.38   14.20
   3   1  -3  238.68   14.70
  -3   1   3  223.58   14.70
   3   1  -3  258.87   15.00
  -2  -1   3  341.27   21.90
   2  -1  -3  332.77   21.90
   2  -1  -3  355.56   23.50
  -2  -1   3  326.87   22.00
   2   1  -3  352.86   22.40
   2   1  -3  371.16   22.10
  -2   1   3  330.57   21.90
   2   1  -3  321.17   22.00
   2   1  -3  346.97   21.90
  -1  -1   3  216.58   14.00
   1  -1  -3  202.48   15.60
  -1  -1   3  217.98   13.90
   1  -1  -3  212.58   13.80
  -1   1   3  201.18   13.80
   1   1  -3  207.28   14.00
   1   1  -3  208.68   14.00
   1   1  -3  246.78   14.00
   0  -1   3  361.56   22.60
   0  -1  -3  362.36   22.40
   0  -1   3  339.67   22.60
   0  -1   3  360.26   22.60
   0   1  -3  323.97   22.60
   0   1  -3  365.96   22.70
   0   1   3  333.87   22.40
   0   1  -3  370.56   22.60
  -1  -1  -3  362.36   24.00
  -1  -1  -3  377.96   23.90
   1  -1   3  330.67   24.10
   1  -1   3  423.46   24.10
   1  -1   3  367.06   24.00
   1  -1   3  389.36   24.10
   1  -1   3  351.56   24.00
   1   1   3  351.96   23.80
  -1   1  -3  377.46   24.10
  -1   1  -3  397.46   24.20
  -1   1  -3  400.96   24.10
   1   1   3  390.06   23.80
   2  -1   3  417.16   26.50
   2  -1   3  414.16   26.20
  -2  -1  -3  440.36   26.10
   2  -1   3  397.66   26.40
  -2  -1  -3  406.26   26.20
  -2   1  -3  391.96   26.40
  -2   1  -3  428.06   26.50
   2   1   3  407.66   26.10
   2   1   3  397.96   26.10
  -3  -1  -3  552.24   37.10
   3  -1   3  668.73   37.60
   3  -1   3  524.85   37.20
   3  -1   3  553.74   37.10
   3  -1   3  602.44   37.80
  -3   1  -3  616.24   37.40
   4  -1   3   90.09    7.40
  -4  -1  -3   96.49    6.80
   4  -1   3  100.09    7.70
   4  -1   3   90.89    9.20
  -4   1  -3   95.79    7.40
   5  -1   3   24.60    4.20
  -5  -1  -3   27.20    3.50
  -5   1  -3   26.20    3.90
  -5   1  -3   19.00    8.10
  -6  -1  -3    8.10    9.60
   6  -1   3   17.20    6.30
   6  -1   3    9.80    6.50
  -6  -1  -3   10.30    2.60
  -6  -1  -3   12.30    7.40
   6   1   3   -2.10    8.90
  -6   1  -3    6.20    5.60
  -6   1  -3   19.40    9.80
  -6   1  -3   18.70    5.30
  -6   1  -3   12.70    4.00
  -7  -1  -3   54.39    9.80
  -7  -1  -3   48.60    8.10
   7  -1   3   41.40    7.20
  -7   1  -3   36.60    5.70
   7   1   3   24.70    7.70
  -7   1  -3   44.60    7.70
  -7   1  -3   47.80    8.50
  -7   1  -3   80.99   14.60
  -8  -1  -3    2.70    5.00
  -8  -1  -3    1.30    3.20
   8  -1   3    5.70    6.50
  -8   1  -3    4.80    5.00
  -8   1  -3   -0.90    4.40
   8   1   3    4.70    6.10
  -8   1  -3   10.70    6.30
  -8   1  -3    5.00    9.40
  -9  -1  -3   54.19    8.00
  -9  -1  -3   78.09    9.40
  -9  -1  -3   57.69    7.00
   9  -1   3   70.19   11.60
   9   1   3   68.09   10.20
  -9   1  -3   58.19    8.80
  -9   1  -3   49.20    7.40
 -10  -1  -3  151.08   12.50
 -10  -1  -3  141.09   11.40
 -10  -1  -3  152.48   12.10
  10  -1   3  146.49   15.60
 -10   1  -3  163.78   11.50
  10   1   3  167.28   13.90
 -10   1  -3  137.89   11.90
 -11  -1  -3   49.80    5.00
 -11  -1  -3   45.30    6.40
 -11   1  -3   59.19    8.00
  11   1   3   49.80    7.30
 -11   1  -3   51.29    6.00
 -12  -2   3  178.18   12.80
  12  -2  -3  188.48   13.00
 -12   2   3  169.58   13.50
  12   2  -3  169.88   13.20
 -11  -2   3   95.09    7.80
  11  -2  -3   81.29    8.90
 -11  -2   3   90.39    7.60
 -11  -2   3   77.59    8.90
 -11   2   3   83.59    9.60
 -11   2   3   72.59   10.00
  11   2  -3   84.39   10.20
 -10  -2   3    8.00    4.00
  10  -2  -3   12.20    4.10
  10  -2  -3   11.20    5.40
 -10  -2   3    1.90    3.10
 -10  -2   3   14.20    6.80
 -10   2   3   15.80    6.30
 -10   2   3    7.40    6.30
 -10   2   3   29.10    8.60
  10   2  -3    9.60    3.60
   9  -2  -3   65.69    8.00
  -9  -2   3   49.70    5.80
  -9  -2   3   41.50    6.30
   9  -2  -3   60.59    8.90
   9  -2  -3   64.89   10.40
  -9  -2   3   53.19    8.70
   9   2  -3   53.39    7.40
  -9   2   3   54.59    9.70
  -9   2   3   45.90    9.90
  -9   2   3   52.59    9.20
   9   2  -3   79.19   12.30
   8  -2  -3  120.39   14.50
  -8  -2   3  153.68   13.60
  -8  -2   3  150.48   10.90
  -8  -2   3  168.18   15.60
   8  -2  -3  139.09   12.60
  -8   2   3  175.88   17.50
   8   2  -3  151.38   12.40
   8   2  -3  124.89   15.80
  -8   2   3  160.98   16.50
   7  -2  -3   40.30    5.60
   7  -2  -3   24.40    7.40
   7  -2  -3   29.50    5.90
  -7  -2   3   46.00    4.60
  -7  -2   3   27.80    9.90
   7   2  -3   46.20    7.50
  -7   2   3   34.80   11.40
  -7   2   3   21.60    8.50
  -7   2   3   45.90    9.50
   7   2  -3   40.50    9.80
   6  -2  -3 1642.94  101.69
   6  -2  -3 1765.22  101.19
  -6  -2   3 1763.02  100.79
   6  -2  -3 1479.75  102.19
  -6   2   3 1645.04  102.89
   6   2  -3 1393.96  101.49
  -6   2   3 1705.03  103.09
   6   2  -3 1482.55  102.89
   6   2  -3 1487.05  102.79
  -5  -2   3  360.76   24.40
   5  -2  -3  359.96   23.40
   5  -2  -3  329.57   22.70
  -5  -2   3  332.77   22.30
   5   2  -3  340.77   24.80
   4  -2  -3 1082.19   65.29
   4  -2  -3  889.31   65.09
  -4  -2   3 1150.88   65.99
  -4  -2   3 1018.70   65.19
  -4  -2   3 1124.69   64.89
   4   2  -3 1005.60   65.99
  -4   2   3  927.31   67.99
  -3  -2   3   34.00    5.40
  -3  -2   3   38.40    3.40
   3  -2  -3   35.50    3.80
   3  -2  -3   32.00    4.00
   3  -2  -3   34.60    8.70
  -3  -2   3   33.60    3.80
  -3   2   3   45.00    8.00
   3   2  -3   40.70    5.10
   2  -2  -3  240.48   15.30
  -2  -2   3  238.68   15.30
  -2  -2   3  253.27   15.90
   2  -2  -3  205.08   15.30
  -2  -2   3  215.48   15.10
   2   2  -3  229.88   16.00
   2   2  -3  251.07   17.70
  -1  -2   3   42.60    3.70
  -1  -2   3   44.30    4.10
  -1  -2   3   42.10    3.60
   1  -2  -3   43.20    3.30
   1  -2  -3   31.80    5.40
   1   2  -3   42.00    7.20
   1   2  -3   46.10    6.20
   1   2  -3   44.10    4.60
   0  -2  -3   45.30    5.50
   0  -2  -3   49.40    3.40
   0  -2   3   41.40    4.20
   0  -2  -3   50.99    3.80
   0  -2   3   51.29    4.50
   0  -2   3   50.09    4.20
   0  -2  -3   47.20    9.90
   0  -2   3   48.60    4.10
   0   2  -3   42.60    5.50
   0   2  -3   54.09    5.20
   0   2  -3   48.50    7.70
   1  -2   3  144.09   10.40
  -1  -2  -3  121.69   14.60
   1  -2   3  130.19   10.20
   1  -2   3  154.98   10.10
  -1  -2  -3  153.88   10.30
  -1  -2  -3  154.28   11.00
   1  -2   3  170.48   10.30
  -1   2  -3  157.18   13.80
   2  -2   3  567.24   35.50
  -2  -2  -3  493.85   35.50
   2  -2   3  571.14   35.80
  -2  -2  -3  515.45   39.60
   2  -2   3  574.64   35.20
   2  -2   3  565.04   35.40
  -2   2  -3  574.04   38.60
  -2   2  -3  545.05   35.80
  -3  -2  -3 1229.08   89.59
  -3  -2  -3 1509.35   85.49
   3  -2   3 1352.46   85.59
   3  -2   3 1330.77   85.19
  -3   2  -3 1323.87   88.79
   4  -2   3  171.28   11.90
   4  -2   3  166.78   15.30
   4  -2   3  153.28   14.10
   4  -2   3  170.18   13.30
  -4   2  -3  199.28   15.70
   4   2   3  161.88   13.90
  -4   2  -3  177.98   20.30
   5  -2   3   19.60    6.00
   5  -2   3   23.70    5.70
   5  -2   3    9.70    3.10
  -5  -2  -3   15.60    2.80
   5   2   3    8.80    6.30
  -5   2  -3   23.80   11.30
   5   2   3   22.00   10.60
  -5   2  -3   14.60    7.20
  -5   2  -3   22.20    7.00
   6  -2   3    7.80    5.10
  -6  -2  -3    8.50    2.50
   6  -2   3    4.00    4.50
   6  -2   3    8.70    3.80
   6   2   3    1.20    5.50
  -6   2  -3   -1.70    5.60
  -6   2  -3   16.40    6.50
  -6   2  -3    1.60    9.90
   6   2   3   -6.10    7.70
   7  -2   3   73.69   10.20
  -7  -2  -3   69.49    6.40
   7  -2   3   70.49    8.80
  -7   2  -3   66.29   11.60
  -7   2  -3   61.29   11.40
   7   2   3   58.09    9.70
   7   2   3   50.79    8.90
  -7   2  -3   73.79   10.20
   8  -2   3    0.00    5.10
  -8  -2  -3   -0.50    3.10
   8  -2   3   -1.30    4.90
  -8  -2  -3    2.30    7.30
  -8   2  -3   -3.80    9.50
   8   2   3   -5.20    5.90
  -8   2  -3   11.10    5.70
  -8   2  -3    0.60    6.90
   8   2   3   -0.30    6.70
  -9  -2  -3   85.79    9.10
  -9  -2  -3   95.09    8.50
  -9  -2  -3  102.49   11.80
   9  -2   3   98.49   10.30
   9   2   3  103.19   10.70
  -9   2  -3   90.79   10.10
  -9   2  -3  106.69   12.40
  -9   2  -3  108.69   13.80
 -10  -2  -3    9.00    3.00
  10  -2   3    9.60    4.50
 -10  -2  -3    5.60    3.90
 -10  -2  -3   -1.10    4.60
 -10   2  -3    4.50    7.10
  10   2   3    0.10    5.10
 -10   2  -3    3.90    5.00
 -11  -2  -3   77.29    9.60
 -11  -2  -3   69.79    5.90
  11   2   3   70.59    7.60
 -11  -3   3   73.29    6.40
 -11  -3   3   61.19    7.20
 -11   3   3   68.89    7.30
  11   3  -3   62.09    8.80
  10  -3  -3    6.50    2.90
  10  -3  -3   12.70    4.20
 -10  -3   3    5.90    3.90
 -10  -3   3    8.00    3.40
  10   3  -3   17.00    6.70
 -10   3   3   11.60    5.20
  10   3  -3   12.10    3.20
   9  -3  -3   65.89    9.30
   9  -3  -3   49.60    8.10
  -9  -3   3   69.69    8.90
  -9  -3   3   48.80    6.00
   9  -3  -3   55.19    6.80
   9   3  -3   80.09   12.10
   9   3  -3   67.39    7.30
  -9   3   3   63.89    8.90
   8  -3  -3  618.84   39.80
   8  -3  -3  605.64   39.60
  -8  -3   3  672.73   39.20
  -8  -3   3  577.54   43.10
   8  -3  -3  578.04   40.80
   8   3  -3  632.84   40.20
   8   3  -3  580.14   42.00
  -8   3   3  602.14   41.60
  -8   3   3  569.94   41.70
   7  -3  -3   53.59    9.10
   7  -3  -3   46.90    8.30
  -7  -3   3   60.89    5.70
   7  -3  -3   55.29    6.60
  -7   3   3   55.69   10.10
   7   3  -3   35.10   10.80
  -7   3   3   57.99    9.70
   7   3  -3   59.49    7.90
   7   3  -3   53.99   11.50
   6  -3  -3   19.20    7.80
  -6  -3   3   26.40    4.20
   6  -3  -3   29.30    4.80
   6  -3  -3   19.10    5.90
  -6   3   3   22.90    8.00
  -6   3   3   18.60    7.30
   6   3  -3   13.10    5.00
   6   3  -3   23.00    9.90
   5  -3  -3  281.37   24.50
   5  -3  -3  258.27   23.90
   5  -3  -3  270.77   19.90
  -5  -3   3  303.97   19.50
   5   3  -3  299.57   21.00
  -5   3   3  334.77   23.00
   5   3  -3  295.97   23.80
  -5   3   3  324.97   23.80
  -5   3   3  283.87   22.10
   5   3  -3  296.87   24.80
   4  -3  -3  611.94   38.50
  -4  -3   3  643.64   37.90
  -4   3   3  612.54   40.50
  -4   3   3  549.45   40.30
   4   3  -3  556.84   41.70
   4   3  -3  556.24   42.40
   4   3  -3  615.04   39.30
  -4   3   3  596.24   41.00
  -3  -3   3   39.20    4.90
  -3  -3   3   39.20    3.90
   3  -3  -3   31.90    4.90
  -3   3   3   17.90   10.10
   3   3  -3   42.50    6.10
  -3   3   3   32.60    8.40
   3   3  -3   32.60   10.80
  -3   3   3   33.40    8.20
  -2  -3   3  248.88   17.40
   2  -3  -3  251.27   17.60
   2  -3  -3  244.58   17.60
  -2  -3   3  267.57   19.80
  -2  -3   3  274.07   17.20
  -2   3   3  277.17   20.90
   2   3  -3  285.27   19.00
  -1  -3   3   13.70    4.50
  -1  -3   3    4.00    3.30
  -1  -3   3    8.30    2.00
   1   3  -3    9.40   14.50
   1   3  -3    0.30    4.70
   0  -3   3   87.79    6.60
   0  -3   3   96.39    9.80
   0  -3   3   89.09    7.70
   0   3  -3   71.49   20.70
   0   3  -3   98.99   10.00
   0   3  -3   72.19   10.40
   1  -3   3   74.79    7.10
   1  -3   3   49.80    9.30
   1  -3   3   68.99    5.60
  -1   3  -3   86.09    9.30
   1   3   3   67.79   11.30
  -1   3  -3   65.09    9.50
   2  -3   3  442.26   27.70
   2  -3   3  407.66   30.70
   2   3   3  416.66   30.90
   2   3   3  425.76   30.20
  -2   3  -3  437.36   29.50
   3  -3   3  206.88   14.60
   3  -3   3  254.57   17.80
   3  -3   3  237.38   18.00
   3   3   3  208.98   17.60
   3   3   3  169.18   19.70
  -3   3  -3  213.18   17.00
   4  -3   3  289.17   18.60
   4  -3   3  273.67   19.90
   4  -3   3  294.87   20.70
  -4   3  -3  227.58   20.00
   4   3   3  290.77   20.60
   5  -3   3  247.58   19.80
   5  -3   3  288.17   19.40
   5  -3   3  244.88   18.40
  -5  -3  -3  300.27   18.00
   5   3   3  225.38   21.80
   5   3   3  289.07   20.40
  -5   3  -3  273.97   20.40
   6  -3   3  512.55   33.60
   6  -3   3  564.34   33.60
  -6  -3  -3  471.15   32.80
   6  -3   3  517.75   34.50
   6   3   3  489.85   34.70
  -6   3  -3  497.85   34.70
   6   3   3  497.85   35.40
   7  -3   3    8.70    4.30
   7  -3   3    9.90    5.00
   7  -3   3   22.80    5.20
  -7  -3  -3   14.30    3.40
   7   3   3   14.50    6.80
  -7   3  -3   16.20    6.10
   7   3   3   18.70    6.30
   8  -3   3   13.70    4.50
   8  -3   3   15.40    3.80
  -8  -3  -3   12.80    3.60
  -8   3  -3    4.70    5.00
   8   3   3    6.30    5.40
   8   3   3    7.70    6.50
  -9  -3  -3   27.00    4.90
   9  -3   3   24.00    4.80
  -9  -3  -3   28.00    4.40
  -9   3  -3   22.00    5.60
   9   3   3   12.90    5.30
  10  -3   3   81.39    7.20
 -10  -3  -3   76.39    7.10
  10   3   3   78.99    8.60
 -10   3  -3   74.09    7.20
 -10   3  -3   86.39    9.90
  10  -4  -3   26.40    3.00
  10  -4  -3   18.50    3.30
 -10  -4   3   21.90    4.50
 -10   4   3   18.30    4.00
 -10   4   3   19.20    3.40
  10   4  -3   29.30    4.10
   9  -4  -3   -7.60    5.80
   9  -4  -3    5.70    3.40
   9  -4  -3    6.50    2.40
  -9  -4   3   10.80    3.90
  -9  -4   3    7.40    5.20
  -9   4   3    3.20    4.10
  -9   4   3    2.70    3.60
   9   4  -3    3.40    2.60
   8  -4  -3   27.10    4.10
   8  -4  -3   12.90    4.90
   8  -4  -3   19.50    4.70
   8   4  -3   22.50    4.10
  -8   4   3   12.10    5.80
   7  -4  -3   22.20    6.00
   7  -4  -3   14.30    3.80
  -7  -4   3   19.20    3.60
   7  -4  -3   20.70    4.30
  -7   4   3   21.70    6.90
   7   4  -3   21.50    4.10
   6  -4  -3   39.10    8.10
   6  -4  -3   53.69    8.70
   6  -4  -3   36.40    5.90
  -6  -4   3   35.60    5.50
  -6   4   3   44.80    7.40
  -6   4   3   42.60    9.10
   6   4  -3   37.30    6.80
   5  -4  -3  243.48   19.60
   5  -4  -3  217.28   16.90
  -5  -4   3  239.78   16.40
   5  -4  -3  288.07   22.50
  -5   4   3  222.08   19.00
   5   4  -3  236.18   17.70
  -5   4   3  270.27   21.00
  -4  -4   3    3.30    2.60
   4  -4  -3    0.40    2.90
  -4   4   3   -0.70    7.60
  -4   4   3  -10.30    6.90
   4   4  -3    0.80    3.90
  -3  -4   3   23.10    4.00
   3  -4  -3   22.50    4.00
  -3   4   3   29.30    7.40
   3   4  -3   25.70    5.20
  -3   4   3   13.90    8.50
   3   4  -3   11.50   12.00
  -2  -4   3  222.48   14.90
   2  -4  -3  216.48   15.40
  -2   4   3  193.98   18.20
  -2   4   3  259.97   20.50
   2   4  -3  231.38   16.50
   2   4  -3  189.08   23.70
  -1  -4   3   84.09    6.50
   1  -4  -3   69.49    8.00
  -1   4   3   85.39   13.40
   1   4  -3   78.89    8.40
  -1   4   3   86.39   11.60
   0  -4   3   42.80    4.50
   0   4   3   36.40    8.20
   0   4   3   31.80    7.70
   1  -4   3  235.78   16.20
   1   4   3  215.28   19.20
   1   4   3  279.67   19.90
  -1   4  -3  233.08   17.40
   2  -4   3    2.00    2.40
   2  -4   3    8.50    6.00
   2  -4   3   10.00    6.80
   2   4   3   -1.10    6.20
  -2   4  -3    1.80    4.30
  -2   4  -3   -6.20    4.60
   2   4   3   -8.80    7.10
   3  -4   3  491.75   32.30
   3  -4   3  449.76   32.60
   3  -4   3  505.65   31.50
   3   4   3  496.55   33.40
   3   4   3  440.26   33.90
  -3   4  -3  497.65   33.00
  -3   4  -3  484.05   32.30
   4  -4   3   26.20    5.10
   4  -4   3   17.70    5.60
   4  -4   3    8.50    3.10
   4   4   3   17.70    6.20
   4   4   3   14.30    8.00
  -4   4  -3   12.30    5.40
  -4   4  -3   20.00    5.20
   5  -4   3   50.79    6.10
   5  -4   3   40.70    7.00
  -5   4  -3   48.10    7.20
   5   4   3   35.90    6.80
   5   4   3   36.80    8.10
  -5   4  -3   46.10    8.00
   6  -4   3  105.29   10.60
   6  -4   3  118.39    9.70
   6   4   3  116.39   12.30
   6   4   3  109.79   16.40
  -6   4  -3  114.39   10.20
  -6   4  -3  133.39   11.50
   7  -4   3   72.89    7.80
   7  -4   3   65.69    6.50
   7  -4   3   56.69    9.20
  -7   4  -3   58.59    7.80
   7   4   3   80.69    9.70
  -7   4  -3   83.49    9.00
   8  -4   3   67.69    5.30
   8  -4   3   51.29    6.10
  -8   4  -3   59.49    7.50
  -8   4  -3   53.59    6.20
   8   4   3   43.40    8.70
   7  -5  -3    1.70    2.50
   7  -5  -3    5.00    5.70
   7   5  -3    3.30    2.60
  -7   5   3    5.80    3.30
   6  -5  -3   13.80    3.80
   6   5  -3   10.80    3.00
  -6   5   3   19.20    4.50
   5  -5  -3   10.60    3.70
   5  -5  -3   10.70    4.50
   5   5  -3   10.40    3.40
  -5   5   3   12.40    4.50
   4  -5  -3   -0.40    3.30
  -4  -5   3    0.00    3.90
   4  -5  -3    1.50    6.10
  -4   5   3    7.20    5.30
   4   5  -3    6.30    3.50
  -3  -5   3   86.19    7.50
   3  -5  -3   87.19    8.00
   3   5  -3   87.59    7.90
  -3   5   3   62.69   10.20
   2  -5  -3   -0.20    3.60
  -2  -5   3    0.00    2.80
   2   5  -3   -3.40    3.10
  -2   5   3   -7.00    6.10
  -1  -5   3   26.50    3.70
  -1   5   3   38.70    7.40
   1   5  -3   36.70    5.60
   0  -5   3    2.40    2.60
   0   5   3    9.70    6.60
   0   5  -3    5.30    3.40
   1  -5   3  150.38   11.00
   1  -5   3  143.89   12.60
   1   5   3  119.29   14.70
  -1   5  -3  181.98   11.90
   2  -5   3   50.19    5.80
   2  -5   3   54.19    6.80
  -2   5  -3   56.89    7.00
   3  -5   3    2.90    2.70
   3  -5   3    2.70    3.20
   3   5   3    1.10    7.90
  -3   5  -3    4.50    3.40
   4  -5   3   18.40    4.60
   4  -5   3    5.80    3.30
   4  -5   3   10.70    2.90
  -4   5  -3   10.70    3.60
   5  -5   3    2.00    2.30
   5  -5   3    3.20    3.90
   5  -5   3    6.10    3.70
  -5   5  -3    1.60    3.00
   6  -5   3   34.50    4.50
   6  -5   3   24.80    3.90
  -6   5  -3   32.10    5.30
 -13   0   4    2.70    2.30
 -13   0   4    5.00    4.60
 -12   0   4  110.09   10.90
 -12   0   4  102.79    9.40
 -12   0   4  110.59    8.20
 -11   0   4  170.98   15.80
 -11   0   4  172.68   14.50
 -11   0   4  158.18   13.30
 -10   0   4    0.50    4.50
 -10   0   4   -2.20    5.70
  10   0  -4    7.50    8.60
 -10   0   4   -4.80    4.10
  -9   0   4  223.48   18.70
  -9   0   4  210.58   16.30
   9   0  -4  239.98   19.70
  -9   0   4  250.27   17.80
  -9   0   4  232.98   16.20
   9   0  -4  216.98   20.90
  -8   0   4   97.59   10.30
   8   0  -4   92.99   18.60
   8   0  -4   97.59   15.30
  -8   0   4  124.99    9.20
  -8   0   4  111.09   11.50
  -8   0   4  113.59   12.50
   8   0  -4  109.69   10.30
   7   0  -4 2099.39  138.49
  -7   0   4 2288.47  137.39
  -7   0   4 2123.19  137.99
  -7   0   4 2066.99  137.69
  -7   0   4 2249.77  137.49
   7   0  -4 2247.28  137.99
   6   0  -4  418.46   28.70
  -5   0   4  372.86   22.10
   5   0  -4  343.77   22.20
  -5   0   4  312.47   21.50
   5   0  -4  294.57   21.60
  -4   0   4   17.60    2.50
   4   0  -4   18.80    3.60
  -4   0   4   22.10    3.10
   4   0  -4   20.60    2.90
  -4   0   4   17.60    2.70
  -3   0   4  206.88   14.20
  -3   0   4  221.08   14.20
   3   0  -4  207.38   14.10
   3   0  -4  237.48   14.60
   3   0  -4  206.08   14.30
  -3   0   4  210.88   14.00
  -2   0   4 2525.95  160.08
   2   0  -4 2663.33  160.18
  -2   0   4 2591.94  159.98
   2   0  -4 2427.86  159.98
  -1   0   4 1517.25   89.89
  -1   0   4 1555.24   89.79
   1   0  -4 1387.56   89.89
   1   0  -4 1258.07   89.69
   0   0   4  572.64   36.70
   0   0  -4  623.44   36.60
   0   0  -4  519.15   36.70
   0   0   4  603.24   36.60
  -1   0  -4  699.03   44.60
  -1   0  -4  712.33   44.70
  -1   0  -4  752.72   44.40
   1   0   4  765.02   44.70
   1   0   4  651.73   44.60
  -1   0  -4  651.33   44.50
  -2   0  -4 4750.92  286.27
   2   0   4 4633.04  286.17
  -2   0  -4 4409.96  286.07
   2   0   4 4463.05  286.17
  -5   0  -4  380.86   24.80
  -6   0  -4  224.28   16.00
  -6   0  -4  212.48   14.70
  -6   0  -4  197.68   16.20
  -7   0  -4 1142.59   73.29
  -7   0  -4 1152.78   73.69
  -7   0  -4 1151.28   73.19
  -8   0  -4  140.39   12.30
   8   0   4  130.99   13.40
  -8   0  -4  123.39   11.10
  -8   0  -4  147.59   11.60
   9   0   4  464.65   31.00
  -9   0  -4  434.16   29.60
  -9   0  -4  422.76   29.10
  -9   0  -4  440.76   29.90
 -10   0  -4  148.09   11.10
 -10   0  -4  153.48   13.70
  10   0   4  139.19   13.70
 -10   0  -4  163.38   12.10
  11   0   4   22.90    6.00
 -11   0  -4   26.80    4.00
 -11   0  -4   27.10    3.80
 -13  -1   4    6.70    2.30
 -13  -1   4    9.50    2.00
 -13   1   4    4.10    3.90
  13   1  -4   13.50    3.50
 -13   1   4    8.00    3.70
 -12  -1   4   39.30    6.70
  12  -1  -4   55.49    8.20
 -12  -1   4   55.89    9.00
 -12  -1   4   50.49    6.50
 -12   1   4   59.69    8.00
 -12   1   4   47.30    6.20
 -11  -1   4  168.88   14.30
 -11  -1   4  155.58   12.70
 -11  -1   4  160.58   12.20
  11  -1  -4  165.28   14.00
 -11   1   4  185.38   13.30
 -11   1   4  162.68   14.20
  10  -1  -4  467.85   29.90
 -10  -1   4  418.56   28.20
 -10  -1   4  426.16   30.00
 -10  -1   4  408.26   28.20
 -10  -1   4  418.46   29.30
  10   1  -4  448.96   28.80
  10   1  -4  428.26   31.30
 -10   1   4  407.36   30.40
 -10   1   4  417.46   28.20
 -10   1   4  421.26   29.30
  -9  -1   4   35.10    5.10
  -9  -1   4   42.80    7.30
   9  -1  -4   33.50    7.20
  -9  -1   4   33.10    5.30
   9  -1  -4   33.60    5.70
  -9  -1   4   34.50    6.50
  -9   1   4   27.50    9.60
  -9   1   4   38.20    7.60
   9   1  -4   31.90    5.30
   9   1  -4   43.90    9.80
  -8  -1   4   27.80    5.30
  -8  -1   4   32.80    6.30
   8  -1  -4   12.80    5.60
   8  -1  -4   12.10    5.50
   8  -1  -4   29.20    6.90
  -8   1   4   24.60    9.50
  -8   1   4   25.30    7.90
   8   1  -4   25.80    8.70
   8   1  -4   31.90    5.30
  -8   1   4   19.10    7.50
   7  -1  -4  479.65   32.50
   7  -1  -4  476.55   33.40
  -7  -1   4  501.45   31.20
   7  -1  -4  503.95   31.70
  -7  -1   4  498.15   33.00
  -7  -1   4  445.96   32.30
  -7   1   4  557.14   34.60
  -7   1   4  464.75   32.90
   7   1  -4  440.46   32.30
   7   1  -4  407.46   34.30
  -7   1   4  533.65   35.40
   6  -1  -4 1274.47   74.69
  -6  -1   4 1253.87   74.39
  -6  -1   4 1182.98   75.09
   6  -1  -4 1134.19   74.99
   6   1  -4 1031.90   75.49
  -5  -1   4  543.45   38.20
  -5  -1   4  635.84   38.80
   5  -1  -4  681.03   38.60
   5  -1  -4  547.35   38.50
  -5  -1   4  624.84   38.80
   5   1  -4  569.74   39.20
  -4  -1   4  788.02   49.00
   4  -1  -4  819.32   50.59
   4  -1  -4  821.52   48.90
  -4  -1   4  742.83   48.80
   4   1  -4  786.42   49.30
  -4   1   4  646.04   48.90
  -3  -1   4  248.58   15.50
  -3  -1   4  224.58   15.00
  -3  -1   4  233.48   15.30
   3  -1  -4  215.28   15.30
   3  -1  -4  227.38   17.00
   3  -1  -4  245.58   15.30
   3   1  -4  231.78   15.60
   3   1  -4  247.48   15.30
  -3   1   4  207.58   15.40
   3   1  -4  236.68   15.30
  -2  -1   4 1510.25   94.09
   2  -1  -4 1476.45   93.99
   2  -1  -4 1430.96   94.09
  -2  -1   4 1400.76   94.09
   2  -1  -4 1400.56   95.69
  -2  -1   4 1534.25   93.89
   2   1  -4 1599.44   94.29
   2   1  -4 1527.35   94.09
  -2   1   4 1459.65   94.09
   2   1  -4 1612.64   94.29
  -1  -1   4  100.49    7.20
  -1  -1   4  115.29    7.30
   1  -1  -4  102.39    6.80
   1  -1  -4  100.49    7.20
  -1  -1   4  109.29    7.30
   1  -1  -4   89.79    9.10
   1   1  -4  102.59    7.40
   1   1  -4  111.99    7.30
  -1   1   4  105.39    7.20
   1   1  -4  124.29    7.50
   0  -1  -4   13.20    1.70
   0  -1  -4   15.20    1.50
   0  -1   4   14.90    2.00
   0  -1   4   14.90    2.40
   0  -1   4   15.00    2.00
   0   1  -4   13.00    2.10
   0   1  -4   16.50    2.10
   0   1  -4   11.90    2.20
   0   1   4   14.00    1.80
   1  -1   4 2639.64  184.88
   1  -1   4 3006.80  185.08
   1  -1   4 2892.51  185.08
  -1  -1  -4 2764.92  184.88
   1  -1   4 3085.29  185.18
  -1   1  -4 2892.71  184.98
   1   1   4 3084.89  184.78
  -1   1  -4 3170.18  185.18
  -1   1  -4 3036.90  185.08
   1   1   4 2921.71  184.78
   2  -1   4  292.37   22.10
   2  -1   4  323.17   22.10
   2  -1   4  357.56   21.90
  -2  -1  -4  390.36   21.90
  -2  -1  -4  346.87   21.60
  -2  -1  -4  310.37   21.70
  -2   1  -4  337.87   22.00
  -2   1  -4  341.67   22.20
   2   1   4  349.87   21.90
   3  -1   4   20.20    3.50
  -3  -1  -4   16.80    2.70
   3  -1   4   18.70    4.60
   4  -1   4  551.44   37.10
  -4  -1  -4  602.94   36.90
  -4   1  -4  580.74   37.10
   5  -1   4  414.96   29.90
  -5  -1  -4  460.45   27.90
   5  -1   4  471.65   29.20
  -5   1  -4  443.36   28.20
   5   1   4  388.96   29.80
  -5   1  -4  410.96   29.00
  -5   1  -4  422.06   28.80
   6  -1   4   -5.20    6.70
  -6  -1  -4    1.10    2.50
   6  -1   4   -1.00    6.20
  -6  -1  -4    6.00    6.20
  -6   1  -4    5.30    4.70
  -6   1  -4   -1.50    4.40
   6   1   4    7.50    5.70
  -6   1  -4    7.40    4.00
  -7  -1  -4  199.78   16.10
  -7  -1  -4  219.38   14.50
  -7   1  -4  197.88   15.40
  -7   1  -4  199.48   15.20
  -7   1  -4  204.18   15.80
   7   1   4  194.18   16.80
  -8  -1  -4  175.08   13.40
   8  -1   4  180.68   15.70
  -8  -1  -4  162.78   14.00
  -8  -1  -4  160.68   12.30
  -8   1  -4  149.39   12.90
  -8   1  -4  175.78   13.50
  -8   1  -4  145.79   15.90
   8   1   4  156.98   14.50
  -9  -1  -4   16.10    3.90
  -9  -1  -4    3.30    3.40
   9  -1   4    4.00    6.80
  -9  -1  -4    5.10    4.20
  -9   1  -4    8.60    3.90
  -9   1  -4    6.60    3.80
   9   1   4    7.90    5.50
 -10  -1  -4   13.00    3.30
 -10  -1  -4   14.90    4.80
 -10  -1  -4    9.20    3.60
 -10   1  -4   11.60    5.40
 -10   1  -4   15.10    5.40
  10   1   4   19.20    5.50
 -11  -1  -4  164.18   10.50
 -11  -1  -4  147.29   11.30
  11   1   4  153.88   12.40
 -11   1  -4  150.48   11.80
 -11   1  -4  141.09   11.00
 -12  -2   4   36.20    5.60
 -12  -2   4   31.40    5.40
 -12   2   4   23.50    4.60
  12   2  -4   35.00    5.90
  11  -2  -4  149.29   12.00
 -11  -2   4  145.89   13.30
 -11  -2   4  127.29   11.10
 -11  -2   4  145.99   10.90
  11   2  -4  158.58   11.40
  11   2  -4  164.68   13.30
 -11   2   4  138.49   14.10
 -11   2   4  138.69   12.90
 -10  -2   4    2.00    5.60
  10  -2  -4    3.10    4.90
 -10  -2   4    8.90    5.50
  10  -2  -4    8.00    3.80
 -10  -2   4    4.80    2.90
 -10  -2   4    3.70    3.80
 -10   2   4    7.80    7.60
  10   2  -4    0.20    7.40
 -10   2   4   13.50    6.80
  10   2  -4    6.80    3.70
 -10   2   4    0.20    6.20
   9  -2  -4  106.19   10.10
  -9  -2   4  107.39   12.40
  -9  -2   4  118.09   10.40
   9  -2  -4  116.19   12.30
  -9   2   4  105.09   14.10
  -9   2   4  127.69   15.50
   9   2  -4   99.69   10.30
   9   2  -4   90.99   14.00
  -9   2   4  115.49   14.50
   8  -2  -4   -4.60    4.20
   8  -2  -4    7.80    6.10
  -8  -2   4    2.40    2.70
  -8  -2   4   -1.90    6.20
   8  -2  -4   -1.40    3.50
  -8  -2   4    9.10    5.20
   8   2  -4    3.80    4.20
  -8   2   4   -0.90    9.10
  -8   2   4   -7.50    6.90
   8   2  -4   -5.80    8.00
  -8   2   4    2.60    7.60
  -7  -2   4  396.46   23.30
   7  -2  -4  360.76   26.30
   7  -2  -4  392.76   23.90
  -7  -2   4  351.86   26.10
  -7  -2   4  347.37   25.50
   7  -2  -4  402.96   24.70
  -7   2   4  334.87   27.10
  -7   2   4  305.67   26.80
   7   2  -4  325.37   24.50
  -7   2   4  277.77   30.10
   7   2  -4  342.97   27.00
   6  -2  -4  100.09   11.70
  -6  -2   4  108.29    8.00
   6  -2  -4   91.89   14.10
   6  -2  -4  110.99    8.60
  -6   2   4   99.09   13.60
   6   2  -4   76.29   15.20
   6   2  -4  103.79   10.70
   6   2  -4  125.19   12.80
  -6   2   4   87.39   13.00
  -6   2   4  129.09   11.40
  -5  -2   4  799.32   50.29
   5  -2  -4  759.32   49.70
   5  -2  -4  814.52   49.30
  -5  -2   4  770.42   48.90
  -5   2   4  720.43   51.19
   5   2  -4  794.32   50.99
   5   2  -4  708.03   49.90
   5   2  -4  785.52   51.19
  -4  -2   4  255.67   17.30
   4  -2  -4  205.58   15.80
  -4  -2   4  243.18   16.30
  -4  -2   4  255.67   15.50
   4  -2  -4  233.78   16.20
   4   2  -4  223.88   17.60
   3  -2  -4  120.79    8.70
  -3  -2   4  115.29    9.60
  -3  -2   4  113.99    8.90
  -3  -2   4  130.19    8.20
   3  -2  -4  104.99    8.50
   3   2  -4  130.69   10.20
  -2  -2   4  402.96   24.80
   2  -2  -4  395.16   24.70
  -2  -2   4  362.06   24.50
  -2  -2   4  406.06   25.20
   2  -2  -4  357.86   24.60
   2  -2  -4  391.26   29.30
   2   2  -4  350.86   25.60
   2   2  -4  352.76   25.30
   2   2  -4  431.86   27.40
  -1  -2   4  233.58   16.00
   1  -2  -4  250.57   15.70
  -1  -2   4  239.78   15.70
   1  -2  -4  236.48   16.90
  -1  -2   4  257.07   16.30
   1   2  -4  246.08   16.70
   1   2  -4  242.18   19.10
   1   2  -4  226.58   16.80
   0  -2   4   54.39    5.30
   0  -2   4   63.09    5.10
   0  -2   4   54.09    6.20
   0  -2  -4   44.40   11.70
   0  -2  -4   51.89    6.50
   0  -2   4   69.89    4.70
   0  -2  -4   56.39    4.50
   0  -2  -4   65.39    4.20
   0  -2   4   57.09    5.30
   0   2  -4   67.49    9.50
   0   2  -4   47.80    6.20
  -1  -2  -4   56.29   14.30
   1  -2   4   72.99    7.20
   1  -2   4   86.79    6.60
  -1  -2  -4   79.99    7.40
   1  -2   4   80.29    6.80
   1  -2   4   71.89    5.70
   1  -2   4   86.99    6.60
  -1   2  -4   68.19    7.80
  -1   2  -4   69.29   10.30
   2  -2   4 2126.29  137.89
  -2  -2  -4 2250.47  138.29
   2  -2   4 2265.87  138.39
   2  -2   4 2222.68  138.49
   2  -2   4 2009.20  138.59
  -2   2  -4 2290.67  141.89
  -3  -2  -4  940.31   55.59
   3  -2   4  884.21   55.89
   3  -2   4  901.61   56.69
  -3   2  -4  792.62   60.19
   4  -2   4   50.39    8.20
   4  -2   4   36.90    4.70
   4  -2   4   36.40    6.70
  -4  -2  -4   41.20    4.20
   4  -2   4   51.19    8.50
   4   2   4   38.00    7.30
  -4   2  -4   27.30   10.10
  -4   2  -4   37.70    8.10
  -4   2  -4   46.50    7.60
   5  -2   4  294.07   18.80
   5  -2   4  267.37   19.40
  -5  -2  -4  287.87   18.30
   5  -2   4  280.07   20.20
  -5   2  -4  255.37   22.40
  -5   2  -4  290.47   20.60
  -5   2  -4  247.38   21.50
   5   2   4  266.27   20.50
   6  -2   4  244.68   18.20
  -6  -2  -4  265.97   17.30
   6  -2   4  267.67   19.20
  -6   2  -4  225.18   21.30
  -6   2  -4  290.67   19.40
   6   2   4  234.38   19.30
  -7  -2  -4  192.68   13.90
   7  -2   4  202.08   15.90
   7  -2   4  186.28   15.00
  -7   2  -4  189.08   16.90
   7   2   4  221.28   16.80
  -7   2  -4  190.18   18.20
  -7   2  -4  192.48   16.00
   8  -2   4  189.08   15.10
  -8  -2  -4  179.18   13.00
  -8  -2  -4  184.98   14.20
  -8  -2  -4  173.48   15.90
  -8   2  -4  181.28   17.30
  -8   2  -4  178.78   16.50
  -8   2  -4  157.68   14.50
   8   2   4  178.98   15.70
   9  -2   4   14.80    4.80
  -9  -2  -4   15.00    5.80
  -9  -2  -4   18.00    3.70
  -9   2  -4   11.20    4.70
  -9   2  -4   15.70    7.40
   9   2   4   30.40    6.40
  -9   2  -4   14.40    7.60
 -10  -2  -4  226.58   15.70
 -10  -2  -4  222.18   18.60
 -10  -2  -4  221.98   15.00
 -10   2  -4  215.48   15.60
  10   2   4  209.08   16.20
 -11  -3   4   29.10    3.60
  11  -3  -4   28.50    5.00
 -11  -3   4   20.50    3.80
  11   3  -4   30.50    6.30
 -11   3   4   30.30    5.80
  11   3  -4   31.10    4.40
 -10  -3   4   43.10    6.60
 -10  -3   4   70.09   10.90
  10  -3  -4   57.29    7.60
  10  -3  -4   48.00    5.90
 -10  -3   4   51.79    6.10
 -10   3   4   49.80    8.70
  10   3  -4   61.69    6.40
  10   3  -4   58.29   10.30
   9  -3  -4    5.20    3.80
  -9  -3   4    1.30    4.50
   9  -3  -4    5.70    4.50
   9  -3  -4    8.50    4.80
  -9  -3   4   17.60    9.70
   9   3  -4    9.00    7.70
   9   3  -4    8.50    3.60
  -9   3   4    2.80    6.10
  -9   3   4    9.50    6.30
   8  -3  -4  386.76   28.90
  -8  -3   4  426.06   26.60
   8  -3  -4  452.45   27.40
   8  -3  -4  414.56   27.10
  -8  -3   4  396.96   27.80
   8   3  -4  359.16   30.60
   8   3  -4  397.76   30.10
  -8   3   4  384.26   29.40
   8   3  -4  405.66   27.50
  -8   3   4  398.76   30.10
   7  -3  -4  728.73   51.59
  -7  -3   4  841.12   49.70
   7  -3  -4  820.22   50.19
   7  -3  -4  877.01   50.59
   7   3  -4  711.83   52.59
  -7   3   4  690.73   52.49
  -7   3   4  838.22   52.39
   7   3  -4  682.93   50.39
  -6  -3   4    1.30    2.40
   6  -3  -4    4.30    3.00
   6  -3  -4   -8.40    6.80
   6  -3  -4    6.60    6.00
  -6   3   4   13.10    8.40
  -6   3   4    7.20    7.10
  -6   3   4    6.00    5.70
   6   3  -4   10.00    9.70
   6   3  -4   -3.90    4.00
   5  -3  -4  424.86   31.30
   5  -3  -4  453.35   28.50
  -5  -3   4  437.86   27.90
   5   3  -4  416.06   29.10
  -5   3   4  432.46   32.40
  -5   3   4  453.35   31.30
   5   3  -4  426.86   31.20
  -5   3   4  418.16   29.80
   5   3  -4  403.46   32.90
   4  -3  -4   79.79    7.20
  -4  -3   4   79.59    6.40
  -4   3   4   93.99   12.60
   4   3  -4   85.69   13.90
  -4   3   4   77.19   15.50
   4   3  -4   75.29    9.00
  -4   3   4   82.79   11.00
   4   3  -4   92.39   17.90
  -3  -3   4  146.59   10.10
   3  -3  -4  146.89   10.80
  -3   3   4  116.19   14.80
  -3   3   4  154.78   20.20
   3   3  -4  155.08   12.40
  -3   3   4  154.78   15.90
   3   3  -4  156.98   16.70
  -2  -3   4  406.26   24.20
   2  -3  -4  368.46   24.50
   2  -3  -4  365.86   24.50
   2   3  -4  372.56   25.50
  -2   3   4  370.86   27.60
  -2   3   4  351.76   27.10
   2   3  -4  377.16   28.80
   1  -3  -4  103.59    9.10
  -1  -3   4  119.29    8.40
  -1  -3   4  116.39    9.50
  -1   3   4  142.29   12.70
   1   3  -4  122.09   10.90
   1   3  -4  115.09   17.80
   1   3  -4  110.09   24.70
   0  -3   4  906.01   53.49
   0  -3   4  769.32   50.49
   0   3   4  773.12   52.09
   0   3  -4  856.51   51.99
   0   3  -4  789.92   51.49
   0   3  -4  677.43   53.59
   1  -3   4    4.40    8.40
   1  -3   4    6.30    2.10
  -1   3  -4    3.10    5.40
   1   3   4    0.60    6.00
  -1   3  -4   11.60    5.40
  -1   3  -4    5.80   14.20
   2  -3   4  160.88   14.70
   2  -3   4  152.58   10.80
   2  -3   4  144.79   14.30
  -2   3  -4  129.99   23.00
  -2   3  -4  156.28   13.20
  -2   3  -4  151.28   13.50
   2   3   4  163.78   13.90
   3  -3   4  181.28   15.10
   3  -3   4  178.18   14.60
   3  -3   4  208.88   12.90
   3   3   4  171.48   15.30
  -3   3  -4  177.88   14.90
  -3   3  -4  150.28   24.10
   4  -3   4  189.68   14.40
   4  -3   4  192.58   12.60
  -4  -3  -4  167.78   13.20
   4  -3   4  174.58   13.70
  -4   3  -4  148.59   21.90
   4   3   4  166.68   14.50
  -4   3  -4  165.18   14.30
   5  -3   4   20.60    5.90
  -5  -3  -4   23.80    3.60
   5  -3   4   29.20    4.40
   5  -3   4   23.60    5.20
   5   3   4   25.10    6.30
  -5   3  -4   20.30    5.70
   6  -3   4    4.70    4.10
   6  -3   4    4.20    5.10
  -6  -3  -4    4.90    2.90
   6  -3   4   12.00    4.40
   6   3   4   14.30    5.90
  -6   3  -4    7.10    5.30
   7  -3   4   -1.20    3.60
   7  -3   4   20.60   11.00
  -7  -3  -4    4.10    3.00
   7  -3   4   -1.30    4.10
   7   3   4   -0.80    5.30
  -7   3  -4   -2.20    4.80
   8  -3   4    2.00    4.10
   8  -3   4    0.90    3.40
  -8  -3  -4    0.30    3.40
  -8   3  -4    0.60    4.90
   8   3   4   -4.60    4.80
  -9  -3  -4   46.30    7.10
  -9  -3  -4   55.79    6.80
  -9   3  -4   64.49    8.40
   9   3   4   45.50    7.30
  10  -4  -4  169.58   11.70
 -10  -4   4  180.38   12.50
  10  -4  -4  170.58   12.50
 -10   4   4  177.18   12.80
  10   4  -4  193.68   12.30
 -10   4   4  176.68   12.30
   9  -4  -4   31.70    6.50
   9  -4  -4   44.50    5.20
  -9  -4   4   48.60    5.80
  -9  -4   4   55.39    7.30
   9  -4  -4   42.80    6.70
  -9   4   4   38.00    7.70
  -9   4   4   43.20    6.00
   9   4  -4   51.19    5.50
   8  -4  -4    6.80    3.20
   8  -4  -4    1.90    4.20
   8  -4  -4    5.90    3.60
   8   4  -4    7.10    3.20
  -8   4   4   13.90    6.10
  -8   4   4   11.20    4.90
   7  -4  -4  160.68   15.30
  -7  -4   4  166.58   12.00
   7  -4  -4  175.88   13.20
   7  -4  -4  171.58   12.60
   7   4  -4  153.68   12.60
  -7   4   4  187.28   14.10
  -7   4   4  141.49   15.00
   6  -4  -4  244.98   19.20
   6  -4  -4  199.88   15.00
   6  -4  -4  202.48   16.60
  -6  -4   4  197.78   14.40
  -6   4   4  217.28   17.20
  -6   4   4  195.48   19.30
  -6   4   4  237.28   18.00
   6   4  -4  186.38   15.50
   5  -4  -4    7.80    3.40
  -5  -4   4    2.60    2.60
   5  -4  -4   -1.80    7.00
   5  -4  -4  -13.40    9.70
  -5   4   4    8.80    7.00
  -5   4   4    8.60    7.10
  -5   4   4   13.40    8.90
   5   4  -4    1.20    3.90
  -5   4   4  -11.00    6.90
  -4  -4   4  208.28   13.90
   4  -4  -4  182.98   14.50
  -4   4   4  215.78   20.00
   4   4  -4  186.68   19.50
   4   4  -4  210.08   15.40
  -4   4   4  209.58   17.80
  -4   4   4  224.68   18.20
  -4   4   4  183.88   17.80
   3  -4  -4   34.10    4.90
  -3  -4   4   44.20    4.70
  -3   4   4   39.40    7.80
   3   4  -4   49.40    7.00
  -3   4   4   39.40   10.60
  -3   4   4   41.20    8.40
   3   4  -4   37.40   11.00
  -2  -4   4   20.00    3.20
   2  -4  -4   22.20    4.30
  -2   4   4   16.70    8.10
   2   4  -4   20.30   11.90
   2   4  -4   23.20    4.70
  -2   4   4   25.00    7.40
  -1  -4   4    5.70    2.30
   1  -4  -4   11.20    4.20
   1   4  -4    3.20   11.60
   1   4  -4   -0.10    3.90
  -1   4   4   10.70    6.40
  -1   4   4    0.80    7.80
   0  -4   4  171.38   12.60
   0   4   4  182.18   16.00
   0   4  -4  198.48   14.40
   0   4   4  178.38   18.20
   1  -4   4  620.34   38.50
   1  -4   4  623.34   39.70
   1  -4   4  616.24   40.20
   1   4   4  604.34   40.00
   1   4   4  526.55   41.10
  -1   4  -4  586.94   39.30
   2  -4   4  101.99   12.00
   2  -4   4  109.49    8.50
   2  -4   4  118.79   10.90
  -2   4  -4   99.09   10.00
   2   4   4  109.59   11.70
   3  -4   4   51.59    7.60
   3  -4   4   54.19    8.60
   3  -4   4   47.50    5.30
  -3   4  -4   38.20    7.70
  -3   4  -4   38.50    6.00
   4  -4   4  148.09   10.50
   4  -4   4  111.79    9.40
   4  -4   4   96.09   11.00
  -4   4  -4  129.49   11.70
  -4   4  -4  126.99   10.80
   4   4   4  118.79   12.00
   5  -4   4  345.07   24.80
   5  -4   4  405.36   25.80
   5  -4   4  352.56   24.90
  -5   4  -4  386.26   25.50
  -5   4  -4  371.76   25.70
   5   4   4  381.26   26.00
   6  -4   4   41.80    6.80
   6  -4   4   35.30    5.60
  -6   4  -4   39.90    6.10
   6   4   4   46.90    8.00
  -6   4  -4   36.00    5.60
   7  -4   4    0.60    3.20
   7  -4   4    3.10    2.50
  -7   4  -4    6.90    3.80
   7   4   4    2.10    4.60
  -7   4  -4    6.80    4.00
   8  -4   4  237.18   14.60
  -8   4  -4  202.38   14.90
   8   4   4  197.78   15.90
   7  -5  -4   13.60    2.80
   7   5  -4    7.50    2.50
  -7   5   4   10.90    4.20
   6  -5  -4    6.80    3.60
   6  -5  -4    6.30    3.60
   6   5  -4    0.50    2.80
  -6   5   4   -0.80    4.00
  -5  -5   4  170.68   12.50
   5  -5  -4  142.99   13.40
   5  -5  -4  163.98   12.50
   5   5  -4  150.48   12.10
  -5   5   4  197.58   13.40
  -4  -5   4  336.07   22.80
   4  -5  -4  335.97   23.20
   4   5  -4  335.77   23.30
  -4   5   4  373.96   24.10
   3  -5  -4   14.00    3.90
  -3  -5   4    8.20    2.90
  -3   5   4    8.40    6.20
   3   5  -4    6.00    3.40
  -2  -5   4   22.90    3.30
   2  -5  -4   11.10    4.30
   2   5  -4   16.70    3.70
  -2   5   4   16.40    6.80
  -1  -5   4  421.96   27.40
  -1   5   4  378.66   29.50
   1   5  -4  456.85   28.20
   0  -5   4  335.57   22.00
   0  -5   4  340.27   23.10
   0   5  -4  353.86   22.60
   0   5   4  286.17   27.00
   1  -5   4  355.16   23.70
   1  -5   4  359.86   23.40
  -1   5  -4  349.17   23.90
   2  -5   4    0.90    2.70
   2  -5   4    1.90    3.00
  -2   5  -4   -2.20    3.10
   3  -5   4  237.48   15.30
   3  -5   4  226.18   15.20
   3  -5   4  226.38   16.40
  -3   5  -4  208.98   15.50
   3   5   4  194.08   18.30
   4  -5   4   90.89    7.40
   4  -5   4   83.89    8.60
   4  -5   4   87.59    8.00
  -4   5  -4   92.39    8.00
   4   5   4   66.59   12.20
   5  -5   4   77.29    7.90
   5  -5   4   88.09    6.80
  -5   5  -4   89.99    7.70
 -13   0   5   -0.40    2.40
 -13   0   5    0.90    4.00
 -12   0   5    7.80    4.70
 -12   0   5    1.80    3.10
 -12   0   5    4.70    2.70
 -11   0   5    3.80    5.20
 -10   0   5    3.10    5.90
  10   0  -5    3.30    7.70
 -10   0   5   -9.60    5.20
 -10   0   5   -0.50    3.80
  10   0  -5   -4.60   10.40
 -10   0   5    2.50    4.80
  -9   0   5   -1.10    3.60
   9   0  -5    4.80    7.10
  -9   0   5    9.30    5.20
  -9   0   5   -6.00    3.80
  -9   0   5    5.00    5.50
   9   0  -5   -1.90   10.10
   8   0  -5    6.40    4.50
   8   0  -5    0.50   11.30
  -8   0   5   -5.10    5.10
  -8   0   5   -2.40    4.20
   8   0  -5   -4.90    7.70
  -8   0   5    3.70    3.20
  -8   0   5    5.90    5.90
  -8   0   5   -7.80    9.80
  -7   0   5   -3.20    5.60
  -7   0   5   -4.80    4.00
  -7   0   5    1.10    2.60
   7   0  -5    0.20    5.10
   7   0  -5    6.60    7.90
  -7   0   5   -1.40    5.00
  -6   0   5    4.30    6.60
   6   0  -5    6.30    4.10
   6   0  -5    5.00    5.20
  -6   0   5    0.20    2.80
  -5   0   5   -1.90    2.40
   5   0  -5    1.40    3.50
  -5   0   5    0.30    1.80
  -5   0   5    5.40    3.80
   5   0  -5   -1.70    2.70
   4   0  -5   -0.10    2.20
   4   0  -5    9.80    3.10
  -4   0   5    6.30    2.60
  -4   0   5   -1.40    2.10
   4   0  -5    0.60    1.70
  -4   0   5    0.40    1.30
   3   0  -5   -0.50    1.80
  -3   0   5    2.70    2.30
  -3   0   5    0.50    1.90
   3   0  -5    0.50    2.20
  -3   0   5   -0.60    1.00
   2   0  -5    1.00    1.50
   2   0  -5    0.90    1.00
  -2   0   5    1.10    0.90
  -2   0   5    1.20    1.60
   2   0  -5    2.50    1.80
  -1   0   5   -1.90    0.90
   1   0  -5   -1.20    1.40
   1   0  -5   -1.10    1.60
  -1   0   5   -0.90    1.40
   1   0  -5   -1.70    0.90
   0   0  -5   -0.70    1.40
   0   0  -5    0.90    1.00
   0   0  -5   -0.40    1.50
   2   0   5    3.00    2.80
   2   0   5    0.30    2.00
  -2   0  -5    0.60    2.10
  -2   0  -5    0.60    1.90
  -3   0  -5    0.60    2.80
  -3   0  -5    0.90    1.60
   3   0   5   -5.00    3.10
  -4   0  -5   -0.50    1.80
  -5   0  -5   -3.60    2.20
   5   0   5   -9.40    7.50
  -5   0  -5   -5.80    4.80
  -5   0  -5    5.50    5.10
  -6   0  -5    0.30    2.70
   6   0   5   -2.50    7.60
  -6   0  -5   -2.10    4.40
  -6   0  -5    0.10    4.10
  -7   0  -5   -4.10    3.20
  -7   0  -5    4.40    4.20
  -7   0  -5   -1.80    4.00
  -8   0  -5   -3.30    4.10
  -8   0  -5   -0.40    3.70
   8   0   5   -1.20    7.00
  -8   0  -5    0.50    3.70
  -9   0  -5    1.40    3.10
  -9   0  -5   -3.90    3.20
   9   0   5   -0.90    5.90
  -9   0  -5    4.40    5.00
 -10   0  -5   -1.00    2.50
  10   0   5    2.90    5.80
 -10   0  -5   -0.50    2.90
 -11   0  -5    1.30    2.50
 -11   0  -5   -3.90    2.50
 -11   0  -5    5.10    3.50
 -13  -1   5    2.90    1.90
 -13  -1   5   -0.40    2.10
 -13  -1   5    0.70    4.90
 -13   1   5    0.90    2.00
  13   1  -5   -0.80    3.20
 -13   1   5   -2.70    3.30
 -12  -1   5    5.00    3.10
 -12  -1   5    3.00    5.90
  12  -1  -5    4.50    4.80
 -12  -1   5    9.10    4.90
 -12   1   5   10.50    4.50
 -12   1   5    2.20    3.10
 -11  -1   5  183.58   14.60
 -11  -1   5  197.58   13.70
  11  -1  -5  190.78   15.30
 -11  -1   5  190.88   14.20
 -11  -1   5  202.28   15.70
 -11   1   5  188.18   14.50
 -11   1   5  187.88   15.80
 -10  -1   5    7.50    3.30
  10  -1  -5   10.00    5.90
 -10  -1   5    0.90    5.00
 -10  -1   5    5.50    3.60
 -10  -1   5    6.60    5.50
 -10   1   5    6.10    6.20
  10   1  -5    7.40    8.30
 -10   1   5    5.00    9.30
  10   1  -5    2.60    3.70
 -10   1   5   -7.00    8.00
 -10   1   5    3.30    5.30
  -9  -1   5  186.98   15.70
  -9  -1   5  196.58   14.10
  -9  -1   5  202.28   14.60
   9  -1  -5  215.58   16.80
   9  -1  -5  192.68   15.10
   9   1  -5  215.18   18.00
  -9   1   5  190.08   18.90
  -9   1   5  212.88   17.30
   9   1  -5  196.78   15.00
  -9   1   5  198.48   15.30
  -8  -1   5    1.30    5.20
   8  -1  -5   -3.10    4.80
  -8  -1   5    3.60    4.00
   8  -1  -5    0.40    6.30
   8  -1  -5    0.90    5.10
   8   1  -5    2.50    4.20
  -8   1   5   -3.90    6.30
  -8   1   5    9.20    8.30
   8   1  -5   -0.70    8.30
   7  -1  -5   34.60    9.30
   7  -1  -5   19.00    4.30
  -7  -1   5   22.50    5.80
   7  -1  -5   14.70    6.80
  -7  -1   5   24.20    3.80
  -7  -1   5   12.30    5.20
   7  -1  -5   24.00    5.70
   7   1  -5   24.00    9.40
  -7   1   5   22.60    8.70
  -7   1   5   26.20    7.30
   7   1  -5   21.30    5.50
  -7   1   5   13.80    8.30
  -7   1   5   16.10    8.00
  -6  -1   5   38.10    7.00
   6  -1  -5   48.80    6.80
  -6  -1   5   42.80    4.30
   6  -1  -5   48.60    5.30
   6   1  -5   25.80    7.80
   5  -1  -5  157.38    9.80
   5  -1  -5  127.49    9.90
   5  -1  -5  111.39   12.30
  -5  -1   5  139.49   10.50
  -5  -1   5  137.09   10.70
  -5  -1   5  123.69    9.20
   5   1  -5  137.59   11.30
   4  -1  -5   65.29    8.20
  -4  -1   5   77.29    6.20
  -4  -1   5   61.19    6.00
   4  -1  -5   75.29    5.90
   4   1  -5   78.39    7.30
  -4   1   5   69.89    7.00
  -3  -1   5   30.10    3.60
  -3  -1   5   18.80    3.10
   3  -1  -5   27.10    5.80
   3  -1  -5   27.60    3.10
   3   1  -5   21.30    3.70
  -3   1   5   23.00    3.50
   2  -1  -5   27.70    5.70
   2  -1  -5   28.80    3.30
  -2  -1   5   29.90    3.30
  -2  -1   5   28.80    3.20
   2  -1  -5   33.30    3.20
   2   1  -5   34.00    3.80
   2   1  -5   35.10    3.50
   2   1  -5   32.60    3.80
   1  -1  -5  407.36   26.80
  -1  -1   5  407.36   26.70
  -1  -1   5  398.06   26.90
   1  -1  -5  404.26   26.70
   1  -1  -5  441.26   26.50
  -1  -1   5  437.86   27.00
   1   1  -5  425.06   27.00
   1   1  -5  441.66   27.00
   1   1  -5  403.76   27.00
   0  -1   5  566.44   40.70
   0  -1  -5  685.33   40.70
   0  -1   5  648.94   41.00
   0  -1  -5  657.83   40.80
   0  -1   5  698.43   41.00
   0  -1  -5  627.94   40.60
   0   1   5  582.84   40.80
   0   1  -5  641.24   41.00
   0   1  -5  674.63   41.00
   1  -1   5 1036.00   62.09
  -1  -1  -5 1036.00   62.19
   1  -1   5 1018.70   62.29
  -1  -1  -5  935.81   61.99
   1  -1   5  973.60   62.39
   1  -1   5  960.30   62.29
  -1  -1  -5  985.60   61.89
  -1   1  -5 1052.99   62.49
  -1   1  -5  885.41   62.09
  -1   1  -5  938.41   62.09
  -2  -1  -5   33.60    3.60
   2  -1   5   34.40    5.00
   2  -1   5   29.70    4.20
  -2  -1  -5   32.10    2.90
  -2  -1  -5   33.80    3.20
  -2  -1  -5   32.50    4.00
  -2   1  -5   28.70    4.10
  -2   1  -5   28.50    4.60
  -3  -1  -5    7.90    1.80
   3  -1   5    3.50    3.80
   3  -1   5    5.50    2.60
  -3   1  -5    2.10    2.30
   4  -1   5    7.80    5.90
  -4  -1  -5   20.90    3.20
   4  -1   5   24.70    4.30
   4  -1   5   24.20    6.20
  -4   1  -5   26.70    4.90
  -4   1  -5   24.10    4.10
  -4   1  -5   15.80    5.30
  -5  -1  -5  199.38   12.70
  -5  -1  -5  155.18   16.30
   5  -1   5  209.68   15.80
   5  -1   5  174.18   15.10
  -5   1  -5  206.18   14.00
   5   1   5  178.28   15.60
  -5   1  -5  172.18   13.10
  -5   1  -5  162.68   14.40
  -6  -1  -5  357.16   23.80
  -6  -1  -5  343.87   22.40
  -6  -1  -5  294.67   23.80
   6  -1   5  386.46   24.60
  -6   1  -5  339.07   22.90
  -6   1  -5  342.97   23.00
  -6   1  -5  328.97   23.40
   6   1   5  309.47   24.30
  -7  -1  -5   11.10    5.10
  -7  -1  -5   10.00    3.30
   7  -1   5    8.60    6.70
  -7  -1  -5   10.60    4.60
  -7   1  -5   13.80    5.40
  -7   1  -5    8.30    4.10
   7   1   5    5.00    6.00
  -7   1  -5   16.80    5.20
   8  -1   5   20.10    7.20
  -8  -1  -5   25.20    5.30
  -8  -1  -5   25.40    4.30
  -8  -1  -5   21.30    4.30
  -8   1  -5   28.50    4.90
  -8   1  -5   11.90    4.40
   8   1   5   24.00    6.60
  -9  -1  -5    2.20    3.50
  -9  -1  -5    7.80    3.20
  -9  -1  -5    1.50    4.00
  -9   1  -5    5.80    5.40
  -9   1  -5    6.70    3.60
   9   1   5    8.60    5.40
  -9   1  -5   -1.20    3.60
 -10  -1  -5   16.90    5.00
 -10  -1  -5    7.40    3.30
 -10  -1  -5   11.00    2.50
 -10   1  -5    5.70    3.20
 -10   1  -5   16.60    5.20
  10   1   5   12.30    4.90
 -11  -1  -5   16.20    3.20
 -11  -1  -5   17.60    3.00
 -11   1  -5   19.70    4.50
 -11   1  -5   15.60    3.10
  11   1   5   12.00    4.50
 -12  -2   5   26.90    6.20
 -12  -2   5   44.30    4.60
 -12  -2   5   42.00    5.50
 -12  -2   5   51.09    9.20
  12  -2  -5   45.10    6.10
 -12   2   5   44.50    6.60
  12   2  -5   39.90    6.80
 -11  -2   5   32.80    4.70
 -11  -2   5   30.60    5.50
  11  -2  -5   22.70    4.90
 -11  -2   5   35.20    4.30
 -11   2   5   32.00    5.80
  11   2  -5   32.80    5.30
 -11   2   5   20.90    7.30
 -10  -2   5   35.90    5.70
 -10  -2   5   44.20    8.50
  10  -2  -5   27.00    4.50
 -10  -2   5   39.20    6.30
 -10  -2   5   43.30    5.40
  10  -2  -5   39.90    6.60
 -10   2   5   51.89    9.80
  10   2  -5   57.49   11.00
  10   2  -5   34.10    6.00
 -10   2   5   37.20    7.60
  -9  -2   5   25.10    4.80
   9  -2  -5   31.90    6.80
  -9  -2   5   24.10    6.30
   9  -2  -5   27.90    5.50
  -9   2   5   31.90    8.10
  -9   2   5   21.00    9.30
   9   2  -5   20.40    4.80
   9   2  -5   34.70    9.20
  -9   2   5   26.70    8.10
   8  -2  -5  238.38   18.70
  -8  -2   5  248.78   15.90
   8  -2  -5  235.08   16.60
  -8  -2   5  220.68   16.90
  -8  -2   5  214.38   17.90
   8  -2  -5  221.28   16.90
  -8   2   5  195.58   21.90
   8   2  -5  237.68   17.20
  -8   2   5  253.77   20.20
   8   2  -5  227.38   20.30
  -8   2   5  234.58   19.50
   7  -2  -5  250.77   16.30
  -7  -2   5  245.98   18.40
   7  -2  -5  255.87   18.80
  -7  -2   5  229.78   15.80
   7  -2  -5  245.98   17.40
  -7  -2   5  220.88   18.00
   7   2  -5  212.18   17.20
   7   2  -5  233.58   20.20
  -7   2   5  200.38   19.40
   6  -2  -5   24.00    6.20
   6  -2  -5   26.20    7.80
  -6  -2   5   27.80    8.20
   6  -2  -5   26.10    4.60
  -6  -2   5   27.40    3.90
  -6  -2   5   32.70    8.40
   6   2  -5   15.60    5.60
   6   2  -5   28.80    8.00
   6   2  -5   22.00    9.90
  -6   2   5   30.60   10.00
  -6   2   5   22.00    8.50
  -6   2   5   30.30    6.20
  -5  -2   5   18.30    2.70
   5  -2  -5   14.50    3.20
   5  -2  -5   11.20    5.20
   5   2  -5   23.80    8.10
  -5   2   5   22.00    6.30
  -5   2   5   20.20    8.90
   5   2  -5   10.70    5.60
   5   2  -5   25.80   10.60
   5   2  -5   20.60    9.20
  -4  -2   5   93.89    6.90
  -4  -2   5   82.49    9.50
   4  -2  -5  100.39    8.40
   4  -2  -5   98.59    7.40
   4   2  -5   88.19   11.20
  -3  -2   5  139.09    9.30
  -3  -2   5  136.39   10.40
   3  -2  -5  133.39    9.60
  -3  -2   5  133.99   10.90
   3  -2  -5  146.79   10.10
   3   2  -5  124.29   11.60
  -2  -2   5  639.54   41.90
   2  -2  -5  667.83   41.30
  -2  -2   5  688.93   41.70
   2  -2  -5  625.74   41.40
  -2  -2   5  673.03   41.20
   2   2  -5  596.24   42.10
  -1  -2   5  112.09    7.80
   1  -2  -5  121.29    8.00
  -1  -2   5  111.49    8.80
   1  -2  -5  110.69    7.90
  -1  -2   5  118.09    8.70
   1   2  -5   95.59   12.40
   1   2  -5  119.09    9.50
   0  -2  -5  919.31   59.89
   0  -2  -5  977.60   58.79
   0  -2   5  873.11   58.89
   0  -2   5  988.70   59.49
   0  -2  -5  946.71   58.69
   0  -2  -5  888.01   58.79
   0  -2   5  944.71   59.59
   0  -2  -5  950.50   58.69
   0   2  -5  910.81   62.89
   1  -2   5  271.77   19.60
   1  -2   5  297.87   19.70
  -1  -2  -5  275.57   18.70
   1  -2   5  331.77   19.10
  -1  -2  -5  249.78   19.00
  -1  -2  -5  274.37   20.20
   1  -2   5  320.47   21.30
  -1  -2  -5  300.07   18.80
  -1   2  -5  305.77   24.80
   2  -2   5  354.56   22.40
  -2  -2  -5  312.97   20.80
   2  -2   5  317.97   21.10
  -2   2  -5  309.27   27.60
  -3  -2  -5  354.26   23.00
   3  -2   5  332.37   24.90
   3  -2   5  355.06   23.30
   3  -2   5  353.96   25.10
   3  -2   5  387.46   24.40
  -3   2  -5  389.16   25.30
  -3   2  -5  349.47   26.00
   3   2   5  362.86   25.40
  -3   2  -5  324.37   25.30
   4  -2   5  127.59    9.10
   4  -2   5  110.99   11.70
  -4  -2  -5  118.69    8.50
   4  -2   5  116.89   10.70
  -4   2  -5   94.59   13.20
   4   2   5  110.79   12.10
  -4   2  -5  120.39   13.80
  -4   2  -5  123.59   11.90
  -5  -2  -5    5.60    2.30
   5  -2   5    1.00    4.90
   5  -2   5    3.70    4.10
   5  -2   5   10.90    3.80
  -5   2  -5   15.40    7.90
  -5   2  -5    9.00    6.70
  -5   2  -5   -0.10    5.20
   5   2   5    5.30    5.30
   6  -2   5  234.38   16.50
   6  -2   5  205.98   17.40
  -6  -2  -5  221.98   15.40
  -6   2  -5  236.98   17.20
   6   2   5  223.68   17.70
  -6   2  -5  239.28   19.70
  -6   2  -5  216.18   18.90
  -7  -2  -5  199.38   22.30
   7  -2   5  215.98   16.80
   7  -2   5  231.08   17.70
  -7  -2  -5  229.28   17.10
  -7  -2  -5  208.38   15.50
   7   2   5  217.18   17.80
  -7   2  -5  221.88   19.60
  -7   2  -5  242.98   19.10
  -7   2  -5  240.58   17.20
  -8  -2  -5   -1.80    5.90
   8  -2   5   -3.40    4.10
  -8  -2  -5   -3.50    3.00
  -8  -2  -5   -1.70    3.70
   8   2   5   -0.30    4.90
  -8   2  -5    2.80    4.40
  -8   2  -5   12.80    6.90
  -8   2  -5   -1.60    8.50
   9  -2   5   12.00    4.60
  -9  -2  -5   14.00    6.00
  -9  -2  -5    9.10    3.40
  -9  -2  -5   12.90    3.90
  -9   2  -5   13.20    4.40
  -9   2  -5   12.90    6.50
   9   2   5   10.20    5.00
 -10  -2  -5    1.20    2.00
 -10  -2  -5    3.20    4.70
  10   2   5   -4.00    3.90
 -10   2  -5    4.00    4.30
  11  -3  -5   54.79    6.30
 -11  -3   5   57.89    6.50
 -11  -3   5   51.69    6.60
  11  -3  -5   56.69    7.00
 -11  -3   5   50.79    5.50
  11   3  -5   65.69    5.70
 -11   3   5   59.19    6.80
 -10  -3   5   14.00    3.50
 -10  -3   5    6.20    5.10
 -10  -3   5    9.10    6.10
  10  -3  -5   15.80    3.10
  10  -3  -5   15.40    4.50
 -10  -3   5   12.00    3.10
 -10   3   5    9.40    5.30
  10   3  -5   13.10    3.20
  10   3  -5   14.80    8.70
 -10   3   5   10.10    4.70
   9  -3  -5  441.86   31.60
  -9  -3   5  520.05   31.50
   9  -3  -5  483.25   31.40
   9  -3  -5  491.15   32.40
  -9  -3   5  451.55   32.80
   9   3  -5  473.65   33.60
  -9   3   5  485.95   33.10
   9   3  -5  468.55   31.80
  -9   3   5  491.95   33.30
  -8  -3   5   25.70    3.90
  -8  -3   5   15.00    7.50
   8  -3  -5   20.10    4.60
  -8  -3   5   25.50    5.40
   8  -3  -5   30.80    7.00
   8   3  -5   22.00    5.00
   8   3  -5   13.90    9.50
  -8   3   5    8.50    8.10
  -7  -3   5  724.43   43.20
   7  -3  -5  599.44   45.00
   7  -3  -5  727.13   44.00
   7  -3  -5  783.02   43.80
  -7  -3   5  676.53   44.10
   7   3  -5  620.64   46.00
   7   3  -5  618.04   44.10
  -7   3   5  573.64   46.10
  -7   3   5  698.93   46.00
   6  -3  -5  143.19   12.40
   6  -3  -5   87.19   14.80
   6  -3  -5  130.19    9.90
  -6  -3   5  108.29    9.20
   6   3  -5  146.79   14.40
   6   3  -5  110.49   11.20
  -6   3   5  133.79   17.00
  -6   3   5  128.69   11.60
  -6   3   5  132.39   14.30
   6   3  -5   95.09   17.00
  -5  -3   5   48.60    4.80
   5  -3  -5   46.60    5.50
   5  -3  -5   54.29   11.10
   5  -3  -5   39.00    9.20
  -5   3   5   53.29    8.30
   5   3  -5   41.20    8.80
   5   3  -5   31.90   11.80
  -5   3   5   39.20    8.90
   5   3  -5   43.20    6.10
  -5   3   5   55.29   11.40
  -4  -3   5    5.90    2.10
   4  -3  -5    0.90    2.80
   4   3  -5   -6.80   14.10
   4   3  -5    2.40    4.20
   4   3  -5   -7.60    7.30
  -4   3   5   14.50   11.60
  -4   3   5    7.90    7.60
  -4   3   5    4.10    5.80
  -3  -3   5  184.28   12.60
   3  -3  -5  210.68   13.20
  -3   3   5  190.98   17.90
  -3   3   5  148.49   15.90
   3   3  -5  181.18   17.40
   3   3  -5  187.08   14.60
  -2  -3   5   68.49    5.40
   2  -3  -5   66.89    6.70
   2  -3  -5   58.29    6.30
  -2   3   5   57.79   11.50
   2   3  -5   79.59   13.10
  -2   3   5   53.89   10.20
   2   3  -5   69.89    8.50
   1  -3  -5  880.11   56.39
  -1  -3   5 1008.50   56.49
  -1   3   5  896.31   57.89
   1   3  -5  905.41   57.39
   1   3  -5  827.62   59.09
  -1   3   5  809.42   58.79
   0  -3   5  750.12   52.09
   0  -3   5  853.71   50.59
   0  -3   5  802.62   52.49
   0   3   5  770.92   52.19
   0   3  -5  838.72   51.69
   0   3  -5  742.63   53.59
   1  -3   5    5.40    6.00
   1  -3   5    4.10    6.60
   1  -3   5    5.10    2.20
  -1   3  -5    0.10    5.10
  -1   3  -5   27.40   11.20
  -1   3  -5   -1.60    5.20
   1   3   5   -2.70    5.80
   2  -3   5    0.50    5.40
   2  -3   5    4.20    2.20
   2  -3   5    1.30    5.10
  -2   3  -5    5.80    5.20
  -2   3  -5    4.80    5.30
   2   3   5    8.50    5.20
  -2   3  -5    6.10   10.70
   3  -3   5  242.08   16.10
   3  -3   5  232.28   16.70
   3  -3   5  215.98   15.00
   3   3   5  205.88   17.10
  -3   3  -5  194.18   20.80
  -3   3  -5  218.68   17.10
   4  -3   5   41.00    6.90
   4  -3   5   24.80    5.40
  -4  -3  -5   34.00    4.60
   4  -3   5   30.20    4.90
  -4   3  -5   32.20    6.20
   4   3   5   30.40    6.40
  -4   3  -5   30.80   11.70
   5  -3   5   73.49    7.70
   5  -3   5   66.29    9.00
  -5  -3  -5   56.39    5.80
   5  -3   5   48.50    6.50
  -5   3  -5   66.39    9.60
   5   3   5   47.20    9.20
  -5   3  -5   63.99   13.60
   6  -3   5    9.50    4.70
  -6  -3  -5    5.80    2.90
   6  -3   5    7.30    4.60
   6  -3   5   13.10    4.30
  -6   3  -5   14.10    5.20
  -6   3  -5   22.50   11.80
   6   3   5   11.10    5.40
   7  -3   5  104.89    9.70
  -7  -3  -5  114.19    9.60
   7  -3   5  148.59   11.00
   7   3   5  131.49   11.30
  -7   3  -5  117.39   12.10
  -8  -3  -5  212.08   15.80
  -8  -3  -5  212.98   15.10
   8  -3   5  187.88   15.20
   8   3   5  225.38   16.40
  -8   3  -5  216.18   15.40
  -8   3  -5  224.08   16.60
   9  -3   5   31.00    5.40
  -9   3  -5   34.50    6.30
   9   3   5   40.90    6.90
 -10  -4   5   56.09    5.60
  10  -4  -5   44.90    4.30
  10  -4  -5   49.70    5.70
 -10   4   5   41.70    6.50
 -10   4   5   56.49    5.60
  -9  -4   5   87.19    8.00
   9  -4  -5   78.59    8.90
  -9  -4   5   85.49    8.20
   9  -4  -5  104.29    9.10
   9  -4  -5   97.49    7.40
  -9   4   5   93.49    8.20
   9   4  -5   95.09    7.50
  -9   4   5   92.19    9.70
   8  -4  -5   57.19    6.60
   8  -4  -5   44.20    6.70
  -8  -4   5   43.90    7.50
   8  -4  -5   52.29    6.10
  -8   4   5   47.00    7.60
   8   4  -5   50.69    6.20
  -8   4   5   52.99    8.10
   7  -4  -5   -5.80    5.90
  -7  -4   5    6.50    2.70
   7  -4  -5    6.70    4.00
   7  -4  -5    1.60    3.20
  -7   4   5    1.60    6.90
  -7   4   5   12.70    5.60
   7   4  -5    6.60    3.50
  -7   4   5    0.40    5.70
   6  -4  -5  128.79   17.20
  -6  -4   5  148.49   11.50
   6  -4  -5  174.08   12.20
   6  -4  -5  169.08   13.70
   6   4  -5  154.68   12.70
  -6   4   5  142.19   17.10
  -6   4   5  167.88   15.10
  -6   4   5  146.89   14.60
   6   4  -5  197.88   19.70
   5  -4  -5   32.80    8.00
   5  -4  -5   18.80    4.00
  -5  -4   5   26.60    4.30
  -5   4   5   34.90    6.60
  -5   4   5   14.20    8.00
   5   4  -5   21.00    4.80
  -5   4   5   28.90    8.30
  -5   4   5   21.00   10.20
  -4  -4   5  152.18   11.30
   4  -4  -5  183.38   12.30
  -4   4   5  188.18   16.40
  -4   4   5  134.39   20.30
  -4   4   5  165.98   14.10
  -4   4   5  157.68   16.40
   4   4  -5  139.99   12.60
   4   4  -5  134.59   16.60
  -3  -4   5  215.58   14.70
   3  -4  -5  200.38   15.40
  -3   4   5  219.68   20.10
  -3   4   5  188.68   17.40
  -3   4   5  230.18   19.20
   3   4  -5  244.48   20.10
   3   4  -5  225.18   16.30
   2  -4  -5    2.30    3.60
  -2  -4   5    1.80    2.20
  -2   4   5   -1.40   13.00
   2   4  -5    0.80    9.20
   2   4  -5    4.00    4.00
   1  -4  -5   35.90    5.70
  -1  -4   5   39.00    4.50
   1   4  -5   39.40    6.80
   1   4  -5   28.40   11.60
  -1   4   5   41.60    7.20
   0  -4   5  205.08   13.90
   0  -4   5  193.98   16.00
   0  -4   5  222.38   17.10
   0   4   5  197.18   16.20
   0   4  -5  156.28   20.80
   0   4  -5  214.18   15.40
   1  -4   5    2.20    2.40
   1  -4   5    2.50    6.10
   1  -4   5   -0.70    4.50
   1   4   5    0.50    5.20
  -1   4  -5   12.70   12.20
  -1   4  -5    2.00    3.90
   2  -4   5  389.36   25.80
   2  -4   5  383.76   27.10
   2  -4   5  386.26   26.40
   2   4   5  397.66   27.50
  -2   4  -5  406.76   26.70
   3  -4   5   57.59    7.10
   3  -4   5   45.60    6.40
   3  -4   5   45.80    5.40
   3   4   5   40.00    8.00
  -3   4  -5   48.10    6.50
   4  -4   5   69.69    7.90
   4  -4   5   69.59    7.30
   4  -4   5   63.29    6.70
  -4   4  -5   69.99    8.20
   4   4   5   77.79    8.70
   5  -4   5   -2.50    3.50
   5  -4   5    3.60    3.50
   5  -4   5   -5.00    2.60
   5   4   5   -0.40    4.80
  -5   4  -5   -2.60    3.80
   6  -4   5   -2.20    2.60
   6  -4   5    4.60    5.50
   6  -4   5    1.60    3.10
   6   4   5    1.10    4.80
  -6   4  -5    1.00    3.80
   7  -4   5   52.19    6.10
   7  -4   5   56.69    5.30
  -7   4  -5   53.79    6.10
   7   4   5   71.59    8.30
   7  -5  -5    0.80    2.50
   7   5  -5    0.20    2.10
   6  -5  -5   36.30    5.90
   6  -5  -5   41.80    6.10
   6   5  -5   33.10    4.90
   5  -5  -5   16.50    4.90
  -5  -5   5   14.30    3.60
   5  -5  -5   18.70    4.00
  -5   5   5   23.60    6.30
   5   5  -5    9.10    3.00
  -4  -5   5    6.60    3.00
   4  -5  -5    1.50    3.70
   4   5  -5    4.00    3.00
   3  -5  -5   14.70    4.10
  -3  -5   5   11.50    2.90
   3   5  -5   12.30    3.60
   2  -5  -5   19.10    4.90
  -2  -5   5   19.00    3.20
   2   5  -5   21.20    4.00
  -1  -5   5   36.40    4.60
  -1  -5   5   29.30    5.10
   1   5  -5   25.30    4.40
   0  -5   5   36.90    4.80
   0  -5   5   48.80    7.00
   0   5  -5   45.80    6.00
   0   5   5   26.10    7.00
   1  -5   5   44.20    5.20
   1  -5   5   34.50    5.90
  -1   5  -5   40.50    5.80
   2  -5   5    4.00    2.70
   2  -5   5    1.60    2.90
   2  -5   5    1.50    4.80
  -2   5  -5    4.60    3.10
   2   5   5    6.30    5.80
   3  -5   5   95.49    7.20
   3  -5   5   86.69    7.60
   3  -5   5   70.49    8.40
  -3   5  -5   93.69    7.70
   3   5   5   70.49   10.80
   4  -5   5   17.80    2.60
   4  -5   5   10.20    3.80
   4  -5   5    4.00    4.20
   4   5   5   13.20    6.40
  -4   5  -5    9.90    3.00
   5  -5   5    5.80    2.00
   5  -5   5    5.00    3.20
   5   5   5   19.20    8.70
  -5   5  -5    6.50    3.00
 -13   0   6  192.88   13.50
 -13   0   6  196.28   14.30
 -12   0   6   31.50    4.90
 -12   0   6   26.00    5.20
 -12   0   6   37.70    5.50
  11   0  -6  -16.50    8.60
 -10   0   6   37.60    5.00
 -10   0   6   30.20    6.80
  10   0  -6   39.70   11.00
 -10   0   6   22.80    5.50
  10   0  -6   31.60    7.30
 -10   0   6   37.80    6.30
  -9   0   6  291.47   21.00
   9   0  -6  294.27   24.80
  -9   0   6  308.27   21.80
  -9   0   6  337.47   21.20
  -9   0   6  306.87   22.60
   9   0  -6  299.27   23.20
  -9   0   6  332.07   24.60
   8   0  -6  155.88   18.30
  -8   0   6  188.78   15.00
   8   0  -6  185.78   16.40
  -8   0   6  191.38   13.00
   8   0  -6  163.38   14.10
  -8   0   6  165.78   13.20
  -8   0   6  176.18   14.10
  -8   0   6  180.18   16.70
  -7   0   6  271.17   18.60
   7   0  -6  250.47   22.60
  -7   0   6  275.47   19.50
   7   0  -6  266.37   21.40
   7   0  -6  246.88   20.50
   7   0  -6  277.77   19.50
  -7   0   6  270.47   21.60
   4   0  -6  284.97   20.20
  -4   0   6  329.87   20.10
  -4   0   6  321.87   20.20
  -4   0   6  311.77   20.50
   4   0  -6  279.47   20.80
   4   0  -6  315.87   20.50
  -3   0   6   -3.00    2.70
  -3   0   6    1.50    2.50
  -3   0   6    1.30    1.40
   3   0  -6    3.00    2.30
   3   0  -6   -1.60    1.50
   3   0  -6   -3.10    2.30
  -2   0   6 5669.93  357.66
  -2   0   6 5511.45  357.86
   2   0  -6 5626.84  357.96
   2   0  -6 5357.06  357.66
   2   0  -6 6384.96  357.76
  -1   0   6  338.17   22.20
   1   0  -6  319.37   22.10
  -1   0   6  370.76   22.10
   1   0  -6  348.37   22.00
   1   0  -6  334.87   22.30
   0   0   6  297.87   20.60
   0   0  -6  317.67   20.60
   0   0  -6  330.27   20.40
  -1   0  -6   43.10    4.50
  -1   0  -6   45.60    4.60
   1   0   6   40.50    4.90
  -1   0  -6   46.70    3.70
  -2   0  -6 1004.10   63.09
  -2   0  -6 1153.38   63.69
  -2   0  -6  840.82   63.39
  -3   0  -6 2068.79  129.59
  -3   0  -6 2032.20  128.99
  -4   0  -6  152.58   11.80
  -4   0  -6  126.49    9.60
  -4   0  -6  127.09   11.60
  -5   0  -6   44.70    7.30
   5   0   6   23.60    8.80
  -5   0  -6   40.00    4.80
  -5   0  -6   39.50    6.20
   6   0   6  239.88   20.70
  -6   0  -6  254.07   18.50
  -6   0  -6  287.07   17.80
  -6   0  -6  248.38   18.20
  -7   0  -6   39.40    6.00
  -7   0  -6   43.10    6.80
  -7   0  -6   44.90    7.40
   7   0   6   46.60    8.60
   8   0   6   14.90    7.00
  -8   0  -6    1.30    4.10
  -8   0  -6    0.40    3.20
  -8   0  -6    4.50    3.60
   9   0   6  513.15   34.90
  -9   0  -6  512.35   33.10
  -9   0  -6  501.25   34.00
  -9   0  -6  513.25   33.70
 -10   0  -6   52.39    5.10
 -10   0  -6   48.30    6.00
 -10   0  -6   59.29    6.80
 -13  -1   6   37.20    6.70
 -13  -1   6   29.10    4.20
 -13   1   6   30.20    6.00
 -13   1   6   30.10    4.90
 -12  -1   6   10.90    4.20
 -12  -1   6    3.00    9.20
  12  -1  -6    1.70    4.20
 -12   1   6    4.60    4.10
 -12   1   6    1.70    3.90
 -11  -1   6   58.79    7.10
 -11  -1   6   44.10    6.10
  11  -1  -6   41.60    7.60
 -11  -1   6   58.49    7.90
 -11  -1   6   36.70    5.50
  11   1  -6   42.50    8.50
 -11   1   6   51.49    7.20
 -11   1   6   37.60    6.70
 -10  -1   6  785.72   52.39
 -10  -1   6  816.32   51.79
 -10  -1   6  782.72   51.89
 -10  -1   6  795.52   52.89
  10  -1  -6  891.71   52.99
  10  -1  -6  680.73   52.39
 -10   1   6  795.52   53.39
  10   1  -6  861.31   52.49
 -10   1   6  845.12   53.89
  10   1  -6  825.42   53.89
  -9  -1   6   26.40    4.60
   9  -1  -6   38.90    5.50
  -9  -1   6   34.00    5.90
   9  -1  -6   49.10    7.70
  -9  -1   6   42.60    5.40
  -9   1   6   39.70    8.20
  -9   1   6   32.00    7.30
   9   1  -6   36.80    5.60
   9   1  -6   39.90    9.10
  -9   1   6   42.90    7.50
  -8  -1   6   52.89   10.80
   8  -1  -6   71.29    8.10
   8  -1  -6   75.89    8.30
   8  -1  -6   39.50    7.20
  -8  -1   6   54.09    7.00
  -8  -1   6   57.49    8.50
  -8  -1   6   56.39    5.90
  -8   1   6   42.60    8.30
   8   1  -6   45.00    9.40
  -8   1   6   82.79   12.30
   8   1  -6   67.39    7.90
  -8   1   6   58.29   10.90
   7  -1  -6  220.48   19.00
   7  -1  -6  217.38   18.30
  -7  -1   6  213.78   16.50
  -7  -1   6  183.48   18.50
  -7  -1   6  201.88   16.20
   7  -1  -6  221.78   15.60
  -7  -1   6  256.77   15.10
   7  -1  -6  221.78   16.40
   7   1  -6  210.78   18.70
  -7   1   6  234.88   18.10
  -7   1   6  214.08   18.50
  -7   1   6  228.68   19.20
  -7   1   6  231.18   18.80
   7   1  -6  206.98   16.70
  -6  -1   6  529.65   36.10
   6  -1  -6  590.84   36.40
   6  -1  -6  542.75   37.80
   6  -1  -6  511.05   36.90
   6  -1  -6  580.84   37.20
  -6  -1   6  595.34   37.20
  -6   1   6  644.24   40.00
  -6   1   6  583.54   38.40
   6   1  -6  570.84   38.80
  -6   1   6  525.65   37.30
   6   1  -6  524.35   38.40
   5  -1  -6   46.80    9.80
   5  -1  -6   43.10    4.80
  -5  -1   6   46.00    7.60
   5  -1  -6   49.20    5.70
  -5  -1   6   48.70    6.20
  -5  -1   6   40.20    4.40
   5   1  -6   45.30    9.00
  -4  -1   6   93.19    7.20
   4  -1  -6   84.49    6.60
   4  -1  -6   89.49    7.00
  -4  -1   6   93.19    6.30
  -4  -1   6   81.69    7.50
   4  -1  -6   65.79    9.70
   4   1  -6   69.49    8.50
  -3  -1   6  164.38   13.30
   3  -1  -6  202.88   16.30
  -3  -1   6  221.78   13.40
   3  -1  -6  215.18   13.30
  -3   1   6  167.18   13.80
   3   1  -6  190.98   13.90
   3   1  -6  189.48   13.70
   2  -1  -6 1589.34  111.29
  -2  -1   6 1856.01  112.09
   2  -1  -6 1825.22  111.69
   2  -1  -6 1727.73  114.59
   2  -1  -6 1853.91  111.99
   2   1  -6 1786.12  112.19
   2   1  -6 1797.42  111.99
   1  -1  -6 1721.53  104.49
   1  -1  -6 1552.74  104.79
  -1  -1   6 1716.53  105.09
   1  -1  -6 1678.23  104.69
  -1  -1   6 1733.93  104.99
   1   1  -6 1695.23  105.09
   1   1  -6 1553.24  104.89
   0  -1  -6  898.21   53.19
   0  -1   6  761.32   53.59
   0  -1  -6  785.62   53.39
   0  -1  -6  835.12   53.19
   0  -1   6  920.01   53.69
   0   1  -6  796.02   53.39
   0   1  -6  880.71   53.69
   0   1  -6  860.91   53.49
   1  -1   6   92.39    8.20
   1  -1   6   93.29    7.50
   1  -1   6  105.39    7.80
  -1  -1  -6  106.79    6.90
  -1  -1  -6  102.49    7.40
  -1  -1  -6   91.39    7.30
   1  -1   6   94.19    8.40
  -1   1  -6   93.49    7.90
  -1   1  -6   90.79    7.50
  -1   1  -6   97.69    7.60
   2  -1   6   83.99    6.40
  -2  -1  -6   84.39    5.90
  -2  -1  -6   81.09    7.40
  -2  -1  -6   75.19    5.60
  -2  -1  -6   71.79    6.80
   2  -1   6   83.79    8.70
  -2   1  -6   84.09    6.60
   3  -1   6  253.37   17.80
  -3  -1  -6  274.57   17.40
  -3   1  -6  266.87   17.80
  -4  -1  -6 1069.19   69.89
  -4  -1  -6 1055.69   65.79
   4  -1   6  958.20   66.89
   4  -1   6 1077.39   66.29
  -4   1  -6 1061.99   66.19
   4   1   6 1009.40   67.29
  -4   1  -6 1096.69   66.09
  -4   1  -6  982.80   66.49
   5  -1   6    9.10    7.30
   5  -1   6    7.90    5.70
  -5  -1  -6    8.00    6.20
  -5  -1  -6   15.50    6.70
  -5  -1  -6   10.80    2.50
  -5   1  -6   20.20    4.60
  -5   1  -6    3.00    3.50
  -5   1  -6    9.00    3.90
   5   1   6    8.20    5.90
  -6  -1  -6  116.19    9.10
  -6  -1  -6  103.59   11.60
  -6  -1  -6  113.19   10.70
   6  -1   6  118.49   12.20
  -6   1  -6  129.29   10.80
  -6   1  -6  123.99   10.20
   6   1   6  115.59   12.10
  -6   1  -6  111.69   10.30
  -7  -1  -6  895.31   53.39
  -7  -1  -6  837.32   53.29
  -7  -1  -6  761.52   53.69
   7  -1   6  731.23   54.09
  -7   1  -6  874.01   54.29
   7   1   6  809.02   54.59
  -7   1  -6  824.02   53.29
  -7   1  -6  903.41   53.89
   8  -1   6  200.88   17.40
  -8  -1  -6  217.08   15.90
  -8  -1  -6  215.48   15.20
  -8  -1  -6  194.98   15.20
   8   1   6  245.88   17.00
  -8   1  -6  204.28   15.60
  -8   1  -6  217.38   16.80
  -8   1  -6  207.88   15.20
  -9  -1  -6   14.60    3.30
  -9  -1  -6   13.00    4.40
  -9  -1  -6    8.30    3.90
   9   1   6    8.40    5.30
  -9   1  -6    4.60    3.20
  -9   1  -6    5.90    3.90
  -9   1  -6    9.80    5.40
 -10  -1  -6   44.80    4.80
 -10  -1  -6   46.20    5.90
  10   1   6   39.30    7.60
 -10   1  -6   46.30    6.90
 -10   1  -6   54.29    6.20
 -12  -2   6    7.10    4.60
  12  -2  -6    3.30    3.20
 -12  -2   6    5.70    2.30
 -12   2   6    0.70    3.70
  12   2  -6    3.40    4.00
 -11  -2   6    5.30    4.60
 -11  -2   6   15.20    3.70
  11  -2  -6   10.40    4.10
 -11  -2   6    7.20    4.00
 -11  -2   6   12.80    3.00
  11   2  -6    3.10    5.60
 -11   2   6   14.60    5.90
 -11   2   6   13.90    5.20
  11   2  -6    6.80    3.10
 -10  -2   6  109.09    9.00
  10  -2  -6  105.79    8.90
 -10  -2   6   91.29    8.60
  10  -2  -6  112.39   10.90
 -10  -2   6  107.89   10.10
 -10   2   6   92.19   11.30
 -10   2   6  120.89   13.40
  10   2  -6  102.49   12.50
  10   2  -6   99.49    9.10
 -10   2   6  121.99   12.10
   9  -2  -6  558.54   36.30
  -9  -2   6  492.75   34.80
  -9  -2   6  485.05   35.40
   9  -2  -6  512.85   34.90
  -9   2   6  517.75   37.00
   9   2  -6  536.35   35.30
   9   2  -6  546.75   37.10
  -9   2   6  627.14   40.60
  -9   2   6  542.55   37.10
  -8  -2   6   31.90    4.70
   8  -2  -6   31.00    7.10
   8  -2  -6   30.40    5.10
  -8  -2   6   26.40    5.20
   8  -2  -6   24.00    4.70
  -8  -2   6   36.80    6.30
  -8   2   6   33.00    8.50
  -8   2   6   37.90    9.00
   8   2  -6   43.30    9.20
   8   2  -6   50.49    7.80
   7  -2  -6  426.06   26.60
  -7  -2   6  398.86   27.10
  -7  -2   6  354.26   29.60
  -7  -2   6  412.96   27.50
   7  -2  -6  381.16   26.90
  -7  -2   6  444.76   26.30
   7  -2  -6  445.36   28.60
   7   2  -6  437.16   28.60
  -7   2   6  388.66   30.30
   7   2  -6  388.06   29.10
  -7   2   6  396.96   27.30
  -7   2   6  373.86   29.10
   7   2  -6  337.97   27.20
  -6  -2   6   51.49    7.90
   6  -2  -6   55.69    9.40
   6  -2  -6   45.70    8.70
  -6  -2   6   40.00    4.60
   6  -2  -6   41.70    5.10
  -6  -2   6   45.10    7.60
  -6   2   6   22.90   10.90
  -6   2   6   48.10    7.50
   6   2  -6   27.20    6.40
   6   2  -6   39.00    8.30
   6   2  -6   40.00   10.00
  -6   2   6   36.80    9.20
   5  -2  -6  825.52   51.39
   5  -2  -6  684.13   50.89
  -5  -2   6  809.72   49.00
   5  -2  -6  792.12   49.20
   5   2  -6  787.42   51.79
  -5   2   6  674.83   51.49
  -5   2   6  804.02   50.29
   5   2  -6  764.32   50.29
   5   2  -6  807.32   50.99
  -5   2   6  721.53   53.39
   4  -2  -6  237.98   16.80
   4  -2  -6  229.88   15.90
  -4  -2   6  232.48   17.60
  -4  -2   6  235.28   15.60
   4   2  -6  270.87   19.40
   4   2  -6  240.18   18.70
  -4   2   6  209.08   17.70
  -4   2   6  230.58   20.10
   3  -2  -6   64.89    6.40
   3  -2  -6   84.19    7.60
  -3  -2   6   84.09    9.20
  -3  -2   6   89.89    6.10
   3   2  -6   82.89   10.40
  -2  -2   6  880.81   49.60
  -2  -2   6  700.63   50.39
   2  -2  -6  835.22   49.99
   2  -2  -6  735.23   49.60
   2   2  -6  752.82   50.79
   1  -2  -6 1093.89   66.99
   1  -2  -6 1071.69   67.19
  -1  -2   6 1061.59   66.99
  -1  -2   6 1050.19   67.69
   1   2  -6 1127.69   68.09
   1   2  -6  960.60   71.09
   0  -2   6 1170.88   81.39
   0  -2  -6 1267.67   80.79
   0  -2  -6 1203.08   81.89
   0  -2  -6 1336.27   80.69
   0  -2   6 1308.57   80.89
   0   2  -6 1414.16   81.89
   0   2  -6 1268.77   85.69
  -1  -2  -6   11.30    2.10
   1  -2   6   14.30    2.40
  -1  -2  -6   13.90    3.10
   1  -2   6    4.70    3.90
   1  -2   6   21.90    5.40
  -1   2  -6   15.50   10.60
   2  -2   6  106.49   11.30
   2  -2   6  130.89   12.00
   2  -2   6  120.59   10.50
  -2  -2  -6  112.39    8.00
   2   2   6  113.49   11.70
  -2   2  -6   85.79   14.10
  -2   2  -6  105.69   12.60
   3  -2   6   81.69    8.80
   3  -2   6   73.99    9.90
   3  -2   6   82.69    6.90
  -3  -2  -6   85.69    6.50
   3   2   6   91.29   10.20
  -3   2  -6   91.89   12.90
  -3   2  -6   80.59   11.20
  -3   2  -6   86.39   11.20
  -4  -2  -6  286.67   18.70
   4  -2   6  262.37   20.20
   4  -2   6  317.37   19.70
   4  -2   6  276.37   19.20
  -4   2  -6  293.87   21.50
  -4   2  -6  267.27   20.50
  -4   2  -6  263.27   22.00
   4   2   6  289.87   20.90
   5  -2   6   32.40    5.20
   5  -2   6   32.90    5.80
   5  -2   6   38.30    6.00
  -5   2  -6   42.40    7.80
  -5   2  -6   34.90    6.10
   5   2   6   42.40    8.00
  -5   2  -6   27.60    7.80
  -6  -2  -6   65.89   10.90
   6  -2   6   82.79    9.50
  -6  -2  -6   74.19    6.60
   6  -2   6   69.49    8.70
   6   2   6   69.69    9.50
  -6   2  -6   60.59   11.20
  -6   2  -6   88.09    9.40
  -7  -2  -6   61.19    6.10
  -7  -2  -6   61.59    8.00
  -7  -2  -6   54.39    8.00
   7  -2   6   54.69    8.50
   7   2   6   73.39    9.40
  -7   2  -6   46.50    8.70
  -7   2  -6   70.49    8.70
   8  -2   6   -0.40    4.30
  -8  -2  -6   -6.90    5.40
  -8  -2  -6    3.90    3.50
  -8  -2  -6    5.40    3.20
  -8   2  -6    7.80    6.40
   8   2   6    1.20    4.80
  -8   2  -6    1.30    4.40
  -9  -2  -6   79.49    9.60
   9  -2   6   81.19    9.00
  -9  -2  -6   83.09    7.20
  -9  -2  -6   83.29    8.00
  -9   2  -6   87.59    8.60
   9   2   6   67.49    8.60
  -9   2  -6   84.89   10.30
 -10  -2  -6    8.20    2.50
  10   2   6    0.40    3.50
  11  -3  -6   63.09    6.30
 -11  -3   6   67.69    8.70
 -11  -3   6   78.59    6.40
  11  -3  -6   88.69    7.40
 -11  -3   6   70.79    7.60
  11   3  -6   95.09    6.80
 -11   3   6   81.19    8.10
 -10  -3   6   28.80    5.10
 -10  -3   6   26.20    3.80
  10  -3  -6   21.70    3.50
 -10  -3   6   33.20    5.40
  10  -3  -6   16.00    4.20
 -10   3   6   25.90    5.40
 -10   3   6   30.60    5.60
  10   3  -6   18.90    6.30
  10   3  -6   31.10    4.70
   9  -3  -6  451.75   29.90
  -9  -3   6  491.45   29.90
   9  -3  -6  417.66   30.10
   9  -3  -6  486.45   31.00
  -9  -3   6  455.75   29.70
  -9  -3   6  441.36   30.80
  -9   3   6  467.55   31.90
   9   3  -6  443.76   30.30
  -9   3   6  436.26   31.30
   9   3  -6  467.35   32.40
   8  -3  -6    3.30    3.70
  -8  -3   6    3.30    5.90
   8  -3  -6   -1.90    3.90
   8  -3  -6   -3.40    5.80
  -8  -3   6    8.60    4.20
  -8  -3   6    4.70    2.90
   8   3  -6    6.10    4.10
  -8   3   6   -0.60    6.60
   8   3  -6   -1.90    8.30
  -8   3   6    7.80    7.90
  -7  -3   6   15.40    5.40
   7  -3  -6   24.60    7.20
   7  -3  -6   40.10    6.00
   7  -3  -6   35.80    5.40
  -7  -3   6   21.10    3.70
  -7  -3   6   32.60    7.50
  -7   3   6   29.00    8.60
   7   3  -6   28.60    9.90
   7   3  -6   23.70    5.10
  -7   3   6   23.50    9.40
   6  -3  -6   55.89    6.30
  -6  -3   6   53.79    5.90
   6  -3  -6   85.49   10.10
  -6  -3   6   52.79    8.70
  -6  -3   6   68.59    8.60
   6  -3  -6   68.19    9.50
   6   3  -6   76.09   11.00
   6   3  -6   50.69    8.00
   6   3  -6   54.49   12.20
  -6   3   6   46.20   12.10
  -6   3   6   68.19   10.90
  -6   3   6   76.79    8.20
  -5  -3   6   14.70    9.80
   5  -3  -6   11.40    7.80
   5  -3  -6   14.70    3.20
  -5  -3   6   22.10    3.50
   5  -3  -6   10.50    9.60
  -5   3   6   22.10    8.20
   5   3  -6   10.90    7.30
  -5   3   6    1.20   11.00
   5   3  -6   21.10    4.80
  -5   3   6   13.20    5.00
   5   3  -6   22.40   10.60
  -4  -3   6   65.79    5.40
   4  -3  -6   66.59    6.20
  -4   3   6   53.79    8.80
   4   3  -6   53.69   10.30
  -4   3   6   51.49    9.80
   4   3  -6   46.40   14.10
   4   3  -6   62.39    8.00
  -3  -3   6   25.40    3.40
  -3  -3   6   20.50    8.40
   3  -3  -6   28.60    3.90
   3   3  -6   21.60    5.30
  -3   3   6   19.90    6.20
   3   3  -6   24.30    7.40
   3   3  -6    1.30   15.00
  -3   3   6   19.90    9.80
   2  -3  -6   16.50    3.40
  -2  -3   6   16.20    8.40
  -2  -3   6   22.50    3.40
  -2   3   6   28.40    6.30
  -2   3   6   21.00   10.90
   2   3  -6   22.80    5.40
   2   3  -6   18.80    8.40
   1  -3  -6   14.70    3.20
  -1  -3   6   34.50    7.30
  -1  -3   6   18.70    3.20
  -1  -3   6   22.20    7.20
  -1   3   6   16.50    5.80
   1   3  -6   14.50    8.60
   1   3  -6   16.50    5.30
   0  -3  -6  396.06   24.90
   0  -3   6  417.86   25.00
   0  -3   6  388.46   26.90
   0  -3   6  345.17   26.30
   0   3   6  370.26   26.70
   0   3  -6  376.56   26.30
   0   3  -6  376.36   29.20
   1  -3   6   46.80    8.70
   1  -3   6   59.69    9.70
   1  -3   6   71.59    5.70
  -1   3  -6   90.99   14.20
   1   3   6   69.19    9.30
  -1   3  -6   61.59    9.30
   2  -3   6  267.67   18.90
   2  -3   6  261.87   17.50
   2  -3   6  276.77   18.40
  -2  -3  -6  258.87   17.70
  -2   3  -6  277.87   19.40
  -2   3  -6  279.27   22.40
  -2   3  -6  254.47   19.20
   2   3   6  213.08   19.00
   3  -3   6  217.28   16.20
  -3  -3  -6  253.57   16.00
   3  -3   6  234.48   17.60
   3  -3   6  236.28   16.90
  -3   3  -6  237.18   17.90
   3   3   6  242.38   18.10
  -3   3  -6  254.47   18.10
  -3   3  -6  224.28   20.30
   4  -3   6    1.50    3.00
   4  -3   6    4.60    4.60
  -4  -3  -6   -4.70    2.40
   4  -3   6   -1.80    3.60
  -4   3  -6    6.10    5.50
   4   3   6   -0.40    5.00
  -4   3  -6  -11.20    9.00
  -4   3  -6    2.50    5.10
   5  -3   6  237.48   18.20
   5  -3   6  224.48   17.10
  -5  -3  -6  236.28   16.50
   5  -3   6  264.37   17.40
  -5   3  -6  243.48   18.70
  -5   3  -6  248.78   18.00
   5   3   6  256.37   18.80
   6  -3   6  166.78   13.20
  -6  -3  -6  153.18   11.90
   6  -3   6  170.28   12.10
  -6   3  -6  157.98   13.20
  -6   3  -6  159.58   17.60
   6   3   6  176.28   14.00
  -6   3  -6  172.58   14.00
   7  -3   6   32.70    5.20
   7  -3   6   24.00    4.20
  -7  -3  -6   32.10    5.30
  -7   3  -6   43.70    7.20
   7   3   6   34.10    5.90
  -7   3  -6   31.00    9.40
  -8  -3  -6  168.88   11.90
   8  -3   6  145.39   11.70
  -8  -3  -6  168.78   12.00
   8   3   6  160.78   12.40
  -8   3  -6  135.39   12.40
 -10  -4   6  220.78   15.30
  10  -4  -6  243.98   15.60
  10  -4  -6  229.18   15.00
 -10   4   6  225.28   16.00
   9  -4  -6   53.99    7.00
   9  -4  -6   57.89    5.50
   9  -4  -6   47.60    8.90
  -9  -4   6   48.20    6.00
   9   4  -6   64.69    5.60
  -9   4   6   58.09    8.00
  -9   4   6   73.29    7.00
   8  -4  -6  195.88   13.80
   8  -4  -6  194.18   14.20
  -8  -4   6  189.08   13.90
   8  -4  -6  193.28   15.40
  -8  -4   6  198.28   13.60
  -8   4   6  205.38   14.70
   8   4  -6  190.88   14.10
  -8   4   6  199.58   16.10
   7  -4  -6  163.08   12.30
   7  -4  -6  155.38   11.90
   7  -4  -6  145.79   14.50
  -7  -4   6  142.89   11.30
  -7  -4   6  159.18   12.40
  -7   4   6  145.59   16.10
   7   4  -6  150.48   12.10
  -7   4   6  177.38   13.60
   7   4  -6  138.49   17.70
  -7   4   6  178.38   14.20
   6  -4  -6  162.88   13.30
   6  -4  -6  158.88   17.00
   6  -4  -6  180.78   12.10
  -6  -4   6  141.79   11.30
  -6  -4   6  168.88   13.10
   6   4  -6  138.79   12.10
  -6   4   6  131.59   14.60
  -6   4   6  188.98   14.60
   6   4  -6  162.08   19.20
  -6   4   6  140.89   17.50
   5  -4  -6   -2.60    6.80
  -5  -4   6    1.90    2.50
   5  -4  -6    9.50    3.30
   5   4  -6   13.90    8.60
  -5   4   6    4.80    4.50
   5   4  -6   -1.30    3.60
  -5   4   6    1.80    7.90
  -5   4   6   -6.90   10.70
  -5   4   6    6.70    7.40
   4  -4  -6  162.48   12.30
  -4  -4   6  157.38   11.60
  -4   4   6  160.78   13.90
  -4   4   6  163.88   16.20
   4   4  -6  165.88   13.30
   4   4  -6  175.48   17.00
  -3  -4   6  938.81   60.39
   3  -4  -6  984.80   60.79
  -3   4   6 1050.19   62.99
  -3   4   6  818.12   61.39
   3   4  -6  999.00   61.39
   3   4  -6  905.61   62.79
   2  -4  -6    9.80    3.90
  -2  -4   6   18.10    6.20
   2   4  -6   17.70    8.90
   2   4  -6   13.20    4.50
  -2   4   6   15.10    5.70
  -1  -4   6   12.50    5.60
  -1  -4   6   21.60    3.50
   1  -4  -6   26.20    4.90
  -1  -4   6    5.80    6.80
   1   4  -6   19.50    9.50
   1   4  -6   20.20    4.80
  -1   4   6   28.60    6.00
   0  -4   6  736.63   48.90
   0  -4   6  772.22   47.90
   0  -4   6  741.03   48.30
   0   4  -6  763.42   48.70
   0   4   6  722.33   49.10
   1  -4   6  304.27   19.40
   1  -4   6  296.07   20.80
   1  -4   6  281.97   20.00
  -1   4  -6  289.67   20.40
   1   4   6  266.87   21.00
   2  -4   6   31.90    4.50
   2  -4   6   33.90    5.20
   2  -4   6   19.90    4.20
  -2   4  -6   27.80    5.30
  -2   4  -6    7.80   12.20
   2   4   6   32.00    6.10
   3  -4   6   20.90    4.00
   3  -4   6   22.10    3.80
   3  -4   6   15.00    4.20
   3   4   6   18.20    5.10
  -3   4  -6   20.20    4.60
   4  -4   6   15.20    3.60
   4  -4   6   13.20    3.80
   4  -4   6   19.00    3.40
  -4   4  -6   21.60    4.50
   5  -4   6  277.97   20.20
   5  -4   6  281.57   19.50
   5  -4   6  302.37   20.10
   5   4   6  293.27   20.70
  -5   4  -6  301.27   20.10
   6  -4   6   46.10    5.80
   6  -4   6   37.30    4.80
  -6   4  -6   47.20    6.40
   6   4   6   46.90    6.90
   7  -4   6    2.40    2.20
   7   4   6    7.40    4.20
  -7   4  -6    5.70    3.80
   7  -5  -6   24.50    4.20
   6  -5  -6   49.20    7.00
   6  -5  -6   66.29    7.00
   6   5  -6   60.99    5.70
  -5  -5   6   38.20    5.60
   5  -5  -6   37.10    6.50
   5  -5  -6   50.19    8.40
   5   5  -6   42.20    5.40
   4  -5  -6   27.20    4.50
  -4  -5   6   25.20    3.70
  -3  -5   6    1.20    2.60
   3  -5  -6   -1.30    4.10
  -3  -5   6    1.60    4.20
   3   5  -6   -0.50    2.80
  -2  -5   6  264.57   17.60
  -2  -5   6  249.78   16.90
  -2   5   6  245.28   18.70
   2   5  -6  244.08   17.40
  -1  -5   6   17.00    3.60
  -1  -5   6   16.90    3.00
  -1   5   6   12.80    5.60
   1   5  -6   14.30    3.40
   0  -5   6   37.00    4.60
   0  -5   6   27.40    3.80
   0   5  -6   24.30    4.20
   0   5   6   35.40    6.10
   1  -5   6   15.80    2.90
   1  -5   6    9.00    5.30
   1  -5   6   20.90    3.30
  -1   5  -6   13.20    3.40
   1   5   6    5.00    5.00
   2  -5   6  464.95   29.80
   2  -5   6  445.26   29.90
   2  -5   6  472.55   30.50
  -2   5  -6  460.15   30.10
   2   5   6  464.95   31.10
   3  -5   6   46.40    6.30
   3  -5   6   41.60    6.80
   3  -5   6   44.80    4.80
   3   5   6   60.49    8.50
  -3   5  -6   58.79    5.90
   4  -5   6   16.20    2.50
   4  -5   6    9.30    3.60
  -4   5  -6   16.50    3.50
   4   5   6   20.10    5.70
 -13   0   7   -2.30    3.40
 -13   0   7    2.50    2.10
 -12   0   7    9.10    5.40
 -12   0   7    1.80    3.00
 -12   0   7   -2.20    3.70
 -11   0   7   -0.20    4.20
  11   0  -7   15.40    9.00
  11   0  -7    5.20    6.70
 -10   0   7    2.30    5.30
 -10   0   7    8.30    8.60
  10   0  -7   12.80   10.20
 -10   0   7    1.70    3.70
  10   0  -7   16.00    6.40
  -9   0   7    5.10    4.70
  -9   0   7    2.00    5.00
  -9   0   7    1.10    6.90
  -9   0   7    3.50    3.60
   9   0  -7  -11.00    6.30
   9   0  -7    4.60    9.30
  -9   0   7    7.20    4.50
  -8   0   7    1.60    6.40
   8   0  -7    7.40    8.30
   8   0  -7    1.30    5.80
  -8   0   7    6.10    5.10
   8   0  -7   -3.10    4.50
  -8   0   7   -3.40    4.50
   8   0  -7   17.90    9.00
  -8   0   7   -0.10    3.70
  -8   0   7    5.10    4.10
   7   0  -7    5.50    5.80
   7   0  -7   17.70    9.20
  -7   0   7   -0.90    4.00
   7   0  -7    2.40    6.60
  -7   0   7    2.60    5.00
   7   0  -7    7.00    6.30
  -7   0   7    4.80    6.20
   6   0  -7   -2.10    4.00
  -6   0   7   -1.30    3.30
  -6   0   7    3.30    5.10
  -6   0   7    1.20    4.30
   6   0  -7    1.80    5.90
  -6   0   7   -8.20    5.30
  -6   0   7   -0.20    3.10
   6   0  -7   -1.70    6.10
  -5   0   7    3.60    2.20
   5   0  -7    5.70    3.30
   5   0  -7   -5.00    4.20
  -5   0   7   -1.90    2.30
  -4   0   7   -1.90    3.30
   4   0  -7    2.50    3.60
  -4   0   7   -7.20    4.20
  -4   0   7    0.60    1.90
   4   0  -7   -2.00    2.30
   4   0  -7   -1.80    3.80
   3   0  -7    1.60    2.10
  -3   0   7   -1.00    3.10
  -3   0   7    5.50    1.90
   3   0  -7   -3.30    2.90
   3   0  -7    2.90    2.20
  -3   0   7   -0.20    3.60
   2   0  -7    2.80    1.90
   2   0  -7   -2.70    2.90
   2   0  -7   -0.30    2.70
  -2   0   7   -6.20    3.40
  -2   0   7   -0.40    1.80
  -2   0   7   -3.80    3.10
   1   0  -7    0.60    1.70
  -1   0   7   -1.00    1.90
   1   0  -7   -3.10    2.40
   1   0  -7    1.40    1.80
  -1   0   7   -0.70    3.00
   0   0  -7   -0.80    1.70
   0   0  -7   -2.30    2.00
   0   0  -7    0.00    2.60
   0   0   7    0.60    3.60
  -1   0  -7    6.10    3.50
  -1   0  -7   -2.60    1.60
   1   0   7    1.20    3.30
  -1   0  -7   -0.40    2.00
  -1   0  -7    1.40    2.80
  -2   0  -7    1.00    4.40
  -2   0  -7   -2.30    1.90
   2   0   7    8.30    4.80
  -3   0  -7   -6.90    4.60
  -3   0  -7    6.40    5.10
  -3   0  -7    1.30    2.00
  -3   0  -7    4.80    6.60
  -4   0  -7    0.40    2.20
  -4   0  -7   -1.20    4.90
  -4   0  -7   -1.50    4.30
   5   0   7   -9.40    8.40
  -5   0  -7    5.40    4.00
  -5   0  -7   -4.10    4.00
  -5   0  -7    2.10    2.50
  -6   0  -7    4.20    3.00
  -6   0  -7   -0.50    4.10
  -6   0  -7   10.40    4.00
   6   0   7  -11.90    7.80
  -7   0  -7    1.00    3.50
  -7   0  -7    3.60    3.30
  -7   0  -7   -1.50    4.20
   7   0   7   -1.90    7.60
   8   0   7    5.40    7.50
  -8   0  -7    4.00    4.70
  -8   0  -7    1.20    3.20
  -8   0  -7    5.00    3.50
  -9   0  -7   -3.70    2.80
  -9   0  -7    0.30    2.30
  -9   0  -7    4.60    8.80
 -10   0  -7   -2.00    2.40
 -10   0  -7    2.90    3.80
 -10   0  -7   -2.20    2.20
 -13  -1   7    2.80    2.40
 -13  -1   7    2.20    2.10
 -13  -1   7    4.60    3.70
 -13   1   7    1.60    3.40
 -13   1   7   -3.10    3.30
 -12  -1   7   11.80    4.10
  12  -1  -7    7.90    4.20
 -12   1   7    2.10    3.10
 -12   1   7    3.70    3.90
 -11  -1   7   -1.50    3.60
 -11  -1   7   -5.00    4.10
 -11  -1   7    8.10    4.70
  11  -1  -7    4.60    4.10
 -11  -1   7    3.40    2.90
  11   1  -7   17.00    6.60
 -11   1   7    3.70    4.60
 -11   1   7   -0.90    7.00
 -11   1   7   -1.50    3.50
 -10  -1   7    9.90    4.50
  10  -1  -7    3.80    4.90
  10  -1  -7   12.10    5.40
 -10  -1   7    7.00    3.60
 -10  -1   7    9.60    4.00
 -10  -1   7    1.40    4.90
  10   1  -7    5.80    4.00
  10   1  -7    2.60    7.60
 -10   1   7   14.40    5.90
 -10   1   7   11.20    7.70
  -9  -1   7   24.90    4.30
   9  -1  -7   32.40    5.20
  -9  -1   7   46.80    9.60
  -9  -1   7   34.00    5.80
  -9  -1   7   39.90    5.30
  -9   1   7   36.80    7.80
   9   1  -7   25.50    8.40
   9   1  -7   31.00    5.40
  -9   1   7   43.60    7.40
  -9   1   7   52.09   10.00
  -8  -1   7   19.60    5.00
  -8  -1   7   21.40    3.40
   8  -1  -7   17.60    5.50
  -8  -1   7   15.70    3.90
  -8  -1   7    8.10    7.20
   8  -1  -7   32.80    5.70
   8  -1  -7   31.70    5.00
  -8   1   7   29.30    6.80
  -8   1   7   24.00    7.10
   8   1  -7   12.60    7.50
   8   1  -7   24.60    5.30
  -8   1   7   21.60    6.50
  -7  -1   7   91.29    7.60
  -7  -1   7   98.59    9.30
   7  -1  -7  105.79    8.60
   7  -1  -7   86.69   11.90
  -7  -1   7  124.29   11.90
   7  -1  -7   97.19    9.80
  -7  -1   7   81.99   10.00
   7   1  -7   96.39   17.10
  -7   1   7  114.09   13.10
   7   1  -7  105.89   11.10
   7   1  -7   95.69   13.20
  -7   1   7   83.39   13.90
   7   1  -7   76.59   12.10
  -7   1   7  103.69   12.00
  -6  -1   7   53.09    8.60
   6  -1  -7   63.49    8.40
   6  -1  -7   57.49    7.10
  -6  -1   7   43.10    5.00
   6  -1  -7   59.59    8.90
   6  -1  -7   58.19    5.90
  -6  -1   7   46.60    7.90
  -6  -1   7   61.79   11.60
  -6   1   7   52.59   10.50
   6   1  -7   65.09   10.20
  -6   1   7   52.89   10.50
  -6   1   7   46.40    9.10
   6   1  -7   39.70    9.00
  -6   1   7   42.30    7.00
  -5  -1   7  139.59   11.40
  -5  -1   7  130.59   10.00
   5  -1  -7  160.48   10.40
   5  -1  -7  127.59   11.30
   5   1  -7  147.29   14.20
   4  -1  -7   50.09    6.20
   4  -1  -7   41.30   10.50
  -4  -1   7   41.90    7.30
   4  -1  -7   46.90    4.80
  -4  -1   7   47.60    4.40
   4   1  -7   42.80    8.50
  -3  -1   7  428.26   28.30
   3  -1  -7  410.56   31.50
   3  -1  -7  424.26   28.30
   3  -1  -7  459.15   27.90
  -3  -1   7  426.26   28.60
  -3  -1   7  420.16   27.70
   3   1  -7  450.55   29.20
  -2  -1   7  390.36   23.70
  -2  -1   7  367.76   23.50
   2  -1  -7  397.36   23.10
   2  -1  -7  342.67   22.70
   2  -1  -7  352.76   23.40
  -2  -1   7  384.96   22.90
   2  -1  -7  329.27   26.80
   2   1  -7  343.27   23.90
   2   1  -7  320.77   23.70
   2   1  -7  312.37   23.60
  -1  -1   7  369.96   26.90
  -1  -1   7  458.85   27.00
  -1  -1   7  452.15   26.40
   1  -1  -7  430.96   26.80
   1  -1  -7  376.56   26.30
   1  -1  -7  402.36   26.20
   1   1  -7  430.36   27.00
   1   1  -7  358.46   26.80
   0  -1  -7   17.30    3.60
   0  -1   7   17.40    3.10
   0  -1   7   18.30    3.90
   0  -1   7   22.30    5.10
   0  -1  -7   13.60    2.50
   0  -1  -7   14.70    2.50
   0   1  -7   17.40    3.60
   1  -1   7  994.90   61.99
  -1  -1  -7 1049.40   62.49
  -1  -1  -7 1024.80   61.89
  -1   1  -7  897.31   62.19
  -1   1  -7  931.91   62.09
  -2  -1  -7  118.19    9.60
  -2  -1  -7  104.39    7.70
   2  -1   7   99.69    8.30
  -2   1  -7  106.79    8.30
  -3  -1  -7   72.79    5.80
   3  -1   7   90.09   10.30
   3  -1   7   55.39    8.70
   3   1   7   78.89   10.80
  -3   1  -7   52.89    8.40
  -3   1  -7   79.39    8.40
  -3   1  -7   70.29    6.70
  -3   1  -7   63.19    9.70
   4  -1   7   99.19   10.50
  -4  -1  -7   76.59    6.50
  -4  -1  -7   68.69   10.60
  -4  -1  -7   78.39   11.20
   4  -1   7   78.99   10.40
  -4   1  -7   79.29    7.60
   4   1   7   76.69   10.90
  -4   1  -7   97.69    8.40
  -4   1  -7   75.49    9.00
  -5  -1  -7   -9.30    4.20
   5  -1   7   -1.50    5.10
  -5  -1  -7   -3.50    2.30
  -5  -1  -7    0.70    4.90
  -5   1  -7    5.40    4.00
  -5   1  -7    4.80    4.00
   5   1   7    4.30    5.50
  -5   1  -7    7.20    3.70
  -6  -1  -7    7.90    4.10
  -6  -1  -7   -1.70    2.60
  -6  -1  -7   -1.30    5.00
   6  -1   7   -3.50    5.20
   6   1   7    3.90    5.60
  -6   1  -7   -1.80    4.10
  -6   1  -7    5.40    3.80
   7  -1   7   81.79   12.30
  -7  -1  -7   77.99   10.20
  -7  -1  -7  106.19    9.00
  -7  -1  -7   94.09    8.40
   7   1   7  110.69   11.10
  -7   1  -7  100.49   11.40
  -7   1  -7   94.19    9.70
  -7   1  -7  106.79    9.20
  -8  -1  -7   60.19    6.40
  -8  -1  -7   47.20    7.50
  -8  -1  -7   67.39    7.10
  -8   1  -7   51.19    8.10
   8   1   7   71.49    9.40
  -8   1  -7   53.59    7.00
  -8   1  -7   66.39    7.00
  -9  -1  -7   27.40    5.20
  -9  -1  -7   19.70    3.90
  -9  -1  -7   25.60    4.20
   9   1   7   27.90    5.70
  -9   1  -7   26.40    4.20
  -9   1  -7   13.10    5.00
 -10  -1  -7   -0.30    3.30
 -10  -1  -7    4.30    2.40
 -10  -1  -7    2.30    3.20
 -10   1  -7    4.20    2.60
 -10   1  -7    5.30    3.70
  10   1   7    1.10    6.20
 -12  -2   7  166.98   12.00
 -12  -2   7  159.58   10.80
  12  -2  -7  140.79   11.40
  12   2  -7  148.79   12.40
 -12   2   7  157.48   11.80
  11  -2  -7   -1.90    3.80
  11  -2  -7    5.80    5.60
 -11  -2   7    4.50    3.90
 -11  -2   7    1.20    3.50
 -11  -2   7    1.10    3.90
 -11  -2   7   -1.80    2.50
 -11   2   7    4.30    4.40
 -11   2   7   -0.20    5.20
  11   2  -7   -8.80    5.40
  11   2  -7    0.50    2.80
 -10  -2   7  454.45   29.20
  10  -2  -7  472.35   30.10
 -10  -2   7  452.45   29.40
  10  -2  -7  449.46   29.10
 -10  -2   7  436.26   29.80
  10   2  -7  448.36   29.70
 -10   2   7  453.75   30.90
  10   2  -7  423.26   31.00
 -10   2   7  418.66   30.90
   9  -2  -7   40.40    6.90
  -9  -2   7   42.00    6.40
  -9  -2   7   50.39    6.70
  -9  -2   7   37.80    5.40
   9  -2  -7   39.10    5.50
  -9   2   7   29.10    8.10
   9   2  -7   50.39    7.40
  -9   2   7   36.70    8.10
   9   2  -7   38.40    8.60
   8  -2  -7   49.10    7.50
   8  -2  -7   49.90    7.40
  -8  -2   7   64.19   12.50
  -8  -2   7   37.80    6.10
  -8  -2   7   51.19    7.40
  -8  -2   7   41.80    5.20
   8  -2  -7   41.20    6.40
  -8   2   7   31.80    8.20
   8   2  -7   57.49    9.50
   8   2  -7   39.10    7.30
  -8   2   7   51.19    9.10
   7  -2  -7    8.40    4.30
  -7  -2   7   -0.20    4.60
  -7  -2   7    2.40    7.10
  -7  -2   7    5.70    2.40
  -7  -2   7    6.00    4.10
   7  -2  -7    3.80    5.60
   7  -2  -7    3.10    2.80
  -7   2   7   -3.90    4.20
   7   2  -7    6.70    4.50
  -7   2   7    8.30    8.20
  -7   2   7    5.60    6.50
   7   2  -7    3.50    7.30
   7   2  -7    7.40    6.60
  -6  -2   7   91.29   10.70
   6  -2  -7   84.39   12.50
   6  -2  -7  105.79    7.90
  -6  -2   7   99.39   11.20
   6  -2  -7   92.59   10.40
  -6  -2   7   97.99    7.40
   6   2  -7   76.79   11.20
   6   2  -7   91.79   13.50
  -6   2   7   98.09    9.30
   6   2  -7   66.59   10.40
  -6   2   7   73.59   12.90
  -6   2   7   86.09   13.40
   5  -2  -7  114.99    8.30
  -5  -2   7  105.79   11.80
  -5  -2   7   88.89   11.70
  -5  -2   7   98.29    7.80
   5  -2  -7  100.19   12.40
   5  -2  -7  121.79   13.80
   5   2  -7  112.89   13.90
  -5   2   7   81.29   16.70
  -5   2   7   92.29   10.60
  -5   2   7   80.29   13.70
   5   2  -7   89.29   11.50
   5   2  -7  104.99   11.40
  -4  -2   7  930.81   57.29
  -4  -2   7  924.41   55.69
   4  -2  -7  868.31   55.89
   4  -2  -7  890.01   57.29
   4   2  -7  878.81   57.49
   4   2  -7  858.81   57.99
  -4   2   7  782.32   56.89
  -3  -2   7  748.23   52.49
   3  -2  -7  697.93   48.20
   3  -2  -7  793.82   48.90
  -3  -2   7  846.32   48.10
   3   2  -7  820.52   53.79
  -3   2   7  712.73   49.40
   3   2  -7  675.73   49.70
   2  -2  -7   17.50    4.70
   2  -2  -7   12.70    2.60
  -2  -2   7   17.70    4.90
  -2  -2   7   14.00    2.30
   2   2  -7   17.00    7.20
  -2   2   7    9.00    5.80
   2   2  -7   16.00    7.10
  -1  -2   7   21.40    5.70
  -1  -2   7   13.00    2.20
   1  -2  -7   12.30    4.10
  -1  -2   7   13.60    4.90
   1  -2  -7   10.30    2.20
   1   2  -7   25.20    6.80
  -1   2   7   20.00    5.90
   1   2  -7   -2.40   10.60
   0  -2  -7  130.49    9.40
   0  -2  -7  143.19   10.40
   0  -2   7  153.78    9.70
   0  -2   7  138.89   12.10
   0  -2   7  138.39   11.50
   0  -2   7  151.28   12.00
   0   2  -7  124.59   13.60
   0   2  -7  116.79   21.30
   0   2  -7  131.29   13.40
   0   2   7  125.89   12.80
  -1  -2  -7   30.50    4.80
   1  -2   7   23.40    5.10
   1  -2   7   25.10    5.80
   1  -2   7   24.40    7.70
   1  -2   7   21.40    3.60
  -1  -2  -7   28.70    3.40
  -1   2  -7   27.20    7.30
  -1   2  -7   16.80    7.10
   1   2   7   23.50    6.30
   2  -2   7  267.87   20.20
  -2  -2  -7  327.37   20.10
   2  -2   7  326.87   21.10
   2  -2   7  336.07   22.00
   2   2   7  312.37   22.20
  -2   2  -7  288.27   22.50
  -2   2  -7  295.37   22.40
  -2   2  -7  300.27   23.30
  -3  -2  -7   18.50    3.40
   3  -2   7   19.20    4.50
   3  -2   7   13.50    5.10
   3  -2   7   15.20    3.50
  -3   2  -7   25.10    6.70
  -3   2  -7    8.20    5.70
  -3   2  -7   14.60    7.20
   3   2   7   22.20    5.80
   4  -2   7  463.25   32.10
   4  -2   7  471.95   31.40
   4  -2   7  491.25   31.40
  -4  -2  -7  507.25   30.90
  -4   2  -7  436.66   33.20
   4   2   7  461.55   32.50
  -4   2  -7  505.05   33.00
  -4   2  -7  478.35   32.00
  -5  -2  -7  404.76   26.70
   5  -2   7  389.46   27.10
   5  -2   7  461.15   28.20
   5   2   7  397.26   28.40
  -5   2  -7  404.26   28.80
  -5   2  -7  420.86   32.20
  -5   2  -7  384.56   27.70
  -6  -2  -7   68.49    6.50
  -6  -2  -7   63.49    8.90
   6  -2   7   68.59    9.40
   6  -2   7   70.39   10.00
  -6   2  -7   71.19   11.20
  -6   2  -7   68.09    8.90
   6   2   7   88.59   10.30
  -7  -2  -7   50.09    5.80
  -7  -2  -7   72.79   10.00
  -7  -2  -7   40.00    6.70
   7  -2   7   49.30    7.80
  -7   2  -7   47.90    7.10
  -7   2  -7   57.59    9.20
   8  -2   7  215.28   16.30
  -8  -2  -7  226.78   17.10
  -8  -2  -7  240.78   16.00
  -8  -2  -7  225.78   15.70
  -8   2  -7  233.18   17.50
   8   2   7  224.38   16.80
  -8   2  -7  226.98   16.40
  -9  -2  -7   16.80    5.60
   9   2   7   19.10    4.40
  -9   2  -7   18.80    4.60
  -9   2  -7   14.00    5.70
  11  -3  -7  219.38   15.50
  11  -3  -7  214.18   14.80
 -11  -3   7  226.48   15.00
 -11  -3   7  227.98   16.00
 -11   3   7  224.68   16.20
  11   3  -7  244.28   15.40
 -10  -3   7   33.50    4.80
  10  -3  -7   30.80    5.00
  10  -3  -7   28.50    4.70
 -10  -3   7   33.20    5.50
 -10  -3   7   35.50    5.20
 -10   3   7   30.40    5.70
 -10   3   7   29.80    5.40
  10   3  -7   41.70    7.30
  10   3  -7   34.20    4.80
  -9  -3   7    0.90    2.90
  -9  -3   7   -0.40    4.40
   9  -3  -7   -1.60    3.00
  -9  -3   7    3.70    3.50
   9  -3  -7   -1.10    4.30
   9  -3  -7    1.30    4.40
   9   3  -7    7.70    3.20
  -9   3   7   13.00    5.10
  -9   3   7   -1.30    6.00
   9   3  -7   -8.10    6.40
   8  -3  -7  120.29   10.10
   8  -3  -7  119.99    9.80
  -8  -3   7  102.19   11.50
  -8  -3   7   94.39    9.80
  -8  -3   7  105.59    9.10
   8  -3  -7  133.99   11.60
  -8   3   7  131.69   14.30
   8   3  -7  120.59   10.30
  -8   3   7  131.29   13.70
   8   3  -7  111.09   14.10
   7  -3  -7  256.37   18.80
  -7  -3   7  255.47   19.60
   7  -3  -7  269.57   20.80
   7  -3  -7  269.37   18.10
  -7  -3   7  248.58   17.70
  -7  -3   7  256.77   18.60
  -7  -3   7  268.97   21.30
  -7   3   7  220.18   22.80
  -7   3   7  268.67   19.00
   7   3  -7  269.77   22.20
  -7   3   7  267.37   21.50
   6  -3  -7   24.30    6.20
  -6  -3   7   27.80    5.80
   6  -3  -7   25.70    7.50
  -6  -3   7   30.30    6.90
   6  -3  -7   17.70    3.60
  -6  -3   7   16.30    3.40
  -6   3   7   25.60   11.10
   6   3  -7    9.90    9.50
   6   3  -7   31.10    7.50
   6   3  -7   16.80    5.20
  -6   3   7   21.50    5.20
  -6   3   7   22.50    8.70
   5  -3  -7  358.26   25.60
   5  -3  -7  416.96   29.40
   5  -3  -7  349.37   27.20
  -5  -3   7  433.16   25.50
  -5  -3   7  364.36   27.20
  -5  -3   7  381.96   26.70
   5   3  -7  377.86   29.30
   5   3  -7  413.26   27.80
   5   3  -7  379.36   26.60
  -5   3   7  385.56   26.70
  -4  -3   7    4.70    5.70
   4  -3  -7   -0.80    2.50
  -4  -3   7    0.20    2.00
  -4  -3   7    8.20    6.80
   4   3  -7   -9.70    5.70
  -4   3   7   -5.20    4.50
  -4   3   7    8.10    8.20
   4   3  -7    1.80    4.10
   4   3  -7   18.50   12.20
  -3  -3   7  635.14   43.60
  -3  -3   7  611.24   42.90
   3  -3  -7  616.54   42.30
  -3  -3   7  735.93   42.20
   3   3  -7  690.73   43.20
  -3   3   7  578.94   43.40
   3   3  -7  700.43   44.40
  -3   3   7  702.73   46.00
   2  -3  -7    3.00    2.80
  -2  -3   7   11.20    6.20
  -2   3   7  -22.50   11.70
   2   3  -7    6.90    6.90
  -2   3   7    1.90    5.00
   2   3  -7    5.80    5.00
  -1  -3   7  622.24   40.20
   1  -3  -7  615.04   39.60
  -1  -3   7  590.14   40.80
  -1  -3   7  634.14   39.60
   1   3  -7  599.24   41.80
   1   3  -7  629.04   40.70
  -1   3   7  630.84   41.10
   0  -3  -7   23.30    3.60
   0  -3   7   28.20    5.80
   0  -3   7   27.80    4.90
   0  -3   7   23.60    3.70
   0   3  -7   17.80    7.90
   0   3  -7   34.60    6.10
   0   3   7   16.90    5.60
   1  -3   7   86.19    9.50
  -1  -3  -7   84.29    7.10
   1  -3   7   73.29    8.50
   1  -3   7   86.89    7.00
   1   3   7  107.99   10.00
  -1   3  -7   91.29   10.00
  -1   3  -7   75.69   12.70
   2  -3   7   35.20    5.70
   2  -3   7   40.50    4.80
   2  -3   7   36.10    5.00
   2   3   7   42.20    6.80
  -2   3  -7   43.20    9.00
  -2   3  -7   40.10    6.70
  -3  -3  -7  264.27   18.20
   3  -3   7  306.17   19.90
   3  -3   7  260.77   18.90
   3  -3   7  264.67   18.60
   3   3   7  270.77   20.10
  -3   3  -7  260.37   22.30
  -3   3  -7  286.17   20.00
   4  -3   7  187.18   14.00
  -4  -3  -7  167.48   12.30
   4  -3   7  167.88   13.10
   4  -3   7  163.98   13.00
   4   3   7  191.78   14.60
  -4   3  -7  186.78   17.90
  -4   3  -7  171.18   14.50
  -5  -3  -7   30.60    4.80
   5  -3   7   38.20    4.90
   5  -3   7   19.50    5.90
   5  -3   7   39.90    7.20
  -5   3  -7   27.90    5.90
   5   3   7   42.90    7.70
  -5   3  -7   36.00    8.80
  -6  -3  -7    4.10    2.90
   6  -3   7    1.40    3.30
   6  -3   7   -1.20    3.40
  -6   3  -7    4.30    7.80
  -6   3  -7    4.60    5.10
   6   3   7    6.70    4.10
   7  -3   7   23.00    4.00
  -7  -3  -7   30.80    5.50
  -7  -3  -7   34.70    4.70
  -7   3  -7   36.50    6.60
   7   3   7   33.60    6.20
  -7   3  -7   13.70    8.30
   8  -3   7    1.10    3.00
  -8  -3  -7   -3.30    3.40
   8   3   7   -3.70    3.60
   9  -4  -7   54.59    7.20
   9  -4  -7   56.49    5.40
  -9   4   7   69.79    8.00
   9   4  -7   65.29    5.90
  -8  -4   7   30.30    4.00
   8  -4  -7   36.00    5.80
   8  -4  -7   30.70    4.80
   8  -4  -7   29.10    5.70
  -8  -4   7   27.20    4.80
  -8   4   7   32.80    5.80
  -8   4   7   18.00    6.20
   8   4  -7   29.50    4.80
   7  -4  -7   32.10    5.40
   7  -4  -7   23.60    6.30
   7  -4  -7   36.90    5.90
  -7  -4   7   24.80    4.20
  -7  -4   7   32.30    4.80
   7   4  -7   21.20    4.10
   7   4  -7   43.80   10.30
  -7   4   7   30.70    6.70
  -7   4   7   23.80    8.00
   6  -4  -7   30.00    8.30
   6  -4  -7   21.70    3.90
  -6  -4   7   27.70    4.70
   6  -4  -7   29.40    5.10
  -6  -4   7   22.60    4.70
  -6   4   7   33.40   10.00
   6   4  -7   28.50    4.90
   6   4  -7   14.60   11.90
  -6   4   7   44.90    8.00
  -6   4   7   38.60    6.30
  -5  -4   7    1.70    2.60
   5  -4  -7    5.00    3.20
   5  -4  -7    0.20    5.90
  -5  -4   7   -1.90    4.80
  -5   4   7  -11.70    6.80
   5   4  -7   -0.80    6.90
   5   4  -7   -0.50    3.70
  -5   4   7   -0.70    3.90
  -4  -4   7  317.87   20.20
   4  -4  -7  310.27   20.60
  -4  -4   7  306.57   21.40
   4   4  -7  308.77   23.30
  -4   4   7  282.87   24.10
  -4   4   7  281.97   21.30
   4   4  -7  294.37   21.30
  -3  -4   7    0.10    2.20
  -3  -4   7   -3.70    4.90
  -3  -4   7   -1.20    7.10
   3  -4  -7    4.20    3.30
  -3   4   7    1.30    4.80
   3   4  -7   -2.30    3.80
  -3   4   7   -1.30    8.50
   3   4  -7   -0.40    7.30
  -2  -4   7   68.89   11.30
   2  -4  -7   56.19    7.50
  -2  -4   7   88.69    9.10
  -2  -4   7   75.69    6.40
  -2   4   7   70.39    9.40
   2   4  -7   70.89    8.70
   2   4  -7   87.49   13.10
   1  -4  -7  134.39   11.30
  -1  -4   7  145.29   11.80
  -1  -4   7  134.19   13.20
  -1  -4   7  136.49   10.10
   1   4  -7  138.89   15.60
   1   4  -7  141.89   12.00
  -1   4   7  128.89   12.50
   0  -4   7  128.49   10.90
   0  -4   7  132.39    9.70
   0  -4   7  131.79   12.20
   0   4  -7  110.39   15.40
   0   4   7  126.49   11.90
   0   4  -7  140.79   11.20
   1  -4   7   15.90    3.70
   1  -4   7   13.50    4.30
  -1   4  -7   13.90    4.60
   1   4   7   16.20    5.10
  -1   4  -7   12.20    9.80
   2  -4   7    5.40    3.00
   2  -4   7    0.10    3.30
   2  -4   7    7.10    3.90
  -2   4  -7   12.20    9.70
  -2   4  -7    2.70    4.20
   2   4   7    3.40    4.40
   3  -4   7    5.00    3.40
   3  -4   7    5.50    2.80
   3  -4   7   -3.20    3.30
  -3   4  -7    1.70   10.20
   3   4   7    6.90    4.20
  -3   4  -7    5.10    4.10
   4  -4   7   64.69    6.60
   4  -4   7   65.99    7.50
   4  -4   7   73.69    7.60
   4   4   7   77.49    8.40
  -4   4  -7   86.99    7.80
   5  -4   7   -2.20    2.20
   5  -4   7    3.10    2.70
  -5   4  -7    3.10    3.90
   5   4   7   -2.00    3.70
   6  -4   7   54.89    5.30
   6  -4   7   52.09    5.70
  -6   4  -7   59.79    7.40
   6   4   7   63.39    7.20
   7  -5  -7    5.60    2.30
  -7  -5   7   -3.80    3.40
   7   5  -7    3.60    1.90
  -6  -5   7   71.29    7.30
   6  -5  -7   47.80    6.20
   6   5  -7   60.79    5.50
  -5  -5   7   -1.60    3.10
   5  -5  -7    3.30    3.80
  -5  -5   7    5.60    3.50
   5  -5  -7    5.40    4.50
   5   5  -7    4.40    2.60
  -4  -5   7    1.80    2.90
  -4  -5   7    6.90    3.40
   4  -5  -7    3.70    3.90
   4   5  -7    3.00    2.70
  -3  -5   7    0.00    2.50
   3  -5  -7   -7.50    4.50
  -3  -5   7    0.40    3.20
   3   5  -7    0.10    2.80
  -3   5   7   -1.00    4.50
  -2  -5   7   62.59    6.20
  -2  -5   7   78.39    6.90
  -2   5   7   73.59    8.50
   2   5  -7   63.99    6.90
  -1  -5   7    0.40    2.60
  -1  -5   7   11.10    2.90
  -1   5   7   10.90    4.50
   1   5  -7    0.90    2.90
   0  -5   7   -3.40    2.20
   0  -5   7    5.60    5.00
   0  -5   7    1.30    2.70
   0   5   7    4.90    4.40
   0   5  -7    4.80    3.20
   1  -5   7   11.60    4.30
   1  -5   7    5.00    3.00
   1  -5   7    4.60    2.30
  -1   5  -7    0.30    2.90
   1   5   7    4.10    4.50
   2  -5   7   46.50    4.60
   2  -5   7   47.30    6.20
   2  -5   7   52.59    6.00
   2   5   7   44.90    6.10
  -2   5  -7   47.40    5.60
   3  -5   7  106.99    8.20
   3  -5   7  109.09    7.30
   3   5   7   95.39    9.60
  -3   5  -7   81.09    7.80
 -13   0   8  196.08   13.10
 -13   0   8  183.88   13.70
 -12   0   8  205.28   15.40
 -11   0   8   45.30    7.10
 -11   0   8   63.79   12.50
  11   0  -8   53.09    9.90
 -11   0   8   60.59    7.50
  11   0  -8   33.20    7.20
 -10   0   8  130.19   14.70
  10   0  -8  151.08   17.10
 -10   0   8  165.28   13.00
 -10   0   8  176.18   14.20
  10   0  -8  156.78   14.30
 -10   0   8  153.98   11.80
  -9   0   8  980.40   66.19
  -9   0   8 1118.39   67.79
   9   0  -8 1003.10   67.39
   9   0  -8 1015.70   68.19
  -9   0   8 1041.50   67.69
  -9   0   8 1098.39   67.09
  -8   0   8   55.29    7.90
  -8   0   8   76.49    9.80
  -8   0   8   65.09    8.40
   8   0  -8   63.59   11.60
   8   0  -8   59.09    9.90
  -8   0   8   58.79    7.10
   7   0  -8   28.40    6.10
  -7   0   8   28.20    6.90
  -7   0   8   39.20    5.10
   7   0  -8   54.99    9.70
   7   0  -8   25.40    7.80
  -7   0   8   38.00    5.90
   7   0  -8   42.80    9.20
  -6   0   8   39.30    6.40
   6   0  -8   54.39    6.90
   6   0  -8   37.60    7.00
  -6   0   8   43.60    7.30
   6   0  -8   38.10    7.40
   6   0  -8   52.39   10.00
  -6   0   8   49.60    8.70
  -5   0   8 3496.95  213.78
   5   0  -8 3503.95  213.98
   5   0  -8 3209.38  216.38
   4   0  -8   -1.70    4.70
   4   0  -8   -0.20    6.10
  -4   0   8    2.70    2.40
   4   0  -8   10.60    2.90
   3   0  -8  867.71   57.89
   3   0  -8  828.92   57.99
   3   0  -8 1040.10   58.69
   2   0  -8  222.68   16.10
   2   0  -8  221.58   15.30
  -2   0   8  245.88   15.60
   2   0  -8  216.18   15.70
   1   0  -8 1991.60  119.09
   1   0  -8 1717.53  118.59
   1   0  -8 1939.51  118.59
   0   0  -8   99.29    9.10
   0   0  -8  115.29    7.90
   0   0  -8   99.49    8.80
  -1   0  -8  494.55   32.10
  -1   0  -8  501.85   33.10
  -2   0  -8  -10.30    6.20
  -2   0  -8   -0.20    4.80
  -2   0  -8    2.30    2.10
  -2   0  -8    3.60    5.20
  -3   0  -8   60.49    8.50
  -3   0  -8   57.69    5.50
  -3   0  -8   44.70    7.80
  -4   0  -8  680.63   47.80
  -4   0  -8  793.62   47.90
  -4   0  -8  762.72   48.40
  -5   0  -8 1050.99   67.29
  -5   0  -8 1033.70   66.79
  -5   0  -8 1058.29   66.79
  -6   0  -8   -0.50    3.40
  -6   0  -8    2.50    3.20
  -6   0  -8    0.00    3.90
  -7   0  -8   53.09    6.40
  -7   0  -8   50.79    6.60
  -7   0  -8   53.29    7.10
  -8   0  -8   27.30    3.80
  -8   0  -8   26.00    4.20
  -8   0  -8   36.90    6.50
  -8   0  -8   17.60    5.70
  -9   0  -8  403.16   27.50
  -9   0  -8  378.56   26.50
  -9   0  -8  457.65   27.30
 -13  -1   8   49.40    4.60
 -13  -1   8   34.90    6.20
 -13   1   8   42.80    5.90
 -12  -1   8  200.78   14.60
  12  -1  -8  201.58   14.70
 -12   1   8  189.58   14.20
 -12   1   8  205.18   14.80
 -11  -1   8   -1.70    5.60
  11  -1  -8    2.80    4.40
 -11  -1   8    1.20    3.00
 -11  -1   8   10.60    3.70
 -11  -1   8    3.30    4.20
 -11   1   8    8.00    4.60
  11   1  -8   12.00    7.00
 -11   1   8    0.80    3.70
 -11   1   8   13.70    5.90
 -10  -1   8   19.70    4.50
 -10  -1   8   14.80    4.50
 -10  -1   8   25.20    5.40
  10  -1  -8   30.90    6.00
  10  -1  -8   18.70    4.70
 -10  -1   8   17.70   11.50
 -10  -1   8   19.80    3.90
  10   1  -8   17.50    4.70
 -10   1   8   17.30    5.90
 -10   1   8   16.10    6.50
  10   1  -8   18.80    7.20
  -9  -1   8   -0.20    6.70
  -9  -1   8    0.60    4.30
   9  -1  -8   10.70    5.10
  -9  -1   8   11.20    3.60
  -9   1   8    0.50    5.90
   9   1  -8   24.60    7.60
   9   1  -8    5.40    4.50
  -9   1   8    9.50    5.90
  -9   1   8   -3.00    6.00
  -8  -1   8  415.76   26.50
  -8  -1   8  392.36   26.60
   8  -1  -8  366.56   27.90
   8  -1  -8  439.26   26.90
   8  -1  -8  404.76   27.00
  -8  -1   8  403.06   27.90
  -8  -1   8  391.46   27.20
  -8   1   8  374.86   27.90
   8   1  -8  398.66   29.80
  -8   1   8  389.46   28.80
  -8   1   8  392.16   28.30
   8   1  -8  441.26   28.70
   8   1  -8  412.06   27.60
   7  -1  -8  175.78   14.60
  -7  -1   8  161.88   14.90
   7  -1  -8  178.78   13.00
   7  -1  -8  174.08   12.40
  -7  -1   8  164.38   12.60
  -7  -1   8  149.59   13.20
  -7  -1   8  158.68   11.80
   7   1  -8  153.08   14.70
  -7   1   8  169.28   15.50
  -7   1   8  159.28   13.20
   7   1  -8  137.49   17.20
  -7   1   8  149.29   16.30
  -7   1   8  189.48   14.80
   7   1  -8  163.38   16.00
   7   1  -8  177.18   15.20
  -6  -1   8  111.79    8.80
  -6  -1   8  114.09   10.80
  -6  -1   8  123.09   10.30
   6  -1  -8  106.99   10.90
  -6  -1   8  122.89   13.00
   6  -1  -8  108.29   11.90
   6  -1  -8  123.89    9.40
   6   1  -8  112.29   13.60
  -6   1   8  105.49   17.20
   6   1  -8  107.69   13.80
  -6   1   8  104.89   11.00
   6   1  -8  131.69   12.60
  -6   1   8  105.29   12.00
   6   1  -8  114.29   15.20
  -6   1   8  112.39   14.40
   5  -1  -8 1228.38   84.09
   5  -1  -8 1218.18   83.19
  -5  -1   8 1407.76   83.39
   5  -1  -8 1517.85   83.59
  -5  -1   8 1288.37   83.79
  -5  -1   8 1194.38   83.69
  -5  -1   8 1250.17   82.99
  -5   1   8 1356.86   84.09
  -5   1   8 1526.65   84.99
   5   1  -8 1192.98   84.39
   5   1  -8 1263.67   84.39
  -4  -1   8  825.72   56.19
   4  -1  -8  888.81   56.39
   4  -1  -8  997.60   57.29
  -4  -1   8  893.71   56.99
   4   1  -8  819.22   57.99
   3  -1  -8  425.66   28.30
  -3  -1   8  462.15   29.00
  -3  -1   8  420.26   29.70
  -3  -1   8  463.15   28.20
   3  -1  -8  435.66   29.10
   3   1  -8  402.96   30.00
  -2  -1   8  101.89   11.10
   2  -1  -8   92.59    9.40
  -2  -1   8  110.99    7.80
   2  -1  -8  104.49    9.40
   2  -1  -8  110.99    7.90
  -2  -1   8   98.09    9.70
   2   1  -8  120.49   10.60
   2   1  -8  106.39   10.00
   1  -1  -8  122.39    8.90
   1  -1  -8  124.19    8.40
  -1  -1   8  113.89   11.00
   1  -1  -8  117.59    9.70
  -1  -1   8  109.89   10.30
  -1  -1   8  109.49    8.40
   1   1  -8  108.59    9.40
   1   1  -8  118.49   10.40
   0  -1  -8 1486.65   89.79
   0  -1   8 1463.85   89.19
   0  -1  -8 1339.27   89.09
   0  -1  -8 1551.84   89.89
   0   1  -8 1360.36   89.69
   0   1  -8 1281.87   89.29
   1  -1   8  729.13   44.90
  -1  -1  -8  647.94   44.70
   1  -1   8  591.74   43.90
  -1  -1  -8  740.53   44.00
   1  -1   8  667.73   44.20
  -1   1  -8  703.23   44.90
  -1   1  -8  707.83   44.20
  -1   1  -8  641.04   45.20
  -1   1  -8  775.02   44.50
  -2  -1  -8   72.29   12.20
  -2  -1  -8   77.89    6.00
   2  -1   8   73.79   10.00
   2  -1   8   85.49    8.60
  -2   1  -8   69.69    7.00
  -2   1  -8   76.39    9.60
  -2   1  -8   58.29    8.10
  -2   1  -8   59.49    9.70
   2   1   8   76.19   11.00
   3  -1   8  830.82   56.89
  -3  -1  -8  964.30   57.19
   3  -1   8  793.62   56.29
  -3  -1  -8  867.81   55.99
  -3  -1  -8  853.81   56.79
  -3   1  -8  880.71   56.29
  -3   1  -8  955.70   57.29
  -3   1  -8  958.00   56.89
   3   1   8  816.42   57.39
  -3   1  -8  882.01   56.19
   4  -1   8  402.36   31.40
  -4  -1  -8  430.16   31.00
  -4  -1  -8  514.35   30.50
  -4  -1  -8  508.05   31.70
   4   1   8  468.65   32.10
  -4   1  -8  449.06   30.60
  -4   1  -8  545.45   31.10
  -4   1  -8  438.96   31.70
  -4   1  -8  457.45   31.20
  -5  -1  -8  446.56   29.90
  -5  -1  -8  468.15   30.50
   5  -1   8  484.55   30.80
  -5  -1  -8  439.66   29.50
   5   1   8  457.25   31.10
  -5   1  -8  481.95   30.30
  -5   1  -8  421.66   30.80
  -5   1  -8  436.86   29.70
  -5   1  -8  429.66   30.20
   6  -1   8  324.47   22.40
  -6  -1  -8  291.07   20.40
  -6  -1  -8  287.57   20.80
  -6  -1  -8  290.27   21.30
  -6   1  -8  300.37   22.20
  -6   1  -8  324.97   20.80
   6   1   8  323.27   22.70
  -6   1  -8  284.97   21.20
  -7  -1  -8    4.60    3.20
  -7  -1  -8    7.50    4.10
  -7  -1  -8    4.50    3.30
  -7   1  -8    3.90    3.80
  -7   1  -8    1.70    3.40
   7   1   8   12.20    5.30
  -7   1  -8    8.90    4.90
  -8  -1  -8  317.07   20.60
  -8  -1  -8  293.97   20.00
  -8  -1  -8  293.97   20.50
   8   1   8  299.77   21.40
  -8   1  -8  319.57   20.60
  -8   1  -8  298.07   21.40
  -8   1  -8  285.77   20.10
  -9  -1  -8   -0.90    3.60
  -9  -1  -8    3.10    1.90
  -9  -1  -8    3.70    3.30
  -9   1  -8    4.50    3.30
   9   1   8   -6.80    5.50
  -9   1  -8    3.90    4.10
 -12  -2   8  181.78   12.60
 -12  -2   8  178.38   11.60
  12  -2  -8  179.38   12.50
 -12   2   8  145.99   13.40
 -12   2   8  167.78   12.70
 -11  -2   8  158.88   11.40
 -11  -2   8  159.98   12.00
 -11  -2   8  168.18   12.70
 -11  -2   8  159.28   12.40
  11  -2  -8  148.19   12.30
  11  -2  -8  190.48   14.50
 -11   2   8  149.99   12.90
 -11   2   8  157.28   13.00
  11   2  -8  159.58   13.20
  11   2  -8  155.68   11.60
 -10  -2   8    2.40    2.70
 -10  -2   8   -2.10    3.50
 -10  -2   8    3.00    3.60
  10  -2  -8    3.70    2.90
  10  -2  -8    3.50    4.50
 -10   2   8   -1.60    4.80
 -10   2   8    5.60    5.40
  10   2  -8    1.80    3.20
  10   2  -8   -0.40    5.50
  -9  -2   8  298.97   20.10
   9  -2  -8  277.67   21.30
   9  -2  -8  271.67   20.10
   9  -2  -8  261.87   20.50
  -9  -2   8  298.87   19.90
  -9  -2   8  300.17   20.70
   9   2  -8  308.47   20.70
  -9   2   8  325.27   22.60
  -9   2   8  300.27   22.70
   9   2  -8  287.17   22.20
  -8  -2   8  127.89   10.10
  -8  -2   8  138.19   11.70
   8  -2  -8  111.99   12.40
  -8  -2   8  160.48   14.10
  -8  -2   8  125.59   10.90
   8  -2  -8  141.89   11.30
   8  -2  -8  125.79   10.80
  -8   2   8  141.59   15.50
   8   2  -8  137.09   13.60
   8   2  -8  136.49   11.90
  -8   2   8  120.79   13.50
   7  -2  -8   29.20    5.20
  -7  -2   8   44.50    7.60
  -7  -2   8   24.40    4.50
   7  -2  -8   30.10    5.30
   7  -2  -8   27.00    6.20
  -7  -2   8   35.70    7.20
  -7  -2   8   32.20    4.60
  -7   2   8   21.80    9.50
   7   2  -8   25.40    5.70
  -7   2   8   33.80    5.70
   7   2  -8   35.60    7.40
  -7   2   8   37.20    8.00
   7   2  -8   19.40    7.80
  -6  -2   8   10.30    5.00
   6  -2  -8    8.80    5.20
  -6  -2   8    8.60    4.50
   6  -2  -8   10.20    3.20
   6  -2  -8    7.80    5.90
  -6  -2   8    5.20    2.50
   6   2  -8    6.00    5.70
   6   2  -8    9.20    6.10
  -6   2   8   10.90    4.70
  -6   2   8   10.90    7.30
   6   2  -8   18.60    7.60
  -6   2   8   15.00   11.70
  -5  -2   8  419.96   28.10
   5  -2  -8  384.86   28.60
  -5  -2   8  394.26   28.50
   5  -2  -8  403.96   27.40
  -5  -2   8  448.66   27.20
   5  -2  -8  410.56   29.70
  -5   2   8  453.45   28.60
  -5   2   8  400.06   30.50
   5   2  -8  430.46   29.20
   5   2  -8  355.56   28.80
   5   2  -8  470.85   30.00
   4  -2  -8  196.88   19.00
  -4  -2   8  215.48   15.80
   4  -2  -8  167.28   18.40
  -4  -2   8  214.08   16.10
  -4  -2   8  216.98   14.10
   4  -2  -8  198.78   14.40
   4   2  -8  217.38   17.30
  -4   2   8  187.38   20.00
  -4   2   8  203.78   16.40
   4   2  -8  216.08   17.80
   4   2  -8  227.58   18.50
  -3  -2   8   94.09    9.20
  -3  -2   8   90.69   10.30
  -3  -2   8   87.19    6.50
   3  -2  -8   82.49    7.10
  -3   2   8   71.09   10.20
   3   2  -8   76.69   13.80
  -3   2   8   62.89   13.00
   3   2  -8   87.99   11.30
   2  -2  -8   31.00    4.20
  -2  -2   8   27.20    3.80
  -2  -2   8   41.40    5.60
  -2  -2   8   34.80    6.10
   2   2  -8   31.20   11.20
   2   2  -8   35.00    7.60
  -2   2   8   33.60    6.80
  -1  -2   8   23.10    7.80
   1  -2  -8   26.10    3.80
  -1  -2   8   21.30    5.60
  -1  -2   8   33.30    5.00
  -1  -2   8   26.90    3.60
   1   2  -8   39.30   16.60
   1   2  -8    6.80   11.80
   1   2  -8   27.40   10.00
   1   2  -8   13.50    7.10
  -1   2   8   18.60    6.10
   0  -2   8   -1.20    4.00
   0  -2   8    8.40    4.80
   0  -2   8    7.30    2.30
   0   2  -8    2.80    7.90
   0   2  -8   10.60    6.40
   0   2   8   11.20    5.20
   0   2  -8  -12.40   12.70
   0   2  -8    0.90    9.40
  -1  -2  -8  134.09    9.80
   1  -2   8  141.19   10.10
   1  -2   8  132.39   12.10
   1  -2   8  134.99   11.20
  -1   2  -8  152.08   13.00
  -1   2  -8  155.78   22.20
   1   2   8  131.39   12.60
  -1   2  -8  140.89   13.60
   2  -2   8   19.90    4.20
  -2  -2  -8   20.40    3.50
   2  -2   8   25.20    4.60
   2  -2   8   22.10    5.00
  -2   2  -8   17.80    6.30
  -2   2  -8   14.20    6.40
   2   2   8   15.70    5.30
   3  -2   8    5.60    4.30
   3  -2   8    3.10    4.00
   3  -2   8    2.30    3.60
  -3  -2  -8   -0.20    2.20
   3   2   8   -5.70    4.80
  -3   2  -8    0.90    5.30
  -3   2  -8   -3.20    5.00
   4  -2   8  271.87   19.40
   4  -2   8  284.37   18.60
  -4  -2  -8  261.77   18.00
  -4   2  -8  258.87   19.40
  -4   2  -8  269.57   20.20
   4   2   8  266.37   19.90
   5  -2   8   83.69    8.90
  -5  -2  -8   72.09    9.70
  -5  -2  -8   72.69    6.60
   5  -2   8   70.39    9.10
  -5   2  -8   74.09   10.10
   5   2   8   71.59    9.40
  -5   2  -8   85.19    9.10
   6  -2   8  162.48   13.00
  -6  -2  -8  146.09   14.20
  -6  -2  -8  163.88   11.90
  -6  -2  -8  161.58   12.60
   6   2   8  163.78   13.80
  -6   2  -8  190.88   14.70
  -6   2  -8  168.18   13.10
  -7  -2  -8  232.78   14.80
   7  -2   8  195.58   15.70
  -7  -2  -8  188.28   16.10
  -7  -2  -8  191.08   14.70
  -7   2  -8  230.98   15.80
   7   2   8  233.88   16.40
  -7   2  -8  206.08   16.60
  -8  -2  -8   49.00    8.20
  -8  -2  -8   35.20    6.10
  -8  -2  -8   42.50    4.80
   8  -2   8   29.20    6.00
   8   2   8   46.80    6.10
  -8   2  -8   33.10    5.20
  -8   2  -8   55.49    8.40
  11  -3  -8   14.60    2.70
 -11  -3   8   17.90    3.50
 -11  -3   8    8.70    3.60
 -11  -3   8   19.30    3.30
  11  -3  -8   15.50    3.00
  11   3  -8   20.40    3.10
 -11   3   8   12.30    3.70
 -10  -3   8   35.70    5.60
 -10  -3   8   28.90    4.60
  10  -3  -8   34.00    4.70
  10  -3  -8   41.50    6.00
 -10  -3   8   26.30    4.50
 -10   3   8   34.80    6.00
  10   3  -8   31.00    4.80
  10   3  -8   34.60    6.60
 -10   3   8   30.90    5.80
   9  -3  -8   84.89    7.70
   9  -3  -8   93.89    9.50
  -9  -3   8   78.69    8.80
  -9  -3   8   98.89    7.80
  -9  -3   8   80.49    7.70
   9  -3  -8   77.29    8.60
  -9   3   8   90.19   11.00
   9   3  -8   93.49   11.30
   9   3  -8   86.79    8.20
  -9   3   8   86.79    9.70
  -8  -3   8   23.90    4.90
   8  -3  -8   25.60    5.60
  -8  -3   8   18.50    3.60
  -8  -3   8   24.90    3.90
   8  -3  -8   20.90    4.20
  -8  -3   8   26.10    8.50
   8  -3  -8   20.40    4.10
  -8   3   8   25.70    8.10
   8   3  -8   19.30    4.30
  -8   3   8   20.40    6.90
   8   3  -8   16.90    7.80
   7  -3  -8   35.20    6.70
   7  -3  -8   29.20    5.50
  -7  -3   8   44.40    8.30
  -7  -3   8   44.10    5.40
  -7  -3   8   36.50    6.10
  -7  -3   8   47.10    7.00
   7  -3  -8   46.70    5.70
  -7   3   8   42.00    8.80
  -7   3   8   47.30    7.00
   7   3  -8   51.89    9.80
   7   3  -8   55.39    7.30
  -7   3   8   48.10   11.00
   7   3  -8   44.80    8.10
  -6  -3   8  257.87   19.30
  -6  -3   8  288.77   21.00
   6  -3  -8  289.77   22.50
  -6  -3   8  281.37   20.30
   6  -3  -8  302.07   19.70
   6  -3  -8  319.47   20.80
  -6   3   8  271.67   23.30
  -6   3   8  315.97   20.70
   6   3  -8  284.57   23.60
   6   3  -8  238.08   20.50
   6   3  -8  306.37   22.00
  -6   3   8  302.57   27.10
   5  -3  -8   -0.40    6.00
  -5  -3   8    0.70    2.30
  -5  -3   8   -4.30    5.60
   5  -3  -8    0.60    2.80
  -5  -3   8   -7.20    4.50
   5  -3  -8   -9.40    8.10
   5   3  -8    1.80    6.00
   5   3  -8   23.80    9.80
  -5   3   8   -6.10    8.40
   5   3  -8   -7.00    4.40
  -5   3   8    0.50    4.30
   4  -3  -8    5.40    3.20
  -4  -3   8   15.50    5.70
  -4  -3   8    8.50    2.60
  -4  -3   8   17.40    4.80
   4   3  -8   -0.40   10.10
   4   3  -8    0.30    5.90
   4   3  -8   10.50    4.70
  -4   3   8   12.40    5.00
  -4   3   8   -0.40    9.00
   3  -3  -8  980.60   62.39
  -3  -3   8  893.91   62.89
  -3  -3   8  974.20   62.49
  -3   3   8 1012.80   63.49
  -3   3   8  952.80   65.49
   3   3  -8 1006.40   63.09
   3   3  -8 1094.79   64.09
   3   3  -8  907.61   65.69
  -2  -3   8  524.85   33.80
  -2  -3   8  532.15   33.20
   2  -3  -8  472.15   32.80
  -2   3   8  527.45   38.70
   2   3  -8  516.35   33.90
  -2   3   8  500.25   34.20
   2   3  -8  473.35   34.70
  -1  -3   8  111.09   10.80
  -1  -3   8  109.89    9.80
  -1  -3   8  116.09    8.40
   1  -3  -8  115.09    8.70
  -1   3   8  111.09   10.90
   1   3  -8  107.59   11.30
   1   3  -8   98.89   12.60
   0  -3  -8   57.19    5.40
   0  -3   8   45.00    5.10
   0  -3   8   53.19    7.50
   0  -3   8   45.20    6.80
   0   3  -8   51.29    8.50
   0   3   8   48.00    8.00
   0   3  -8   37.90    6.70
   1  -3   8  154.58   10.90
   1  -3   8  139.09   11.50
   1  -3   8  167.88   12.30
  -1  -3  -8  128.49   10.70
   1   3   8  157.08   13.00
  -1   3  -8  159.78   13.90
  -1   3  -8  150.68   14.50
   2  -3   8  600.84   36.50
   2  -3   8  517.15   37.10
  -2  -3  -8  582.74   36.20
   2  -3   8  544.45   36.50
   2   3   8  573.24   37.80
  -2   3  -8  565.64   38.40
  -2   3  -8  547.05   37.50
   3  -3   8    0.40    3.20
  -3  -3  -8   -0.80    2.40
   3  -3   8    2.30    3.70
   3  -3   8    5.20    3.40
   3   3   8   -3.40    4.60
  -3   3  -8   -0.10    6.20
  -3   3  -8   -9.20    6.90
  -4  -3  -8   84.49    7.50
   4  -3   8   99.69    8.30
   4  -3   8   99.69    9.30
   4   3   8  104.39    9.90
  -4   3  -8   83.09   12.80
  -4   3  -8   82.99   10.80
   5  -3   8  115.99    9.50
   5  -3   8  130.49   10.10
  -5  -3  -8  120.99    9.40
  -5   3  -8  126.69   15.60
  -5   3  -8   97.59   13.40
   5   3   8  141.49   10.90
   6  -3   8   63.19    6.80
  -6  -3  -8   59.19    6.30
   6   3   8   60.19    7.60
  -7  -3  -8   93.99   10.20
   7  -3   8  100.49    8.60
  -7  -3  -8  100.39    9.00
   7   3   8  116.29    9.40
  -7   3  -8  105.99   12.50
  -9  -4   8    6.50    2.60
   9  -4  -8    6.00    3.50
   9  -4  -8   11.30    2.30
  -9   4   8    8.60    5.30
   9   4  -8   10.40    2.60
  -8  -4   8    7.70    2.50
  -8  -4   8    9.20    3.20
   8  -4  -8    7.00    2.60
   8  -4  -8   13.40    3.70
   8  -4  -8   19.40    4.70
   8   4  -8    6.20    2.70
  -8   4   8   11.40    4.40
  -8   4   8   13.40    6.70
   8   4  -8   11.10    7.90
   7  -4  -8  170.38   12.10
   7  -4  -8  157.78   12.10
   7  -4  -8  176.38   14.60
  -7  -4   8  170.98   11.90
  -7  -4   8  164.38   11.80
   7   4  -8  161.78   16.80
   7   4  -8  138.19   12.00
  -7   4   8  166.18   14.00
  -6  -4   8  140.79    9.90
  -6  -4   8  158.88   12.80
   6  -4  -8  145.49   15.50
   6  -4  -8  116.59   11.00
  -6  -4   8  129.09   10.40
   6  -4  -8  128.69   10.10
   6   4  -8  112.09   17.00
   6   4  -8  106.49   10.60
  -6   4   8  137.69   10.90
  -6   4   8  100.09   13.00
   5  -4  -8   48.30    6.30
  -5  -4   8   50.39    6.70
  -5  -4   8   29.10    5.00
   5  -4  -8   33.70    5.50
   5   4  -8   43.50    7.80
  -5   4   8   42.10    6.70
   5   4  -8   30.80    5.10
  -5   4   8   27.10    7.80
   4  -4  -8   28.60    4.30
  -4  -4   8   27.60    4.90
  -4  -4   8   25.30    4.60
  -4  -4   8   40.50    6.70
  -4   4   8   41.90    6.90
  -4   4   8   30.10    9.10
   4   4  -8   31.10    7.50
   4   4  -8   43.10    6.80
  -3  -4   8   41.70    7.10
   3  -4  -8   41.90    6.00
  -3  -4   8   51.39    7.30
  -3  -4   8   39.40    4.90
  -3   4   8   56.79   11.20
  -3   4   8   33.40    6.20
   3   4  -8   39.10    8.20
   3   4  -8   46.60    7.20
  -2  -4   8  124.19   12.00
  -2  -4   8  125.99    9.10
  -2  -4   8  118.69   10.10
   2  -4  -8  118.99    9.90
   2   4  -8  120.19   10.50
  -2   4   8   97.99   10.80
   2   4  -8  124.19   12.80
  -1  -4   8   56.79    5.20
   1  -4  -8   48.20    6.80
  -1  -4   8   52.79    6.60
  -1  -4   8   33.50    6.10
   1   4  -8   57.39    9.00
   1   4  -8   46.50    7.70
  -1   4   8   35.00    6.40
   0  -4   8  264.57   17.80
   0  -4   8  290.47   18.10
   0  -4  -8  226.48   18.20
   0  -4   8  265.37   18.80
   0   4   8  256.47   19.20
   0   4  -8  279.17   18.80
   0   4  -8  250.17   21.20
   1  -4   8  157.98   10.90
   1  -4   8  125.59   11.70
   1  -4   8  142.69   10.70
  -1   4  -8  133.49   11.90
   1   4   8  157.78   12.30
   2  -4   8   84.79    7.80
   2  -4   8   91.19    8.50
   2  -4   8   95.69    7.70
  -2   4  -8   82.99    8.90
   2   4   8  106.29    9.00
  -2   4  -8   72.99   14.40
   3  -4   8  132.39   10.60
   3  -4   8  146.99   10.90
   3  -4   8  135.69   10.00
  -3   4  -8  133.59   11.20
   3   4   8  124.79   11.10
   4  -4   8    0.00    5.10
   4  -4   8   -0.40    2.40
   4  -4   8   -2.50    2.90
  -4   4  -8   -3.20    4.20
   4   4   8    5.10    3.60
   5  -4   8   13.30    2.60
   5  -4   8   12.00    3.20
   5   4   8   13.70    3.70
   6  -4   8   82.49    7.00
   6   4   8   81.59    7.50
  -6  -5   8  332.77   20.40
   6  -5  -8  307.27   20.50
   6   5  -8  294.37   20.40
  -5  -5   8   46.50    7.50
  -5  -5   8   46.60    5.40
   5  -5  -8   38.50    5.10
   5   5  -8   33.60    5.10
  -4  -5   8   11.10    3.20
  -4  -5   8   15.00    3.10
  -4   5   8   13.20    4.40
   4   5  -8    5.10    3.00
  -3  -5   8   29.40    5.00
  -3   5   8   33.80    6.30
   3   5  -8   31.40    5.00
  -2  -5   8  377.76   23.20
  -2  -5   8  353.26   23.00
   2   5  -8  323.97   23.30
  -2   5   8  352.06   23.70
  -1  -5   8    3.70    2.20
  -1  -5   8    4.20    5.30
  -1  -5   8    4.50    2.90
  -1   5   8    5.10    3.90
   1   5  -8    2.30    3.40
   0  -5   8   41.10    7.00
   0  -5   8   19.50    3.60
   0  -5   8   30.80    3.80
   0   5  -8   27.10    4.90
   0   5   8   29.80    4.80
   1  -5   8   90.09    6.50
   1  -5   8   79.39    7.90
   1  -5   8   82.29    7.40
   1   5   8   79.99    8.50
  -1   5  -8   84.59    7.60
   2  -5   8  159.48   11.70
   2  -5   8  169.58   10.90
  -2   5  -8  170.78   11.80
   2   5   8  142.89   12.30
 -13   0   9   -2.50    2.90
 -13   0   9   -0.60    2.40
 -12   0   9    3.80    3.80
 -11   0   9   12.90    6.50
  11   0  -9    5.90    8.30
 -11   0   9    0.50    4.00
 -11   0   9   -3.60    3.50
  11   0  -9    2.10    5.30
 -10   0   9    6.80    6.20
 -10   0   9    1.30    5.20
  10   0  -9    6.40    9.00
 -10   0   9    5.60    4.20
 -10   0   9    7.50    3.80
  10   0  -9   -0.50    5.50
   9   0  -9    0.50    5.20
  -9   0   9    7.60    5.50
  -9   0   9   -1.60    3.70
  -9   0   9   -0.70    5.90
  -9   0   9    0.30    4.20
   9   0  -9    0.60    8.00
   8   0  -9    4.50    5.30
  -8   0   9    1.90    4.20
  -8   0   9   -3.20    4.80
  -8   0   9   -3.60    4.90
  -8   0   9    0.30    4.00
   8   0  -9   -8.30    7.50
   8   0  -9   -7.70    5.30
   7   0  -9   -3.30    4.70
   7   0  -9    0.50    5.20
  -7   0   9    4.70    4.50
  -7   0   9   10.40    6.60
   7   0  -9   -8.60    7.10
  -7   0   9    3.50    3.80
   6   0  -9   -5.90    7.40
   6   0  -9    0.80    4.80
   6   0  -9    0.90    4.90
   6   0  -9    0.10    5.90
  -6   0   9   -6.20    5.00
  -6   0   9    1.90    4.30
  -6   0   9    4.10    5.10
  -5   0   9    6.30    4.80
  -5   0   9  -10.50    6.00
  -5   0   9    0.50    5.80
   5   0  -9    3.10    4.80
  -5   0   9    3.70    4.80
   5   0  -9   -9.30    7.70
   5   0  -9   -0.80    3.40
   5   0  -9    6.40    6.10
   5   0  -9   -1.20    8.70
  -4   0   9   -0.10    4.40
   4   0  -9    7.10    4.50
   4   0  -9   -0.90    2.80
  -4   0   9   -2.70    5.50
   4   0  -9   -4.70    5.40
   4   0  -9    5.30    7.60
  -3   0   9   -4.50    4.00
   3   0  -9    0.80    2.60
   3   0  -9    3.20    6.40
   3   0  -9    7.00    5.00
   2   0  -9    3.40    2.50
  -2   0   9    1.40    4.00
   2   0  -9    1.50    5.70
   1   0  -9   -9.50    5.70
   1   0  -9   -0.10    2.10
   0   0  -9   -1.40    2.30
   0   0  -9    1.90    4.50
   0   0  -9    2.40    4.90
   0   0  -9    0.30    7.70
   0   0  -9   -1.30    6.50
   1   0   9   -4.20   11.80
  -1   0  -9   -2.90    2.20
  -1   0  -9    1.70    4.40
  -1   0  -9    0.00    4.90
  -1   0  -9    7.30    7.60
  -1   0  -9    2.20    7.10
  -2   0  -9   -3.50    4.20
  -2   0  -9   -1.90    5.00
  -2   0  -9    2.30    2.60
  -2   0  -9   -0.50    6.00
   2   0   9  -10.40    7.60
  -3   0  -9    1.50    2.50
  -3   0  -9   -1.50    3.70
  -3   0  -9    2.50    4.30
  -4   0  -9    0.50    3.50
  -4   0  -9   -0.90    2.90
  -4   0  -9    0.60    3.90
  -5   0  -9   -2.90    3.10
  -5   0  -9    1.30    4.10
  -5   0  -9    0.10    3.20
  -6   0  -9    2.90    3.70
  -6   0  -9    0.40    3.50
  -6   0  -9    3.10    3.10
  -7   0  -9    3.50    3.50
  -7   0  -9    2.50    2.60
  -7   0  -9    3.20    4.30
  -8   0  -9   -2.50    2.70
  -8   0  -9    1.30    2.10
  -8   0  -9   -1.00    3.70
  -9   0  -9   -4.20    3.50
  -9   0  -9    1.10    2.10
  -9   0  -9   -0.50    2.60
 -13  -1   9  239.38   17.10
 -13  -1   9  268.87   16.70
 -13   1   9  243.38   17.10
 -12  -1   9   -2.60    3.10
  12  -1  -9    4.20    3.80
 -12  -1   9   -2.60    3.20
 -12   1   9    9.20    3.90
 -12   1   9    1.30    3.60
 -12   1   9    4.90    5.60
  12   1  -9   -1.40    5.70
 -11  -1   9   50.39    7.50
 -11  -1   9   44.50    6.40
 -11  -1   9   47.60    5.40
  11  -1  -9   45.70    7.30
 -11   1   9   52.09    8.50
  11   1  -9   49.10    9.50
 -11   1   9   42.00    7.90
 -11   1   9   43.00    7.50
  10  -1  -9   -2.10    4.50
 -10  -1   9    2.40    3.70
 -10  -1   9    4.20    3.30
 -10  -1   9   -7.70    4.60
  10  -1  -9    3.50    3.90
 -10  -1   9    2.80    6.90
 -10  -1   9    5.50    4.50
 -10   1   9   -0.50    5.50
  10   1  -9    3.40    6.80
 -10   1   9    2.90    5.10
  -9  -1   9    1.20    5.80
  -9  -1   9    3.80    4.10
   9  -1  -9    1.90    5.10
  -9  -1   9    2.60    3.20
   9  -1  -9    6.30    4.00
  -9   1   9    5.50    5.90
  -9   1   9   -9.30    5.50
  -9   1   9    5.20    5.70
   9   1  -9    5.70    4.70
   9   1  -9    5.60    6.80
  -8  -1   9   70.89    8.50
  -8  -1   9   70.59    7.30
   8  -1  -9   61.49    8.80
  -8  -1   9   67.59   10.00
   8  -1  -9   55.19    8.10
   8  -1  -9   72.29    9.70
  -8  -1   9   82.19    7.20
   8   1  -9   61.79    9.60
   8   1  -9   70.29   10.30
   8   1  -9   96.19   13.00
  -8   1   9   70.09    9.60
  -8   1   9   91.49   11.60
  -8   1   9   65.89   10.30
  -7  -1   9  401.26   23.50
   7  -1  -9  303.27   24.70
  -7  -1   9  316.47   24.00
  -7  -1   9  374.76   25.20
   7  -1  -9  373.86   23.80
  -7  -1   9  319.07   23.40
   7   1  -9  329.67   25.80
   7   1  -9  350.46   25.30
  -7   1   9  393.06   26.10
  -7   1   9  331.47   25.10
  -7   1   9  372.86   24.40
   7   1  -9  349.47   26.00
  -7   1   9  378.96   25.50
   7   1  -9  333.97   25.10
  -6  -1   9   32.40    5.20
   6  -1  -9   48.90    6.30
   6  -1  -9   52.19    6.00
  -6  -1   9   36.20    7.30
  -6  -1   9   43.50    6.60
   6  -1  -9   42.00    7.30
  -6  -1   9   33.80    5.90
   6  -1  -9   48.60   18.10
   6   1  -9   41.20    9.00
  -6   1   9   49.20   10.70
  -6   1   9   30.90    8.70
  -6   1   9   33.60    6.20
   6   1  -9   37.40    8.00
   6   1  -9   45.80    7.90
  -6   1   9   44.00    7.30
   5  -1  -9   67.39   11.10
  -5  -1   9   51.89    9.80
  -5  -1   9   73.09    8.30
   5  -1  -9   82.89    9.30
   5  -1  -9   85.39   13.20
   5  -1  -9   76.19    7.00
  -5  -1   9   82.49    6.90
   5   1  -9   87.89   12.50
   5   1  -9   73.19   10.90
  -5   1   9   77.39    9.50
   5   1  -9   89.89   13.50
  -5   1   9   72.09   10.50
  -5   1   9   85.69   10.90
   4  -1  -9  174.68   14.00
   4  -1  -9  170.48   12.00
  -4  -1   9  153.98   11.70
  -4  -1   9  167.58   14.30
  -4  -1   9  161.28   12.90
  -4  -1   9  158.58   14.10
   4  -1  -9  188.88   15.00
   4  -1  -9  174.58   15.50
   4   1  -9  185.18   16.30
  -4   1   9  169.88   15.90
  -4   1   9  144.59   14.40
   4   1  -9  155.08   15.40
   4   1  -9  162.88   15.30
  -3  -1   9  235.88   17.90
   3  -1  -9  237.78   16.20
   3  -1  -9  214.38   21.70
  -3  -1   9  239.18   16.00
  -3  -1   9  264.47   18.80
  -3  -1   9  235.38   17.10
   3  -1  -9  245.78   18.20
  -3   1   9  233.58   18.90
   3   1  -9  245.88   19.20
   3   1  -9  221.38   18.50
   2  -1  -9    4.30    2.30
   2  -1  -9    7.00    6.20
  -2  -1   9    3.60    2.50
  -2  -1   9   11.40    4.30
  -2  -1   9    0.00    5.30
  -2  -1   9    9.20    5.70
   2   1  -9    3.70    7.90
   2   1  -9    9.00    9.70
   2   1  -9    2.90    6.20
   2   1  -9    0.00    6.90
   2   1  -9    9.00    8.20
   2   1  -9    8.90    4.50
   2   1  -9   13.20    6.20
   1  -1  -9   10.70    2.40
  -1  -1   9   15.50    5.40
   1  -1  -9   11.60    6.20
  -1  -1   9   10.90    5.50
  -1  -1   9   15.20    4.70
   1   1  -9    9.70    4.70
   1   1  -9    9.80    6.80
   1   1  -9    2.60    8.00
   1   1  -9   11.20    4.00
   1   1  -9   18.50    7.00
   1   1  -9    8.80    6.00
   0  -1   9   29.50    5.00
   0  -1  -9   30.80    3.80
   0  -1   9   23.20    4.00
   0  -1   9   43.50    6.20
   0  -1  -9   43.20   10.50
   0   1  -9    4.80    9.70
   0   1  -9   26.80    4.70
   0   1  -9   35.30    7.10
   0   1  -9   21.60    6.10
   0   1  -9   25.30    5.30
   0   1   9   42.20    7.40
   1  -1   9  411.56   30.40
  -1  -1  -9  465.65   31.00
   1  -1   9  434.56   29.80
  -1  -1  -9  485.45   29.30
  -1  -1  -9  478.35   32.60
  -1  -1  -9  445.76   30.80
  -1   1  -9  459.95   29.80
  -1   1  -9  452.55   30.50
  -1   1  -9  453.35   30.90
  -1   1  -9  455.75   29.70
   1   1   9  424.76   31.40
  -2  -1  -9   30.30    3.90
  -2  -1  -9   24.70    6.10
   2  -1   9   10.60    5.40
  -2   1  -9   17.40    4.10
  -2   1  -9   34.20    5.90
   2   1   9   15.90    6.90
  -2   1  -9   23.90    5.20
  -2   1  -9   23.10    6.30
  -3  -1  -9  455.55   27.30
  -3  -1  -9  437.86   28.60
   3  -1   9  422.56   28.30
  -3  -1  -9  379.36   27.80
  -3   1  -9  374.26   27.30
  -3   1  -9  459.45   28.70
  -3   1  -9  410.06   28.10
  -3   1  -9  408.16   27.70
   3   1   9  400.26   29.10
  -4  -1  -9    8.90    5.10
  -4  -1  -9    2.80    2.60
  -4  -1  -9    1.00    4.00
   4  -1   9   10.80    5.50
   4   1   9   -2.30    5.90
  -4   1  -9    6.60    4.90
  -4   1  -9    0.10    5.00
  -4   1  -9    0.90    4.30
  -4   1  -9    3.40    3.30
  -5  -1  -9  173.08   14.40
  -5  -1  -9  184.08   13.20
   5  -1   9  193.28   15.80
  -5  -1  -9  195.48   13.80
  -5   1  -9  175.58   13.60
   5   1   9  201.88   16.10
  -5   1  -9  152.78   17.20
  -5   1  -9  183.78   15.10
  -5   1  -9  194.18   14.30
  -6  -1  -9   49.80    6.50
   6  -1   9   55.69    8.10
  -6  -1  -9   59.59    6.20
  -6  -1  -9   50.99    7.50
  -6   1  -9   65.39    7.30
  -6   1  -9   62.39    6.60
  -6   1  -9   47.30    7.80
   6   1   9   43.70    7.10
  -7  -1  -9  118.39    9.90
  -7  -1  -9  132.89    9.60
  -7  -1  -9  130.29   10.30
   7   1   9  121.59   11.70
  -7   1  -9  122.89   10.00
  -7   1  -9  115.29   11.10
  -7   1  -9  111.29    9.90
  -8  -1  -9    7.80    2.30
  -8  -1  -9   10.00    3.80
  -8  -1  -9    4.60    4.40
  -8  -1  -9   10.50    3.30
  -8   1  -9   12.80    4.50
  -8   1  -9    4.30    2.40
   8   1   9   -3.10    5.80
 -12  -2   9    1.20    2.40
 -12  -2   9    3.10    2.10
 -12  -2   9    3.70    3.40
  12  -2  -9    9.00    3.20
 -12   2   9   -0.80    3.40
 -12   2   9   -0.80    4.10
 -11  -2   9   65.29    7.50
 -11  -2   9   65.29    6.50
  11  -2  -9   64.09    6.70
 -11  -2   9   62.49    5.70
 -11  -2   9   54.49    8.40
  11   2  -9   50.39    7.80
 -11   2   9   57.49    7.20
 -11   2   9   60.89    7.50
  10  -2  -9  128.19   10.60
 -10  -2   9  124.19   10.10
 -10  -2   9  132.49    9.10
 -10  -2   9   94.89    9.60
  10  -2  -9  119.59    9.20
  10   2  -9  113.09    9.70
 -10   2   9  116.09   11.90
  10   2  -9  145.19   12.10
 -10   2   9   91.99   10.60
  -9  -2   9   14.10    3.60
  -9  -2   9    6.70    4.20
   9  -2  -9    7.40    5.10
   9  -2  -9    2.20    4.30
  -9  -2   9    4.00    6.70
   9  -2  -9    5.20    3.60
  -9  -2   9    5.70    3.70
  -9   2   9   10.30    5.50
   9   2  -9    5.50    6.20
   9   2  -9   10.80    4.50
  -9   2   9    4.80    6.20
   8  -2  -9  437.06   29.40
  -8  -2   9  459.75   29.30
  -8  -2   9  413.36   29.60
  -8  -2   9  469.65   30.80
   8  -2  -9  425.16   30.40
  -8  -2   9  472.95   29.20
   8  -2  -9  429.16   29.50
   8   2  -9  429.26   30.90
   8   2  -9  448.16   29.80
  -8   2   9  433.66   31.50
  -8   2   9  448.36   31.40
   7  -2  -9    2.80    3.20
   7  -2  -9    6.10    5.40
   7  -2  -9    1.40    4.20
  -7  -2   9    3.90    3.80
  -7  -2   9    4.60    5.80
  -7  -2   9    9.40    4.50
  -7  -2   9    6.20    3.20
   7   2  -9    3.90    6.70
  -7   2   9   -5.60    6.50
  -7   2   9    8.90    4.30
   7   2  -9    6.40    5.50
   7   2  -9    5.50    6.70
  -7   2   9   21.50   10.00
   6  -2  -9 1116.99   72.79
  -6  -2   9 1114.09   71.79
   6  -2  -9 1200.08   72.09
  -6  -2   9 1246.88   72.59
   6  -2  -9 1156.28   72.19
  -6  -2   9 1117.59   71.89
  -6   2   9 1064.89   74.99
   6   2  -9 1079.99   73.19
   6   2  -9 1081.29   73.09
  -6   2   9 1110.49   73.79
  -6   2   9 1124.79   72.59
   5  -2  -9   10.80    3.30
   5  -2  -9    7.20    5.40
  -5  -2   9    9.50    2.80
   5  -2  -9    7.00    6.40
  -5  -2   9   10.50    4.80
  -5  -2   9   11.30    4.50
   5   2  -9   17.40    6.00
   5   2  -9   11.30    7.00
   5   2  -9   25.60    6.90
  -5   2   9    7.30    7.40
  -5   2   9   10.50    4.70
  -4  -2   9  426.36   27.60
  -4  -2   9  390.16   26.20
   4  -2  -9  374.36   28.20
  -4  -2   9  384.36   26.80
   4  -2  -9  450.05   26.70
   4  -2  -9  401.96   29.00
   4   2  -9  420.16   28.60
  -4   2   9  367.66   30.30
  -4   2   9  372.86   27.60
   4   2  -9  425.76   28.90
   3  -2  -9  223.58   20.50
  -3  -2   9  221.68   17.40
  -3  -2   9  231.28   16.60
   3  -2  -9  251.57   20.10
   3  -2  -9  240.08   16.00
  -3  -2   9  241.28   15.70
  -3   2   9  211.08   17.30
   3   2  -9  262.37   20.00
  -3   2   9  183.18   22.70
   3   2  -9  235.68   18.30
   2  -2  -9  446.96   26.20
  -2  -2   9  404.66   25.90
  -2  -2   9  358.16   26.70
  -2  -2   9  397.06   26.40
   2  -2  -9  392.96   35.50
  -2   2   9  348.67   33.20
   2   2  -9  451.15   29.90
   2   2  -9  392.86   28.00
  -2   2   9  376.56   27.40
   2   2  -9  388.16   30.00
   1  -2  -9   60.69    5.60
  -1  -2   9   55.39    8.10
  -1  -2   9   61.29    5.60
  -1  -2   9   61.69    7.20
   1   2  -9   53.29    9.50
   1   2  -9   45.90    9.80
  -1   2   9   62.29    8.70
   1   2  -9   63.19   12.20
   0  -2   9  621.64   40.40
   0  -2  -9  668.33   39.60
   0  -2   9  653.43   39.90
   0  -2   9  575.64   39.60
   0   2  -9  639.54   41.20
   0   2  -9  529.05   42.60
   0   2  -9  617.44   41.30
   0   2   9  621.14   40.90
   1  -2   9  223.48   15.10
   1  -2   9  211.68   14.10
   1  -2   9  200.88   13.90
  -1  -2  -9  196.88   13.50
  -1   2  -9  173.48   20.40
  -1   2  -9  186.98   16.10
   1   2   9  179.18   15.30
  -1   2  -9  185.88   15.60
  -2  -2  -9   58.99    5.20
   2  -2   9   47.70    6.50
   2  -2   9   55.69    8.00
   2  -2   9   50.59    6.60
  -2   2  -9   54.09    7.30
  -2   2  -9   45.60    8.50
   2   2   9   47.70    8.20
  -2   2  -9   94.79   17.50
  -3  -2  -9   84.19    7.10
   3  -2   9   90.79    8.30
   3  -2   9   85.19    9.10
  -3   2  -9   96.89   10.10
  -3   2  -9   69.49   10.00
   3   2   9   84.49   10.10
  -4  -2  -9  197.88   14.30
   4  -2   9  197.28   13.60
   4  -2   9  158.18   14.10
  -4  -2  -9  162.68   12.60
   4   2   9  189.38   14.80
  -4   2  -9  177.48   14.30
  -4   2  -9  181.98   15.20
  -5  -2  -9   54.09    5.60
  -5  -2  -9   54.29    7.00
  -5  -2  -9   36.50    7.30
   5  -2   9   52.09    7.50
  -5   2  -9   64.69    7.80
  -5   2  -9   58.49    9.00
   5   2   9   53.79    8.10
   6  -2   9   46.60    7.60
  -6  -2  -9   59.09    7.00
  -6  -2  -9   51.69    5.80
  -6  -2  -9   48.50    6.20
  -6   2  -9   47.00    7.40
   6   2   9   50.09    8.10
  -6   2  -9   59.49    8.90
  -7  -2  -9   58.59    5.80
   7  -2   9   65.59    8.30
  -7  -2  -9   69.09    8.70
  -7  -2  -9   65.59    6.70
   7   2   9   67.09    7.40
  -7   2  -9   51.69    7.70
  -7   2  -9   64.99    8.50
  -8  -2  -9   16.50    4.50
  -8  -2  -9   13.10    2.50
   8   2   9   14.20    4.30
  -8   2  -9   14.90    4.60
  -8   2  -9   17.00    4.80
 -11  -3   9    2.20    2.90
 -11  -3   9    4.90    2.20
 -11  -3   9    8.20    3.20
  11  -3  -9    5.20    2.70
 -11   3   9    4.70    3.50
 -11   3   9    8.90    3.60
 -10  -3   9   13.00    3.90
  10  -3  -9    5.30    2.40
 -10  -3   9   -3.00    3.20
 -10  -3   9    4.60    2.30
  10  -3  -9    6.30    3.40
 -10   3   9    6.70    4.70
  10   3  -9    8.80    5.40
 -10   3   9    8.20    3.90
  10   3  -9   -1.00    2.50
   9  -3  -9   52.89    7.70
  -9  -3   9   67.89    6.50
   9  -3  -9   48.70    6.10
  -9  -3   9   60.19    7.00
   9  -3  -9   60.99    7.80
  -9  -3   9   58.59    6.00
  -9   3   9   77.09   10.00
   9   3  -9   64.99    6.50
   9   3  -9   55.29    9.30
  -9   3   9   57.69    8.50
   8  -3  -9   88.49    8.20
  -8  -3   9   95.09   11.00
  -8  -3   9   90.59    7.70
  -8  -3   9  105.99    8.70
  -8  -3   9   79.29    7.60
   8  -3  -9   78.59    9.80
   8  -3  -9   65.29    8.20
  -8   3   9   87.09   13.00
  -8   3   9  101.79   10.80
   8   3  -9   77.39    8.10
   8   3  -9  105.39   11.50
   7  -3  -9  240.18   16.10
  -7  -3   9  210.78   15.70
   7  -3  -9  211.88   16.40
  -7  -3   9  205.88   17.40
  -7  -3   9  238.68   16.80
   7  -3  -9  222.08   17.70
  -7  -3   9  225.38   16.00
  -7   3   9  238.68   16.80
   7   3  -9  204.68   16.70
  -7   3   9  257.57   19.50
  -7   3   9  245.08   21.30
   7   3  -9  222.58   18.00
   7   3  -9  226.68   18.90
   6  -3  -9    5.30    4.60
   6  -3  -9    5.40    3.20
   6  -3  -9    3.90    6.40
  -6  -3   9    8.30    4.00
  -6  -3   9    1.40    2.70
  -6  -3   9    8.70    5.60
  -6   3   9    9.20    4.30
  -6   3   9   -5.80    7.60
   6   3  -9   -8.80    5.80
   6   3  -9    4.60    4.90
   6   3  -9    4.80    8.00
  -5  -3   9   54.29    8.80
   5  -3  -9   51.19    9.10
   5  -3  -9   45.00    8.80
   5  -3  -9   53.39    6.00
  -5  -3   9   42.20    7.40
  -5  -3   9   41.40    5.40
  -5   3   9   53.89    8.20
   5   3  -9   47.60    7.00
   5   3  -9   44.70    9.10
  -5   3   9   39.00   10.20
   5   3  -9   68.89   10.60
  -4  -3   9   61.59    9.30
   4  -3  -9   73.89   11.00
  -4  -3   9   54.19    5.70
   4  -3  -9   54.19    6.30
   4  -3  -9   84.19   10.90
  -4  -3   9   68.09    7.80
  -4   3   9   42.20   10.80
   4   3  -9   50.69   10.90
   4   3  -9   57.79    9.30
   4   3  -9   58.69    8.60
  -4   3   9   52.99    8.30
   3  -3  -9    3.40    2.90
  -3  -3   9    5.10    2.40
  -3  -3   9    3.80    3.70
  -3  -3   9    2.30    4.60
   3   3  -9   13.30    5.60
  -3   3   9    4.80   11.00
   3   3  -9    3.80    5.80
  -3   3   9    1.10    4.80
   3   3  -9   -4.00   11.10
   2  -3  -9  116.19    9.60
  -2  -3   9  114.89   10.10
  -2  -3   9  120.09    9.10
  -2  -3   9  130.29   11.40
  -2   3   9  124.09   11.50
   2   3  -9  124.29   12.40
   2   3  -9  154.48   20.30
   2   3  -9  109.49   12.60
   1  -3  -9   93.39    8.00
  -1  -3   9   72.69    9.80
  -1  -3   9   82.49    7.60
  -1  -3   9  114.79    8.70
   1   3  -9  110.39   11.90
  -1   3   9  100.59   10.20
   1   3  -9  120.09   12.00
   0  -3   9   23.80    4.40
   0  -3  -9   29.30    4.00
   0  -3   9   33.70    5.50
   0   3   9   28.00    5.90
   0   3  -9   22.00    7.00
   0   3  -9   22.00    6.90
  -1  -3  -9  752.92   49.40
   1  -3   9  823.12   50.39
   1  -3   9  742.93   49.60
   1  -3   9  762.42   49.60
  -1   3  -9  760.42   51.39
   1   3   9  802.92   50.89
   2  -3   9  130.29   10.20
  -2  -3  -9  128.39    9.80
   2  -3   9  111.99   10.20
  -2   3  -9  148.29   13.40
   2   3   9  147.59   12.00
   3  -3   9   38.70    6.60
   3  -3   9   29.50    5.50
  -3  -3  -9   44.10    5.20
   3  -3   9   42.70    5.40
  -3   3  -9   60.39    9.50
   3   3   9   39.30    7.70
   4  -3   9   20.60    3.40
  -4  -3  -9   20.70    3.50
   4  -3   9   28.40    4.50
   4   3   9   22.20    4.80
  -4   3  -9   13.70    6.20
   5  -3   9  231.68   15.60
   5  -3   9  205.58   15.10
  -5  -3  -9  224.88   14.90
   5   3   9  227.08   16.10
  -5   3  -9  188.38   17.60
  -6  -3  -9    0.30    3.70
   6  -3   9    0.40    2.70
  -6  -3  -9    6.90    3.50
   6   3   9    2.50    3.50
  -6   3  -9    3.90    6.20
  -7  -3  -9  106.49    7.70
   7  -3   9   75.79    7.00
  -7   3  -9   87.99   13.40
  -9  -4   9   -0.10    2.00
   9  -4  -9   -2.70    3.10
   9  -4  -9   -0.20    1.90
   9   4  -9   -1.50    2.30
   8  -4  -9   33.10    4.30
   8  -4  -9   51.49    7.60
  -8  -4   9   33.50    4.70
  -8  -4   9   26.90    5.60
  -8  -4   9   31.60    5.20
   8  -4  -9   35.40    5.90
  -8   4   9   40.10    6.50
   8   4  -9   18.20    7.30
   8   4  -9   33.70    5.00
  -7  -4   9   64.59    6.40
   7  -4  -9   55.99    6.60
   7  -4  -9   59.49    6.30
   7  -4  -9   68.29    9.90
  -7  -4   9   51.79    9.00
  -7  -4   9   64.29    6.10
  -7  -4   9   73.29    8.40
   7   4  -9   56.19    6.70
  -7   4   9   62.29    8.20
   7   4  -9   42.50    9.30
   6  -4  -9   14.30    3.60
   6  -4  -9   13.00    3.80
   6  -4  -9   24.80    7.30
  -6  -4   9   13.30    3.20
  -6  -4   9   15.60    3.40
  -6  -4   9   23.40    4.70
   6   4  -9   17.10    3.80
   6   4  -9   22.00    9.80
  -6   4   9   11.30    3.80
  -6   4   9    0.20    6.10
   6   4  -9   17.10    5.70
  -5  -4   9   70.69    8.60
   5  -4  -9   81.19    9.50
  -5  -4   9   75.79    7.10
  -5  -4   9   71.59    7.80
   5  -4  -9   77.69    7.40
   5   4  -9   90.79    9.40
   5   4  -9   74.69    8.20
  -5   4   9   70.99   12.40
  -5   4   9   80.49    8.20
  -4  -4   9   56.39    6.30
   4  -4  -9   41.90    5.90
   4  -4  -9   61.89    7.80
  -4  -4   9   47.90    6.50
  -4  -4   9   41.90    5.50
   4   4  -9   57.29    7.20
  -4   4   9   34.70    9.70
   4   4  -9   41.50    8.00
  -4   4   9   51.39    6.60
  -3  -4   9    0.80    2.50
  -3  -4   9   -0.30    3.20
  -3  -4   9    2.00    4.80
   3  -4  -9    0.00    3.10
  -3   4   9    1.30    4.10
   3   4  -9   -7.10    5.60
   3   4  -9   -4.00    4.10
   2  -4  -9   20.10    4.00
  -2  -4   9   23.30    3.80
  -2  -4   9   15.70    5.10
   2   4  -9   26.70    6.60
  -2   4   9   20.80    5.20
   2   4  -9   25.80    4.80
  -1  -4   9   77.09    7.30
   1  -4  -9   76.79    8.20
  -1  -4   9  102.59    7.80
   1   4  -9   94.79    9.20
  -1   4   9   80.79    9.00
   1   4  -9  108.79   11.40
   0  -4   9    2.40    2.60
   0  -4   9    1.80    2.40
   0  -4   9    6.70    3.90
   0  -4  -9   -2.90    3.80
   0   4  -9   -0.10    4.20
   0   4  -9   11.20    6.60
   0   4   9    4.00    4.00
   1  -4   9    2.80    2.40
   1  -4   9    4.20    3.70
  -1  -4  -9    1.70    4.80
   1  -4   9    3.20    3.10
  -1   4  -9   -3.20    7.30
   1   4   9    7.70    3.80
  -1   4  -9   -4.30    4.40
   2  -4   9   17.30    3.90
   2  -4   9   23.00    3.90
   2  -4   9   12.10    3.60
  -2   4  -9   10.40    7.90
   2   4   9   18.60    4.50
  -2   4  -9   20.50    5.10
   3  -4   9   46.00    4.90
   3  -4   9   55.79    6.10
   3  -4   9   43.60    8.10
   3   4   9   56.39    6.30
  -3   4  -9   29.20    9.00
   4  -4   9   63.49    5.50
   4  -4   9   65.59    6.30
   4   4   9   60.89    6.90
   5  -4   9   47.90    5.40
   5   4   9   55.19    6.40
  -5  -5   9    1.90    4.50
   5  -5  -9   -5.50    4.40
  -5  -5   9    4.30    2.00
   5   5  -9   -2.10    2.50
  -4  -5   9   24.80    4.00
   4   5  -9   15.00    3.10
  -3  -5   9   15.80    4.30
  -3  -5   9   10.60    2.50
  -3   5   9    6.70    3.50
   3   5  -9   13.20    3.40
  -2  -5   9    6.40    2.30
  -2  -5   9    5.60    3.30
   2   5  -9    2.50    3.20
  -2   5   9    5.80    3.50
  -1  -5   9    4.00    2.10
  -1  -5   9   -3.00    4.00
  -1  -5   9    3.80    3.40
  -1   5   9   11.80    3.90
   1   5  -9   -1.80    3.20
   0  -5   9   16.20    2.30
   0  -5   9   16.00    3.40
   0   5  -9   11.10    3.90
   0   5   9   14.70    3.80
   1  -5   9   24.60    3.00
   1  -5   9   20.20    3.70
   1   5   9   21.10    3.90
  -1   5  -9   19.10    7.90
 -13   0  10   68.99    6.50
 -13   0  10   55.29    5.40
 -12   0  10   17.50    4.20
 -11   0  10   12.80    5.50
 -11   0  10   17.10    4.10
  11   0 -10   12.50    5.40
  11   0 -10   18.40    8.20
 -11   0  10    7.70    4.20
 -10   0  10   62.09    8.80
  10   0 -10   69.89    9.00
 -10   0  10   65.39    7.80
 -10   0  10   48.90    8.70
  10   0 -10   62.09    9.80
  -9   0  10  657.53   41.10
  -9   0  10  579.64   41.60
   9   0 -10  615.84   42.20
  -9   0  10  650.03   41.80
   9   0 -10  656.03   41.60
  -9   0  10  603.14   40.30
  -8   0  10   30.30    6.70
   8   0 -10   20.00    5.80
   8   0 -10   37.10    8.40
  -8   0  10   38.60    5.80
  -8   0  10   35.00    5.20
  -8   0  10   39.10    6.80
   8   0 -10   46.70    6.90
  -7   0  10  715.83   47.90
  -7   0  10  791.62   48.50
  -7   0  10  763.72   49.20
   7   0 -10  715.23   49.40
   7   0 -10  758.12   49.20
  -6   0  10  272.17   18.50
   6   0 -10  241.68   19.20
  -6   0  10  261.17   18.70
   6   0 -10  258.67   18.00
   6   0 -10  241.78   20.20
  -6   0  10  244.78   17.60
   6   0 -10  239.88   18.30
  -5   0  10   30.80    5.50
  -5   0  10   34.20    8.10
  -5   0  10   29.60    6.20
   5   0 -10   23.80    4.60
   5   0 -10   33.30    6.30
   5   0 -10   20.10    7.80
   5   0 -10   20.20    5.00
  -5   0  10   28.80    6.20
   4   0 -10    4.80    5.50
  -4   0  10   14.20    6.80
  -4   0  10   15.80    6.30
   4   0 -10   18.20    3.90
   4   0 -10   13.30    4.70
   4   0 -10   20.10   11.40
  -4   0  10   20.70    6.00
   4   0 -10   13.00    8.10
   3   0 -10  278.37   19.70
   3   0 -10  316.37   23.50
   3   0 -10  299.17   20.40
   3   0 -10  273.97   22.20
   3   0 -10  306.07   21.50
  -3   0  10  285.57   21.50
  -3   0  10  286.97   22.20
  -2   0  10 1254.17   86.39
   2   0 -10 1444.86   85.99
   2   0 -10 1358.46   87.49
   2   0 -10 1251.37   85.99
  -2   0  10 1352.56   87.19
   2   0 -10 1467.55   86.69
   1   0 -10  296.37   22.40
  -1   0  10  257.27   21.50
   1   0 -10  266.47   19.90
   1   0 -10  300.97   20.60
   1   0 -10  257.87   22.30
   1   0 -10  297.07   19.20
  -1   0  10  318.47   26.10
   0   0 -10  294.87   21.40
   0   0 -10  292.77   23.00
   0   0 -10  314.27   21.00
   0   0  10  269.17   22.80
   0   0 -10  340.77   20.50
  -1   0 -10 1702.73  103.19
  -1   0 -10 1585.44  102.69
  -1   0 -10 1737.13  102.69
   1   0  10 1383.66  103.29
  -1   0 -10 1707.73  103.59
  -2   0 -10 2053.59  143.79
  -2   0 -10 2351.26  143.59
  -2   0 -10 2281.07  143.59
  -2   0 -10 2424.66  144.49
  -3   0 -10   37.80    6.30
  -3   0 -10   36.60    5.80
  -3   0 -10   50.79    7.90
  -3   0 -10   39.40    5.60
  -4   0 -10   78.89    8.00
  -4   0 -10   90.49    9.10
  -4   0 -10  109.29    8.50
  -4   0 -10   90.29   10.40
  -5   0 -10  885.51   52.59
  -5   0 -10  816.62   53.19
  -5   0 -10  722.23   52.49
  -5   0 -10  838.52   52.29
  -6   0 -10  135.89   12.40
  -6   0 -10  153.48   12.50
  -6   0 -10  171.18   12.00
  -6   0 -10  149.29   11.10
  -7   0 -10    0.70    2.50
  -7   0 -10    4.40    2.30
  -7   0 -10    6.80    3.80
  -7   0 -10    8.50    7.20
  -8   0 -10   69.29    6.10
  -8   0 -10   72.09    6.90
  -8   0 -10   81.19    7.50
 -12  -1  10  242.48   16.40
  12  -1 -10  224.28   16.30
 -12  -1  10  245.78   16.00
 -12   1  10  243.08   16.80
 -12   1  10  211.18   16.80
 -12   1  10  241.68   17.60
 -11  -1  10  224.38   16.50
 -11  -1  10  196.18   20.10
 -11  -1  10  235.78   15.10
  11  -1 -10  226.78   16.10
 -11  -1  10  223.38   15.70
 -11   1  10  234.98   16.20
 -11   1  10  206.28   16.40
 -11   1  10  225.88   16.80
  11   1 -10  233.88   17.50
  10  -1 -10   16.00    4.50
  10  -1 -10   13.10    5.10
 -10  -1  10   12.80    3.20
 -10  -1  10   15.40    5.90
 -10  -1  10   17.60    4.00
 -10  -1  10   15.70   10.90
 -10  -1  10    8.40    4.30
  10   1 -10   12.20    6.40
 -10   1  10   19.40    5.30
 -10   1  10    5.30    5.20
  -9  -1  10   24.10    4.80
   9  -1 -10   27.40    5.80
  -9  -1  10   18.10    3.80
  -9  -1  10   31.30    6.20
   9  -1 -10   14.40    4.10
  -9  -1  10   16.90    5.10
  -9   1  10    7.70    5.80
   9   1 -10    9.70    6.60
  -9   1  10   14.40    5.90
   8  -1 -10 1199.18   79.69
  -8  -1  10 1284.47   79.89
   8  -1 -10 1243.78   79.19
   8  -1 -10 1225.38   78.89
  -8  -1  10 1247.28   79.29
  -8  -1  10 1308.47   78.79
   8   1 -10 1153.98   79.39
   8   1 -10 1126.79   79.49
  -8   1  10 1237.48   79.39
   8   1 -10 1220.18   80.09
  -8   1  10 1343.77   80.29
  -8   1  10 1305.17   80.19
  -7  -1  10  946.71   57.99
  -7  -1  10  875.01   57.39
  -7  -1  10  898.21   58.49
   7  -1 -10  895.61   57.59
   7  -1 -10  904.41   58.49
   7  -1 -10  908.91   57.69
  -7  -1  10  918.71   57.39
   7  -1 -10  922.91   60.39
  -7   1  10  837.32   58.89
   7   1 -10  922.81   59.19
   7   1 -10  819.32   58.29
  -7   1  10  915.81   58.29
  -7   1  10  978.30   58.99
   7   1 -10  840.12   58.59
  -7   1  10  895.61   58.19
   6  -1 -10    2.30    3.50
  -6  -1  10    6.50    5.30
   6  -1 -10    0.90    5.00
  -6  -1  10    3.40    3.40
   6  -1 -10   -1.70   10.50
  -6  -1  10   -1.00    4.00
   6  -1 -10    2.50    4.00
  -6  -1  10   -1.80    3.30
   6   1 -10    3.30    5.80
  -6   1  10    0.80    5.00
   6   1 -10    0.90    7.60
   6   1 -10    7.30    6.20
  -6   1  10   11.90   10.10
  -6   1  10    2.50    7.40
  -6   1  10    3.30    4.70
   5  -1 -10  117.49   10.50
  -5  -1  10  107.79    9.40
  -5  -1  10  120.59    9.80
  -5  -1  10   97.69   10.60
   5  -1 -10  115.69    9.40
   5  -1 -10   92.09   11.90
  -5  -1  10  116.09   11.70
   5  -1 -10  140.79   16.80
   5   1 -10  119.69   12.40
   5   1 -10  131.69   13.80
  -5   1  10  105.89   11.50
   5   1 -10  122.39   13.10
  -5   1  10  139.79   12.30
  -5   1  10  109.39   15.70
  -4  -1  10  962.90   60.49
   4  -1 -10  930.61   60.89
   4  -1 -10  967.40   60.69
   4  -1 -10  919.21   62.59
  -4  -1  10  890.51   60.99
   4  -1 -10 1056.99   61.89
  -4  -1  10  968.20   60.49
  -4   1  10  906.71   61.49
   4   1 -10  909.21   61.39
   4   1 -10  901.41   61.69
   4   1 -10  936.91   60.89
   4   1 -10  979.70   62.19
  -4   1  10 1002.60   62.29
   3  -1 -10  159.28   15.00
  -3  -1  10  164.88   14.10
  -3  -1  10  171.18   13.10
  -3  -1  10  157.78   12.30
   3  -1 -10  185.38   14.30
   3  -1 -10  157.88   17.00
   3  -1 -10  174.98   12.20
  -3   1  10  178.28   17.40
  -3   1  10  149.69   14.90
   3   1 -10  190.38   14.90
   3   1 -10  191.08   16.70
   3   1 -10  162.88   15.30
   3   1 -10  156.58   14.10
  -2  -1  10   68.49    8.30
  -2  -1  10   73.09    7.10
   2  -1 -10   69.19    6.10
   2  -1 -10   61.69   10.80
   2  -1 -10   82.39    9.80
  -2  -1  10   78.49    9.20
   2   1 -10   62.29    9.70
   2   1 -10   49.40    9.20
  -2   1  10   83.29   16.30
   2   1 -10   57.09   10.70
  -2   1  10   59.49    9.00
   2   1 -10   54.59   11.00
  -1  -1  10   53.59    7.30
  -1  -1  10   61.39    7.40
   1  -1 -10   65.39   10.00
   1  -1 -10   57.69    5.40
   1  -1 -10   73.39    9.70
  -1  -1  10   61.19    8.20
   1   1 -10   59.59    8.60
   1   1 -10   43.30    8.20
  -1   1  10   58.19    8.70
   1   1 -10   50.29    9.70
   1   1 -10   63.19    9.90
   0  -1 -10  732.33   41.80
   0  -1  10  694.63   42.60
   0  -1 -10  672.23   43.00
   0  -1  10  603.54   41.90
   0  -1 -10  648.24   42.50
   0   1 -10  590.14   41.90
   0   1 -10  594.04   42.10
   0   1 -10  733.23   42.70
   0   1 -10  587.14   42.90
   0   1  10  640.14   43.20
  -1  -1 -10   -6.20    8.60
  -1  -1 -10    9.80    4.90
   1  -1  10   12.50    5.60
   1  -1  10   -2.20    4.90
  -1  -1 -10    9.20    5.70
  -1  -1 -10    1.30    2.40
  -1   1 -10    9.50    3.90
  -1   1 -10    1.40    4.60
  -1   1 -10    5.10    5.30
  -1   1 -10    1.40    4.70
   1   1  10   11.10    6.40
  -2  -1 -10  321.27   19.10
   2  -1  10  267.27   20.20
  -2  -1 -10  290.07   20.30
  -2  -1 -10  250.27   19.60
  -2  -1 -10  315.67   21.40
  -2   1 -10  273.67   19.80
   2   1  10  266.17   20.90
  -2   1 -10  284.27   20.10
  -2   1 -10  278.47   20.50
  -2   1 -10  274.37   19.30
  -3  -1 -10   21.80    5.60
   3  -1  10    8.40    5.50
  -3  -1 -10   17.10    4.40
  -3  -1 -10   15.80    3.20
  -3   1 -10    6.80    5.30
   3   1  10   22.50    6.60
  -3   1 -10   17.50    4.00
  -3   1 -10    8.20    5.50
  -3   1 -10   15.40    4.60
  -4  -1 -10   49.10    6.60
   4  -1  10   52.99    7.40
  -4  -1 -10   56.29    8.00
  -4  -1 -10   38.90    5.30
  -4   1 -10   47.90    7.10
  -4   1 -10   36.80    5.60
   4   1  10   37.40    7.50
  -4   1 -10   45.90   10.60
  -4   1 -10   44.60    6.40
  -5  -1 -10    2.40    3.10
  -5  -1 -10    4.20    3.30
   5  -1  10   13.50    6.10
  -5  -1 -10    4.10    4.20
  -5   1 -10    8.50    3.40
   5   1  10    4.00    5.90
  -5   1 -10    2.40    4.40
  -5   1 -10    5.00    3.70
  -6  -1 -10  146.99   11.00
  -6  -1 -10  161.08   11.90
  -6  -1 -10  170.28   12.60
  -6  -1 -10  158.78   11.30
  -6   1 -10  140.39   11.40
  -6   1 -10  136.09   11.20
   6   1  10  135.89   13.40
  -6   1 -10  135.59   12.20
  -7  -1 -10   24.60    4.10
  -7  -1 -10   12.30    3.40
  -7  -1 -10   17.00    4.70
  -7  -1 -10   12.30    4.30
  -7   1 -10   18.00    4.40
  -7   1 -10   23.10    3.90
   7   1  10   14.40    7.90
  -8  -1 -10   15.00    3.00
  -8  -1 -10   18.20    4.00
  -8  -1 -10   22.80    3.30
  -8   1 -10   12.30    2.60
  -8   1 -10    9.10    3.70
 -12  -2  10   21.40    3.10
 -12  -2  10   30.60    5.00
 -12  -2  10   20.30    3.10
  12  -2 -10   16.90    3.30
 -12   2  10   21.20    4.00
 -11  -2  10   23.10    3.60
 -11  -2  10   25.60    3.70
 -11  -2  10   20.70    4.10
  11  -2 -10   18.30    3.50
 -11   2  10   19.70    4.60
  11   2 -10   22.00    5.40
 -11   2  10   20.50    4.60
  10  -2 -10   -0.80    2.80
  10  -2 -10    0.00    4.00
 -10  -2  10    4.50    2.60
 -10  -2  10   -1.10    3.00
 -10  -2  10    3.50    4.50
 -10  -2  10    8.70    7.60
 -10   2  10   -0.50    4.40
  10   2 -10    2.80    3.40
  10   2 -10    6.10    5.20
 -10   2  10    3.00    5.10
  -9  -2  10    2.00    2.90
  -9  -2  10    1.70    5.30
   9  -2 -10    7.70    3.30
   9  -2 -10    1.40    3.90
  -9  -2  10    5.40    3.40
   9  -2 -10    0.20    5.30
   9   2 -10    1.30    4.00
  -9   2  10    4.10    5.60
   9   2 -10   -2.20    5.30
  -9   2  10   -5.20    5.00
  -8  -2  10   19.10    4.70
  -8  -2  10   14.00    3.70
   8  -2 -10   16.80    5.30
   8  -2 -10   13.00    4.20
   8  -2 -10   12.70    4.40
  -8  -2  10   15.90    5.80
  -8  -2  10    8.70    3.50
   8   2 -10    7.30    5.20
  -8   2  10   15.50    7.80
   8   2 -10    6.90    6.20
  -8   2  10   10.50    6.00
  -7  -2  10   31.50    6.60
  -7  -2  10   15.30    4.30
  -7  -2  10   25.70    4.30
   7  -2 -10   24.00    4.80
   7  -2 -10   29.90    5.40
   7  -2 -10   28.00    6.10
  -7  -2  10   25.90    5.10
  -7   2  10   28.80    5.30
   7   2 -10   21.80    7.10
   7   2 -10   15.00    6.40
   7   2 -10   27.00    7.50
  -7   2  10   50.19    9.30
  -6  -2  10   22.70    5.10
  -6  -2  10   29.40    4.90
   6  -2 -10   18.30    5.90
   6  -2 -10   33.20    5.60
  -6  -2  10   20.00    4.10
   6   2 -10   23.00    7.60
   6   2 -10   22.60    6.90
  -6   2  10   27.20    7.40
  -6   2  10   24.70    5.40
   6   2 -10   34.70    7.50
   5  -2 -10  417.06   27.60
   5  -2 -10  366.16   25.90
  -5  -2  10  374.96   26.70
  -5  -2  10  375.76   25.90
  -5  -2  10  333.77   25.60
   5  -2 -10  445.76   26.60
  -5   2  10  376.66   26.80
   5   2 -10  384.36   27.40
  -5   2  10  404.66   28.70
   5   2 -10  434.56   28.00
   4  -2 -10   25.90    4.60
  -4  -2  10   18.80    3.50
  -4  -2  10   20.70    4.40
   4  -2 -10   12.50    5.60
  -4  -2  10   11.60    5.00
   4  -2 -10   22.20    6.80
  -4   2  10   17.30    8.50
   4   2 -10   25.30    6.50
  -4   2  10   18.50    5.10
   4   2 -10   20.30    7.10
   3  -2 -10  198.88   17.80
  -3  -2  10  254.57   15.80
  -3  -2  10  225.08   15.20
   3  -2 -10  209.48   19.00
  -3  -2  10  219.08   16.20
   3  -2 -10  213.88   15.40
   3   2 -10  233.18   17.90
  -3   2  10  184.98   21.20
  -3   2  10  204.78   16.80
   3   2 -10  233.38   20.20
   3   2 -10  235.38   17.90
   2  -2 -10  398.46   28.20
  -2  -2  10  407.66   25.80
  -2  -2  10  441.36   26.10
  -2  -2  10  421.66   26.70
   2  -2 -10  349.77   28.50
   2  -2 -10  386.76   25.90
   2   2 -10  378.36   27.50
   2   2 -10  366.96   28.60
   2   2 -10  388.66   28.60
  -2   2  10  371.06   27.00
  -1  -2  10   38.10    6.30
  -1  -2  10   26.80    4.30
  -1  -2  10   35.20    4.80
   1  -2 -10   54.29    9.30
   1  -2 -10   40.60    4.60
   1   2 -10   35.90    7.10
  -1   2  10   35.40    6.10
   1   2 -10   20.00    7.70
   1   2 -10   43.20    9.30
   0  -2  10  476.15   34.50
   0  -2  10  560.54   34.60
   0  -2 -10  565.34   34.50
   0  -2  10  545.65   35.10
   0   2 -10  545.65   36.00
   0   2  10  523.55   35.60
   0   2 -10  503.35   37.00
  -1  -2 -10   83.39    6.80
   1  -2  10   70.79    7.80
   1  -2  10   71.89    7.60
   1  -2  10   83.69    9.10
  -1   2 -10   82.99    9.70
   1   2  10   75.59    9.20
  -1   2 -10   75.99   10.70
  -1   2 -10   76.29   12.00
   2  -2  10  776.92   49.60
  -2  -2 -10  776.92   48.80
  -2  -2 -10  826.02   49.60
   2  -2  10  765.42   48.80
  -2   2 -10  684.23   51.39
   2   2  10  790.62   50.19
  -2   2 -10  722.53   49.99
  -2   2 -10  749.92   49.70
   3  -2  10   20.00    5.20
  -3  -2 -10   10.80    5.10
   3  -2  10   15.30    4.50
  -3  -2 -10   10.70    3.00
   3   2  10   16.40    5.50
  -3   2 -10   16.60    5.50
  -3   2 -10    6.70   11.90
  -4  -2 -10  130.59   13.60
  -4  -2 -10  136.89   13.50
  -4  -2 -10  130.49    9.90
  -4  -2 -10  133.79   10.80
   4  -2  10  126.39   11.30
   4   2  10  148.29   11.90
  -4   2 -10  132.59   12.20
  -4   2 -10  118.59   11.60
  -5  -2 -10  344.07   23.80
  -5  -2 -10  355.56   23.80
  -5  -2 -10  393.66   25.30
  -5  -2 -10  341.97   25.00
   5  -2  10  353.86   24.30
  -5   2 -10  386.46   25.00
  -5   2 -10  336.77   24.40
   5   2  10  368.26   24.80
   6  -2  10   28.10    5.10
  -6  -2 -10   38.40    7.60
  -6  -2 -10   34.70    5.20
  -6  -2 -10   27.50    5.70
  -6  -2 -10   29.00    5.00
   6   2  10   42.30    6.60
  -6   2 -10   30.20    4.80
  -6   2 -10   38.50    6.70
  -7  -2 -10   -1.70    4.60
  -7  -2 -10    2.60    2.30
  -7   2 -10    3.30    5.00
   7   2  10   -0.60    4.10
  -7   2 -10   -0.30    4.40
 -11  -3  10   31.00    5.00
 -11  -3  10   36.30    4.20
 -11  -3  10   27.20    3.30
 -11   3  10   12.10    6.10
 -11   3  10   21.50    4.20
 -10  -3  10  193.78   12.30
  10  -3 -10  198.68   13.30
  10  -3 -10  186.18   12.40
 -10  -3  10  182.58   12.90
  10   3 -10  183.18   13.80
 -10   3  10  159.38   14.10
 -10   3  10  168.18   13.30
  -9  -3  10  115.19    8.50
   9  -3 -10   89.89   10.20
  -9  -3  10  109.99    9.20
   9  -3 -10  117.39    9.70
  -9  -3  10  111.49    9.20
   9  -3 -10  119.89    8.80
  -9   3  10  113.49   12.70
   9   3 -10  114.09   10.60
  -9   3  10  105.89   10.20
   9   3 -10  110.19    9.00
  -8  -3  10    0.30    3.10
  -8  -3  10    3.50    2.80
   8  -3 -10    3.10    3.30
  -8  -3  10    8.70    5.10
   8  -3 -10    1.90    4.60
   8  -3 -10    8.40    4.10
  -8  -3  10    7.50    3.10
   8   3 -10   -2.20    3.60
  -8   3  10   -8.70    8.60
   8   3 -10   -0.50    6.00
  -8   3  10   -2.50    5.00
  -7  -3  10  183.38   14.80
  -7  -3  10  176.48   13.30
  -7  -3  10  178.58   14.00
   7  -3 -10  196.38   13.70
   7  -3 -10  179.98   14.90
   7  -3 -10  178.28   13.80
  -7  -3  10  179.88   13.40
  -7   3  10  209.58   16.50
   7   3 -10  185.48   15.30
   7   3 -10  197.58   16.10
   7   3 -10  170.78   14.10
  -7   3  10  207.58   14.40
   6  -3 -10   77.39    8.50
   6  -3 -10   67.79    8.50
  -6  -3  10   64.99    7.20
  -6  -3  10   54.89    6.40
  -6  -3  10   80.49    9.00
   6  -3 -10   66.99    6.70
  -6   3  10   43.00    9.40
  -6   3  10   75.69    8.20
   6   3 -10   64.69   11.30
   6   3 -10   53.19    9.80
  -5  -3  10  377.96   27.50
  -5  -3  10  381.16   27.30
   5  -3 -10  434.16   27.60
  -5  -3  10  451.25   28.40
   5  -3 -10  438.86   29.70
   5  -3 -10  414.96   28.10
   5   3 -10  351.16   28.40
   5   3 -10  422.56   29.00
  -5   3  10  428.96   31.10
   5   3 -10  452.25   29.90
  -5   3  10  421.46   28.40
   4  -3 -10  166.48   13.40
  -4  -3  10  141.99   10.60
   4  -3 -10  142.69   16.50
   4  -3 -10  150.58   11.00
  -4  -3  10  118.19   12.40
  -4  -3  10  130.69   11.10
   4   3 -10  126.39   13.70
   4   3 -10  172.48   16.60
  -4   3  10  139.79   12.60
   4   3 -10  141.59   13.50
  -3  -3  10   47.70    5.50
   3  -3 -10   51.79    6.10
  -3  -3  10   49.50    6.80
   3  -3 -10   37.00    9.30
  -3  -3  10   53.29    8.40
  -3   3  10   41.50   14.50
   3   3 -10   77.79   12.30
   3   3 -10   63.09   11.20
  -3   3  10   40.40    7.90
   3   3 -10   64.79    9.70
   2  -3 -10  190.68   13.60
  -2  -3  10  194.88   14.90
  -2  -3  10  174.18   13.30
  -2  -3  10  199.18   13.80
   2   3 -10  170.88   15.90
   2   3 -10  218.08   21.60
  -2   3  10  189.58   15.10
  -1  -3  10    0.50    4.10
   1  -3 -10    3.70    2.80
  -1  -3  10    1.90    3.20
  -1  -3  10   -2.60    2.70
   1   3 -10    3.20    5.70
  -1   3  10    0.10    4.50
   0  -3  10   -2.80    3.00
   0  -3  10    7.40    4.10
   0  -3 -10    1.70    2.70
   0  -3  10   -0.10    3.10
   0   3  10    1.50    4.80
   0   3 -10   -0.80    5.80
  -1  -3 -10    2.90    2.90
   1  -3  10    7.00    4.30
   1  -3  10    4.00    3.50
   1  -3  10    6.30    3.00
  -1   3 -10    6.90    5.80
   1   3  10   -2.10    4.40
   2  -3  10    4.70    4.40
  -2  -3 -10    8.80    3.10
   2  -3  10   17.00    4.40
   2  -3  10   15.90    3.40
  -2   3 -10   14.80    5.90
   2   3  10   10.40    4.70
  -3  -3 -10   44.00    5.40
   3  -3  10   40.30    4.80
   3   3  10   38.50    6.60
   4  -3  10  109.69    8.70
   4  -3  10   98.59    8.90
  -4  -3 -10  101.79    8.60
  -4   3 -10  104.99   11.60
   4   3  10  109.59    9.40
  -5  -3 -10   44.80    5.90
  -5  -3 -10   65.09    7.10
   5  -3  10   45.70    5.60
   5   3  10   49.60    6.40
  -5   3 -10   42.00    7.50
   6  -3  10    0.00    3.20
   6   3  10    0.10    3.20
  -6   3 -10   -7.60    5.80
   8  -4 -10   15.30    2.60
  -8  -4  10   24.60    3.50
   8  -4 -10   14.70    4.30
  -8  -4  10   15.00    4.10
   8   4 -10   14.40    6.70
  -8   4  10   23.70    4.60
   8   4 -10   13.60    3.10
  -7  -4  10   86.39    8.40
  -7  -4  10   94.99    7.40
   7  -4 -10   85.29    7.60
  -7  -4  10   83.19    9.30
   7  -4 -10   89.29   10.60
  -7  -4  10  111.49    8.20
   7  -4 -10   95.59    8.30
   7   4 -10   72.89   12.80
  -7   4  10  103.69    9.80
  -6  -4  10   52.39    6.10
  -6  -4  10   55.89    5.80
   6  -4 -10   68.39    8.70
  -6  -4  10   44.50    6.90
   6  -4 -10   52.69    6.30
   6  -4 -10   44.40    6.00
  -6  -4  10   53.79    6.50
   6   4 -10   47.60   10.40
   6   4 -10   48.20    6.60
  -6   4  10   61.49    9.30
   6   4 -10   43.00    7.30
  -6   4  10   58.79    6.40
   5  -4 -10  137.69   11.00
   5  -4 -10  124.79    9.80
  -5  -4  10  126.79    9.80
  -5  -4  10  126.89   10.60
  -5  -4  10  121.09   10.00
   5   4 -10  101.79   10.50
   5   4 -10  141.19   11.80
  -5   4  10  105.79   13.50
  -5   4  10  151.98   10.50
  -4  -4  10  107.79    9.70
  -4  -4  10   94.69    8.80
   4  -4 -10  121.89   11.40
   4  -4 -10  118.19    8.80
  -4  -4  10   97.59    8.80
   4   4 -10  100.79   10.80
  -4   4  10  117.69    9.70
   4   4 -10  100.69    9.70
   3  -4 -10    0.20    3.10
  -3  -4  10    0.50    3.00
  -3  -4  10    2.30    2.80
  -3  -4  10    2.70    4.30
   3   4 -10    3.10    5.20
  -3   4  10    8.40    3.80
   3   4 -10   -5.20    4.60
  -2  -4  10   43.90    5.60
  -2  -4  10   50.69    7.40
  -2  -4  10   47.10    5.70
   2  -4 -10   49.60    6.30
  -2   4  10   52.49    7.10
   2   4 -10   41.30    6.30
   2   4 -10   54.09    8.70
  -1  -4  10  791.82   46.60
  -1  -4  10  675.33   46.80
  -1  -4  10  758.52   46.40
   1  -4 -10  718.73   46.50
   1   4 -10  740.63   47.70
   1   4 -10  656.53   46.90
   0  -4 -10    7.80    3.90
   0  -4  10    6.10    3.30
   0  -4  10    7.40    2.50
   0  -4  10    4.90    3.50
   0   4 -10    6.30    5.90
   0   4  10   -1.00    3.70
   0   4 -10    8.10    7.70
   1  -4  10   46.80    5.80
   1  -4  10   41.50    5.30
  -1  -4 -10   42.40    7.00
   1  -4  10   40.80    4.70
  -1   4 -10   51.09    9.60
   1   4  10   40.70    6.50
   2  -4  10    1.90    1.90
   2  -4  10    4.80    2.70
   2  -4  10    5.70    5.70
  -2   4 -10   -5.00    6.30
   2   4  10   -3.90    3.30
   3  -4  10  335.07   21.00
   3  -4  10  347.57   21.50
  -3   4 -10  277.57   23.30
   4  -4  10  167.58   11.60
   4   4  10  158.48   12.00
  -4  -5  10    2.00    1.70
   4   5 -10   -0.80    4.50
  -3  -5  10    8.50    2.20
  -3   5  10    7.00    3.00
   3   5 -10    5.40    4.70
  -2  -5  10   43.80    6.50
  -2  -5  10   51.99    4.60
  -2   5  10   50.69    5.60
  -1  -5  10   37.30    5.60
  -1  -5  10   38.00    4.10
  -1   5  10   43.40    5.30
 -12   0  11    4.80    3.50
 -12   0  11   -0.70    7.30
 -11   0  11    2.00    3.40
 -11   0  11    4.00    4.20
 -11   0  11   -3.20    4.90
  11   0 -11    3.40    7.70
  11   0 -11   -9.40    4.70
 -10   0  11    3.70    3.80
  10   0 -11    3.50    7.60
  10   0 -11   -0.50    4.40
 -10   0  11   -1.00    4.60
 -10   0  11    6.40    4.60
  -9   0  11    1.40    5.10
  -9   0  11    0.50    4.80
   9   0 -11    2.80    4.80
   9   0 -11   -6.30    7.10
  -9   0  11    2.70    3.90
  -9   0  11    3.80    5.40
   8   0 -11    1.70    5.20
   8   0 -11    0.90    4.90
  -8   0  11    0.60    5.80
   8   0 -11   11.30    7.40
  -8   0  11   -4.90    4.60
  -8   0  11   -4.30    4.60
  -8   0  11    6.70    4.40
   7   0 -11   -6.70    4.30
   7   0 -11   -0.40    7.00
  -7   0  11    0.10    4.60
  -7   0  11   -0.80    4.40
   7   0 -11    0.00    5.00
  -7   0  11    7.60    4.60
   6   0 -11    3.60    5.60
   6   0 -11    3.20    4.20
  -6   0  11   -5.00    4.30
   6   0 -11   -5.00    6.30
   6   0 -11   -5.10    5.80
  -6   0  11   -0.60    4.80
   5   0 -11   -0.40    6.70
   5   0 -11    2.00    4.00
  -5   0  11   -1.20    4.50
  -5   0  11    2.30    5.30
   5   0 -11    4.50    4.40
  -5   0  11   10.30    7.80
   5   0 -11    0.60    4.80
  -5   0  11    4.20    6.30
   4   0 -11   -0.50    4.20
   4   0 -11    7.10    6.80
  -4   0  11    3.80    5.50
  -4   0  11    6.80    6.00
   4   0 -11   -2.20    3.70
   4   0 -11   -0.40    5.00
   3   0 -11    2.40    3.40
  -3   0  11   -3.30    6.30
   3   0 -11   -3.40    6.60
   3   0 -11    2.00    3.90
  -3   0  11   -2.90    7.00
   3   0 -11   -2.10    4.90
  -2   0  11   -6.80    7.50
   2   0 -11    2.00    4.80
   2   0 -11   -4.70    3.10
   2   0 -11   15.70    9.90
   2   0 -11   -1.20    4.10
   1   0 -11    0.80    4.40
   1   0 -11    0.10    7.90
  -1   0  11    0.60    7.40
   1   0 -11    3.80    2.90
  -1   0  11   -9.40    9.80
   1   0 -11    0.00    3.90
   0   0  11    2.70    7.20
   0   0 -11   -0.80    6.10
   0   0 -11    8.60    4.10
   0   0 -11   -5.30    3.80
   0   0 -11    2.90    3.00
  -1   0 -11   12.00    4.50
  -1   0 -11   17.50    3.40
  -2   0 -11   -8.00    5.20
  -2   0 -11   -0.40    3.40
  -2   0 -11    0.90    3.90
  -2   0 -11   -1.90    3.00
  -3   0 -11   -0.70    5.00
  -3   0 -11   -2.00    3.10
  -3   0 -11   -0.90    4.10
  -3   0 -11   -0.60    3.30
  -4   0 -11   -0.60    2.90
  -4   0 -11   -1.90    3.70
  -4   0 -11   -1.70    3.60
  -4   0 -11   -6.40    4.70
  -5   0 -11    3.40    3.40
  -5   0 -11   -3.00    4.30
  -5   0 -11    2.80    4.00
  -5   0 -11    0.00    2.30
  -6   0 -11   -2.90    2.70
  -6   0 -11   -1.60    3.80
  -6   0 -11    0.60    2.40
  -6   0 -11    3.20    6.20
  -7   0 -11    1.30    2.10
  -7   0 -11    3.10    2.40
  -7   0 -11   -3.40    3.50
 -12  -1  11   60.29    6.50
 -12  -1  11   62.09    5.60
  12  -1 -11   59.19    6.30
 -12   1  11   50.59    7.40
  12   1 -11   45.70    8.40
 -12   1  11   55.69    6.90
 -11  -1  11  125.29   12.40
 -11  -1  11  140.49    9.70
  11  -1 -11  142.49   11.10
 -11  -1  11  145.89   11.20
 -11  -1  11  133.99   10.30
 -11   1  11  132.09   12.30
 -11   1  11  119.29   11.40
  11   1 -11  141.89   12.50
 -11   1  11  128.59   11.00
 -10  -1  11  140.89   10.20
 -10  -1  11  124.99   11.60
  10  -1 -11  135.39   10.90
 -10  -1  11  142.59   11.20
 -10  -1  11  121.99    9.50
  10   1 -11  113.89   11.90
 -10   1  11  104.49   11.70
 -10   1  11  113.39   10.80
   9  -1 -11  289.27   19.30
  -9  -1  11  260.67   19.80
  -9  -1  11  297.37   19.10
   9  -1 -11  319.77   20.80
  -9  -1  11  265.27   20.50
   9   1 -11  269.27   21.20
  -9   1  11  275.97   20.40
  -9   1  11  322.87   21.10
  -9   1  11  260.37   21.00
  -8  -1  11  111.59   10.70
   8  -1 -11  103.29   11.10
   8  -1 -11   94.19   10.90
  -8  -1  11  125.19    9.10
  -8  -1  11  103.69   10.00
   8  -1 -11  101.99    9.60
  -8   1  11  108.99   11.10
  -8   1  11  111.69   12.30
   8   1 -11  101.59   11.50
  -8   1  11  131.09   13.60
   8   1 -11  102.69   12.40
   7  -1 -11   55.89    7.40
   7  -1 -11   56.69    7.60
  -7  -1  11   50.79    7.50
  -7  -1  11   49.80    6.80
   7  -1 -11   71.89    7.90
   7  -1 -11   40.90   11.00
  -7  -1  11   46.40    8.50
  -7  -1  11   53.09    7.70
   7   1 -11   63.79   12.20
   7   1 -11   53.29    9.20
  -7   1  11   60.09    9.30
   7   1 -11   46.80    7.60
  -7   1  11   52.69    7.80
   6  -1 -11   94.89    9.10
  -6  -1  11   98.79    9.80
   6  -1 -11   70.19   14.00
  -6  -1  11   95.59    9.90
  -6  -1  11   81.19    8.10
   6  -1 -11   92.79   10.60
  -6  -1  11   91.19    8.40
   6  -1 -11   80.09    8.50
  -6   1  11   88.69   10.20
   6   1 -11   91.09   10.50
  -6   1  11   88.59    9.90
   6   1 -11   83.39   11.20
   6   1 -11   96.99   12.30
  -5  -1  11    5.30    5.80
   5  -1 -11   10.00    3.90
  -5  -1  11    8.40    4.10
   5  -1 -11   14.00    5.20
   5  -1 -11   10.10    3.40
  -5  -1  11   19.10    3.70
   5  -1 -11   14.50    9.50
  -5  -1  11    8.40    4.60
  -5   1  11   12.60    5.10
   5   1 -11   24.30    7.90
  -5   1  11   10.40    5.50
   5   1 -11   11.90    5.70
  -4  -1  11   66.79    7.50
   4  -1 -11   50.49    8.10
   4  -1 -11   74.09   10.90
   4  -1 -11   50.39    6.60
  -4  -1  11   59.59    7.20
   4  -1 -11   58.89   10.00
  -4  -1  11   72.59    8.00
   4   1 -11   54.99    9.50
   4   1 -11   63.79    9.60
  -4   1  11   75.99    9.70
   4   1 -11   68.39   10.20
  -4   1  11   63.09   10.90
   4   1 -11   84.79   10.50
   3  -1 -11  105.49   13.50
  -3  -1  11  101.89   10.60
   3  -1 -11  111.79   12.00
   3  -1 -11  110.19   10.80
   3  -1 -11  128.19    9.40
  -3  -1  11  120.19   10.20
   3   1 -11  118.09   13.10
   3   1 -11  122.19   12.10
   3   1 -11  136.69   12.60
  -3   1  11  124.49   12.40
  -3   1  11  109.19   13.90
   3   1 -11  120.59   11.10
   2  -1 -11  110.59   11.90
   2  -1 -11  129.09    9.10
   2  -1 -11  125.79   10.70
  -2  -1  11  122.29   10.40
   2   1 -11  119.19   12.50
  -2   1  11  100.29   13.10
   2   1 -11  117.69   12.20
   2   1 -11  102.39   12.20
   2   1 -11   93.89   10.80
  -2   1  11  130.99   18.70
  -1  -1  11  126.09   11.00
   1  -1 -11  117.59   11.80
   1  -1 -11  122.69    9.30
  -1  -1  11  124.29   11.20
   1  -1 -11  114.69   11.10
  -1   1  11  111.59   13.30
   1   1 -11  135.99   11.30
   1   1 -11  110.79   12.90
   1   1 -11  115.19   10.50
   1   1 -11  126.59   12.40
   0  -1 -11  129.39   11.60
   0  -1  11  111.69   10.90
   0  -1 -11  139.59    9.20
   0  -1 -11  126.19   10.70
   0  -1  11  101.89   11.50
   0   1 -11   98.89   11.30
   0   1 -11  107.09   10.10
   0   1 -11  126.39   10.80
   0   1  11  122.99   13.10
  -1  -1 -11    2.80    4.60
   1  -1  11    9.60    4.90
  -1  -1 -11   10.80    4.50
  -1  -1 -11    0.70    8.00
  -1  -1 -11    4.80    2.80
  -1   1 -11    8.60    4.80
   1   1  11   11.20    6.40
  -1   1 -11    9.50    5.20
  -1   1 -11   11.50    5.10
  -1   1 -11    9.10    3.70
  -2  -1 -11  148.89   12.30
   2  -1  11  127.79   12.20
  -2  -1 -11  143.59   11.40
  -2  -1 -11  141.59   10.40
  -2  -1 -11  118.29   14.00
  -2   1 -11  137.29   12.20
  -2   1 -11  135.49   12.80
  -2   1 -11  122.19   10.90
   2   1  11  152.78   14.00
  -2   1 -11  153.68   12.00
  -3  -1 -11   14.50    4.10
  -3  -1 -11    9.40    3.00
  -3  -1 -11    5.60    4.70
  -3  -1 -11   16.50    6.40
   3  -1  11    7.00    5.30
  -3   1 -11    3.70    3.50
  -3   1 -11    7.10    4.90
   3   1  11   12.50    7.10
  -3   1 -11    7.70    4.60
   4  -1  11   22.40    6.40
  -4  -1 -11   29.10    5.00
  -4  -1 -11   29.50    6.30
  -4  -1 -11   27.00    4.90
  -4  -1 -11   34.50    5.60
   4   1  11   21.10    6.40
  -4   1 -11   24.60    5.50
  -4   1 -11   26.70    4.20
  -4   1 -11   27.10    4.70
  -5  -1 -11    1.90    4.60
  -5  -1 -11    9.90    4.00
  -5  -1 -11    6.90    2.70
  -5  -1 -11    9.50    3.70
   5   1  11   16.40    6.30
  -5   1 -11   12.60    3.60
  -5   1 -11   17.30    4.50
  -5   1 -11    7.10    3.60
  -6  -1 -11    6.40    2.60
  -6  -1 -11    0.80    3.30
  -6  -1 -11    2.40    3.90
  -6  -1 -11    4.50    4.40
  -6   1 -11    6.70    3.40
  -6   1 -11    0.40    6.60
  -6   1 -11    6.60    4.00
  -7  -1 -11   24.30    4.40
  -7  -1 -11   18.00    2.50
  -7   1 -11   18.60    3.50
  -7   1 -11   24.70    4.50
 -11  -2  11  132.09    9.50
  11  -2 -11  126.29    9.80
 -11  -2  11  138.39    9.80
 -11  -2  11  122.09    8.80
 -11   2  11  118.19   10.50
 -11   2  11  104.89   10.00
  11   2 -11  133.29   10.90
 -10  -2  11   96.09   10.70
 -10  -2  11  114.59    9.00
 -10  -2  11  102.09   10.80
  10  -2 -11  109.59    8.40
 -10  -2  11  113.79    8.10
  10  -2 -11  109.89    9.70
  10   2 -11  116.99   10.60
 -10   2  11  107.69    9.90
 -10   2  11   86.49   10.90
   9  -2 -11   99.99   10.10
   9  -2 -11  102.09    9.00
  -9  -2  11   94.39   10.80
  -9  -2  11  127.09    8.70
  -9  -2  11  137.39    9.50
   9  -2 -11  129.39   11.60
  -9   2  11   99.39   12.70
   9   2 -11  104.99   10.80
   9   2 -11  118.49   11.00
  -9   2  11  122.99   10.90
   8  -2 -11   11.90    4.80
   8  -2 -11    6.50    4.40
   8  -2 -11    6.20    3.80
  -8  -2  11    0.90    4.60
  -8  -2  11    7.50    3.50
  -8  -2  11   -0.40    3.80
  -8   2  11    1.90    5.20
   8   2 -11    1.60    5.60
   8   2 -11   16.40    6.60
   8   2 -11    3.10    5.90
  -8   2  11    7.00    7.40
  -7  -2  11  314.17   20.40
  -7  -2  11  288.47   20.90
  -7  -2  11  252.47   19.40
   7  -2 -11  308.97   21.00
   7  -2 -11  288.27   19.90
  -7  -2  11  274.97   19.40
   7  -2 -11  296.27   20.10
   7   2 -11  281.27   21.80
   7   2 -11  255.17   21.10
  -7   2  11  303.47   20.50
  -7   2  11  286.47   21.80
   6  -2 -11   14.60    4.70
  -6  -2  11    2.40    5.20
  -6  -2  11    6.40    3.30
  -6  -2  11    7.10    3.50
  -6  -2  11   10.80    4.60
   6  -2 -11    7.10    5.40
  -6   2  11   11.50    4.60
  -6   2  11    2.70    6.50
   6   2 -11    2.10    6.40
   6   2 -11   11.00    6.50
   5  -2 -11  111.89    9.70
  -5  -2  11  100.19    8.50
  -5  -2  11   96.89    8.40
   5  -2 -11   81.49    8.30
  -5  -2  11   88.79    9.70
   5  -2 -11  103.09   11.40
   5   2 -11   89.69   11.50
   5   2 -11   86.49   11.40
  -5   2  11   93.79    9.70
  -5   2  11   86.49   13.10
   4  -2 -11   49.40    7.70
  -4  -2  11   54.29    6.40
   4  -2 -11   49.80    6.40
   4  -2 -11   56.29    8.60
  -4  -2  11   65.09    7.20
  -4  -2  11   66.89    8.20
   4   2 -11   55.29   12.50
   4   2 -11   83.29   10.30
  -4   2  11   63.39    8.30
  -4   2  11   56.59   10.70
  -3  -2  11  157.38   13.30
   3  -2 -11  189.38   13.80
   3  -2 -11  165.48   15.50
  -3  -2  11  160.48   12.30
  -3  -2  11  146.69   12.10
   3  -2 -11  159.58   12.20
  -3   2  11  145.49   19.90
   3   2 -11  170.28   15.20
   3   2 -11  182.28   16.40
  -3   2  11  152.38   13.40
   3   2 -11  173.28   14.60
   2  -2 -11  846.42   58.59
  -2  -2  11  910.01   57.29
  -2  -2  11  883.31   57.29
  -2  -2  11  827.52   57.69
   2  -2 -11  892.41   57.39
   2  -2 -11  910.11   57.89
   2   2 -11  897.61   58.49
   2   2 -11  935.71   58.69
   2   2 -11  952.50   58.79
  -2   2  11  902.71   58.29
   1  -2 -11    7.70    6.70
  -1  -2  11    5.90    3.50
   1  -2 -11    0.50    2.60
  -1  -2  11    1.50    4.10
  -1  -2  11    4.10    3.70
   1  -2 -11    8.40    6.00
   1   2 -11    8.00    6.60
   1   2 -11    7.80    7.50
   1   2 -11    7.90    5.80
  -1   2  11    4.60    4.70
   0  -2  11  111.49    9.80
   0  -2  11  131.29   11.00
   0  -2 -11  132.79   12.70
   0  -2 -11  114.09   13.90
   0  -2  11  102.09   10.50
   0  -2 -11  126.19    9.30
   0   2 -11  123.59   12.10
   0   2  11  114.59   11.40
   0   2 -11  125.59   12.50
   0   2 -11  111.69   14.00
   1  -2  11  165.38   13.20
  -1  -2 -11  184.08   16.90
  -1  -2 -11  193.88   13.20
  -1  -2 -11  195.08   15.50
   1  -2  11  218.58   14.70
  -1   2 -11  184.58   15.10
  -1   2 -11  172.98   18.00
   1   2  11  169.78   15.00
  -1   2 -11  173.68   15.20
  -2  -2 -11  162.68   15.40
   2  -2  11  138.79   12.30
  -2  -2 -11  160.88   11.60
  -2  -2 -11  165.78   13.10
   2  -2  11  155.68   12.80
  -2   2 -11  151.68   13.60
   2   2  11  159.08   13.40
  -2   2 -11  174.98   13.90
  -3  -2 -11   93.49    8.90
   3  -2  11   91.59    9.00
  -3  -2 -11   86.79   11.70
  -3  -2 -11   79.49    7.70
   3   2  11  106.89   10.00
  -3   2 -11  100.39    9.90
  -3   2 -11   88.69    9.60
  -4  -2 -11  174.68   14.80
  -4  -2 -11  183.88   12.70
  -4  -2 -11  172.88   12.90
   4  -2  11  165.68   13.30
  -4   2 -11  186.58   14.00
  -4   2 -11  177.48   13.80
   4   2  11  174.48   13.90
  -5  -2 -11   33.40    4.50
  -5  -2 -11   25.20    5.70
  -5  -2 -11   36.50    5.10
   5  -2  11   39.10    6.70
  -5   2 -11   37.30    6.30
  -5   2 -11   25.70    4.80
   5   2  11   43.70    6.80
  -6  -2 -11   57.79    8.90
  -6  -2 -11   77.99    7.40
  -6  -2 -11   77.89    6.20
   6   2  11   77.59    8.30
  -6   2 -11   74.19    8.20
  -6   2 -11   61.29    8.00
  10  -3 -11   99.49    7.20
 -10  -3  11  103.29    7.10
  10  -3 -11   85.59    7.80
 -10  -3  11   95.59    7.60
  10   3 -11   98.89    9.30
  -9  -3  11  249.88   17.10
   9  -3 -11  232.68   17.40
   9  -3 -11  219.28   18.20
  -9  -3  11  256.27   16.70
  -9  -3  11  254.67   18.30
   9  -3 -11  279.57   16.90
   9   3 -11  262.07   18.30
  -9   3  11  238.68   18.00
   9   3 -11  266.57   17.30
   8  -3 -11    9.40    4.00
  -8  -3  11    8.60    4.50
   8  -3 -11   17.30    4.30
  -8  -3  11    8.30    3.20
  -8  -3  11   14.50    2.90
   8  -3 -11   13.60    3.10
  -8  -3  11   19.20    4.00
   8   3 -11   12.20    4.30
  -8   3  11   17.60    5.20
   8   3 -11   11.50    5.70
   7  -3 -11    0.90    3.70
  -7  -3  11   14.10    3.90
  -7  -3  11    9.10    2.80
  -7  -3  11   10.20    4.90
   7  -3 -11    1.50    4.70
   7  -3 -11   17.30    3.60
  -7  -3  11   11.40    3.80
   7   3 -11   -0.50    4.80
   7   3 -11   -0.50    5.10
   7   3 -11    7.50    5.90
  -7   3  11    6.80    3.40
  -7   3  11    0.40    5.50
  -6  -3  11  162.68   12.70
  -6  -3  11  165.48   12.00
   6  -3 -11  170.98   12.20
   6  -3 -11  168.78   12.70
   6  -3 -11  188.88   13.90
  -6  -3  11  154.98   11.80
   6   3 -11  124.99   13.60
  -6   3  11  154.68   12.40
   6   3 -11  163.58   14.50
  -6   3  11  161.38   15.20
   6   3 -11  147.89   13.80
   5  -3 -11  177.88   15.70
  -5  -3  11  201.58   14.10
  -5  -3  11  146.59   13.00
   5  -3 -11  168.38   13.90
   5  -3 -11  179.98   13.30
  -5   3  11  191.08   14.20
  -5   3  11  187.48   17.60
   5   3 -11  195.68   14.90
   5   3 -11  186.68   16.40
   4  -3 -11   15.10    5.20
  -4  -3  11    6.30    3.40
   4  -3 -11   18.90    6.80
   4  -3 -11    9.20    3.30
  -4  -3  11   10.10    4.80
  -4  -3  11   11.20    3.60
  -4   3  11    5.00    4.60
   4   3 -11   12.00    8.30
  -4   3  11   12.10   10.20
  -3  -3  11  435.06   28.60
  -3  -3  11  467.95   28.70
   3  -3 -11  407.46   29.70
   3  -3 -11  458.05   28.80
  -3  -3  11  412.06   29.20
   3   3 -11  445.06   30.20
  -3   3  11  396.86   29.40
   3   3 -11  445.86   31.60
  -2  -3  11   46.20    6.00
  -2  -3  11   50.39    7.50
   2  -3 -11   33.50    5.60
   2  -3 -11   39.80    7.80
  -2  -3  11   31.20    5.60
   2   3 -11   33.00    6.80
  -2   3  11   40.90    7.70
   2   3 -11   55.19   11.80
   1  -3 -11    6.10    3.10
  -1  -3  11    5.00    3.70
  -1  -3  11    2.40    3.40
  -1  -3  11    6.50    3.10
   1   3 -11   -1.60   17.60
  -1   3  11    6.10    4.60
   1   3 -11   10.40    5.70
   0  -3  11  316.87   20.80
   0  -3  11  335.07   21.10
   0  -3 -11  275.87   20.30
   0  -3  11  288.97   20.20
   0   3 -11  293.57   21.80
   0   3  11  302.67   21.40
   1  -3  11   96.69   11.40
  -1  -3 -11  124.69    9.70
   1  -3  11  134.69   10.40
   1  -3  11  111.49    9.40
  -1   3 -11  134.49   11.90
   1   3  11  144.59   11.20
   2  -3  11   42.00    5.70
  -2  -3 -11   45.80    5.80
   2  -3  11   56.19    6.40
   2   3  11   54.49    7.10
  -2   3 -11   54.19    8.20
  -3  -3 -11   30.80    5.20
   3  -3  11   21.90    3.90
  -3  -3 -11   27.20    4.90
   3  -3  11   19.20    3.90
  -3   3 -11   10.50    5.20
   3   3  11   22.60    4.50
  -4  -3 -11   44.30    6.60
  -4  -3 -11   33.60    5.60
   4  -3  11   34.70    5.30
   4   3  11   31.60    5.40
  -4   3 -11   34.10    6.40
  -5  -3 -11   47.50    6.10
   5  -3  11   54.49    6.10
   5   3  11   54.79    6.30
   8  -4 -11   21.70    4.40
  -8  -4  11   11.90    3.60
  -8  -4  11   13.00    2.20
   8  -4 -11   13.20    2.30
   7  -4 -11   19.30    4.30
   7  -4 -11   18.50    2.90
  -7  -4  11   24.80    3.00
  -7  -4  11   15.40    4.80
  -7  -4  11   23.00    4.40
  -7  -4  11   17.40    3.50
   7  -4 -11   32.20    5.70
  -7   4  11   12.90    4.70
   7   4 -11   17.30    8.20
   7   4 -11   21.10    4.20
  -6  -4  11   20.60    3.70
  -6  -4  11   23.00    4.10
  -6  -4  11   25.50    4.60
   6  -4 -11   16.20    3.60
   6  -4 -11   27.50    3.50
  -6  -4  11   27.10    4.10
   6   4 -11   15.80    4.30
  -6   4  11   16.80    5.80
   6   4 -11   11.80    4.80
  -6   4  11   27.90    4.40
  -5  -4  11    1.60    2.30
  -5  -4  11   -1.50    3.40
  -5  -4  11    2.50    3.20
   5  -4 -11    3.90    2.80
   5  -4 -11    3.00    3.30
  -5   4  11    1.20    7.30
   5   4 -11   -8.10    4.90
   5   4 -11   -2.90    4.60
  -5   4  11    2.30    3.00
  -4  -4  11    0.90    2.60
  -4  -4  11    1.20    3.60
   4  -4 -11    0.30    3.00
   4  -4 -11    6.20    4.00
  -4  -4  11    0.90    3.10
  -4   4  11    0.00    3.10
   4   4 -11    6.40    4.60
  -3  -4  11  161.68   12.40
   3  -4 -11  169.98   12.10
   3  -4 -11  162.28   13.40
  -3  -4  11  165.28   12.20
  -3  -4  11  142.89   11.50
  -3   4  11  165.78   12.50
   3   4 -11  176.78   13.60
  -2  -4  11  188.98   14.00
   2  -4 -11  192.98   13.80
  -2  -4  11  203.38   13.90
  -2  -4  11  197.68   13.30
   2   4 -11  182.78   14.90
  -2   4  11  177.98   14.10
   1  -4 -11   16.70    4.10
  -1  -4  11   19.80    3.70
  -1  -4  11   17.30    2.90
   1   4 -11   20.90    5.60
  -1   4  11   18.50    4.40
   0  -4 -11   90.99    8.70
   0  -4  11  107.59    8.30
   0  -4  11   85.19    9.20
   0  -4  11   93.69    7.40
   0   4 -11  100.49   10.00
   0   4  11   89.89    8.50
   1  -4  11    3.80    2.20
   1  -4  11   -1.30    2.60
  -1   4 -11    6.90    5.50
   1   4  11    8.60    3.40
   2  -4  11   36.70    4.40
   2  -4  11   40.70    4.90
   2   4  11   45.70    5.40
  -2   4 -11   41.70    7.20
   3  -4  11    6.50    2.40
  -3   4 -11    1.60    6.20
   3   4  11   11.60    3.10
 -12   0  12  280.47   17.40
 -12   0  12  220.28   17.70
 -11   0  12  263.97   17.60
 -11   0  12  240.88   18.10
  11   0 -12  234.28   18.00
 -11   0  12  273.77   18.30
  11   0 -12  272.77   20.40
  10   0 -12 1159.68   75.89
 -10   0  12 1217.98   76.39
 -10   0  12 1224.78   76.39
  10   0 -12 1161.38   76.49
  -9   0  12  189.28   15.00
   9   0 -12  206.58   16.50
  -9   0  12  170.68   14.10
   9   0 -12  203.28   14.80
  -9   0  12  191.68   15.00
   8   0 -12  171.08   14.20
   8   0 -12  158.08   15.10
  -8   0  12  144.69   13.80
   8   0 -12  129.49   12.80
  -8   0  12  125.39   11.90
  -8   0  12  139.39   12.30
   7   0 -12  537.05   36.90
  -7   0  12  552.34   36.90
   7   0 -12  546.35   35.30
  -7   0  12  514.35   36.40
  -7   0  12  544.15   35.70
   7   0 -12  556.74   36.50
  -6   0  12  534.15   34.10
  -6   0  12  547.55   34.70
   6   0 -12  506.45   34.60
   6   0 -12  490.15   33.50
   6   0 -12  476.25   34.70
  -5   0  12   35.00    6.10
   5   0 -12   33.50    5.10
   5   0 -12   33.00    6.00
  -5   0  12   25.80    6.00
   5   0 -12   20.60    5.60
   5   0 -12   22.20    7.00
  -4   0  12   48.50    7.20
   4   0 -12   56.19    7.40
   4   0 -12   50.79    9.40
   4   0 -12   47.30    7.20
   4   0 -12   58.69    8.70
   3   0 -12 1510.05   91.39
  -3   0  12 1413.86   90.59
   3   0 -12 1325.97   90.79
  -3   0  12 1489.45   91.29
   3   0 -12 1433.26   90.39
   3   0 -12 1361.36   90.19
   2   0 -12  237.38   23.00
   2   0 -12  315.47   19.90
   2   0 -12  300.07   21.50
  -2   0  12  291.37   22.20
   2   0 -12  280.27   20.50
   2   0 -12  275.07   19.80
  -2   0  12  297.07   21.60
   1   0 -12   68.19    7.10
  -1   0  12   57.89    8.80
   1   0 -12   57.79    9.20
   1   0 -12   68.99    7.60
   1   0 -12   73.29    8.20
  -1   0  12   73.09   13.40
   0   0 -12   21.30    4.90
   0   0 -12   22.70    4.30
   0   0 -12   18.20    6.60
  -1   0 -12    0.40    3.50
  -1   0 -12    3.50    3.40
  -1   0 -12    7.30    5.60
  -1   0 -12    2.70    4.20
  -2   0 -12    6.40    3.90
  -2   0 -12   13.30    3.80
  -2   0 -12    9.00    4.60
  -2   0 -12   10.80    5.70
  -3   0 -12   49.60    7.30
  -3   0 -12   47.80    7.10
  -3   0 -12   44.90    5.90
  -3   0 -12   38.70    6.50
  -4   0 -12    6.30    3.70
  -4   0 -12    2.60    4.20
  -4   0 -12   10.20    4.50
  -4   0 -12   -2.20    2.40
  -5   0 -12    9.70    3.10
  -5   0 -12   12.90    6.20
  -5   0 -12   10.50    4.00
  -5   0 -12   12.80    2.70
  -6   0 -12   74.19    6.90
  -6   0 -12   49.80    5.50
  -6   0 -12   62.79    6.00
  -7   0 -12  212.88   14.70
 -12  -1  12  174.58   11.90
 -12  -1  12  176.48   11.30
  12  -1 -12  150.08   11.80
 -12   1  12  154.18   12.10
 -12   1  12  163.38   12.10
  12   1 -12  159.78   12.90
  11  -1 -12  157.08   11.50
 -11  -1  12  163.28   11.80
 -11  -1  12  159.88   11.00
 -11  -1  12  130.59   12.30
 -11   1  12  151.78   11.60
 -11   1  12  137.39   12.10
  11   1 -12  153.58   12.90
 -10  -1  12   13.10    5.00
 -10  -1  12    7.00    3.10
  10  -1 -12    4.30    3.70
 -10  -1  12    2.40    3.10
 -10  -1  12    8.00    4.10
  10   1 -12   11.00    5.80
 -10   1  12   14.00    5.20
 -10   1  12   10.20    4.20
   9  -1 -12    8.30    3.40
  -9  -1  12   15.10    4.60
   9  -1 -12   10.70    4.10
  -9  -1  12   13.50    3.20
  -9  -1  12    9.90    3.50
  -9   1  12    5.00    6.00
  -9   1  12    0.20    5.70
  -9   1  12    9.90    4.60
   9   1 -12   11.30    5.60
   8  -1 -12   39.60    6.30
  -8  -1  12   35.30    5.40
   8  -1 -12   34.20    6.00
  -8  -1  12   41.00    7.70
   8  -1 -12   25.90   10.40
  -8  -1  12   38.90    5.60
   8  -1 -12   74.59   16.90
   8   1 -12   38.30    7.40
  -8   1  12   31.10    7.30
  -8   1  12   34.40    6.30
  -8   1  12   37.70    8.00
  -7  -1  12   14.10    4.40
   7  -1 -12   18.90    5.40
   7  -1 -12   16.90    4.50
   7  -1 -12   15.30    5.50
  -7  -1  12   19.50    3.90
   7  -1 -12   11.50    9.50
  -7  -1  12   18.30    5.20
  -7   1  12   -1.80   10.80
   7   1 -12   17.70    6.40
  -7   1  12   11.50    5.50
  -7   1  12   -3.50    9.50
   7   1 -12    6.50    8.80
   7   1 -12   11.00    6.30
  -6  -1  12    9.60    3.80
   6  -1 -12   14.40    4.10
  -6  -1  12   16.10    4.60
   6  -1 -12   11.70    5.60
  -6  -1  12    6.90    5.40
   6  -1 -12   -2.20    8.60
   6  -1 -12    9.00    4.40
  -6   1  12   11.40    5.60
  -6   1  12   10.10    5.30
   6   1 -12   15.00    8.40
   6   1 -12    8.20    6.10
   6   1 -12   11.20    5.90
   5  -1 -12  493.85   34.80
   5  -1 -12  518.95   33.10
  -5  -1  12  469.25   33.20
  -5  -1  12  505.35   32.60
   5  -1 -12  517.65   33.00
   5  -1 -12  457.55   33.70
  -5  -1  12  554.44   34.20
  -5   1  12  505.15   33.80
   5   1 -12  467.95   33.70
  -5   1  12  519.75   34.30
   5   1 -12  492.55   34.20
   5   1 -12  495.65   34.80
   4  -1 -12  197.58   14.00
  -4  -1  12  194.58   13.70
   4  -1 -12  165.28   16.60
  -4  -1  12  164.88   14.70
   4  -1 -12  189.68   15.30
   4  -1 -12  176.88   14.20
  -4  -1  12  196.68   15.30
   4   1 -12  172.28   16.30
  -4   1  12  193.28   15.70
   4   1 -12  198.88   15.00
   4   1 -12  194.98   15.70
  -4   1  12  217.08   16.70
   4   1 -12  172.98   15.60
  -3  -1  12   10.50    4.80
   3  -1 -12   10.40    5.10
   3  -1 -12    2.90    3.30
  -3  -1  12    4.60    4.10
   3  -1 -12    7.60    7.10
   3  -1 -12   10.70    4.00
  -3   1  12   11.20    5.90
  -3   1  12    7.00    8.00
   3   1 -12    8.70    5.90
   3   1 -12   10.40    4.70
   3   1 -12   15.60    6.70
  -2  -1  12  128.79   11.50
   2  -1 -12  104.19   10.60
  -2  -1  12  119.99   10.60
   2  -1 -12  128.49   11.80
   2  -1 -12  130.39    9.90
   2   1 -12  125.09   10.90
  -2   1  12  124.69   13.00
   2   1 -12  121.99   12.30
   2   1 -12  118.09   11.90
  -2   1  12   90.59   18.10
   2   1 -12  137.89   13.00
   1  -1 -12 1483.45   89.69
  -1  -1  12 1318.57   89.29
   1  -1 -12 1283.17   90.09
   1  -1 -12 1586.94   89.79
  -1  -1  12 1383.26   89.99
   1   1 -12 1372.06   89.39
  -1   1  12 1381.06   90.39
   1   1 -12 1333.77   90.59
   1   1 -12 1505.15   90.39
   1   1 -12 1470.35   90.69
   0  -1 -12   98.19   10.00
   0  -1 -12   89.99    7.80
   0  -1 -12  101.89    8.90
   0  -1  12   82.49    9.90
   0   1  12   75.49   11.80
   0   1 -12   81.79   10.70
   0   1 -12   98.39    9.50
   0   1 -12   80.49   10.50
   0   1 -12   76.49    8.70
  -1  -1 -12   32.00    6.00
  -1  -1 -12   32.40    4.90
   1  -1  12   25.00    5.50
  -1  -1 -12   33.10    5.00
   1   1  12   37.30    8.00
  -1   1 -12   22.70    4.40
  -1   1 -12   30.50    5.60
  -1   1 -12   33.90    6.40
  -2  -1 -12  658.43   40.50
  -2  -1 -12  599.54   40.30
  -2  -1 -12  654.73   41.70
  -2  -1 -12  688.03   41.10
   2  -1  12  611.24   41.00
   2   1  12  599.94   41.60
  -2   1 -12  584.54   40.20
  -2   1 -12  583.64   40.90
  -2   1 -12  630.74   41.40
  -3  -1 -12  451.65   28.30
  -3  -1 -12  414.36   27.20
  -3  -1 -12  396.46   27.60
  -3  -1 -12  400.86   27.00
  -3   1 -12  392.76   28.00
  -3   1 -12  427.96   27.70
   3   1  12  431.26   28.70
  -3   1 -12  370.76   26.80
  -4  -1 -12   12.30    3.50
  -4  -1 -12   12.70    4.00
  -4  -1 -12   23.10    5.70
  -4  -1 -12   12.90    3.00
  -4   1 -12   21.30    3.90
  -4   1 -12   13.10    4.30
  -4   1 -12    5.40    3.50
  -5  -1 -12  152.78   11.20
  -5  -1 -12  138.59   11.30
  -5  -1 -12  160.18   10.50
  -5  -1 -12  138.19   11.70
  -5   1 -12  155.38   11.70
  -5   1 -12  138.19   11.00
  -5   1 -12  134.39   12.70
  -6  -1 -12  209.68   13.30
  -6  -1 -12  194.28   14.30
  -6  -1 -12  180.28   13.70
  -6   1 -12  190.08   14.20
  -6   1 -12  205.18   13.70
  -6   1 -12  194.68   22.70
  11  -2 -12   46.50    5.70
 -11  -2  12   56.59    5.10
 -11  -2  12   52.79    5.90
 -11  -2  12   52.39    4.50
 -11   2  12   43.40    6.00
  11   2 -12   60.59    7.30
 -11   2  12   63.39    8.30
 -10  -2  12  190.08   13.10
  10  -2 -12  183.48   12.60
 -10  -2  12  168.98   12.40
  10  -2 -12  194.38   13.70
 -10  -2  12  194.58   14.00
 -10   2  12  174.88   15.20
  10   2 -12  192.68   14.10
 -10   2  12  183.58   13.90
   9  -2 -12  121.99   15.60
  -9  -2  12   88.79    7.40
  -9  -2  12  100.29    8.20
  -9  -2  12  102.89    9.20
   9  -2 -12   98.99    7.90
   9  -2 -12   79.19    8.60
   9   2 -12   88.29    9.50
  -9   2  12   97.49   12.60
  -9   2  12   93.09    9.70
  -8  -2  12   -5.00    4.50
   8  -2 -12   -0.20    3.90
   8  -2 -12   -6.70    5.00
   8  -2 -12   -0.80    3.00
  -8  -2  12   -3.20    2.50
  -8  -2  12    2.90    4.10
  -8  -2  12    3.80    3.10
   8   2 -12    2.10    4.90
  -8   2  12    1.60    4.80
  -7  -2  12  609.64   41.90
   7  -2 -12  660.13   41.80
  -7  -2  12  642.94   41.40
   7  -2 -12  652.83   42.50
  -7  -2  12  586.54   42.40
   7  -2 -12  663.93   42.00
  -7   2  12  700.43   42.40
  -7   2  12  647.34   43.10
   7   2 -12  669.83   43.00
   7   2 -12  616.54   42.90
   6  -2 -12  189.38   13.60
  -6  -2  12  173.18   14.30
   6  -2 -12  178.28   14.60
   6  -2 -12  169.28   13.20
  -6  -2  12  160.28   12.60
  -6  -2  12  175.58   13.60
  -6  -2  12  152.98   13.00
   6   2 -12  188.78   15.30
  -6   2  12  187.58   15.70
   6   2 -12  174.58   15.50
  -6   2  12  179.68   13.70
   5  -2 -12    8.90    5.60
  -5  -2  12    3.30    3.30
  -5  -2  12    6.00    4.00
   5  -2 -12    3.80    4.00
  -5  -2  12   -7.50    4.20
   5  -2 -12    4.70    3.60
   5   2 -12    1.20    6.00
  -5   2  12    8.20    7.10
  -5   2  12   -1.10    4.40
   5   2 -12   10.00    6.00
  -4  -2  12  254.37   18.20
  -4  -2  12  247.98   17.40
   4  -2 -12  259.37   18.10
  -4  -2  12  255.07   17.70
   4  -2 -12  269.17   19.40
   4  -2 -12  222.38   17.40
  -4   2  12  275.17   22.10
   4   2 -12  292.57   19.70
   4   2 -12  241.08   19.30
  -4   2  12  221.48   18.40
   4   2 -12  210.68   20.60
   3  -2 -12  168.58   13.10
  -3  -2  12  182.08   13.40
   3  -2 -12  176.78   14.20
  -3  -2  12  157.38   13.70
   3  -2 -12  196.98   19.30
  -3  -2  12  175.48   14.10
   3  -2 -12  183.48   15.70
   3   2 -12  179.98   15.20
  -3   2  12  179.28   14.40
   3   2 -12  196.08   16.70
   3   2 -12  197.48   15.80
  -3   2  12  181.08   21.80
   2  -2 -12  354.06   26.50
  -2  -2  12  379.46   24.00
   2  -2 -12  324.07   23.20
  -2  -2  12  325.47   23.20
   2  -2 -12  356.86   24.00
   2  -2 -12  322.47   25.10
   2   2 -12  338.77   24.90
   2   2 -12  377.66   25.20
   2   2 -12  348.47   25.10
  -2   2  12  335.07   24.30
   1  -2 -12   32.50    5.00
   1  -2 -12   33.30    5.90
   1  -2 -12   37.10    7.50
  -1  -2  12   31.40    5.40
   1   2 -12   26.10    6.50
  -1   2  12   33.90    6.00
   1   2 -12   21.50    7.00
   1   2 -12   44.30    8.20
   0  -2 -12   40.30    5.20
   0  -2  12   25.30    4.80
   0  -2  12   37.50    5.80
   0  -2 -12   55.89    7.70
   0   2 -12   36.80    8.30
   0   2  12   38.40    6.50
   0   2 -12   41.70    8.20
   0   2 -12   28.00    6.70
  -1  -2 -12   90.69   11.90
  -1  -2 -12   98.99   10.00
   1  -2  12   98.49    9.30
  -1  -2 -12   90.29    8.10
   1  -2  12  102.09    9.50
  -1   2 -12  104.29   10.70
  -1   2 -12  104.89   12.50
   1   2  12   88.39   10.00
  -1   2 -12   90.79   10.50
  -2  -2 -12    6.80    3.90
  -2  -2 -12    7.70    5.20
   2  -2  12    4.50    3.70
  -2  -2 -12   -1.50    2.70
  -2   2 -12   -8.20    7.50
  -2   2 -12    2.10    4.60
   2   2  12    2.40    4.40
  -2   2 -12    1.90    4.40
  -3  -2 -12    1.50    3.10
  -3  -2 -12    3.40    2.90
  -3  -2 -12   11.70    5.30
   3  -2  12    4.70    3.70
   3   2  12   -6.80    4.20
  -3   2 -12    0.90    4.30
  -3   2 -12   20.70    9.10
  -3   2 -12    7.70    4.30
   4  -2  12    4.20    4.00
  -4  -2 -12    3.70    3.20
  -4  -2 -12    7.10    2.80
  -4  -2 -12   16.50    5.00
   4   2  12   -0.40    4.00
  -4   2 -12    1.80    4.00
  -4   2 -12    1.60    4.00
  -5  -2 -12    1.70    2.10
  -5  -2 -12    0.10    3.60
  -5  -2 -12    3.70    4.50
   5  -2  12   -4.10    7.00
  -5   2 -12   -4.80    4.00
  -5   2 -12   -2.60    3.60
   5   2  12   -4.00    4.20
  -6  -2 -12   -0.70    1.70
  -6   2 -12    0.90    3.40
 -10  -3  12   13.10    2.70
  10  -3 -12    9.10    2.20
  10  -3 -12   10.20    2.90
 -10  -3  12    9.00    1.90
 -10  -3  12    9.50    2.90
 -10   3  12    6.00    3.40
  10   3 -12    4.30    3.70
   9  -3 -12   42.90    5.30
  -9  -3  12   32.50    4.70
  -9  -3  12   30.70    3.70
   9  -3 -12   40.40    4.30
  -9  -3  12   30.20    5.30
   9   3 -12   35.70    6.60
  -9   3  12   22.80    4.80
  -8  -3  12    0.70    2.40
  -8  -3  12    4.50    4.00
   8  -3 -12    4.60    4.30
  -8  -3  12    2.40    2.90
  -8  -3  12   -2.20    4.00
   8  -3 -12    2.10    3.60
   8  -3 -12    2.60    2.50
   8   3 -12    8.40    5.00
  -8   3  12    0.90    4.00
   7  -3 -12   19.10    3.50
   7  -3 -12   18.80    4.20
  -7  -3  12   25.30    4.60
   7  -3 -12   31.40    5.20
  -7  -3  12   15.40    4.40
  -7  -3  12   18.40    3.60
   7   3 -12   23.60    5.80
  -7   3  12   30.90    6.30
  -7   3  12   32.90    5.40
  -6  -3  12   32.00    4.50
   6  -3 -12   33.80    5.80
   6  -3 -12   21.30    5.20
  -6  -3  12   25.10    5.00
   6  -3 -12   18.60    4.00
  -6  -3  12   22.10    4.10
  -6  -3  12   33.70    5.70
  -6   3  12   33.10    5.20
   6   3 -12   32.60    6.80
  -6   3  12   16.60    7.00
   6   3 -12   19.90    5.70
   5  -3 -12   15.40    5.40
  -5  -3  12   10.90    3.80
   5  -3 -12   20.20    4.10
  -5  -3  12   13.40    3.00
  -5  -3  12   13.20    4.00
   5   3 -12    3.70    6.30
   5   3 -12   17.70    5.40
  -5   3  12   13.60    4.10
  -5   3  12   21.00    8.40
   4  -3 -12  197.38   14.00
   4  -3 -12  202.28   14.30
  -4  -3  12  207.08   14.50
  -4  -3  12  184.48   13.50
  -4  -3  12  167.68   14.00
   4  -3 -12  206.38   16.50
   4   3 -12  188.88   15.10
  -4   3  12  187.98   14.60
   4   3 -12  210.88   16.80
  -4   3  12  167.98   19.20
  -3  -3  12   62.69    7.50
   3  -3 -12   74.19    8.40
  -3  -3  12   56.29    6.30
  -3  -3  12   61.99    7.20
   3  -3 -12   76.49   12.80
   3  -3 -12   66.39    6.80
   3   3 -12   53.39    8.50
  -3   3  12   56.59    7.90
   3   3 -12   70.49   11.80
   2  -3 -12   86.69    9.40
  -2  -3  12   51.89    7.70
  -2  -3  12   52.29    7.60
   2  -3 -12   68.79    6.80
   2   3 -12   71.89    8.20
   2   3 -12   64.69   12.70
  -2   3  12   59.29    7.60
  -1  -3  12    8.00    5.20
  -1  -3  12    3.80    2.70
   1  -3 -12    8.30    5.80
   1  -3 -12    5.40    3.00
  -1  -3  12    8.60    4.10
   1   3 -12    3.30   14.20
  -1   3  12    7.40    4.00
   1   3 -12    4.90    4.70
   0  -3 -12  125.19   12.00
   0  -3  12  129.99    9.60
   0  -3 -12  114.79    9.90
   0  -3  12  142.79   10.20
   0   3  12  120.59   10.70
   0   3 -12  131.79   11.20
  -1  -3 -12   86.19    8.60
   1  -3  12  109.79    9.20
  -1  -3 -12  108.49   11.10
   1  -3  12  115.09    8.50
  -1   3 -12  104.09   10.00
   1   3  12  118.29    9.90
  -2  -3 -12   71.49    7.10
   2  -3  12   66.29    7.10
  -2  -3 -12   89.79    8.70
   2  -3  12   77.69    7.10
   2   3  12   76.09    7.60
  -2   3 -12   68.29    8.00
  -3  -3 -12  151.88   11.20
  -3  -3 -12  126.79   10.90
   3  -3  12  158.78   10.80
   3   3  12  154.18   11.10
  -3   3 -12  131.99   11.50
   4  -3  12   97.59    7.60
  -4  -3 -12   85.19    8.00
   4   3  12   89.79    8.20
   7  -4 -12   52.99    4.90
  -7  -4  12   48.50    6.50
  -7  -4  12   52.49    5.40
  -7  -4  12   59.29    4.60
  -6  -4  12    2.00    2.10
   6  -4 -12   -0.40    2.20
   6  -4 -12   -1.90    4.00
  -6  -4  12   -4.40    3.30
  -6  -4  12    4.10    2.70
  -6   4  12    4.90    2.50
  -5  -4  12  271.67   18.60
  -5  -4  12  305.57   19.00
   5  -4 -12  282.37   18.90
   5  -4 -12  277.87   19.10
  -5  -4  12  263.37   19.40
   5   4 -12  269.47   19.60
  -5   4  12  308.77   19.20
   4  -4 -12   61.09    7.40
   4  -4 -12   80.09    6.90
  -4  -4  12   55.39    7.80
  -4  -4  12   63.49    6.60
  -4  -4  12   70.59    6.10
   4   4 -12   71.89    7.90
  -4   4  12   86.19    7.00
  -3  -4  12    7.50    2.30
  -3  -4  12    6.70    4.50
  -3  -4  12    6.10    3.00
   3  -4 -12    7.50    3.30
   3  -4 -12    3.70    3.90
   3   4 -12    4.80    4.10
  -3   4  12    9.60    3.10
  -2  -4  12   13.20    3.20
  -2  -4  12   17.80    5.30
   2  -4 -12    6.30    4.30
  -2  -4  12    4.90    2.50
   2  -4 -12   13.60    3.80
   2   4 -12    0.90    4.20
  -2   4  12    8.60    3.60
  -1  -4  12   29.10    4.80
   1  -4 -12   28.50    5.00
  -1  -4  12   25.10    4.00
   1   4 -12   25.80    5.30
  -1   4  12   34.20    5.40
   0  -4  12   69.09    6.00
   0  -4  12   79.29    6.80
   0   4  12   70.29    7.00
   0   4 -12   95.09    8.70
   1  -4  12   -1.30    2.20
   1  -4  12   -0.50    1.40
  -1   4 -12   -0.70    4.40
   1   4  12   -1.30    2.80
   2  -4  12    4.00    2.30
  -2   4 -12    2.80    4.80
   2   4  12    1.60    2.70
 -12   0  13   -0.50    3.20
 -12   0  13    5.20    4.10
 -11   0  13   -1.60    3.80
  11   0 -13   13.70    7.60
 -11   0  13    5.20    3.70
  11   0 -13   18.70    9.00
 -10   0  13    9.30    4.50
  10   0 -13    3.60    4.00
  10   0 -13    1.00    6.30
 -10   0  13    1.20    3.90
 -10   0  13    4.30    3.40
   9   0 -13   -8.60    6.30
  -9   0  13    5.40    5.30
  -9   0  13    1.10    3.60
  -9   0  13    8.80    4.20
   9   0 -13    1.50    4.20
  -8   0  13    2.90    4.20
  -8   0  13   -0.10    3.60
  -8   0  13   -3.40    6.00
   8   0 -13   17.40    6.30
   8   0 -13    1.60    4.50
   7   0 -13    6.30    4.40
  -7   0  13    0.40    7.60
   7   0 -13    3.60    4.90
  -7   0  13   -3.70    4.20
  -7   0  13   -1.50    4.60
   7   0 -13   -6.50    6.20
  -6   0  13   -3.00    4.80
   6   0 -13    1.60    4.10
   6   0 -13   -1.90    6.10
  -6   0  13    1.70    4.50
   6   0 -13   -0.40    5.30
  -5   0  13    7.80    4.80
   5   0 -13   -1.20    5.10
   5   0 -13    1.70    6.50
   5   0 -13    0.80    4.40
  -5   0  13    1.40    5.10
   5   0 -13    5.00    6.40
  -4   0  13    2.20    5.30
   4   0 -13    1.70    4.70
  -4   0  13   13.90    5.70
   4   0 -13    1.70    4.00
   4   0 -13   -4.00    6.00
   3   0 -13    6.20    4.60
  -3   0  13   -5.70    6.20
   3   0 -13    0.60    6.00
   3   0 -13    7.10    3.90
  -3   0  13   -1.30    5.90
   3   0 -13    2.60    4.60
   2   0 -13   -4.50    4.40
   2   0 -13   -3.90    5.90
  -2   0  13    1.10    5.80
  -2   0  13    0.80    7.50
   2   0 -13    0.50    4.40
   2   0 -13   -0.40    3.70
   2   0 -13   -8.80    8.70
   1   0 -13    0.30    7.40
   1   0 -13   -4.50    3.40
   1   0 -13    5.90    4.20
   1   0 -13   -0.60    4.40
   0   0 -13    3.70    3.40
   0   0 -13    9.40    6.60
   0   0 -13    0.30    4.40
   0   0 -13    2.20    4.30
  -1   0 -13    1.20    4.30
  -1   0 -13   -3.40    3.30
  -1   0 -13   -5.90    5.70
  -1   0 -13   -3.20    4.20
  -2   0 -13   -3.40    4.00
  -2   0 -13   -0.50    2.90
  -2   0 -13    2.00    4.30
  -2   0 -13    4.80    5.20
  -3   0 -13   -1.40    3.40
  -3   0 -13    6.20    4.50
  -3   0 -13   -1.80    4.50
  -4   0 -13    2.70    4.10
  -4   0 -13    5.50    6.30
  -4   0 -13    0.60    3.10
  -4   0 -13    2.10    2.50
  -5   0 -13    4.60    2.20
  -5   0 -13    0.20    3.80
  -5   0 -13    1.40    2.40
  -6   0 -13   -1.80    2.60
  -6   0 -13    1.30    3.60
  -6   0 -13   12.40    3.80
 -11  -1  13   26.70    4.20
  11  -1 -13   27.60    4.10
 -11  -1  13   20.20    3.90
 -11  -1  13   23.00    4.80
  11   1 -13   24.80    5.90
 -11   1  13   19.50    4.10
 -11   1  13   24.20    4.90
 -10  -1  13    5.60    3.60
  10  -1 -13    2.00    3.20
 -10  -1  13   -1.10    2.90
 -10  -1  13    1.80    3.70
 -10   1  13    3.10    3.80
 -10   1  13    1.60    4.80
  10   1 -13    6.20    5.20
  -9  -1  13   24.00    4.80
   9  -1 -13   27.30    3.90
   9  -1 -13   17.30    4.30
  -9  -1  13   29.20    5.00
  -9  -1  13   37.70    6.70
  -9  -1  13   18.40    3.70
  -9   1  13   20.90    6.50
  -9   1  13   27.10    5.30
   9   1 -13   42.00    7.30
   8  -1 -13    7.80    9.80
   8  -1 -13    7.20    3.30
   8  -1 -13   -4.60    4.00
  -8  -1  13    2.10    3.20
  -8  -1  13   -2.90    4.00
  -8  -1  13    4.20    3.30
  -8   1  13   -3.20    4.30
   8   1 -13    5.50    5.50
   8   1 -13   -5.30    5.40
  -7  -1  13   21.30    4.30
  -7  -1  13   23.20    5.30
  -7  -1  13   22.90    4.10
   7  -1 -13   38.70    9.00
   7  -1 -13   29.90    5.70
   7  -1 -13   31.30    6.40
   7  -1 -13   22.80    4.20
  -7   1  13   18.90    5.40
   7   1 -13   27.90    6.10
   7   1 -13   33.60    9.00
   7   1 -13   24.30    6.40
  -6  -1  13  413.86   28.40
  -6  -1  13  407.86   27.00
   6  -1 -13  416.96   29.40
   6  -1 -13  385.96   28.50
   6  -1 -13  392.66   27.80
   6  -1 -13  427.46   27.50
  -6  -1  13  434.16   27.80
   6   1 -13  405.36   28.80
   6   1 -13  404.16   29.50
  -6   1  13  399.76   28.70
  -6   1  13  440.06   28.40
  -5  -1  13  340.67   22.50
   5  -1 -13  384.26   23.30
   5  -1 -13  352.96   24.10
   5  -1 -13  290.67   24.80
  -5  -1  13  322.77   23.20
  -5  -1  13  322.47   23.90
   5  -1 -13  312.97   22.80
   5   1 -13  335.87   25.20
   5   1 -13  336.37   24.00
  -5   1  13  340.07   23.90
  -5   1  13  363.66   24.60
   5   1 -13  326.77   24.00
   4  -1 -13    9.80    7.20
   4  -1 -13   -4.00    3.50
  -4  -1  13   -0.70    5.50
   4  -1 -13    2.30    3.80
   4  -1 -13    1.60    5.00
  -4  -1  13    5.50    4.80
  -4  -1  13    3.60    4.20
   4   1 -13    1.60    5.80
  -4   1  13    3.60    5.60
   4   1 -13   11.00    6.40
  -4   1  13    4.70    6.60
   4   1 -13    1.10    6.90
  -3  -1  13    8.50    4.80
   3  -1 -13   10.80    7.10
   3  -1 -13    0.50    3.60
   3  -1 -13    0.20    3.60
  -3  -1  13   -4.30    5.70
   3  -1 -13    3.00    5.30
  -3  -1  13   -2.70    4.60
   3   1 -13    4.20    6.70
   3   1 -13    3.50    5.40
  -3   1  13   19.50    9.10
   3   1 -13    9.70    6.40
   3   1 -13   15.50    4.80
  -3   1  13    5.40    6.20
   2  -1 -13    3.00    7.00
   2  -1 -13    4.00    3.80
  -2  -1  13   22.60    7.30
   2  -1 -13    8.10    3.60
   2  -1 -13    8.40    4.80
  -2  -1  13    7.20    5.00
   2   1 -13    7.80    4.40
   2   1 -13   10.20    6.40
   2   1 -13    9.50    5.50
   2   1 -13   12.80    6.20
  -2   1  13   17.80    6.90
  -1  -1  13   -3.40    4.70
  -1  -1  13   -3.20    7.90
   1  -1 -13    3.20    3.60
   1  -1 -13    6.60    3.50
   1  -1 -13   -3.60    4.60
   1   1 -13    7.40    4.30
   1   1 -13    0.70    5.10
   1   1 -13   -7.00    5.60
   1   1 -13   -0.50    6.10
  -1   1  13    5.90    7.00
   0  -1  13   11.20    5.00
   0  -1 -13   12.30    3.60
   0  -1 -13   13.90    3.90
   0  -1 -13   18.70    5.00
   0   1  13   18.40    7.40
   0   1 -13   20.00    5.90
   0   1 -13   16.90    4.40
   0   1 -13   13.90    5.30
   0   1 -13   21.70    6.70
  -1  -1 -13   91.59    9.00
  -1  -1 -13   98.69    8.70
  -1  -1 -13   99.69   10.10
   1  -1  13  113.59   10.80
  -1   1 -13  102.09   11.30
  -1   1 -13   85.69   10.10
  -1   1 -13  105.69    9.00
   1   1  13  134.79   15.90
  -1   1 -13  108.59   10.30
  -2  -1 -13    1.90    3.00
  -2  -1 -13   -0.10    3.40
  -2  -1 -13    7.70    6.70
   2  -1  13    7.40    5.30
  -2  -1 -13    5.30    4.10
  -2   1 -13    5.00    3.50
  -2   1 -13   -9.10    5.20
  -2   1 -13    6.60    3.80
  -2   1 -13    1.60    4.40
  -3  -1 -13   54.19    9.40
  -3  -1 -13   61.29    6.00
  -3  -1 -13   46.40    7.00
  -3  -1 -13   46.00    6.40
  -3   1 -13   55.39    6.50
  -3   1 -13   67.19    7.10
  -3   1 -13   49.60    8.50
  -3   1 -13   59.99    7.60
  -4  -1 -13   24.30    4.20
  -4  -1 -13   30.10    4.20
  -4  -1 -13   22.60    5.60
  -4  -1 -13   37.80    5.10
  -4   1 -13   14.90    5.50
  -4   1 -13   31.30    5.80
  -4   1 -13   39.20    5.40
  -5  -1 -13    1.60    2.60
  -5  -1 -13   -3.80    4.60
  -5  -1 -13    6.50    2.10
  -5   1 -13   -1.70    3.50
  -5   1 -13   20.60    6.40
  -5   1 -13    5.00    2.80
 -11  -2  13   25.50    4.30
 -11  -2  13   39.10    3.90
 -11   2  13   26.00    4.40
  11   2 -13   34.70    5.50
 -10  -2  13    5.40    3.10
 -10  -2  13    9.80    4.20
 -10  -2  13    8.50    2.30
 -10  -2  13   10.60    2.80
  10  -2 -13   10.10    2.90
  10  -2 -13   13.70    3.40
 -10   2  13    3.80    3.30
  10   2 -13   14.40    4.30
  -9  -2  13   92.89    7.30
   9  -2 -13   89.69    7.10
   9  -2 -13   74.39    7.90
  -9  -2  13   83.79    8.10
  -9  -2  13   83.09    6.60
   9   2 -13   82.69    8.60
  -9   2  13   90.39    8.70
   8  -2 -13   90.09    7.50
   8  -2 -13   57.89    9.80
  -8  -2  13   73.29    8.10
  -8  -2  13   76.49    6.70
   8  -2 -13   89.39    8.20
  -8  -2  13   92.59    7.50
   8   2 -13   78.59    9.30
  -8   2  13   81.09    8.60
  -7  -2  13  139.49   10.40
   7  -2 -13  134.69   10.30
   7  -2 -13  115.59   11.00
  -7  -2  13  129.29   10.70
  -7  -2  13  128.39    9.60
  -7  -2  13  106.19   14.50
  -7   2  13  146.89   10.80
   7   2 -13  127.69   11.50
  -7   2  13  135.69   12.00
   7   2 -13  134.19   12.60
  -6  -2  13  191.48   13.70
   6  -2 -13  152.78   13.60
  -6  -2  13  170.78   12.90
   6  -2 -13  189.78   13.60
  -6  -2  13  176.58   14.40
  -6  -2  13  185.98   14.30
   6  -2 -13  186.38   14.60
   6   2 -13  173.78   15.10
   6   2 -13  192.48   15.00
  -6   2  13  200.18   14.00
  -6   2  13  200.98   15.50
  -5  -2  13   82.19    8.80
  -5  -2  13  104.29    8.40
   5  -2 -13  104.29    9.10
   5  -2 -13   92.39    9.10
   5  -2 -13  122.99   11.30
  -5  -2  13   95.29   10.00
  -5  -2  13   87.29    9.70
  -5   2  13  106.59   12.90
   5   2 -13  110.19   11.40
  -5   2  13   96.59    9.40
   5   2 -13   93.79   10.90
  -4  -2  13   25.50    7.70
  -4  -2  13   31.30    4.30
   4  -2 -13   24.20    5.90
   4  -2 -13   28.80    4.70
   4  -2 -13   18.20    4.20
  -4  -2  13   21.40    4.70
  -4   2  13   27.10    5.30
   4   2 -13   34.30    7.50
   4   2 -13   30.10    6.80
   4   2 -13   26.20    6.30
   3  -2 -13  240.18   21.00
   3  -2 -13  226.58   17.20
  -3  -2  13  267.77   17.00
   3  -2 -13  241.38   18.90
   3  -2 -13  248.48   17.60
  -3  -2  13  235.88   17.80
  -3   2  13  229.88   18.00
   3   2 -13  260.57   19.00
   3   2 -13  265.77   19.20
   3   2 -13  241.58   19.00
   2  -2 -13   34.00    9.00
  -2  -2  13   42.20    6.30
   2  -2 -13   32.30    5.60
   2  -2 -13   28.60    6.60
   2  -2 -13   38.50    5.60
  -2  -2  13   46.10    7.10
  -2   2  13   52.59    8.10
   2   2 -13   29.10    6.80
   2   2 -13   49.30    9.30
   2   2 -13   42.50    8.50
   1  -2 -13  125.09   13.20
  -1  -2  13  143.79   11.50
   1  -2 -13  131.59   11.30
   1  -2 -13  140.59   10.60
  -1  -2  13  142.79   10.80
   1   2 -13  131.59   12.60
   1   2 -13  128.69   13.10
  -1   2  13  137.19   12.20
   1   2 -13  128.99   12.50
   0  -2 -13    7.50    2.90
   0  -2 -13   -4.60    5.20
   0  -2  13   -4.60    3.70
   0  -2  13   -7.00    4.00
   0  -2 -13    4.70    3.80
   0   2 -13    5.00    4.90
   0   2  13    4.20    4.50
   0   2 -13    5.30    6.50
   0   2 -13   11.80    5.20
  -1  -2 -13   57.49    9.10
   1  -2  13   61.09    6.90
  -1  -2 -13   43.60    6.10
  -1  -2 -13   67.69    7.10
  -1   2 -13   55.59    7.90
  -1   2 -13   60.69    8.70
  -1   2 -13   46.50    8.20
   1   2  13   66.69    8.00
  -2  -2 -13  163.88   11.40
  -2  -2 -13  159.98   11.30
   2  -2  13  143.59   11.80
  -2  -2 -13  139.49   13.00
  -2   2 -13  154.08   12.60
  -2   2 -13  144.49   14.30
   2   2  13  146.69   12.50
  -2   2 -13  142.09   12.40
  -3  -2 -13    2.60    2.50
  -3  -2 -13    5.40    4.50
  -3  -2 -13    1.90    3.30
   3  -2  13   -2.30    3.80
  -3   2 -13    0.50    4.70
  -3   2 -13   -0.10    3.60
   3   2  13    3.60    4.20
  -4  -2 -13    0.70    3.40
  -4  -2 -13    8.20    4.50
   4  -2  13    5.70    6.50
   4   2  13   -3.10    4.40
  -4   2 -13    1.70    3.30
  -4   2 -13   -0.90    4.20
  -5  -2 -13  119.49    8.60
  -5   2 -13  125.59    9.80
   9  -3 -13    5.70    2.80
  -9  -3  13    0.60    1.70
  -9  -3  13   -1.50    2.10
  -9  -3  13   -1.40    4.20
   9  -3 -13    2.80    2.00
  -9   3  13   -2.00    3.00
   9   3 -13   -6.00    4.10
  -8  -3  13   48.20    6.00
  -8  -3  13   48.80    4.40
   8  -3 -13   41.30    6.20
   8  -3 -13   47.40    5.00
  -8  -3  13   47.60    5.20
   8   3 -13   54.29    7.20
  -8   3  13   33.70    6.20
  -7  -3  13   51.69    4.90
  -7  -3  13   42.30    7.90
   7  -3 -13   64.99    5.80
  -7  -3  13   57.89    6.30
  -7  -3  13   60.29    5.90
   7  -3 -13   52.19    7.20
   7  -3 -13   54.09    7.30
   7   3 -13   53.79    7.10
   7   3 -13   65.19    8.00
  -7   3  13   40.80    7.90
   6  -3 -13  188.08   15.20
  -6  -3  13  219.78   14.60
  -6  -3  13  179.48   15.00
   6  -3 -13  214.18   14.60
   6  -3 -13  206.28   14.30
  -6  -3  13  217.78   14.90
  -6  -3  13  184.78   13.70
  -6   3  13  223.28   16.40
   6   3 -13  204.48   15.50
  -6   3  13  203.68   14.40
   6   3 -13  194.18   15.70
   5  -3 -13  115.99   10.10
  -5  -3  13  114.29   11.00
   5  -3 -13  125.59   11.40
  -5  -3  13  131.09   10.20
   5  -3 -13  142.49   10.20
  -5  -3  13  134.19    9.40
  -5  -3  13  124.29   10.50
  -5   3  13  138.99   10.20
  -5   3  13  101.99   14.10
   5   3 -13  119.59   11.00
   5   3 -13  125.99   12.10
   4  -3 -13  195.18   13.20
   4  -3 -13  173.78   14.70
  -4  -3  13  175.38   13.40
  -4  -3  13  165.88   12.40
   4  -3 -13  192.58   13.10
  -4  -3  13  181.48   14.00
   4   3 -13  176.48   14.00
  -4   3  13  164.68   13.20
   4   3 -13  167.68   15.10
   3  -3 -13   86.29    7.70
   3  -3 -13   81.19   11.90
  -3  -3  13   71.49    7.70
  -3  -3  13   54.19    9.60
  -3  -3  13   76.59    6.80
   3  -3 -13   70.49    7.40
   3   3 -13   67.79   11.30
  -3   3  13   76.79    8.00
   3   3 -13   84.89    8.90
   2  -3 -13  163.18   11.60
  -2  -3  13  144.59   11.60
  -2  -3  13  152.18   10.90
   2  -3 -13  149.79   12.00
  -2   3  13  146.79   12.00
   2   3 -13  144.79   12.40
   2   3 -13  159.88   15.30
   1  -3 -13  112.99    9.20
  -1  -3  13  106.89    9.30
   1  -3 -13  109.09   10.10
  -1  -3  13  102.69    8.50
   1   3 -13  121.99   10.20
  -1   3  13  107.29    9.60
   0  -3  13   37.80    5.50
   0  -3  13   31.20    5.20
   0  -3 -13   39.90    4.90
   0   3  13   37.40    6.30
   0   3 -13   36.40    6.80
   1  -3  13   71.99   10.30
  -1  -3 -13   60.49    7.10
  -1  -3 -13   43.40    6.20
   1  -3  13   54.09    6.20
  -1   3 -13   52.19    6.90
   1   3  13   54.69    6.70
  -2  -3 -13   29.10    3.90
  -2  -3 -13   22.60    4.10
   2  -3  13   27.10    3.80
   2   3  13   33.40    5.20
  -2   3 -13   25.70    4.80
   3  -3  13  124.29    9.30
  -3  -3 -13  131.19   12.00
  -3  -3 -13  112.79    9.30
   3   3  13  137.09    9.90
  -3   3 -13  127.29   10.20
  -6  -4  13   55.99    4.50
   6  -4 -13   51.39    4.80
  -6  -4  13   54.29    5.10
  -6  -4  13   52.69    5.60
  -5  -4  13   11.40    3.30
  -5  -4  13   11.40    1.90
  -5  -4  13   18.40    3.00
   5  -4 -13   12.80    2.50
   5   4 -13   10.70    4.30
  -5   4  13    8.40    2.60
  -4  -4  13   13.70    2.30
  -4  -4  13   11.90    2.50
   4  -4 -13    9.10    2.90
  -4  -4  13    9.80    3.30
   4   4 -13    4.40    3.50
  -4   4  13   11.90    2.80
  -3  -4  13   57.79    5.50
  -3  -4  13   50.49    4.80
   3  -4 -13   54.59    6.00
  -3   4  13   55.49    5.80
   3   4 -13   58.39    6.80
  -2  -4  13   14.30    2.00
   2  -4 -13   11.60    3.70
  -2  -4  13   10.00    2.30
  -2   4  13   15.50    3.20
   2   4 -13    9.60    4.00
  -1  -4  13   71.69    5.70
   1  -4 -13   77.39    8.50
  -1  -4  13   83.29    6.60
   1   4 -13   75.39    7.70
  -1   4  13   87.09    6.80
   0  -4  13    3.20    2.50
   0  -4  13    0.40    2.10
   0   4  13   -4.60    2.40
   0   4 -13    3.60    3.80
 -11   0  14   12.80    3.70
 -11   0  14   17.60    4.30
  10   0 -14    6.90    3.70
 -10   0  14   10.20    4.50
 -10   0  14   11.50    3.50
  10   0 -14   15.90    7.20
 -10   0  14   11.50    3.60
  -9   0  14  145.79   13.00
  -9   0  14  167.68   11.50
  -9   0  14  145.89   11.90
   9   0 -14  141.39   13.10
   9   0 -14  137.59   11.70
   8   0 -14  525.45   34.90
  -8   0  14  539.75   34.40
  -8   0  14  493.05   34.90
  -8   0  14  544.35   33.90
   8   0 -14  482.55   34.00
   7   0 -14  351.16   25.40
  -7   0  14  373.96   24.50
   7   0 -14  378.86   24.00
   7   0 -14  362.36   24.90
  -7   0  14  343.57   24.80
   6   0 -14  121.19   11.30
   6   0 -14  120.19   10.20
  -6   0  14  115.09   11.00
   6   0 -14  128.89   11.90
  -6   0  14  128.79   10.90
  -5   0  14   13.70    5.00
  -5   0  14   13.90    5.60
   5   0 -14   20.10    5.30
   5   0 -14   25.00    6.50
   5   0 -14   22.40    4.40
   4   0 -14  247.88   19.20
  -4   0  14  252.17   18.80
  -4   0  14  248.98   18.60
   4   0 -14  247.48   19.10
   4   0 -14  242.08   18.70
   4   0 -14  266.77   17.60
   3   0 -14   93.69    8.90
   3   0 -14   95.69   10.50
   3   0 -14   87.39   10.20
   3   0 -14   93.99   10.70
   2   0 -14  194.78   14.00
   2   0 -14  172.38   14.90
   2   0 -14  147.79   17.80
   2   0 -14  195.18   15.80
   2   0 -14  179.28   14.90
  -2   0  14  226.58   18.00
   1   0 -14  246.48   18.30
   1   0 -14  214.68   17.40
   1   0 -14  241.38   17.20
   1   0 -14  234.98   19.10
   1   0 -14  229.18   16.40
   0   0 -14  834.52   53.09
   0   0 -14  746.93   52.49
   0   0 -14  788.82   52.59
   0   0 -14  876.71   52.09
  -1   0 -14  111.79   10.30
  -1   0 -14   87.39    9.10
  -1   0 -14   80.89   10.10
  -2   0 -14   38.00    6.90
  -2   0 -14   22.00    3.40
  -2   0 -14   27.50    6.00
  -2   0 -14   35.20    6.20
  -3   0 -14  155.88   10.60
  -3   0 -14  138.99   11.20
  -3   0 -14  144.59   12.00
  -4   0 -14  204.88   14.40
  -4   0 -14  191.28   13.80
  -4   0 -14  221.28   14.80
  -5   0 -14  109.39    9.50
  -5   0 -14  104.79    8.20
  -5   0 -14  113.49    9.10
 -11  -1  14   72.19    7.20
  11  -1 -14   78.99    6.70
 -11  -1  14   66.29    6.90
 -11  -1  14   71.79    5.90
  11   1 -14   92.59    8.30
 -11   1  14   69.19    6.90
 -10  -1  14  177.28   12.60
  10  -1 -14  187.38   13.00
 -10  -1  14  178.88   13.00
 -10  -1  14  182.38   13.40
  10   1 -14  176.88   13.80
 -10   1  14  178.18   13.30
  -9  -1  14  358.56   24.60
  -9  -1  14  347.07   24.30
  -9  -1  14  343.77   23.80
   9  -1 -14  391.66   24.50
   9  -1 -14  322.87   24.30
  -9   1  14  408.56   24.90
   9   1 -14  361.36   24.90
   8  -1 -14    8.80    3.20
   8  -1 -14   11.60    3.80
  -8  -1  14    6.90    3.30
  -8  -1  14    8.00    4.90
  -8  -1  14    6.90    3.80
  -8   1  14   13.10    4.50
   8   1 -14    7.10    5.10
   8   1 -14    6.50    5.10
  -7  -1  14    8.20    4.20
   7  -1 -14   21.00    8.90
   7  -1 -14    8.60    7.80
  -7  -1  14    7.10    3.10
   7  -1 -14   10.70    3.20
   7  -1 -14    4.50    3.70
  -7   1  14    4.10    4.30
   7   1 -14   -3.10    4.80
   7   1 -14   -3.20    5.00
   7   1 -14    4.20    9.30
  -6  -1  14  271.07   19.70
   6  -1 -14  291.97   20.00
  -6  -1  14  275.07   19.10
   6  -1 -14  289.27   19.10
   6  -1 -14  264.97   20.90
   6  -1 -14  242.78   19.80
   6   1 -14  279.37   20.10
   6   1 -14  302.17   21.60
   6   1 -14  267.17   20.30
  -6   1  14  290.77   20.20
   5  -1 -14  444.06   30.20
  -5  -1  14  464.65   30.60
   5  -1 -14  417.76   30.60
  -5  -1  14  468.35   31.30
   5  -1 -14  465.85   31.30
   5  -1 -14  498.55   31.90
  -5   1  14  491.35   31.30
   5   1 -14  419.66   30.90
  -5   1  14  462.25   31.60
   5   1 -14  464.95   32.00
   5   1 -14  469.25   31.60
   4  -1 -14  166.98   15.40
   4  -1 -14  164.18   13.90
   4  -1 -14  157.48   12.90
  -4  -1  14  172.28   14.30
  -4  -1  14  192.48   13.60
   4  -1 -14  175.08   13.50
  -4   1  14  180.98   15.00
  -4   1  14  161.78   15.70
   4   1 -14  178.28   14.80
   4   1 -14  188.98   14.50
   4   1 -14  155.98   15.60
   3  -1 -14   47.80    7.90
   3  -1 -14   39.50    6.80
   3  -1 -14   48.10    8.00
  -3  -1  14   42.70    7.50
  -3  -1  14   49.90    7.90
   3  -1 -14   39.70    6.60
  -3   1  14   41.70   10.50
   3   1 -14   36.60    7.60
   3   1 -14   55.39    8.50
  -3   1  14   68.39   10.20
   2  -1 -14  328.37   21.90
  -2  -1  14  347.57   22.50
  -2  -1  14  308.37   23.40
   2  -1 -14  298.07   23.20
   2  -1 -14  338.37   22.70
   2   1 -14  318.87   22.80
   2   1 -14  298.67   21.60
   2   1 -14  320.47   23.40
  -2   1  14  307.37   23.60
   2   1 -14  342.47   23.20
   1  -1 -14  109.79    9.60
   1  -1 -14  117.29    9.80
  -1  -1  14   94.19   10.40
  -1  -1  14  111.29   12.90
   1  -1 -14  112.09   10.90
   1  -1 -14  133.79   11.40
   1   1 -14  117.59   11.00
   1   1 -14  104.69   11.40
   1   1 -14  122.09   11.30
   1   1 -14  111.09    9.70
   0  -1 -14    3.60    3.00
   0  -1  14   -0.50    4.60
   0  -1 -14    8.10    4.40
   0  -1 -14    0.00    3.40
   0   1 -14    1.40    4.10
   0   1 -14   -4.30    5.10
   0   1 -14   -2.10    4.90
  -1  -1 -14   47.80    6.60
   1  -1  14   35.40    6.10
  -1  -1 -14   41.10    5.20
  -1  -1 -14   33.50    6.10
  -1   1 -14   37.40    7.20
  -1   1 -14   31.80    4.70
  -1   1 -14   34.10    6.20
  -1   1 -14   26.30    5.70
  -2  -1 -14   50.69    6.60
  -2  -1 -14   46.30    5.40
  -2  -1 -14   38.50    6.70
  -2   1 -14   56.49    7.10
  -2   1 -14   52.59    7.90
  -2   1 -14   42.90    6.50
  -3  -1 -14  283.87   19.00
  -3  -1 -14  319.07   19.70
  -3  -1 -14  256.67   19.80
  -3   1 -14  283.27   20.30
  -3   1 -14  289.97   19.50
  -3   1 -14  289.67   20.00
  -4  -1 -14   11.90    2.40
  -4  -1 -14   14.90    3.10
  -4   1 -14   15.60    3.50
  -4   1 -14   14.20    3.70
  -4   1 -14    9.50    5.50
 -10  -2  14   39.90    5.50
 -10   2  14   35.00    5.00
   9  -2 -14   10.40    3.50
  -9  -2  14   16.60    3.90
  -9  -2  14    6.60    3.50
   9  -2 -14   15.40    2.50
  -9  -2  14   12.30    2.60
  -9   2  14   18.20    4.00
   9   2 -14   14.90    4.60
  -8  -2  14    4.40    3.50
   8  -2 -14    7.90    2.70
   8  -2 -14   -4.00    7.90
   8  -2 -14   10.50    3.60
  -8  -2  14    6.50    2.50
  -8  -2  14   12.30    2.60
   8   2 -14    6.50    4.60
  -8   2  14   11.70    4.40
  -7  -2  14    1.40    2.60
  -7  -2  14    0.20    2.80
   7  -2 -14    6.60    5.10
   7  -2 -14   -7.70    3.60
  -7  -2  14    1.30    3.40
   7  -2 -14    6.30    2.90
   7   2 -14    4.10    4.80
  -7   2  14    1.50    4.50
   7   2 -14  -11.20    5.90
   6  -2 -14  107.09    9.80
  -6  -2  14   99.19    8.20
   6  -2 -14   95.39    8.70
  -6  -2  14  100.89    9.30
   6  -2 -14  111.89    9.60
  -6  -2  14   90.79    8.70
   6   2 -14  110.09   11.00
  -6   2  14  111.89   11.20
  -6   2  14  112.19    9.10
   6   2 -14  111.19   10.50
   5  -2 -14    1.30    3.70
  -5  -2  14    4.40    3.30
   5  -2 -14    8.10    3.10
  -5  -2  14    5.00    4.20
   5  -2 -14    7.80    4.50
  -5  -2  14    1.90    2.80
  -5   2  14   -0.30    3.70
   5   2 -14    7.80    5.30
  -5   2  14   -6.00    6.70
   5   2 -14    2.70    5.30
  -4  -2  14  225.88   13.60
  -4  -2  14  185.88   14.80
   4  -2 -14  173.68   14.30
   4  -2 -14  217.78   15.60
  -4  -2  14  187.48   14.20
   4  -2 -14  181.48   13.90
   4   2 -14  200.48   15.50
   4   2 -14  194.48   15.10
  -4   2  14  184.18   18.20
  -4   2  14  199.68   14.50
   3  -2 -14   29.30    5.60
  -3  -2  14   15.20    5.10
   3  -2 -14   29.90    8.60
  -3  -2  14   26.10    3.90
  -3  -2  14   18.00    4.30
  -3   2  14   28.20    5.10
   3   2 -14   24.70    5.70
   3   2 -14   19.30    6.30
   3   2 -14   37.20    7.10
   2  -2 -14    5.40    3.30
  -2  -2  14    7.50    3.90
   2  -2 -14    2.50    3.60
  -2  -2  14    6.00    3.60
   2  -2 -14    3.20    6.70
   2  -2 -14   10.60    5.10
  -2  -2  14   19.50    5.40
   2   2 -14    0.20    4.70
   2   2 -14   -4.80    5.10
  -2   2  14   11.20    4.30
   2   2 -14    5.20    5.40
  -1  -2  14   14.20    3.70
  -1  -2  14    2.10    5.80
   1  -2 -14    5.40    5.30
   1  -2 -14    7.70    6.30
   1  -2 -14    1.00    3.20
   1  -2 -14    6.40    3.60
   1   2 -14    4.50    5.80
   1   2 -14    8.80    4.70
  -1   2  14    3.70    4.50
   1   2 -14   14.00    5.30
   0  -2  14  291.57   20.80
   0  -2  14  300.77   19.50
   0  -2 -14  265.47   19.20
   0  -2 -14  291.87   20.40
   0  -2 -14  251.17   19.00
   0   2 -14  266.97   19.80
   0   2 -14  286.87   20.00
   0   2  14  287.47   19.80
   0   2 -14  282.87   20.50
   1  -2  14    5.50    3.60
  -1  -2 -14    0.70    2.60
  -1  -2 -14    1.70    3.10
  -1  -2 -14    4.80    4.10
  -1   2 -14   10.70    6.30
  -1   2 -14    4.60    4.50
   1   2  14    2.10    4.00
  -1   2 -14   -2.30    3.70
  -2  -2 -14   30.70    5.60
   2  -2  14   37.70    6.00
  -2  -2 -14   41.80    7.30
  -2  -2 -14   45.50    4.90
   2   2  14   25.80    5.20
  -2   2 -14   29.90    5.50
  -2   2 -14   41.20    7.80
  -2   2 -14   37.60    5.30
  -3  -2 -14   69.99    9.20
  -3  -2 -14   74.79    6.00
  -3  -2 -14   61.49    7.60
   3  -2  14   95.19   11.60
  -3   2 -14   65.29    8.00
  -3   2 -14   70.19    7.00
  -4   2 -14  330.67   22.10
  -8  -3  14   32.80    3.90
  -8  -3  14   33.10    3.50
   8  -3 -14   36.90    4.30
   8  -3 -14   32.80    3.80
  -8  -3  14   36.20    5.00
  -8   3  14   22.80    4.70
   8   3 -14   34.80    6.30
   7  -3 -14   85.49    7.00
  -7  -3  14  100.39    7.40
   7  -3 -14   90.49    8.20
  -7  -3  14   79.69    6.60
  -7  -3  14   91.59    7.50
   7   3 -14   86.09    8.90
   6  -3 -14  128.59   10.80
  -6  -3  14  130.89   10.00
  -6  -3  14  121.49    9.80
  -6  -3  14  147.39    9.40
   6  -3 -14  134.69   10.50
   6  -3 -14  131.99    9.70
   6   3 -14  136.19   11.40
   6   3 -14  130.79   11.20
  -6   3  14  130.49   10.10
   5  -3 -14  234.98   16.50
  -5  -3  14  263.77   17.20
   5  -3 -14  231.08   17.30
  -5  -3  14  247.68   16.80
  -5  -3  14  260.87   16.10
   5  -3 -14  220.48   16.90
  -5   3  14  246.78   16.80
   5   3 -14  250.47   17.90
   5   3 -14  235.28   17.30
   4  -3 -14   13.20    3.00
   4  -3 -14   16.50    3.80
  -4  -3  14    4.20    3.60
  -4  -3  14   13.50    3.20
  -4  -3  14   11.20    2.60
   4  -3 -14   14.40    4.60
   4   3 -14   19.10    4.70
   4   3 -14   14.00    6.00
  -4   3  14   12.30    3.30
   3  -3 -14   27.70    5.90
   3  -3 -14   30.90    5.20
  -3  -3  14   41.20    4.50
  -3  -3  14   34.00    5.30
  -3  -3  14   43.50    5.60
   3  -3 -14   41.20    5.80
   3   3 -14   23.90    7.10
  -3   3  14   32.20    5.50
   3   3 -14   21.90    4.90
   2  -3 -14   66.79    6.80
   2  -3 -14   65.29    6.30
  -2  -3  14   52.99    6.60
  -2  -3  14   54.39    5.70
   2   3 -14   65.49    7.40
  -2   3  14   68.19    6.80
   2   3 -14   60.59   11.60
   1  -3 -14   20.90    4.10
  -1  -3  14   14.80    3.40
   1  -3 -14   18.40    3.30
   1   3 -14   15.10    4.10
  -1   3  14   18.00    3.80
   0  -3 -14  214.08   15.40
   0  -3  14  242.58   15.20
   0  -3 -14  205.58   14.90
   0   3 -14  209.18   15.60
   0   3  14  217.48   15.40
  -1  -3 -14   32.10    4.70
   1  -3  14   37.00    4.60
  -1   3 -14   25.60    5.00
   1   3  14   21.60    3.90
   2  -3  14   16.80    3.10
  -2  -3 -14   14.10    2.80
   2   3  14   13.30    3.70
  -2   3 -14   15.00    3.60
  10   0 -15   -8.40    6.70
 -10   0  15   -0.10    3.00
  10   0 -15    9.70    3.80
  -9   0  15   -1.60    3.20
   9   0 -15    0.30    3.40
  -9   0  15    5.10    4.00
   8   0 -15   -1.10    3.60
  -8   0  15    2.90    4.10
  -8   0  15    1.40    3.90
   8   0 -15    5.20    5.20
  -7   0  15   -3.10    4.30
   7   0 -15    3.80    3.70
   7   0 -15   -4.30    5.20
  -7   0  15    0.60    4.10
   6   0 -15    5.90    3.90
   6   0 -15    3.00    3.50
   6   0 -15    2.30    4.70
  -6   0  15    3.60    4.70
  -6   0  15    1.40    4.00
   5   0 -15   -1.00    3.30
   5   0 -15   -3.90    4.00
  -5   0  15   -6.10    4.60
  -5   0  15    3.50    4.30
   5   0 -15    1.00    5.30
   4   0 -15    3.30    3.70
   4   0 -15    2.90    3.20
   4   0 -15    0.70    5.20
  -4   0  15    4.10    5.40
   3   0 -15   -0.40    5.10
   3   0 -15    1.80    3.70
   3   0 -15   -0.60    3.10
  -3   0  15    5.00    6.20
   2   0 -15    4.10    5.10
   2   0 -15   -0.70    3.90
   2   0 -15  -14.00   10.20
   2   0 -15   -4.40    2.90
   1   0 -15    0.80    7.80
   1   0 -15   -4.30    2.80
   1   0 -15   -2.40    3.80
   1   0 -15   11.30    7.40
   1   0 -15    6.60    5.00
   0   0 -15    7.50    4.70
   0   0 -15   13.80    9.80
   0   0 -15    2.80    6.20
   0   0 -15   -0.50    3.30
   0   0 -15    0.20    2.60
  -1   0 -15    5.70    4.80
  -1   0 -15    3.60    5.70
  -1   0 -15   -3.60    3.20
  -1   0 -15   -1.00    2.50
  -2   0 -15    0.60    5.00
  -2   0 -15    0.50    4.00
  -2   0 -15   -0.40    2.90
  -2   0 -15    0.80    2.40
  -3   0 -15   -0.50    2.40
  -3   0 -15   -6.00    3.60
  -3   0 -15   -3.50    2.10
  -3   0 -15    2.40    4.50
  -4   0 -15   -1.40    4.30
 -10  -1  15  171.78   11.80
 -10  -1  15  143.19   12.80
  10  -1 -15  180.28   12.20
 -10  -1  15  181.68   12.40
 -10   1  15  183.18   12.60
  -9  -1  15   26.50    4.50
  -9  -1  15   28.10    5.10
   9  -1 -15   30.80    5.30
  -9  -1  15   30.40    5.20
  -9   1  15   32.30    5.60
   9   1 -15   44.40    6.10
  -8  -1  15   18.30    4.00
   8  -1 -15   17.00    3.10
   8  -1 -15    7.60    3.50
  -8  -1  15    8.30    5.70
  -8  -1  15   17.00    3.30
  -8   1  15   18.10    4.60
   8   1 -15   15.20    4.80
   8   1 -15    3.30    6.70
  -7  -1  15   -1.00    2.80
   7  -1 -15    4.10    3.50
  -7  -1  15    2.50    3.50
   7  -1 -15   -0.90    2.90
   7  -1 -15   -2.40    7.30
   7   1 -15    6.90    4.40
   7   1 -15    2.00    4.80
  -7   1  15   -2.70    4.20
   6  -1 -15    4.70    6.10
  -6  -1  15    5.90    4.00
   6  -1 -15    1.60    3.40
  -6  -1  15    2.20    3.10
   6  -1 -15    5.30    2.70
   6  -1 -15   18.30    7.20
  -6   1  15    7.20    5.00
   6   1 -15    1.90    4.40
   6   1 -15    6.50    4.60
   6   1 -15    1.10    8.70
  -5  -1  15   89.79    7.90
   5  -1 -15   73.29    8.70
   5  -1 -15   78.89    9.70
   5  -1 -15   79.49    7.20
  -5  -1  15   81.39    8.30
   5  -1 -15   68.89    9.70
   5   1 -15   73.29   11.50
   5   1 -15   82.99    8.70
   5   1 -15   89.89    9.10
  -5   1  15   69.59    9.90
   4  -1 -15  116.79    9.90
   4  -1 -15   94.49    8.50
   4  -1 -15   94.69   10.60
   4  -1 -15   91.19   10.10
  -4  -1  15  109.39    9.20
  -4  -1  15  113.09    9.80
   4   1 -15  106.59   10.30
  -4   1  15  108.89   12.30
  -4   1  15  100.79   12.30
   4   1 -15  106.39    9.80
   4   1 -15   98.49   11.80
   3  -1 -15    4.30    3.00
  -3  -1  15   12.20    4.10
   3  -1 -15   11.30    4.40
   3  -1 -15    8.60    5.40
   3  -1 -15    7.00    4.60
   3   1 -15   14.90    5.20
   3   1 -15   11.10    3.80
   3   1 -15   18.60    5.70
  -2  -1  15  104.69   11.50
   2  -1 -15   88.19    9.60
   2  -1 -15  117.69    9.70
  -2  -1  15   93.29   10.00
   2  -1 -15  110.09   10.90
   2  -1 -15  108.19    8.70
   2   1 -15  122.59   10.60
   2   1 -15  115.39    9.90
   2   1 -15  103.39   10.80
   1  -1 -15   69.29    8.20
   1  -1 -15   69.59    9.20
  -1  -1  15   56.09    8.70
   1  -1 -15   81.79    6.80
   1  -1 -15   59.89    7.80
   1   1 -15   77.69    8.30
   1   1 -15   70.09    9.10
   1   1 -15   63.49    7.80
   0  -1 -15    5.40    4.80
   0  -1 -15    2.90    4.70
   0  -1 -15    7.00    3.70
   0  -1 -15    5.40    2.70
   0  -1  15   14.50    5.90
   0   1 -15    4.60    3.70
   0   1 -15    6.60    4.70
   0   1 -15    5.30    4.80
  -1  -1 -15    2.70    2.60
  -1  -1 -15    5.50    4.40
  -1  -1 -15    8.40    3.20
  -1  -1 -15   13.70    5.00
  -1   1 -15    6.30    4.70
  -1   1 -15    1.10    4.40
  -2  -1 -15    2.60    2.00
  -2  -1 -15   16.20    5.40
  -2  -1 -15    1.10    2.70
  -2   1 -15   -3.30    3.60
  -2   1 -15   -2.70    4.30
  -2   1 -15    0.20    2.60
  -3  -1 -15    7.30    2.00
  -3  -1 -15    7.20    3.60
  -3  -1 -15    5.60    2.50
  -3   1 -15    5.40    2.60
  -3   1 -15    8.60    4.70
  -3   1 -15   10.00    3.90
  -9  -2  15  198.18   14.80
   9  -2 -15  202.08   14.10
  -9  -2  15  190.78   14.90
   9  -2 -15  244.68   15.00
  -9  -2  15  219.98   14.40
   9   2 -15  247.18   15.50
   8  -2 -15   17.50    2.70
  -8  -2  15   24.70    4.50
   8  -2 -15   25.90    3.80
  -8  -2  15   11.00    4.20
  -8  -2  15   22.50    3.20
  -8   2  15   13.80    4.00
   8   2 -15   33.30    5.90
  -7  -2  15   47.70    5.60
   7  -2 -15   42.30    7.30
   7  -2 -15   39.50    4.70
  -7  -2  15   38.90    4.80
   7  -2 -15   48.80    6.10
   7   2 -15   44.50    6.70
   7   2 -15   36.30    6.50
   6  -2 -15    7.00    4.80
  -6  -2  15    3.80    2.70
  -6  -2  15    0.00    4.30
  -6  -2  15    7.30    3.70
   6  -2 -15    5.30    2.50
   6  -2 -15   11.20    3.50
   6   2 -15   10.50    4.80
   6   2 -15   -4.00    4.90
  -6   2  15    5.50    5.40
  -6   2  15    6.00    3.20
  -5  -2  15  109.09    8.50
  -5  -2  15   79.99    7.70
   5  -2 -15   82.69    8.70
   5  -2 -15   94.99    7.70
   5  -2 -15   81.39    8.80
  -5  -2  15  109.09    9.60
   5   2 -15   86.19    9.20
  -5   2  15   78.29   11.50
  -5   2  15   93.59    8.20
   5   2 -15   85.59    9.30
   4  -2 -15   88.19    9.60
   4  -2 -15   81.89    8.00
   4  -2 -15   95.69    9.20
  -4  -2  15  114.29    8.80
  -4  -2  15  104.39    9.30
  -4   2  15  111.89    9.20
   4   2 -15   92.79    9.90
   4   2 -15  108.79    9.60
   3  -2 -15   47.00    6.80
  -3  -2  15   57.09    6.30
   3  -2 -15   50.29    5.60
  -3  -2  15   43.10    6.60
   3  -2 -15   39.40    7.30
   3  -2 -15   48.80    8.40
   3   2 -15   55.89   10.50
  -3   2  15   39.50    6.70
   3   2 -15   61.69    8.00
   3   2 -15   58.49    7.20
   2  -2 -15   52.49    9.60
  -2  -2  15   65.09    7.20
  -2  -2  15   68.89    7.90
   2  -2 -15   64.19    8.10
   2  -2 -15   79.09    7.60
   2  -2 -15   67.19    6.50
   2   2 -15   65.29    8.10
  -2   2  15   77.99    8.00
   2   2 -15   54.69    8.20
   2   2 -15   58.79    8.80
  -1  -2  15  132.19   10.20
   1  -2 -15  123.59    9.60
   1  -2 -15  109.39   10.20
   1  -2 -15  130.09   11.80
   1  -2 -15  119.29   10.80
  -1  -2  15  116.09   11.50
   1   2 -15  141.89   11.20
   1   2 -15  132.39   10.80
  -1   2  15  113.59   10.70
   1   2 -15  133.49   11.20
   0  -2 -15   22.70    4.50
   0  -2 -15   20.10    4.40
   0  -2 -15   26.40    4.50
   0  -2 -15   31.30    5.80
   0  -2  15   33.60    5.60
   0   2 -15   21.90    4.90
   0   2  15   17.70    4.80
   0   2 -15   30.60    5.80
  -1  -2 -15   87.29    8.80
  -1  -2 -15  103.79    9.30
   1  -2  15   98.69    8.50
  -1  -2 -15  106.19    7.60
  -1  -2 -15   90.19    9.00
  -1   2 -15   90.39   10.90
  -1   2 -15  100.29    9.30
  -1   2 -15   99.59    8.60
  -2  -2 -15    1.60    4.30
  -2  -2 -15    5.10    2.90
  -2  -2 -15    1.80    2.00
  -2   2 -15    3.00    3.30
   7  -3 -15   21.40    3.30
  -7  -3  15   25.80    3.40
   7  -3 -15   24.80    3.80
  -7  -3  15   24.00    4.30
  -7   3  15   25.30    5.30
   6  -3 -15  162.18   11.10
  -6  -3  15  152.28   10.80
   6  -3 -15  169.48   12.20
  -6  -3  15  169.78   11.60
  -6  -3  15  168.18   11.20
   6   3 -15  162.08   12.30
   6   3 -15  150.78   12.40
   5  -3 -15   34.10    4.10
  -5  -3  15   22.80    3.90
  -5  -3  15   29.60    4.30
  -5  -3  15   31.90    4.70
   5  -3 -15   35.80    6.10
   5   3 -15   40.30    7.30
  -5   3  15   33.20    4.30
  -4  -3  15  108.99    8.30
  -4  -3  15   88.39    8.30
  -4  -3  15  119.39    7.90
   4  -3 -15   85.29    9.10
   4  -3 -15  113.29    8.10
   4  -3 -15  112.09    9.50
   4   3 -15  106.79    8.90
   4   3 -15  111.79   10.50
  -4   3  15  116.99    8.50
  -3  -3  15   28.90    5.10
  -3  -3  15   25.00    4.00
   3  -3 -15   16.50    3.90
   3  -3 -15   31.50    5.60
   3  -3 -15   20.80    3.10
   3   3 -15   27.90    6.90
  -3   3  15   20.30    3.60
   3   3 -15   29.00    5.30
  -2  -3  15  170.18   12.50
  -2  -3  15  192.48   13.10
   2  -3 -15  184.38   12.40
  -2   3  15  188.68   13.00
   2   3 -15  171.68   13.20
  -1  -3  15   66.89    6.10
   1  -3 -15   72.99    6.20
  -1  -3  15   69.69    7.20
  -1   3  15   79.29    7.00
   1   3 -15   76.99    7.00
   0  -3 -15   25.60    3.60
   0  -3  15   17.70    2.90
   0   3 -15   19.30    3.70
   9   0 -16   78.59    8.70
   9   0 -16   75.59    7.00
  -9   0  16   70.39    6.70
  -8   0  16   21.70    4.20
   8   0 -16   22.60    5.60
   7   0 -16  264.97   19.80
  -7   0  16  289.67   19.90
   7   0 -16  299.27   19.50
   6   0 -16   24.00    5.60
   6   0 -16   32.00    4.70
  -6   0  16   39.90    6.70
   5   0 -16  324.17   22.60
  -5   0  16  359.56   23.20
   5   0 -16  321.37   22.90
   5   0 -16  325.87   21.80
  -4   0  16  498.45   30.80
   4   0 -16  467.25   29.30
   4   0 -16  413.76   30.20
   4   0 -16  431.56   30.00
   3   0 -16    1.30    3.80
   3   0 -16    5.40    2.90
  -3   0  16    4.20    7.30
   3   0 -16    6.10    4.80
   2   0 -16   10.00    3.40
   2   0 -16   10.80    4.80
   2   0 -16   12.10    2.90
   1   0 -16  128.49   11.30
   1   0 -16  158.48   10.10
   1   0 -16  123.19   10.80
   0   0 -16  447.06   29.50
   0   0 -16  447.16   28.80
   0   0 -16  448.76   29.80
  -1   0 -16   11.10    3.10
  -1   0 -16   10.20    8.90
  -1   0 -16   17.50    4.40
  -1   0 -16   21.40    3.60
  -2   0 -16   11.20    3.00
  -2   0 -16   18.60    3.30
  -2   0 -16   26.70    4.80
  -9  -1  16  248.68   17.40
   9  -1 -16  260.77   17.80
  -9  -1  16  248.48   18.00
  -9   1  16  287.37   18.30
   9   1 -16  293.67   18.50
  -8  -1  16   75.69    7.30
   8  -1 -16   77.09    7.10
  -8  -1  16   74.99    6.90
   8   1 -16   89.09    7.80
  -8   1  16   83.49    7.80
   7  -1 -16   12.40    7.40
   7  -1 -16    7.60    3.10
   7  -1 -16   13.90    2.80
  -7  -1  16   10.30    2.70
  -7  -1  16   15.70    3.60
   7   1 -16   15.30    4.60
  -7   1  16   10.40    4.00
   7   1 -16   19.10    4.90
  -6  -1  16    8.40    3.70
   6  -1 -16   -1.30    3.20
  -6  -1  16    1.50    2.90
   6  -1 -16   -3.00    5.80
   6  -1 -16    4.20    2.60
   6   1 -16    4.70    4.00
   6   1 -16    1.10    4.20
  -6   1  16    1.80    4.50
  -5  -1  16  182.38   13.60
   5  -1 -16  189.98   13.40
   5  -1 -16  179.58   12.50
  -5  -1  16  160.48   12.50
   5  -1 -16  199.08   14.40
   5   1 -16  184.98   13.90
   5   1 -16  151.68   13.30
  -5   1  16  185.58   14.50
  -4  -1  16   56.29    6.50
   4  -1 -16   47.50    5.40
   4  -1 -16   50.19    6.70
   4  -1 -16   62.39    9.40
  -4  -1  16   48.20    6.80
   4  -1 -16   48.50    7.90
   4   1 -16   48.40    6.60
   4   1 -16   47.40    7.50
   4   1 -16   50.69    9.50
  -4   1  16   46.70    9.70
  -3  -1  16  316.87   24.20
  -3  -1  16  379.46   25.00
   3  -1 -16  384.56   24.70
   3  -1 -16  379.66   25.10
   3  -1 -16  319.57   24.90
   3  -1 -16  369.46   24.00
   3   1 -16  401.26   25.20
   3   1 -16  403.46   24.80
   3   1 -16  345.57   25.30
   2  -1 -16   30.50    4.70
   2  -1 -16   28.70    6.10
  -2  -1  16   26.60    5.00
   2  -1 -16   22.10    5.30
   2  -1 -16   25.50    4.60
  -2  -1  16   45.10   10.80
   2   1 -16   35.10    6.20
   2   1 -16   34.30    6.00
   2   1 -16   26.40    5.80
   1  -1 -16   13.20    4.70
   1  -1 -16   24.60    3.90
   1  -1 -16   23.70    4.20
   1  -1 -16   19.20    5.90
   1   1 -16   16.30    5.10
   1   1 -16   19.80    4.80
   1   1 -16   12.00    3.40
   0  -1 -16    1.90    3.90
   0  -1 -16  -10.50    6.00
   0  -1 -16    0.30    2.10
   0  -1 -16    0.00    3.10
   0   1 -16   -1.50    2.60
   0   1 -16   -2.40    3.70
   0   1 -16   -3.20    4.40
  -1  -1 -16  196.08   14.20
  -1  -1 -16  186.88   13.00
  -1  -1 -16  210.48   13.80
  -1   1 -16  196.68   14.00
  -1   1 -16  194.88   14.20
  -1   1 -16  180.88   13.60
  -2  -1 -16   55.89    5.50
  -2  -1 -16   59.19    6.60
  -2  -1 -16   54.49    4.50
  -2   1 -16   54.59    7.20
  -2   1 -16   50.09    6.60
  -2   1 -16   50.29    5.60
   8  -2 -16  259.67   17.00
   8  -2 -16  230.28   16.40
  -8  -2  16  249.18   16.70
  -8  -2  16  253.87   17.10
   8   2 -16  285.57   17.60
   7  -2 -16   82.99    6.90
  -7  -2  16   81.19    6.40
  -7  -2  16   66.89    6.70
   7  -2 -16   74.39    6.00
   7   2 -16   77.69    7.60
  -6  -2  16   23.20    3.90
  -6  -2  16   20.90    3.70
   6  -2 -16   25.60    3.80
   6  -2 -16   21.90    3.70
   6   2 -16   14.90    4.60
   6   2 -16    9.70    5.30
  -6   2  16   19.00    5.70
  -5  -2  16   68.39    6.20
   5  -2 -16   69.69    8.80
  -5  -2  16   68.69    6.80
   5  -2 -16   72.49    7.20
   5  -2 -16   66.89    5.80
   5   2 -16   61.49    8.00
   5   2 -16   70.79    7.70
   4  -2 -16   78.39    8.10
  -4  -2  16   88.19    7.20
   4  -2 -16   83.09    6.80
  -4  -2  16   88.79    7.70
   4  -2 -16   75.69    8.60
   4   2 -16   80.99    8.20
  -4   2  16   91.09    8.10
   4   2 -16   72.39    8.50
   3  -2 -16   92.19    8.90
   3  -2 -16   99.79    8.80
  -3  -2  16   70.59    7.50
   3  -2 -16   79.29    7.00
  -3  -2  16   96.09    8.20
   3   2 -16   84.59    8.60
   3   2 -16   88.59    8.50
   2  -2 -16   88.59    6.70
  -2  -2  16   96.89    7.60
  -2  -2  16   82.09    8.60
   2  -2 -16   77.59    8.80
   2  -2 -16   77.89    8.10
   2  -2 -16   75.49   10.60
  -2   2  16   86.99    8.70
   2   2 -16   85.99    8.70
   2   2 -16   87.49    8.30
   1  -2 -16   21.90    6.50
   1  -2 -16    9.60    3.10
  -1  -2  16    9.20    3.20
   1  -2 -16   15.60    5.80
   1  -2 -16    8.10    2.20
   1   2 -16   15.40    4.90
   1   2 -16   12.30    4.10
   0  -2 -16  291.77   20.00
   0  -2 -16  309.87   20.60
   0  -2  16  292.47   20.30
   0  -2 -16  323.27   21.20
   0   2 -16  316.87   21.30
   0   2 -16  315.07   20.80
  -1  -2 -16   39.10    6.50
  -1  -2 -16   41.40    4.10
  -1  -2 -16   51.79    7.30
  -1   2 -16   43.10    5.50
   8   0 -17   -4.40    2.80
  -8   0  17   -4.90    2.90
   8   0 -17   -6.40    4.60
   7   0 -17    7.80    4.10
   7   0 -17    2.80    2.80
  -7   0  17   -3.50    3.50
   6   0 -17    0.60    4.20
  -6   0  17   -0.10    3.90
   6   0 -17   -1.10    2.70
   5   0 -17    2.10    3.80
  -5   0  17    3.20    4.30
   5   0 -17    2.10    2.80
  -4   0  17   -2.70    6.00
   4   0 -17   -2.60    3.10
   4   0 -17    0.70    4.00
   3   0 -17    6.00    4.50
   3   0 -17    2.30    2.50
   3   0 -17   -3.50    3.60
   2   0 -17    1.20    2.50
   2   0 -17    1.60    3.70
   2   0 -17    5.30    2.90
   1   0 -17    1.00    3.50
   1   0 -17   -2.50    2.60
   1   0 -17    2.00    4.20
   0   0 -17    0.60    3.60
   0   0 -17    3.20    2.60
   8  -1 -17  111.69    8.80
  -8  -1  17  130.79    9.30
  -8   1  17  126.69    9.50
   8   1 -17  115.59    9.30
   7  -1 -17   24.20    4.40
  -7  -1  17   22.40    3.80
   7   1 -17   28.60    4.60
  -7   1  17   31.00    5.70
   6  -1 -17   64.79    5.90
  -6  -1  17   76.29    7.10
  -6  -1  17   70.69    7.10
   6  -1 -17   85.09    6.80
   6  -1 -17   62.29    9.70
   6   1 -17   71.69    7.70
  -6   1  17   71.29    8.30
   6   1 -17   78.09    7.20
  -5  -1  17   -0.80    3.50
  -5  -1  17    0.30    3.50
   5  -1 -17    2.20    5.20
   5  -1 -17    5.20    2.10
   5  -1 -17   -2.40    2.90
   5   1 -17    3.80    3.70
   5   1 -17    5.60    3.60
   4  -1 -17  102.39    7.60
   4  -1 -17   98.29    9.80
   4  -1 -17  117.09    8.70
  -4  -1  17   89.89    9.40
   4   1 -17  101.19    8.80
   4   1 -17  108.39    8.50
   3  -1 -17    9.50    2.20
   3  -1 -17    9.80    2.90
   3  -1 -17   -0.30    4.50
  -3  -1  17    7.00    6.90
   3   1 -17    9.70    3.80
   3   1 -17    3.40    3.70
   2  -1 -17   23.40    3.50
   2  -1 -17   24.20    3.70
   2  -1 -17   18.80    4.60
   2   1 -17   18.50    3.60
   2   1 -17   15.20    4.30
   2   1 -17   18.70    6.20
   1  -1 -17   11.90    4.20
   1  -1 -17   12.00    2.20
   1  -1 -17    5.90    2.30
   1   1 -17   11.70    5.10
   1   1 -17   18.30    3.20
   1   1 -17    7.30    3.70
   0  -1 -17   79.59    7.10
   0  -1 -17   89.39    8.10
   0  -1 -17   97.49    6.60
   0   1 -17   83.79    9.10
   0   1 -17   81.19    7.30
   0   1 -17  107.09    8.30
   6  -2 -17   46.10    4.10
  -6  -2  17   46.90    5.00
   6  -2 -17   44.10    4.70
  -6  -2  17   46.20    4.60
   6   2 -17   41.90    5.60
   5  -2 -17  277.87   18.30
   5  -2 -17  253.87   17.80
  -5  -2  17  280.97   18.00
  -5  -2  17  284.27   18.50
   5   2 -17  279.87   18.80
   4  -2 -17   12.20    2.10
  -4  -2  17    8.80    2.70
   4  -2 -17   10.00    3.00
  -4  -2  17    9.00    3.60
   4   2 -17   11.80    4.20
   4   2 -17   18.10    4.10
  -3  -2  17   26.50    4.10
   3  -2 -17   26.20    3.30
   3  -2 -17   22.80    3.60
   3   2 -17   28.90    5.70
  -2  -2  17   10.60    5.20
   2  -2 -17   15.90    2.50
   2  -2 -17   16.00    2.80
   2   2 -17   12.20    4.20
   2   2 -17   13.00    3.60
   6   0 -18  150.58   10.60
   6   0 -18  147.19   11.10
   5   0 -18   14.40    3.80
   4   0 -18   88.89    7.30
   4   0 -18   91.09    7.90
   3   0 -18  206.58   14.90
   3   0 -18  221.88   14.50
   2   0 -18   70.19    6.10
   2   0 -18   64.59    6.70
   5  -1 -18    0.30    2.30
  -5  -1  18    5.10    4.10
   5  -1 -18   -3.90    6.90
   5   1 -18    2.50    3.10
   4  -1 -18   11.90    4.70
   4   1 -18   16.60    4.70
   4   1 -18   14.40    3.50
   3  -1 -18  358.96   24.60
   3  -1 -18  416.46   24.40
   3  -1 -18  374.66   23.80
   3   1 -18  361.06   24.20
   3   1 -18  359.76   24.50
_computing_structure_solution     'SHELXT 2014/4 (Sheldrick, 2014)'
;
_shelx_hkl_checksum              22862
_shelx_res_file
;
TITL UMD654_a.res in P2(1)/c
REM Old TITL UMD654 in P2(1)/c
REM SHELXT solution in P2(1)/c
REM R1 0.082, Rweak 0.004, Alpha 0.016, Orientation as input
REM Formula found by SHELXT: C8 N O2 Cl2
CELL 1.54178 11.0789 4.9866 15.0495 90 108.041 90
ZERR 4 0.0017 0.0008 0.0022 0 0.007 0
LATT 1
SYMM -X,0.5+Y,0.5-Z
SFAC C H Cl N O
UNIT 32 12 8 4 8
EQIV $1 1-X,-Y,1-Z
DFIX 0.87 N1 H1
L.S. 10
PLAN  20
SIZE 0.05 0.16 0.24
TEMP -153
HTAB N1 O1_$1
BOND $H
CONF
LIST 6
HTAB 2
MORE -1
fmap 2
acta 136.5
OMIT -6 0 4
REM <olex2.extras>
REM <HklSrc "%.\\UMD654_a.hkl">
REM </olex2.extras>
WGHT    0.035900    0.961300
FVAR       0.66468
CL1   3    0.977759    0.752928    0.902441    11.00000    0.02472    0.03514 =
         0.02491   -0.00353    0.00531   -0.00871
CL2   3    0.745274    0.654130    0.530831    11.00000    0.02951    0.02837 =
         0.02140    0.00494    0.01260    0.00014
O1    5    0.468928   -0.156848    0.601195    11.00000    0.02727    0.02318 =
         0.02134   -0.00170    0.00816   -0.00551
O2    5    0.603842   -0.114719    0.802856    11.00000    0.02677    0.02127 =
         0.02034    0.00182    0.01085    0.00033
N1    4    0.598597    0.202313    0.595743    11.00000    0.02268    0.02183 =
         0.01645    0.00009    0.00791   -0.00204
H1    2    0.582330    0.213360    0.535900    11.00000   -1.20000
C1    1    0.548356    0.010052    0.637887    11.00000    0.02056    0.02013 =
         0.02026   -0.00034    0.00957    0.00163
C2    1    0.618370    0.037330    0.744840    11.00000    0.01861    0.01986 =
         0.02074   -0.00026    0.00900    0.00194
C3    1    0.706302    0.264903    0.752544    11.00000    0.02050    0.01774 =
         0.01911    0.00099    0.00829    0.00199
C4    1    0.793877    0.383923    0.828842    11.00000    0.02004    0.02291 =
         0.02083    0.00050    0.00860    0.00135
AFIX  43
H4    2    0.803644    0.326709    0.890890    11.00000   -1.20000
AFIX   0
C5    1    0.866985    0.591530    0.810313    11.00000    0.01664    0.02409 =
         0.02206   -0.00244    0.00576    0.00037
C6    1    0.853327    0.678122    0.719982    11.00000    0.02072    0.02271 =
         0.02768    0.00001    0.01237   -0.00018
AFIX  43
H6    2    0.904694    0.820154    0.709849    11.00000   -1.20000
AFIX   0
C7    1    0.764478    0.556979    0.644358    11.00000    0.02065    0.02284 =
         0.02000    0.00299    0.01021    0.00350
C8    1    0.691299    0.350462    0.661251    11.00000    0.01735    0.01923 =
         0.01992   -0.00167    0.00767    0.00276
HKLF 4
REM  UMD654_a.res in P2(1)/c
REM R1 =  0.0353 for    1356 Fo > 4sig(Fo)  and  0.0396 for all    1496 data
REM    121 parameters refined using      1 restraints
END
WGHT      0.0356      0.9625
REM Instructions for potential hydrogen bonds
HTAB N1 O1_$1
REM Highest difference peak  0.311,  deepest hole -0.339,  1-sigma level  0.082
Q1    1   0.8230  0.6680  0.4987  11.00000  0.05    0.31
Q2    1   0.6450  0.6524  0.5592  11.00000  0.05    0.31
Q3    1   1.0409  0.7711  0.8665  11.00000  0.05    0.31
Q4    1   0.9039  0.7699  0.9383  11.00000  0.05    0.29
Q5    1   0.7195  0.2781  0.7071  11.00000  0.05    0.25
Q6    1   0.6473  0.6299  0.6427  11.00000  0.05    0.25
Q7    1   0.5700  0.4987  0.6792  11.00000  0.05    0.24
Q8    1   0.8028  0.5523  0.8241  11.00000  0.05    0.24
Q9    1   0.8031  0.6230  0.9352  11.00000  0.05    0.23
Q10   1   0.6740  0.1522  0.7556  11.00000  0.05    0.23
Q11   1   0.8946  0.9690  0.9832  11.00000  0.05    0.22
Q12   1   0.5014 -0.1019  0.8306  11.00000  0.05    0.22
Q13   1   1.0248  0.7661  0.7140  11.00000  0.05    0.21
Q14   1   0.8382  0.4423  1.0168  11.00000  0.05    0.21
Q15   1   1.0223  1.1916  0.9311  11.00000  0.05    0.20
Q16   1   1.0760  0.9544  0.8611  11.00000  0.05    0.20
Q17   1   0.9282  1.0863  0.6972  11.00000  0.05    0.20
Q18   1   0.5501  0.2615  0.7206  11.00000  0.05    0.20
Q19   1   0.7467  0.4132  0.6459  11.00000  0.05    0.20
Q20   1   0.4775  0.4705  0.5066  11.00000  0.05    0.20
;
_shelx_res_checksum              8086
_shelxl_version_number           2014/6
loop_
_space_group_symop_operation_xyz
'x, y, z'
'-x, y+1/2, -z+1/2'
'-x, -y, -z'
'x, -y-1/2, z-1/2'
loop_
_atom_site_type_symbol
_atom_site_label
_atom_site_fract_x
_atom_site_fract_y
_atom_site_fract_z
_atom_site_U_iso_or_equiv
_atom_site_adp_type
_atom_site_calc_flag
_atom_site_occupancy
Cl Cl1 0.97776(5) 0.75293(13) 0.90244(4) 0.02880(18) Uani d 1
Cl Cl2 0.74527(5) 0.65413(12) 0.53083(4) 0.02535(17) Uani d 1
O O1 0.46893(16) -0.1568(3) 0.60119(11) 0.0238(4) Uani d 1
O O2 0.60384(15) -0.1147(3) 0.80286(11) 0.0220(4) Uani d 1
N N1 0.59860(19) 0.2023(4) 0.59574(13) 0.0199(4) Uani d 1
H H1 0.582(3) 0.213(6) 0.5359(12) 0.024 Uiso d 1
C C1 0.5484(2) 0.0101(5) 0.63789(15) 0.0196(5) Uani d 1
C C2 0.6184(2) 0.0373(5) 0.74484(15) 0.0191(5) Uani d 1
C C3 0.7063(2) 0.2649(5) 0.75254(15) 0.0186(5) Uani d 1
C C4 0.7939(2) 0.3839(5) 0.82884(16) 0.0207(5) Uani d 1
H H4 0.8036 0.3267 0.8909 0.025 Uiso calc 1
C C5 0.8670(2) 0.5915(5) 0.81031(16) 0.0210(5) Uani d 1
C C6 0.8533(2) 0.6781(5) 0.71998(16) 0.0226(5) Uani d 1
H H6 0.9047 0.8202 0.7098 0.027 Uiso calc 1
C C7 0.7645(2) 0.5570(5) 0.64436(15) 0.0203(5) Uani d 1
C C8 0.6913(2) 0.3505(5) 0.66125(15) 0.0184(5) Uani d 1
loop_
_atom_site_aniso_label
_atom_site_aniso_U_11
_atom_site_aniso_U_22
_atom_site_aniso_U_33
_atom_site_aniso_U_12
_atom_site_aniso_U_13
_atom_site_aniso_U_23
Cl1 0.0247(3) 0.0351(4) 0.0249(3) -0.0087(2) 0.0053(2) -0.0035(2)
Cl2 0.0295(3) 0.0284(3) 0.0214(3) 0.0001(2) 0.0126(2) 0.0049(2)
O1 0.0273(9) 0.0232(9) 0.0213(8) -0.0055(7) 0.0082(7) -0.0017(7)
O2 0.0268(8) 0.0213(9) 0.0203(8) 0.0003(7) 0.0109(7) 0.0018(7)
N1 0.0227(10) 0.0218(11) 0.0164(9) -0.0020(8) 0.0079(8) 0.0001(8)
C1 0.0206(11) 0.0201(12) 0.0203(11) 0.0016(9) 0.0096(9) -0.0003(9)
C2 0.0186(10) 0.0199(12) 0.0207(11) 0.0019(9) 0.0090(9) -0.0003(9)
C3 0.0205(11) 0.0177(11) 0.0191(11) 0.0020(9) 0.0083(9) 0.0010(8)
C4 0.0200(11) 0.0229(12) 0.0208(11) 0.0014(9) 0.0086(9) 0.0005(9)
C5 0.0166(10) 0.0241(13) 0.0221(11) 0.0004(9) 0.0058(9) -0.0024(9)
C6 0.0207(11) 0.0227(13) 0.0277(12) -0.0002(9) 0.0124(10) 0.0000(10)
C7 0.0206(11) 0.0228(12) 0.0200(10) 0.0035(9) 0.0102(9) 0.0030(9)
C8 0.0173(10) 0.0192(11) 0.0199(10) 0.0028(9) 0.0077(9) -0.0017(9)
loop_
_atom_type_symbol
_atom_type_description
_atom_type_scat_dispersion_real
_atom_type_scat_dispersion_imag
_atom_type_scat_source
C C 0.0181 0.0091 'International Tables Vol C Tables 4.2.6.8 and 6.1.1.4'
H H 0.0000 0.0000 'International Tables Vol C Tables 4.2.6.8 and 6.1.1.4'
Cl Cl 0.3639 0.7018 'International Tables Vol C Tables 4.2.6.8 and 6.1.1.4'
N N 0.0311 0.0180 'International Tables Vol C Tables 4.2.6.8 and 6.1.1.4'
O O 0.0492 0.0322 'International Tables Vol C Tables 4.2.6.8 and 6.1.1.4'
loop_
_geom_angle_atom_site_label_1
_geom_angle_atom_site_label_2
_geom_angle_atom_site_label_3
_geom_angle
C1 N1 H1 123.2(19)
C1 N1 C8 111.21(19)
C8 N1 H1 125.0(19)
O1 C1 N1 128.0(2)
O1 C1 C2 126.0(2)
N1 C1 C2 105.96(19)
O2 C2 C1 123.9(2)
O2 C2 C3 131.3(2)
C3 C2 C1 104.65(18)
C4 C3 C2 132.0(2)
C4 C3 C8 121.5(2)
C8 C3 C2 106.41(19)
C3 C4 H4 121.5
C3 C4 C5 116.9(2)
C5 C4 H4 121.5
C4 C5 Cl1 119.63(17)
C6 C5 Cl1 118.20(18)
C6 C5 C4 122.2(2)
C5 C6 H6 120.0
C5 C6 C7 120.0(2)
C7 C6 H6 120.0
C6 C7 Cl2 121.84(18)
C8 C7 Cl2 119.48(18)
C8 C7 C6 118.7(2)
N1 C8 C3 111.7(2)
C7 C8 N1 127.6(2)
C7 C8 C3 120.7(2)
loop_
_geom_bond_atom_site_label_1
_geom_bond_atom_site_label_2
_geom_bond_distance
Cl1 C5 1.738(2)
Cl2 C7 1.724(2)
O1 C1 1.213(3)
O2 C2 1.204(3)
N1 H1 0.864(17)
N1 C1 1.360(3)
N1 C8 1.395(3)
C1 C2 1.561(3)
C2 C3 1.477(3)
C3 C4 1.386(3)
C3 C8 1.399(3)
C4 H4 0.9500
C4 C5 1.395(3)
C5 C6 1.389(3)
C6 H6 0.9500
C6 C7 1.391(3)
C7 C8 1.382(3)
loop_
_geom_hbond_atom_site_label_D
_geom_hbond_atom_site_label_H
_geom_hbond_atom_site_label_A
_geom_hbond_site_symmetry_A
_geom_hbond_distance_DH
_geom_hbond_distance_HA
_geom_hbond_distance_DA
_geom_hbond_angle_DHA
N1 H1 O1 3_656 0.864(17) 1.983(18) 2.832(2) 167(3)
loop_
_geom_torsion_atom_site_label_1
_geom_torsion_atom_site_label_2
_geom_torsion_atom_site_label_3
_geom_torsion_atom_site_label_4
_geom_torsion
Cl1 C5 C6 C7 -179.08(18)
Cl2 C7 C8 N1 -0.3(3)
Cl2 C7 C8 C3 179.01(17)
O1 C1 C2 O2 3.1(4)
O1 C1 C2 C3 178.8(2)
O2 C2 C3 C4 -4.3(4)
O2 C2 C3 C8 173.5(2)
N1 C1 C2 O2 -174.5(2)
N1 C1 C2 C3 1.2(2)
C1 N1 C8 C3 -1.0(3)
C1 N1 C8 C7 178.4(2)
C1 C2 C3 C4 -179.5(2)
C1 C2 C3 C8 -1.7(2)
C2 C3 C4 C5 177.0(2)
C2 C3 C8 N1 1.7(3)
C2 C3 C8 C7 -177.7(2)
C3 C4 C5 Cl1 179.36(17)
C3 C4 C5 C6 0.3(3)
C4 C3 C8 N1 179.8(2)
C4 C3 C8 C7 0.3(3)
C4 C5 C6 C7 0.0(4)
C5 C6 C7 Cl2 -179.15(18)
C5 C6 C7 C8 -0.1(3)
C6 C7 C8 N1 -179.4(2)
C6 C7 C8 C3 0.0(3)
C8 N1 C1 O1 -177.7(2)
C8 N1 C1 C2 -0.2(2)
C8 C3 C4 C5 -0.5(3)

_cod_database_fobs_code 1544228
