#------------------------------------------------------------------------------
#$Date: 2017-02-04 04:17:18 +0200 (Sat, 04 Feb 2017) $
#$Revision: 191359 $
#$URL: file:///home/coder/svn-repositories/cod/cif/1/54/49/1544922.cif $
#------------------------------------------------------------------------------
#
# This file is available in the Crystallography Open Database (COD),
# http://www.crystallography.net/
#
# All data on this site have been placed in the public domain by the
# contributors.
#
data_1544922
loop_
_publ_author_name
'Nyandoro, Stephen S.'
'Munissi, Joan J. E.'
'Gruhonjic, Amra'
'Duffy, Sandra'
'Pan, Fangfang'
'Puttreddy, Rakesh'
'Holleran, John P.'
'Fitzpatrick, Paul A.'
'Pelletier, Jerry'
'Avery, Vicky M.'
'Rissanen, Kari'
'Erd\'elyi, M\'at\'e'
_publ_section_title
;
 Polyoxygenated Cyclohexenes and Other Constituents of Cleistochlamys
 kirkii Leaves.
;
_journal_issue                   1
_journal_name_full               'Journal of natural products'
_journal_page_first              114
_journal_page_last               125
_journal_paper_doi               10.1021/acs.jnatprod.6b00759
_journal_volume                  80
_journal_year                    2017
_chemical_absolute_configuration ad
_chemical_formula_moiety         'C16 H14 O6'
_chemical_formula_sum            'C16 H14 O6'
_chemical_formula_weight         302.27
_space_group_crystal_system      monoclinic
_space_group_IT_number           4
_space_group_name_Hall           'P 2yb'
_space_group_name_H-M_alt        'P 1 21 1'
_symmetry_space_group_name_Hall  'P 2yb'
_symmetry_space_group_name_H-M   'P 1 21 1'
_atom_sites_solution_hydrogens   geom
_audit_creation_date             2016-08-04
_audit_creation_method
;
Olex2 1.2
(compiled 2015.09.30 svn.r3233 for OlexSys, GUI svn.r5103)
;
_cell_angle_alpha                90
_cell_angle_beta                 110.398(14)
_cell_angle_gamma                90
_cell_formula_units_Z            2
_cell_length_a                   7.1535(9)
_cell_length_b                   11.5439(10)
_cell_length_c                   9.2553(12)
_cell_measurement_reflns_used    4705
_cell_measurement_temperature    123.00(10)
_cell_measurement_theta_max      76.7160
_cell_measurement_theta_min      5.0510
_cell_volume                     716.37(16)
_computing_cell_refinement
;
CrysAlisPro, Agilent Technologies,
Version 1.171.37.35 (release 13-08-2014 CrysAlis171 .NET)
(compiled Aug 13 2014,18:06:01)
;
_computing_data_collection
;
CrysAlisPro, Agilent Technologies,
Version 1.171.37.35 (release 13-08-2014 CrysAlis171 .NET)
(compiled Aug 13 2014,18:06:01)
;
_computing_data_reduction
;
CrysAlisPro, Agilent Technologies,
Version 1.171.37.35 (release 13-08-2014 CrysAlis171 .NET)
(compiled Aug 13 2014,18:06:01)
;
_computing_molecular_graphics    'Olex2 (Dolomanov et al., 2009)'
_computing_publication_material  'Olex2 (Dolomanov et al., 2009)'
_computing_structure_refinement  'ShelXL (Sheldrick, 2015)'
_computing_structure_solution    'ShelXT (Sheldrick, 2015)'
_diffrn_ambient_temperature      123.00(10)
_diffrn_detector_area_resol_mean 5.1977
_diffrn_detector_type            Atlas
_diffrn_measured_fraction_theta_full 0.988
_diffrn_measured_fraction_theta_max 0.988
_diffrn_measurement_details
;
#__ type_ start__ end____ width___ exp.time_
  1 omega  -17.00   31.00   3.0000    6.0000
omega____ theta____ kappa____ phi______ frames
    -      -41.6513   37.0000   30.0000 16

#__ type_ start__ end____ width___ exp.time_
  2 omega  -45.00  -18.00   3.0000    6.0000
omega____ theta____ kappa____ phi______ frames
    -      -41.6513  -37.0000  150.0000 9

#__ type_ start__ end____ width___ exp.time_
  3 omega   36.00   72.00   3.0000    6.0000
omega____ theta____ kappa____ phi______ frames
    -       41.6513   57.0000    0.0000 12

#__ type_ start__ end____ width___ exp.time_
  4 omega   85.00  160.00   3.0000   15.0000
omega____ theta____ kappa____ phi______ frames
    -      112.0000   61.0000    0.0000 25

#__ type_ start__ end____ width___ exp.time_
  5 omega  136.00  163.00   3.0000   15.0000
omega____ theta____ kappa____ phi______ frames
    -      112.0000   15.0000    0.0000 9

#__ type_ start__ end____ width___ exp.time_
  6 omega  134.00  161.00   3.0000   15.0000
omega____ theta____ kappa____ phi______ frames
    -      112.0000  -15.0000    0.0000 9

#__ type_ start__ end____ width___ exp.time_
  7 omega  106.00  133.00   3.0000   15.0000
omega____ theta____ kappa____ phi______ frames
    -      112.0000   30.0000   60.0000 9

#__ type_ start__ end____ width___ exp.time_
  8 omega   92.00  128.00   3.0000   15.0000
omega____ theta____ kappa____ phi______ frames
    -      112.0000  -15.0000    0.0000 12

#__ type_ start__ end____ width___ exp.time_
  9 omega   89.00  116.00   3.0000   15.0000
omega____ theta____ kappa____ phi______ frames
    -      112.0000   45.0000  -30.0000 9

#__ type_ start__ end____ width___ exp.time_
 10 omega   83.00  176.00   3.0000   15.0000
omega____ theta____ kappa____ phi______ frames
    -      112.0000   61.0000   30.0000 31

#__ type_ start__ end____ width___ exp.time_
 11 omega  151.00  178.00   3.0000   15.0000
omega____ theta____ kappa____ phi______ frames
    -      112.0000   77.0000  150.0000 9

#__ type_ start__ end____ width___ exp.time_
 12 omega  102.00  153.00   3.0000   15.0000
omega____ theta____ kappa____ phi______ frames
    -      112.0000  111.0000  120.0000 17

#__ type_ start__ end____ width___ exp.time_
 13 omega  102.00  129.00   3.0000   15.0000
omega____ theta____ kappa____ phi______ frames
    -      112.0000   77.0000  150.0000 9

#__ type_ start__ end____ width___ exp.time_
 14 omega   60.00  111.00   3.0000   15.0000
omega____ theta____ kappa____ phi______ frames
    -      112.0000   15.0000    0.0000 17

#__ type_ start__ end____ width___ exp.time_
 15 omega   85.00  118.00   3.0000   15.0000
omega____ theta____ kappa____ phi______ frames
    -      112.0000   30.0000    0.0000 11

#__ type_ start__ end____ width___ exp.time_
 16 omega   84.00  111.00   3.0000   15.0000
omega____ theta____ kappa____ phi______ frames
    -      112.0000   61.0000  -30.0000 9

#__ type_ start__ end____ width___ exp.time_
 17 omega   79.00  124.00   3.0000   15.0000
omega____ theta____ kappa____ phi______ frames
    -      112.0000   77.0000  -30.0000 15

#__ type_ start__ end____ width___ exp.time_
 18 omega  107.00  146.00   3.0000   15.0000
omega____ theta____ kappa____ phi______ frames
    -      112.0000  111.0000 -150.0000 13

#__ type_ start__ end____ width___ exp.time_
 19 omega  103.00  130.00   3.0000   15.0000
omega____ theta____ kappa____ phi______ frames
    -      112.0000   45.0000 -180.0000 9

#__ type_ start__ end____ width___ exp.time_
 20 omega   46.00   94.00   3.0000   15.0000
omega____ theta____ kappa____ phi______ frames
    -      112.0000  -45.0000  -60.0000 16

#__ type_ start__ end____ width___ exp.time_
 21 omega   62.00   89.00   3.0000   15.0000
omega____ theta____ kappa____ phi______ frames
    -      112.0000  -15.0000    0.0000 9

#__ type_ start__ end____ width___ exp.time_
 22 omega   71.00   98.00   3.0000   15.0000
omega____ theta____ kappa____ phi______ frames
    -      112.0000  -45.0000   60.0000 9

#__ type_ start__ end____ width___ exp.time_
 23 omega   93.00  120.00   3.0000   15.0000
omega____ theta____ kappa____ phi______ frames
    -      112.0000  -77.0000   60.0000 9

#__ type_ start__ end____ width___ exp.time_
 24 omega   59.00  107.00   3.0000   15.0000
omega____ theta____ kappa____ phi______ frames
    -      112.0000  -94.0000   60.0000 16

#__ type_ start__ end____ width___ exp.time_
 25 omega   56.00   83.00   3.0000   15.0000
omega____ theta____ kappa____ phi______ frames
    -      112.0000  -45.0000  120.0000 9

#__ type_ start__ end____ width___ exp.time_
 26 omega   44.00   80.00   3.0000   15.0000
omega____ theta____ kappa____ phi______ frames
    -      112.0000  -30.0000   90.0000 12

#__ type_ start__ end____ width___ exp.time_
 27 omega   43.00   73.00   3.0000   15.0000
omega____ theta____ kappa____ phi______ frames
    -      112.0000  -30.0000  -30.0000 10

#__ type_ start__ end____ width___ exp.time_
 28 omega   32.00   59.00   3.0000   15.0000
omega____ theta____ kappa____ phi______ frames
    -      112.0000  -15.0000    0.0000 9

#__ type_ start__ end____ width___ exp.time_
 29 omega   36.00   84.00   3.0000   15.0000
omega____ theta____ kappa____ phi______ frames
    -      112.0000  -77.0000   60.0000 16

#__ type_ start__ end____ width___ exp.time_
 30 omega   30.00   69.00   3.0000   15.0000
omega____ theta____ kappa____ phi______ frames
    -      112.0000  -94.0000  120.0000 13

#__ type_ start__ end____ width___ exp.time_
 31 omega    4.00   46.00   3.0000    6.0000
omega____ theta____ kappa____ phi______ frames
    -       41.6513  -99.0000  -60.0000 14

#__ type_ start__ end____ width___ exp.time_
 32 omega   81.00  111.00   3.0000   15.0000
omega____ theta____ kappa____ phi______ frames
    -      112.0000 -111.0000 -120.0000 10

#__ type_ start__ end____ width___ exp.time_
 33 omega   51.00  108.00   3.0000   15.0000
omega____ theta____ kappa____ phi______ frames
    -      112.0000  -94.0000  -90.0000 19

#__ type_ start__ end____ width___ exp.time_
 34 omega   56.00   83.00   3.0000   15.0000
omega____ theta____ kappa____ phi______ frames
    -      112.0000 -111.0000 -150.0000 9

#__ type_ start__ end____ width___ exp.time_
 35 omega   45.00   72.00   3.0000   15.0000
omega____ theta____ kappa____ phi______ frames
    -      112.0000 -111.0000 -120.0000 9

#__ type_ start__ end____ width___ exp.time_
 36 omega   33.00   87.00   3.0000   15.0000
omega____ theta____ kappa____ phi______ frames
    -      112.0000  -94.0000 -120.0000 18

#__ type_ start__ end____ width___ exp.time_
 37 omega   32.00   77.00   3.0000   15.0000
omega____ theta____ kappa____ phi______ frames
    -      112.0000  -94.0000 -150.0000 15

#__ type_ start__ end____ width___ exp.time_
 38 omega  -49.00   32.00   3.0000    6.0000
omega____ theta____ kappa____ phi______ frames
    -      -41.6513   37.0000 -150.0000 27

#__ type_ start__ end____ width___ exp.time_
 39 omega -115.00  -61.00   3.0000    6.0000
omega____ theta____ kappa____ phi______ frames
    -      -41.6513  -37.0000  150.0000 18

#__ type_ start__ end____ width___ exp.time_
 40 omega -121.00   -1.00   3.0000    6.0000
omega____ theta____ kappa____ phi______ frames
    -      -41.6513  -19.0000   30.0000 40
;
_diffrn_measurement_device_type  'SuperNova, Dual, Cu at zero, Atlas'
_diffrn_measurement_method       '\w scans'
_diffrn_radiation_type           CuK\a
_diffrn_radiation_wavelength     1.54184
_diffrn_reflns_av_R_equivalents  0.0176
_diffrn_reflns_av_unetI/netI     0.0196
_diffrn_reflns_Laue_measured_fraction_full 0.988
_diffrn_reflns_Laue_measured_fraction_max 0.988
_diffrn_reflns_limit_h_max       8
_diffrn_reflns_limit_h_min       -8
_diffrn_reflns_limit_k_max       13
_diffrn_reflns_limit_k_min       -13
_diffrn_reflns_limit_l_max       11
_diffrn_reflns_limit_l_min       -9
_diffrn_reflns_number            6223
_diffrn_reflns_point_group_measured_fraction_full 0.983
_diffrn_reflns_point_group_measured_fraction_max 0.983
_diffrn_reflns_theta_full        66.734
_diffrn_reflns_theta_max         66.734
_diffrn_reflns_theta_min         5.098
_exptl_absorpt_coefficient_mu    0.913
_exptl_absorpt_correction_T_max  1.0000
_exptl_absorpt_correction_T_min  0.81601
_exptl_absorpt_correction_type   gaussian
_exptl_absorpt_process_details
;
CrysAlisPro, Agilent Technologies,
Version 1.171.37.35 (release 13-08-2014 CrysAlis171 .NET)
(compiled Aug 13 2014,18:06:01)
Empirical absorption correction using spherical harmonics,
 implemented in SCALE3 ABSPACK scaling algorithm.
Empirical absorption correction using spherical harmonics,
 implemented in SCALE3 ABSPACK scaling algorithm.
;
_exptl_crystal_colour            colourless
_exptl_crystal_colour_primary    colourless
_exptl_crystal_density_diffrn    1.401
_exptl_crystal_description       needle
_exptl_crystal_F_000             316
_exptl_crystal_size_max          0.15
_exptl_crystal_size_mid          0.12
_exptl_crystal_size_min          0.09
_refine_diff_density_max         0.146
_refine_diff_density_min         -0.125
_refine_diff_density_rms         0.027
_refine_ls_abs_structure_details
;
 Flack x determined using 1145 quotients [(I+)-(I-)]/[(I+)+(I-)]
 (Parsons, Flack and Wagner, Acta Cryst. B69 (2013) 249-259).
;
_refine_ls_abs_structure_Flack   0.04(6)
_refine_ls_extinction_method     none
_refine_ls_goodness_of_fit_ref   1.071
_refine_ls_hydrogen_treatment    constr
_refine_ls_matrix_type           full
_refine_ls_number_parameters     200
_refine_ls_number_reflns         2499
_refine_ls_number_restraints     1
_refine_ls_restrained_S_all      1.070
_refine_ls_R_factor_all          0.0229
_refine_ls_R_factor_gt           0.0227
_refine_ls_shift/su_max          0.000
_refine_ls_shift/su_mean         0.000
_refine_ls_structure_factor_coef Fsqd
_refine_ls_weighting_details
'w=1/[\s^2^(Fo^2^)+(0.0306P)^2^+0.1004P] where P=(Fo^2^+2Fc^2^)/3'
_refine_ls_weighting_scheme      calc
_refine_ls_wR_factor_gt          0.0588
_refine_ls_wR_factor_ref         0.0590
_reflns_Friedel_coverage         0.887
_reflns_Friedel_fraction_full    0.978
_reflns_Friedel_fraction_max     0.978
_reflns_number_gt                2475
_reflns_number_total             2499
_reflns_threshold_expression     'I > 2\s(I)'
_cod_data_source_file            np6b00759_si_004.cif
_cod_data_source_block           Comp_19
_cod_depositor_comments          'Adding full bibliography for 1544922.cif.'
_cod_database_code               1544922
_shelx_space_group_comment
;
The symmetry employed for this shelxl refinement is uniquely defined
by the following loop, which should always be used as a source of
symmetry information in preference to the above space-group names.
They are only intended as comments.
;
_olex2_refinement_description
;
1. Fixed Uiso
 At 1.2 times of:
  All C(H) groups, All C(H,H) groups
 At 1.5 times of:
  All C(H,H,H) groups
2.a Ternary CH refined with riding coordinates:
 C6(H6)
2.b Secondary CH2 refined with riding coordinates:
 C7(H7A,H7B)
2.c Aromatic/amide H refined with riding coordinates:
 C2(H2), C3(H3), C5(H5), C10(H10), C11(H11), C12(H12), C13(H13), C14(H14)
2.d Idealised Me refined as rotating group:
 C16(H16A,H16B,H16C)
;
_shelx_res_file
;
    cksm-1_150126.res created by SHELXL-2014/7

TITL cksm-1_150126_a.res in P2(1)
REM Old TITL CKSM-1_150126 in P21 #4
REM SHELXT solution in P2(1)
REM R1 0.070, Rweak 0.029, Alpha 0.003, Orientation as input
REM Flack x = -0.066 ( 0.134 ) from Parsons' quotients
REM Formula found by SHELXT: C16 O6
CELL 1.54184 7.153497 11.543934 9.255329 90 110.3982 90
ZERR 2 0.000923 0.00103 0.001162 0 0.0142 0
LATT -1
SYMM -X,0.5+Y,-Z
SFAC C H O
UNIT 32 28 12

L.S. 20
PLAN  20
TEMP -150.15(10)
BOND $H
LIST 4
CONF
fmap 2 53
acta
OMIT -2 133.5
OMIT 3 13 2
REM <olex2.extras>
REM <HklSrc "%.\\cksm-1_150126.hkl">
REM </olex2.extras>

WGHT    0.030600    0.100400
FVAR       6.32421
O1    3   -0.001839    0.184160    0.184394    11.00000    0.03510    0.02261 =
         0.03445   -0.00277    0.01295   -0.00613
O2    3    0.173708    0.348837    0.262244    11.00000    0.02477    0.01979 =
         0.01971    0.00111    0.00586   -0.00159
O3    3    0.637577    0.541559    0.464205    11.00000    0.02034    0.02101 =
         0.02074    0.00275    0.00624   -0.00078
O4    3    0.701990    0.412436    0.658445    11.00000    0.03362    0.02882 =
         0.02068    0.00591    0.00935    0.00333
O5    3    0.454360    0.640091    0.666976    11.00000    0.02701    0.02138 =
         0.01975   -0.00167    0.00614    0.00274
O6    3    0.307986    0.809952    0.677865    11.00000    0.03405    0.02530 =
         0.02642    0.00281    0.00996    0.00796
C1    1    0.043417    0.277340    0.150628    11.00000    0.02124    0.02115 =
         0.02540   -0.00448    0.00856    0.00069
C2    1   -0.012062    0.338798    0.003038    11.00000    0.01988    0.02931 =
         0.02088   -0.00395    0.00460    0.00230
AFIX  43
H2    2   -0.101261    0.311224   -0.092944    11.00000   -1.20000
AFIX   0
C3    1    0.083795    0.439880    0.026299    11.00000    0.02196    0.02606 =
         0.01897    0.00162    0.00636    0.00556
AFIX  43
H3    2    0.075880    0.496260   -0.050384    11.00000   -1.20000
AFIX   0
C4    1    0.202564    0.449058    0.189182    11.00000    0.02104    0.01871 =
         0.02050    0.00253    0.00859    0.00395
C5    1    0.319481    0.534731    0.265442    11.00000    0.02264    0.02077 =
         0.01990    0.00387    0.00691    0.00204
AFIX  43
H5    2    0.337361    0.598763    0.207097    11.00000   -1.20000
AFIX   0
C6    1    0.425283    0.538080    0.436418    11.00000    0.02001    0.01996 =
         0.02076    0.00076    0.00679   -0.00191
AFIX  13
H6    2    0.391240    0.468024    0.485819    11.00000   -1.20000
AFIX   0
C7    1    0.368058    0.646902    0.501278    11.00000    0.02458    0.02404 =
         0.01990   -0.00009    0.00532    0.00098
AFIX  23
H7A   2    0.419218    0.715945    0.463562    11.00000   -1.20000
H7B   2    0.221098    0.653144    0.468511    11.00000   -1.20000
AFIX   0
C8    1    0.415071    0.731300    0.742228    11.00000    0.01939    0.01903 =
         0.02558   -0.00076    0.01074   -0.00206
C9    1    0.519672    0.723723    0.911791    11.00000    0.01868    0.02085 =
         0.02439   -0.00049    0.01061   -0.00417
C10   1    0.643023    0.630862    0.981371    11.00000    0.02554    0.02027 =
         0.02601   -0.00001    0.01236   -0.00256
AFIX  43
H10   2    0.661562    0.568594    0.920612    11.00000   -1.20000
AFIX   0
C11   1    0.738557    0.630263    1.140399    11.00000    0.02806    0.02568 =
         0.02638    0.00466    0.00894   -0.00052
AFIX  43
H11   2    0.822165    0.567076    1.188529    11.00000   -1.20000
AFIX   0
C12   1    0.712472    0.721532    1.229346    11.00000    0.02840    0.03168 =
         0.02094   -0.00048    0.01061   -0.00784
AFIX  43
H12   2    0.778749    0.720724    1.337916    11.00000   -1.20000
AFIX   0
C13   1    0.589909    0.813828    1.160034    11.00000    0.02468    0.02852 =
         0.02827   -0.00757    0.01390   -0.00521
AFIX  43
H13   2    0.571641    0.876029    1.221004    11.00000   -1.20000
AFIX   0
C14   1    0.494086    0.815033    1.001410    11.00000    0.02141    0.02215 =
         0.02989   -0.00132    0.01230   -0.00134
AFIX  43
H14   2    0.410671    0.878410    0.953732    11.00000   -1.20000
AFIX   0
C15   1    0.758090    0.472059    0.574803    11.00000    0.02577    0.02111 =
         0.01588   -0.00171    0.00581    0.00188
C16   1    0.967419    0.480161    0.577195    11.00000    0.02474    0.03200 =
         0.02465   -0.00183    0.00549    0.00170
AFIX 137
H16A  2    0.973653    0.451300    0.479399    11.00000   -1.50000
H16B  2    1.054870    0.433362    0.662322    11.00000   -1.50000
H16C  2    1.011154    0.561141    0.591434    11.00000   -1.50000
AFIX   0
HKLF 4

REM  cksm-1_150126_a.res in P2(1)
REM R1 =  0.0227 for    2475 Fo > 4sig(Fo)  and  0.0229 for all    2499 data
REM    200 parameters refined using      1 restraints

END

WGHT      0.0306      0.1004

REM Highest difference peak  0.146,  deepest hole -0.125,  1-sigma level  0.027
Q1    1   0.3598  0.5372  0.3479  11.00000  0.05    0.15
Q2    1   0.2007  0.5059  0.2362  11.00000  0.05    0.14
Q3    1   0.4731  0.7257  0.8353  11.00000  0.05    0.14
Q4    1   0.3356  0.4686  0.2352  11.00000  0.05    0.13
Q5    1   0.6221  0.6961  0.9308  11.00000  0.05    0.13
Q6    1   0.5716  0.8196  1.0746  11.00000  0.05    0.11
Q7    1  -0.0148  0.3190  0.0711  11.00000  0.05    0.11
Q8    1   0.3960  0.5956  0.4670  11.00000  0.05    0.11
Q9    1   0.1220  0.4603  0.1075  11.00000  0.05    0.11
Q10   1   0.9630  0.5226  0.4772  11.00000  0.05    0.10
Q11   1   0.1571  0.3606  0.3484  11.00000  0.05    0.10
Q12   1   0.4469  0.5508  0.8164  11.00000  0.05    0.10
Q13   1   0.5399  0.7794  0.9500  11.00000  0.05    0.10
Q14   1   0.8697  0.4826  0.5742  11.00000  0.05    0.09
Q15   1   0.5202  0.6719  0.9470  11.00000  0.05    0.09
Q16   1   0.4748  0.7584  0.9591  11.00000  0.05    0.09
Q17   1   0.8593  0.5427  0.7559  11.00000  0.05    0.09
Q18   1   0.5469  0.5855  0.7547  11.00000  0.05    0.09
Q19   1   0.7140  0.6468  1.0586  11.00000  0.05    0.09
Q20   1   0.7162  0.7785  1.5044  11.00000  0.05    0.09
;
_shelx_res_checksum              78471
_shelx_hkl_file
;
   0 -14   0  387.64   22.78
   0 -14   1  717.03   27.72
   0 -14   1  742.64   32.96
   0 -14   2  590.05   27.82
   0 -14   2  573.80   24.77
   0 -14   3  201.40   14.26
   0 -13   0  -10.26    8.96
   0 -13   1 1530.73   58.30
   0 -13   2 2233.05   68.40
   0 -13   2 2265.67   73.15
   0 -13   3 1334.46   52.30
   0 -13   3 1374.42   51.40
   0 -13   4 1104.94   40.66
   0 -13   4 1007.19   38.07
   0 -12   0 9114.14  163.39
   0 -12   1 1868.31   75.66
   0 -12   1 1744.08   65.72
   0 -12   2 1068.47   54.05
   0 -12   2  986.69   53.01
   0 -12   2 1076.41   57.59
   0 -12   3 2597.47   84.34
   0 -12   3 2628.81   82.49
   0 -12   3 2641.72   84.85
   0 -12   4  211.01   25.26
   0 -12   4  154.21   21.07
   0 -12   4  187.98   23.49
   0 -12   4  206.21   21.44
   0 -12   5  736.89   33.67
   0 -12   5  795.78   38.15
   0 -12   6  217.60   14.92
   0 -11   1 7065.43  152.36
   0 -11   1 7155.46  150.17
   0 -11   2 2498.66   96.07
   0 -11   2 2367.55   92.90
   0 -11   2 2398.49   90.36
   0 -11   3   13.32   14.63
   0 -11   3   22.56   14.20
   0 -11   3   44.33   18.46
   0 -11   3   28.40   14.18
   0 -11   410656.11  184.88
   0 -11   410808.95  192.30
   0 -11   410782.57  184.41
   0 -11   5 3529.81  100.98
   0 -11   5 3507.71  100.36
   0 -11   5 3421.31   93.03
   0 -11   5 3280.41   87.73
   0 -11   6  223.07   21.25
   0 -11   6  214.38   23.52
   0 -11   6  210.21   22.70
   0 -11   7  863.52   33.49
   0 -10   027068.03  530.92
   0 -10   1 2381.36   91.01
   0 -10   1 2403.69   90.38
   0 -10   2  962.60   61.70
   0 -10   2  977.63   60.52
   0 -10   2 1015.18   59.35
   0 -10   3 6623.16  163.08
   0 -10   3 6745.51  165.22
   0 -10   3 6640.62  157.55
   0 -10   3 6834.85  160.01
   0 -10   3 6684.69  160.63
   0 -10   410256.29  194.04
   0 -10   410471.35  203.20
   0 -10   410298.88  192.91
   0 -10   5 1294.31   72.51
   0 -10   5 1153.31   58.84
   0 -10   5 1140.02   65.99
   0 -10   5 1192.67   66.11
   0 -10   5 1143.41   61.44
   0 -10   6 1024.08   55.91
   0 -10   6 1106.24   60.83
   0 -10   6 1016.78   50.83
   0 -10   7  409.08   31.11
   0  -9   0    6.57   21.53
   0  -9   1 1323.78   67.95
   0  -9  -1 1252.57  107.15
   0  -9   1 1307.40  114.99
   0  -9   2 2004.16   84.55
   0  -9   2 2098.01   86.13
   0  -9   2 2146.63  151.43
   0  -9   2 1989.32   88.27
   0  -9   2 2017.77   83.46
   0  -9   3 3678.41  118.75
   0  -9   3 3531.69  117.28
   0  -9   3 3680.74  118.76
   0  -9   3 3590.92  120.52
   0  -9   3 3651.69  119.47
   0  -9   4 7999.29  184.59
   0  -9   4 8063.43  183.19
   0  -9   4 8161.39  181.96
   0  -9   4 8156.77  176.11
   0  -9   4 8425.87  182.44
   0  -9   5 8837.83  190.91
   0  -9   5 8857.11  192.49
   0  -9   5 8994.58  169.64
   0  -9   5 8891.71  183.77
   0  -9   5 8792.00  177.31
   0  -9   6 1976.13   84.54
   0  -9   6 1937.30   76.86
   0  -9   7   85.52   22.27
   0  -9   7   56.91   16.51
   0  -9   7   79.96   14.95
   0  -9   7   79.47   14.86
   0  -9   8  231.86   17.28
   0  -9   8  260.72   24.13
   0  -8   0 5550.02  212.01
   0  -8   1 8714.71  272.36
   0  -8  -1 8428.59  250.87
   0  -8   2  989.87   97.25
   0  -8  -2 1071.56   86.96
   0  -8   3  268.65   52.66
   0  -8   3  234.38   30.48
   0  -8   3  265.47   33.63
   0  -8   3  267.64   34.37
   0  -8   3  261.12   34.06
   0  -8   3  327.88   36.18
   0  -8   4 2688.58  102.29
   0  -8   4 2510.43  101.91
   0  -8   4 2596.14  103.69
   0  -8   4 2585.26  103.91
   0  -8   4 2578.57  103.87
   0  -8   4 2517.84   98.20
   0  -8   5 5323.27  150.19
   0  -8   5 5256.47  132.66
   0  -8   5 5196.62  149.53
   0  -8   5 5228.29  150.38
   0  -8   5 5135.94  143.51
   0  -8   5 5049.00  137.76
   0  -8   5 5170.13  151.50
   0  -8   614126.19  235.15
   0  -8   614110.68  216.34
   0  -8   614406.29  223.50
   0  -8   7  530.46   41.81
   0  -8   7  545.62   41.56
   0  -8   7  517.43   37.61
   0  -8   8 2188.43   79.41
   0  -8   8 2111.50   69.08
   0  -8   9   16.85    6.44
   0  -7   0   -2.49   18.45
   0  -7  -1  763.14   69.73
   0  -7   1  866.80   80.51
   0  -7   2 4314.60  183.94
   0  -7  -2 4245.79  158.00
   0  -7   310074.26  295.01
   0  -7   310192.26  252.72
   0  -7   4 4501.38  132.59
   0  -7   4 4699.44  138.83
   0  -7   4 4628.78  191.81
   0  -7   4 4492.07  130.63
   0  -7   4 4535.13  127.37
   0  -7   4 4589.16  132.85
   0  -7   4 4703.24  130.20
   0  -7   510923.43  212.22
   0  -7   510723.57  215.44
   0  -7   510959.57  205.06
   0  -7   510936.01  319.77
   0  -7   510659.73  211.41
   0  -7   511075.66  196.50
   0  -7   511097.51  214.94
   0  -7   6 6680.03  150.09
   0  -7   6 6814.87  165.61
   0  -7   6 6446.58  171.88
   0  -7   6 6799.67  170.43
   0  -7   7 6433.78  154.59
   0  -7   7 6576.43  147.59
   0  -7   7 6522.74  135.40
   0  -7   8  828.66   51.13
   0  -7   9  137.22   18.38
   0  -7   9  172.10   19.54
   0  -6   027461.70  383.85
   0  -6   1 5295.05  176.05
   0  -6  -1 5284.77  164.19
   0  -6   1 5534.12  131.02
   0  -6   2 6789.33  172.69
   0  -6   2 6570.92  206.37
   0  -6  -2 6536.70  174.68
   0  -6   3 4028.11  168.92
   0  -6   3 4068.98  155.23
   0  -6   412309.95  304.44
   0  -6   5 1974.14   88.45
   0  -6   5 1947.72   90.20
   0  -6   5 1915.47   83.50
   0  -6   5 1936.66   87.79
   0  -6   5 1968.38  136.18
   0  -6   5 1961.92   87.64
   0  -6   5 1883.70   78.80
   0  -6   622626.55  269.36
   0  -6   622333.96  316.92
   0  -6   623181.42  499.74
   0  -6   622573.89  305.96
   0  -6   623412.29  292.98
   0  -6   622801.24  295.70
   0  -6   7 5594.77  136.98
   0  -6   7 5318.09  154.38
   0  -6   7 5413.21  126.01
   0  -6   7 5463.78  142.39
   0  -6   8  329.95   38.00
   0  -6   8  300.16   33.70
   0  -6   9   30.31   12.57
   0  -6   9   21.28   11.56
   0  -5   0   16.91    8.80
   0  -5   0   29.25   21.03
   0  -5  -122245.86  295.50
   0  -5   122907.26  249.99
   0  -5   122803.75  330.93
   0  -5   3 4206.64  150.39
   0  -5   3 4218.02  157.46
   0  -5  -3 4163.24  114.84
   0  -5   412868.14  296.73
   0  -5   5 8749.78  279.51
   0  -5   6 1846.43   88.72
   0  -5   6 2014.77  148.51
   0  -5   6 1898.19   75.79
   0  -5   6 1826.11   83.18
   0  -5   6 1851.24   86.03
   0  -5   6 1996.52   86.77
   0  -5   7 1740.11   82.49
   0  -5   7 1708.90   84.51
   0  -5   7 1629.39   86.40
   0  -5   8 4257.70  131.75
   0  -5   8 4382.83  128.55
   0  -5   8 4097.68  126.69
   0  -5   9 1365.98   63.27
   0  -5   9 1348.43   64.89
   0  -5  10 1705.38   51.90
   0  -4   0   41.97    9.55
   0  -4   0   37.75   13.93
   0  -4   1 8191.07  174.47
   0  -4   1 7927.27  137.21
   0  -4  -1 8313.29  108.84
   0  -4   2 2212.83   95.66
   0  -4  -2 2368.96   52.77
   0  -4   2 2181.44   87.93
   0  -4   325237.89  347.88
   0  -4  -325416.81  239.48
   0  -4   4 4117.65  161.54
   0  -4   5 4290.11  187.38
   0  -4   621594.54  292.78
   0  -4   622128.46  471.46
   0  -4   620974.72  275.71
   0  -4   711174.53  218.94
   0  -4   711118.05  218.86
   0  -4   8 4341.76  131.12
   0  -4   8 4489.15  136.28
   0  -4   9   51.46   19.62
   0  -4   9   49.93   17.98
   0  -4  10  886.10   41.66
   0  -3   0  120.65   14.62
   0  -3   132337.94  249.78
   0  -3   218371.03  233.43
   0  -3  -219076.93  152.20
   0  -3   218495.78  241.85
   0  -3  -3 8327.26  124.45
   0  -3   3 7735.60  183.73
   0  -3   3 7972.06  171.00
   0  -3   4 3484.11  143.11
   0  -3   5  692.97   73.79
   0  -3   612077.87  339.42
   0  -3   7 7296.83  290.04
   0  -3   7 6579.95  149.79
   0  -3   7 7094.19  169.33
   0  -3   8 1505.60   81.76
   0  -3   8 1433.71   75.43
   0  -3   8 1408.76   68.97
   0  -3   9  132.74   26.06
   0  -3   9  121.72   24.43
   0  -3   9  135.19   20.29
   0  -3  10 2027.57   65.28
   0  -3  10 2192.72   72.05
   0  -2   0 5774.99   75.33
   0  -2  -345620.29  311.65
   0  -2  -345483.16  270.41
   0  -2  -4  153.05   21.09
   0  -2   4  110.58   30.46
   0  -2  -4  149.50   23.18
   0  -2   5 5633.96  200.34
   0  -2  -5 5766.21  160.02
   0  -2   6 5230.87  218.67
   0  -2   7 3608.93  200.15
   0  -2   7 3442.48  114.43
   0  -2   8 3728.82  116.41
   0  -2   8 3597.87  129.37
   0  -2   9  526.11   48.63
   0  -2   9  519.81   40.31
   0  -2   9  517.99   45.09
   0  -2  10  209.95   21.90
   0  -2  10  242.85   27.60
   0  -1   0    5.68    2.35
   0  -1   218332.17  203.79
   0  -1   218135.03  167.14
   0  -1   316258.58  237.09
   0  -1  -316425.21  186.95
   0  -1  -427622.90  299.46
   0  -1  -428269.49  320.37
   0  -1   428154.91  373.07
   0  -1  -517523.17  274.50
   0  -1   517367.01  339.73
   0  -1  -517393.59  294.08
   0  -1  -6 4433.51  169.17
   0  -1   6 4325.09  194.55
   0  -1   7 1040.13  106.66
   0  -1   7  850.03   52.44
   0  -1   7 1034.25   60.01
   0  -1   8  561.21   45.79
   0  -1   9 2989.73  102.65
   0  -1   9 3162.94  112.62
   0  -1   9 3325.66  105.88
   0  -1  10 1925.33   63.33
   0  -1  10 1855.08   59.89
   0  -1  10 1938.05   72.27
   0   0  -1   74.77    5.13
   0   0   1   28.51    6.13
   0   0   2  426.39   30.38
   0   0   3  318.00   33.73
   0   0  -3  266.37   27.72
   0   0  -427415.49  320.02
   0   0   427152.00  354.10
   0   0  -5 2021.62  101.92
   0   0   5 2095.45  115.53
   0   0  -618016.12  341.09
   0   0   617565.46  381.28
   0   0  -617565.06  355.59
   0   0   7 5605.43  143.97
   0   0   7 5496.16  130.00
   0   0   7 5621.57  241.29
   0   0   7 5696.36  138.59
   0   0   8   36.71   19.45
   0   0   8   17.81   16.88
   0   0   9 3034.25  110.07
   0   0   9 3055.70   98.53
   0   0   9 3221.16  108.80
   0   0  10 1233.08   56.72
   0   0  10 1279.31   54.25
   0   1   0    3.14    2.93
   0   1  -218360.26  201.08
   0   1   217781.73  181.80
   0   1  -316658.90  173.69
   0   1  -316339.02  228.69
   0   1   427863.33  351.24
   0   1  -428362.53  349.21
   0   1  -517500.92  315.53
   0   1   517091.34  320.91
   0   1   6 4315.98  187.71
   0   1  -6 4661.10  185.09
   0   1   7 1018.43   64.06
   0   1   7 1005.39   57.53
   0   1   7 1038.98   61.30
   0   1  -7 1068.62  101.20
   0   1   8  596.65   46.63
   0   1   8  623.81   51.84
   0   1   9 3163.87  109.66
   0   1  10 1802.55   65.23
   0   1  10 2018.30   70.01
   0   2   0 5997.59   77.48
   0   2   0 5889.84   97.01
   0   2   253206.94  312.13
   0   2  -256033.15  392.73
   0   2  -345531.59  411.83
   0   2  -345820.96  357.87
   0   2   4  126.53   27.33
   0   2  -4  110.92   29.80
   0   2  -5 5619.67  190.87
   0   2   5 5372.31  180.24
   0   2  -6 5251.34  208.10
   0   2  -7 3340.51  181.74
   0   2  -7 3446.89  189.86
   0   2   7 3492.27  113.57
   0   2   7 3381.64  107.41
   0   2   7 3514.35  119.96
   0   2   8 3453.68  118.67
   0   2   8 3244.65  101.79
   0   2   8 3512.39  124.20
   0   2   9  504.29   42.59
   0   2  10  233.47   25.09
   0   2  10  195.81   21.30
   0   3   0    4.55   11.14
   0   3   0   14.29    7.84
   0   3   131780.85  260.88
   0   3  -132753.66  282.25
   0   3  -132526.12  306.67
   0   3  -218601.90  248.31
   0   3   218833.68  173.03
   0   3  -3 7916.13  188.95
   0   3  -3 7951.69  173.31
   0   3  -4 3346.19  140.43
   0   3  -5  820.48   78.35
   0   3  -611919.59  328.54
   0   3  -7 7296.91  277.05
   0   3   7 7353.51  166.33
   0   3   7 6551.20  145.61
   0   3   7 7128.31  174.19
   0   3   7 7075.01  157.65
   0   3   8 1504.76   73.68
   0   3   8 1465.52   76.94
   0   3   8 1439.24   79.90
   0   3   9  142.38   24.01
   0   3   9  108.26   19.70
   0   3  10 2162.41   70.56
   0   4   0   65.53   17.75
   0   4   0   57.03   12.41
   0   4  -1 8466.41  181.84
   0   4  -1 8151.20  157.45
   0   4  -2 2327.24   98.13
   0   4   2 2297.96   77.37
   0   4  -2 2285.53  100.04
   0   4  -324681.61  346.79
   0   4  -325242.93  362.64
   0   4  -4 4240.68  152.56
   0   4  -4 4105.78  165.77
   0   4  -5 4173.52  186.14
   0   4   621906.96  273.69
   0   4   622106.11  290.60
   0   4   622283.52  271.59
   0   4  -621599.17  468.72
   0   4   711079.39  208.90
   0   4   711148.96  219.35
   0   4   710895.74  201.24
   0   4   8 4128.47  126.02
   0   4   8 4277.88  123.96
   0   4   8 4348.88  135.53
   0   4   9   95.01   19.95
   0   4  10  937.96   43.24
   0   5   0    3.53    9.53
   0   5   0   11.00   17.00
   0   5  -122362.56  336.47
   0   5  -122809.69  294.18
   0   5   121798.12  302.79
   0   5  -299999.00  740.25
   0   5  -3 3980.13  156.88
   0   5  -3 3957.88  157.36
   0   5  -411827.07  302.44
   0   5  -5 8595.53  285.99
   0   5   6 1931.31   88.76
   0   5  -6 2109.08  154.05
   0   5   6 1919.59   83.90
   0   5   6 2036.77   85.61
   0   5   7 1622.57   86.92
   0   5   7 1757.66   82.91
   0   5   7 1676.01   81.54
   0   5   8 4263.89  124.84
   0   5   8 4224.42  121.39
   0   5   9 1349.95   59.83
   0   5  10 1816.82   51.75
   0   6   027373.81  406.49
   0   6   1 5229.58  169.12
   0   6  -1 4931.18  152.00
   0   6  -1 5192.54  183.33
   0   6  -2 6457.40  195.88
   0   6  -2 6471.79  213.71
   0   6  -3 4027.40  174.66
   0   6  -3 3822.83  167.11
   0   6  -412056.02  325.20
   0   6   5 1870.48   80.70
   0   6   5 1807.57   77.50
   0   6  -5 1844.95  140.29
   0   6   5 1978.53   82.17
   0   6   5 1940.39   80.07
   0   6   621789.56  298.41
   0   6   622410.78  289.68
   0   6  -622616.68  516.06
   0   6   622333.56  284.10
   0   6   7 5481.82  149.34
   0   6   7 5197.69  140.78
   0   6   7 5473.35  142.93
   0   6   8  317.01   34.12
   0   6   8  333.64   36.10
   0   6   9   29.46   13.03
   0   7   0   20.31   22.61
   0   7  -1  768.13   66.59
   0   7  -1  741.83   78.08
   0   7  -2 4315.13  191.85
   0   7  -2 4271.54  171.81
   0   7  -3 9748.49  285.43
   0   7  -310139.10  303.86
   0   7  -4 4312.07  207.15
   0   7   4 4630.01  128.09
   0   7   4 4413.79  124.42
   0   7   510523.61  191.66
   0   7   510799.89  198.42
   0   7  -510910.74  353.75
   0   7   510445.88  185.40
   0   7   510602.44  197.19
   0   7   510650.47  197.28
   0   7   6 6471.91  157.12
   0   7   6 6466.13  151.14
   0   7   6 6694.44  153.20
   0   7   7 6402.54  145.66
   0   7   7 6273.43  150.44
   0   7   8  922.73   52.36
   0   7   9  172.48   19.45
   0   7  -9  156.11   20.88
   0   7   9  149.18   18.13
   0   8  -1 8637.08  285.05
   0   8  -2 1032.77   89.91
   0   8   3  305.51   35.26
   0   8  -3  225.15   48.46
   0   8   3  297.30   33.06
   0   8  -3  260.21   32.20
   0   8   3  242.69   33.18
   0   8  -4 2526.05  167.25
   0   8   4 2562.05   99.72
   0   8  -4 2566.01  104.73
   0   8   4 2571.55  101.48
   0   8   5 5223.78  141.48
   0   8   5 4990.54  138.37
   0   8   5 4941.94  135.22
   0   8  -5 5176.01  151.42
   0   8   614373.47  226.34
   0   8   614247.31  212.45
   0   8   615015.53  220.70
   0   8   614584.30  223.19
   0   8  -7  485.07   45.06
   0   8   7  518.90   41.15
   0   8   7  473.49   36.70
   0   8   8 2184.41   70.73
   0   8  -8 2131.33   74.99
   0   8  -9   46.25   10.56
   0   9   0   19.79   13.49
   0   9   0  217.66   32.19
   0   9   1 1388.35   75.43
   0   9   1 1418.89   72.23
   0   9  -1 1502.61   80.01
   0   9   2 1878.45   79.93
   0   9  -2 1958.66   94.38
   0   9  -2 1786.43   84.39
   0   9   2 1944.91   89.04
   0   9   2 1893.01   79.67
   0   9   2 1932.55   88.92
   0   9  -3 3668.86  131.34
   0   9  -3 3362.10  117.76
   0   9   3 3595.41  112.30
   0   9   3 3638.60  122.45
   0   9   4 8219.44  184.51
   0   9  -4 8090.94  198.69
   0   9  -4 7967.73  183.93
   0   9  -5 8800.65  175.17
   0   9   5 8879.72  183.66
   0   9  -5 8571.65  189.13
   0   9   5 8486.78  171.67
   0   9  -6 1813.45   76.76
   0   9  -6 1834.65   84.05
   0   9   6 1975.23   79.07
   0   9  -7  103.12   20.18
   0   9  -7   84.33   16.67
   0   9  -7   81.06   22.70
   0   9   7   81.08   17.10
   0   9  -8  249.62   24.61
   0   9  -8  272.65   22.57
   0   9  -8  237.04   19.47
   0   9   8  288.14   23.06
   0  10   027571.85  351.61
   0  10   027980.23  317.86
   0  10   1 2342.96   91.90
   0  10  -1 2483.66  106.91
   0  10   1 2496.19  100.77
   0  10   1 2508.81  105.23
   0  10  -2  985.22   68.75
   0  10   2 1027.96   66.94
   0  10   2  971.24   66.55
   0  10   2  935.91   57.28
   0  10   2  999.70   58.18
   0  10  -3 6799.94  179.51
   0  10   3 6886.30  152.53
   0  10   3 6904.21  170.24
   0  10   4 9752.38  175.18
   0  10   410273.01  202.28
   0  10  -410200.61  217.24
   0  10  -410024.69  200.08
   0  10  -5 1046.02   62.40
   0  10   5 1146.60   58.99
   0  10  -5 1162.56   72.50
   0  10  -6  987.03   54.42
   0  10  -6 1022.01   61.44
   0  10   6  969.90   49.74
   0  10   7  371.05   25.63
   0  10  -7  365.53   27.38
   0  10  -7  416.63   33.70
   0  11   0    6.23   13.00
   0  11   0   11.46   20.02
   0  11   1 6954.70  158.56
   0  11   1 6993.65  152.45
   0  11  -1 7017.61  177.80
   0  11   1 7045.67  175.77
   0  11   1 6876.01  164.80
   0  11   2 2438.71   99.47
   0  11  -2 2475.81  106.95
   0  11   2 2307.38   86.27
   0  11   3   15.29   18.88
   0  11  -3   24.20   18.08
   0  11  -410829.89  209.25
   0  11  -5 3262.54  107.13
   0  11   5 3338.73   81.80
   0  11   6  201.34   18.43
   0  11  -6  191.75   24.26
   0  11  -7  887.42   35.38
   0  12   0 9276.55  179.77
   0  12   0 9113.96  158.59
   0  12  -1 1643.27   70.70
   0  12  -1 1975.86   88.98
   0  12   1 1850.77   76.53
   0  12   1 1937.95   87.28
   0  12  -1 1850.66   82.48
   0  12   2 1081.97   53.73
   0  12  -2 1148.05   68.09
   0  12  -3 2652.09   97.82
   0  12  -4  196.17   23.80
   0  12  -4  171.31   27.26
   0  12  -5  782.86   43.96
   0  12  -5  727.51   35.37
   0  12  -6  233.14   18.74
   0  13   0   -4.21   12.67
   0  13   0   -7.10   15.67
   0  13  -1 1573.52   70.04
   0  13   1 1598.38   60.81
   0  13  -1 1610.21   67.56
   0  13  -2 2408.98   78.65
   0  13  -2 2261.46   80.53
   0  13  -3 1333.21   57.51
   0  13  -3 1353.51   55.95
   0  13  -4 1009.12   39.88
   0  13  -4 1086.78   46.29
   0  14   0  369.97   25.44
   0  14  -1  766.25   35.82
   0  14   1  620.10   27.60
   0  14  -2  670.35   31.73
   0  14  -3  278.89   17.50
  -1 -14   3  458.95   21.47
  -1 -14   3  331.74   19.19
  -1 -14   2 2194.13   54.82
  -1 -14   2 2507.44   54.21
  -1 -14   1 1234.99   41.83
  -1 -14   1 1320.13   39.42
   1 -14   0 1461.76   40.88
  -1 -14   0 1295.66   39.81
   1 -14   1  201.33   16.38
   1 -14   2  432.09   21.67
  -1 -13   5 1768.68   42.84
  -1 -13   4  716.89   34.69
  -1 -13   4  784.73   35.72
  -1 -13   4  805.71   35.16
  -1 -13   3   19.69   11.38
  -1 -13   3   23.98    8.92
  -1 -13   3   16.55   10.04
  -1 -13   2  822.55   39.08
  -1 -13   2  845.91   43.91
  -1 -13   1 6818.70  124.42
   1 -13  -1 6860.14  114.17
   1 -13   0 5064.63  106.77
  -1 -13   0 4919.00  102.34
   1 -13   0 4987.74   90.21
   1 -13   1 1041.19   43.89
   1 -13   1 1039.51   49.97
  -1 -13  -1  934.96   40.01
   1 -13   2  114.29   17.26
   1 -13   2  106.46   15.46
   1 -13   3  111.21   14.78
   1 -13   3  132.96   16.72
   1 -13   4  242.64   16.74
   1 -13   4  261.15   17.69
  -1 -12   6 2636.88   55.79
  -1 -12   6 2812.33   65.33
  -1 -12   5  294.40   25.08
  -1 -12   5  295.35   27.41
  -1 -12   5  240.99   21.47
  -1 -12   4 2732.44   84.64
  -1 -12   4 2723.42   82.52
  -1 -12   4 2706.06   81.92
  -1 -12   3 2007.53   76.95
  -1 -12   3 2006.03   74.70
  -1 -12   3 2028.28   75.48
  -1 -12   2  155.77   23.64
  -1 -12   2  177.12   23.60
  -1 -12   113362.70  186.08
   1 -12   017070.90  207.19
   1 -12   1  486.77   38.35
   1 -12   1  530.07   42.15
   1 -12   2 2197.49   81.22
   1 -12   2 2019.88   74.64
   1 -12   3 2974.31   88.67
   1 -12   3 2943.72   85.83
   1 -12   4  281.45   25.30
   1 -12   4  307.95   26.37
   1 -12   5  697.96   31.89
   1 -12   5  612.61   31.60
   1 -12   5  625.98   25.81
  -1 -11   7 1044.03   38.90
  -1 -11   7 1029.84   39.37
  -1 -11   6 2101.22   69.02
  -1 -11   6 1979.18   62.09
  -1 -11   6 2012.12   69.74
  -1 -11   5   32.48   14.29
  -1 -11   5   43.96   16.52
  -1 -11   5   28.72   15.72
  -1 -11   5   34.06   14.06
  -1 -11   4  738.48   51.51
  -1 -11   4  710.42   49.69
  -1 -11   4  793.17   53.45
  -1 -11   4  813.48   51.46
  -1 -11   3 3416.80  107.09
  -1 -11   3 3554.74  111.25
  -1 -11   3 3497.50  114.35
  -1 -11   2 7132.27  157.43
  -1 -11   2 7004.96  147.68
  -1 -11   2 6832.57  154.25
   1 -11   0 2388.57   87.33
   1 -11   1  822.82   53.84
   1 -11   1  886.43   51.11
   1 -11   1  901.37   54.90
   1 -11   2  964.13   57.69
   1 -11   2  951.80   57.85
   1 -11   2  917.72   57.54
   1 -11   2  907.43   53.99
   1 -11   3 1411.12   70.58
   1 -11   3 1265.91   64.74
   1 -11   3 1221.83   65.71
   1 -11   3 1304.06   66.61
   1 -11   4 1780.68   75.24
   1 -11   4 1841.00   71.39
   1 -11   4 1894.89   78.28
   1 -11   4 1795.69   71.69
   1 -11   5 2182.94   64.24
   1 -11   5 2166.03   70.51
   1 -11   5 2147.89   75.22
   1 -11   6  980.78   43.42
  -1 -10   8 2851.81   65.79
  -1 -10   7  501.70   35.20
  -1 -10   7  559.17   39.54
  -1 -10   7  522.78   29.56
  -1 -10   6  726.54   44.02
  -1 -10   6  762.21   50.28
  -1 -10   6  685.69   47.97
  -1 -10   5 2751.97   99.49
  -1 -10   5 2730.06  101.47
  -1 -10   5 2824.30  104.16
  -1 -10   5 2823.30  102.70
  -1 -10   5 2785.05   95.12
  -1 -10   4 3167.75  111.80
  -1 -10   4 3235.18  115.67
  -1 -10   4 3265.80  113.52
  -1 -10   4 3094.71  110.12
  -1 -10   4 3191.12  108.28
  -1 -10   3  300.98   34.80
  -1 -10   3  219.49   32.56
  -1 -10   3  272.50   34.18
  -1 -10   3  210.75   31.20
  -1 -10   2  390.21   37.52
  -1 -10   113628.61  214.18
   1 -10   021575.91  270.91
   1 -10   1 1826.22   81.79
   1 -10   1 1851.78   76.61
   1 -10   1 1984.90   84.67
   1 -10   2  807.73   54.16
   1 -10   2  819.15   56.38
   1 -10   2  883.93   59.73
   1 -10   2  862.25   58.41
   1 -10   3 7310.58  165.50
   1 -10   3 7443.35  170.54
   1 -10   3 7308.24  163.34
   1 -10   4  712.93   53.70
   1 -10   4  753.35   52.34
   1 -10   4  767.56   57.80
   1 -10   4  788.35   52.74
   1 -10   5   94.04   21.96
   1 -10   5  123.36   25.76
   1 -10   5   93.66   17.48
   1 -10   5   84.71   18.29
   1 -10   6  750.28   45.92
   1 -10   6  706.90   40.20
   1 -10   7  876.85   39.45
   1 -10   7  977.48   38.40
  -1  -9   8  162.95   22.39
  -1  -9   8  164.22   17.32
  -1  -9   8  159.85   16.50
  -1  -9   7  354.44   28.98
  -1  -9   7  365.49   33.44
  -1  -9   6 8022.21  167.66
  -1  -9   6 8162.95  176.64
  -1  -9   6 8108.82  177.27
  -1  -9   6 8218.09  179.18
  -1  -9   6 7872.34  155.38
  -1  -9   5 4303.19  130.16
  -1  -9   5 4300.40  133.96
  -1  -9   5 4333.02  123.78
  -1  -9   5 4202.19  132.08
  -1  -9   5 4384.78  134.98
  -1  -9   5 4299.96  136.03
  -1  -9   4   56.49   19.74
  -1  -9   4   43.17   18.18
  -1  -9   4   39.43   18.13
  -1  -9   4   69.43   21.75
  -1  -9   3 2728.08  102.26
  -1  -9   3 2719.66  171.21
  -1  -9   3 2642.37  100.77
  -1  -9   2  356.58   63.07
  -1  -9   2  357.46   36.98
  -1  -9   2  374.35   36.60
  -1  -9   1 8596.69  289.09
  -1  -9   0 6355.80  249.29
   1  -9   1  509.82   43.39
   1  -9   1  497.15   43.02
   1  -9   1  506.82   40.97
  -1  -9  -1  469.55   68.36
   1  -9   2 3481.79  113.50
   1  -9   2 3515.39  111.23
   1  -9   2 3495.82  115.93
   1  -9   3 1141.89   67.52
   1  -9   3 1148.50   67.39
   1  -9   3 1197.92   70.76
   1  -9   3 1226.38   74.98
   1  -9   4 1060.97   64.68
   1  -9   4 1088.06   63.96
   1  -9   4 1201.24   75.69
   1  -9   4 1117.68   69.33
   1  -9   5 1148.89   71.62
   1  -9   5 1123.79   58.39
   1  -9   5 1031.62   64.62
   1  -9   5 1044.60   60.72
   1  -9   6  775.72   47.86
   1  -9   6  811.95   55.29
   1  -9   6  758.85   44.11
   1  -9   7 1093.99   53.43
   1  -9   7 1113.99   44.17
   1  -9   8  613.58   28.02
  -1  -8   9   45.49   12.54
  -1  -8   9   40.75    9.55
  -1  -8   8    4.67    9.82
  -1  -8   8   22.50    9.40
  -1  -8   7 3918.60  115.26
  -1  -8   7 3878.81  120.67
  -1  -8   7 3769.35  108.84
  -1  -8   7 3724.24  124.00
  -1  -8   7 3813.36   99.18
  -1  -8   6  964.38   64.81
  -1  -8   6  968.12   64.15
  -1  -8   6 1023.33   57.80
  -1  -8   6 1026.97   62.95
  -1  -8   6 1048.85   69.65
  -1  -8   6  955.89   65.95
  -1  -8   5 1598.00   83.28
  -1  -8   5 1675.36   81.95
  -1  -8   5 1597.05   76.64
  -1  -8   5 1676.27   86.61
  -1  -8   5 1632.97   83.75
  -1  -8   4   51.42   19.65
  -1  -8   4   26.40   15.25
  -1  -8   4   41.46   28.12
  -1  -8   3 7238.60  264.03
  -1  -8   3 6831.84  157.65
  -1  -8   2 2849.85  162.06
  -1  -8   111790.22  318.69
  -1  -8   0 8156.31  262.04
  -1  -8  -1 7486.98  246.02
  -1  -8  -2 6475.36  222.21
   1  -8   2 6730.40  153.18
   1  -8   2 6034.64  149.48
   1  -8   2 6351.86  145.65
   1  -8   2 6300.92  144.82
   1  -8   3  187.31   28.51
   1  -8   3  227.09   31.60
   1  -8   3  209.06   31.19
   1  -8   4 6749.64  155.87
   1  -8   4 7030.53  162.16
   1  -8   4 6975.99  170.06
   1  -8   4 7014.09  165.32
   1  -8   5  464.23   42.69
   1  -8   5  507.38   45.26
   1  -8   5  467.04   39.39
   1  -8   5  419.41   44.12
   1  -8   6 1961.02   95.10
   1  -8   6 1874.69   82.54
   1  -8   6 1880.40   79.45
   1  -8   6 1886.07   79.59
   1  -8   7  478.97   37.38
   1  -8   7  458.75   40.19
   1  -8   8  213.88   19.91
   1  -8   8  191.41   16.98
   1  -8   8  220.82   21.46
  -1  -7   9 1014.07   48.78
  -1  -7   8 1736.09   81.55
  -1  -7   8 1738.88   66.05
  -1  -7   711737.46  229.52
  -1  -7   712087.64  220.35
  -1  -7   712367.64  211.41
  -1  -7   6 1507.24   81.81
  -1  -7   6 1604.45   78.22
  -1  -7   6 1552.96   81.52
  -1  -7   6 1449.05   78.91
  -1  -7   6 1443.66   68.79
  -1  -7   6 1592.65   85.90
  -1  -7   5 4705.74  140.08
  -1  -7   5 5026.22  136.46
  -1  -7   5 4998.62  129.92
  -1  -7   5 4852.79  139.91
  -1  -7   5 4973.21  142.71
  -1  -7   4 3142.65  166.48
  -1  -7   4 3241.62  110.49
  -1  -7   4 3125.44  108.16
  -1  -7   310223.57  288.80
   1  -7  -2 3643.34  144.87
  -1  -7   2 3353.70  161.01
  -1  -7   114180.86  321.50
   1  -7  -114397.33  304.66
  -1  -7   0 3367.15  154.11
   1  -7   0 3423.10  152.92
  -1  -7  -114966.60  323.00
   1  -7   116712.26  297.91
   1  -7   219414.52  359.86
  -1  -7  -219792.89  361.87
   1  -7   3 1439.77  109.00
   1  -7   4 3204.71  105.60
   1  -7   4 3426.04  114.70
   1  -7   4 3421.98  117.85
   1  -7   4 3428.01  117.95
   1  -7   4 3315.33  106.05
   1  -7   4 3233.82  176.03
   1  -7   4 3288.58  109.88
   1  -7   5 7239.03  167.42
   1  -7   5 7046.67  151.38
   1  -7   5 7064.96  171.90
   1  -7   5 6918.22  162.00
   1  -7   6  598.87   50.61
   1  -7   6  608.41   49.76
   1  -7   6  626.82   48.29
   1  -7   7 1519.44   78.95
   1  -7   7 1471.31   71.21
   1  -7   8  318.31   29.37
   1  -7   8  290.13   28.52
   1  -7   9  231.68   17.38
  -1  -6  10  294.75   22.88
  -1  -6  10   66.96   11.58
  -1  -6   9  188.55   22.40
  -1  -6   9  217.41   27.56
  -1  -6   9  206.76   26.53
  -1  -6   8 1229.69   62.62
  -1  -6   8 1114.84   61.98
  -1  -6   8 1176.24   71.34
  -1  -6   7 7805.67  165.98
  -1  -6   7 7530.44  168.50
  -1  -6   7 7346.28  173.82
  -1  -6   7 7413.54  185.31
  -1  -6   7 7646.64  172.64
  -1  -6   610462.59  212.66
  -1  -6   610367.65  176.51
  -1  -6   610462.29  319.78
  -1  -6   610532.37  204.47
  -1  -6   610148.76  191.20
  -1  -6   610453.53  206.50
  -1  -6   519687.08  275.15
  -1  -6   520221.10  397.38
  -1  -6   519279.00  258.85
  -1  -6   519908.38  272.49
  -1  -6   520067.96  404.35
  -1  -6   519988.32  272.99
  -1  -6   410911.24  284.02
  -1  -6   411182.99  263.95
  -1  -6   3 6296.59  168.94
  -1  -6   3 6015.48  202.53
   1  -6  -2 7774.98  164.75
   1  -6  -2 7596.11  186.44
  -1  -6   2 7476.81  216.94
   1  -6  -1 5742.86  150.55
   1  -6  -1 5686.45  170.58
   1  -6   0 2045.77  106.76
   1  -6   0 2031.00   90.53
   1  -6   1  940.49   66.91
   1  -6   1  934.23   78.19
   1  -6   2 3336.72  140.52
   1  -6   313063.87  309.71
   1  -6   4 9279.38  291.37
   1  -6   4 9527.66  182.35
   1  -6   4 8875.86  187.86
   1  -6   4 8962.14  183.68
   1  -6   510570.63  337.33
   1  -6   510427.86  213.30
   1  -6   510734.84  204.43
   1  -6   510477.50  192.82
   1  -6   511055.32  206.44
   1  -6   619468.79  266.57
   1  -6   620584.67  295.10
   1  -6   620636.33  278.08
   1  -6   619446.14  284.18
   1  -6   7 3344.96  117.05
   1  -6   8  579.41   43.64
   1  -6   8  616.43   43.41
   1  -6   9   81.53   14.39
  -1  -5  10   20.62   10.58
  -1  -5  10   24.60   11.32
  -1  -5   9 2214.16   86.24
  -1  -5   9 2281.74   83.37
  -1  -5   8  623.90   48.90
  -1  -5   8  582.48   48.03
  -1  -5   8  558.55   50.33
  -1  -5   732399.66  347.12
  -1  -5   731248.84  355.09
  -1  -5   732311.46  357.82
  -1  -5   731332.81  374.36
  -1  -5   611220.95  207.01
  -1  -5   611270.48  328.24
  -1  -5   611201.01  205.31
  -1  -5   611367.14  215.46
  -1  -5   611276.42  190.15
  -1  -5   5  301.45   45.07
  -1  -5   5  280.62   47.63
  -1  -5   4 2635.27  124.64
  -1  -5   4 2761.28  129.86
  -1  -5   319688.89  289.03
   1  -5  -319947.75  251.95
  -1  -5   319046.82  327.63
  -1  -5   241853.30  463.07
  -1  -5   243718.77  350.93
   1  -5  -242059.40  389.07
   1  -5  -243479.35  369.10
   1  -5  -115763.72  252.00
   1  -5  -115647.12  228.41
   1  -5   0  576.98   54.08
   1  -5   0  534.49   45.96
   1  -5   1  236.69   40.15
   1  -5   1  268.45   36.57
   1  -5   2 7432.07  199.51
   1  -5   3  213.02   38.84
   1  -5   4  559.45   69.53
   1  -5   5  481.49   44.17
   1  -5   5  464.04   70.96
   1  -5   5  542.48   45.36
   1  -5   5  467.91   40.16
   1  -5   5  549.69   44.86
   1  -5   5  508.61   46.72
   1  -5   6 4407.64  135.54
   1  -5   6 4636.18  128.49
   1  -5   6 4370.71  122.26
   1  -5   6 4455.20  138.53
   1  -5   6 4490.31  139.97
   1  -5   7  929.89   63.70
   1  -5   7  862.32   63.19
   1  -5   8 3184.81  108.99
   1  -5   8 3099.50  105.32
   1  -5   8 2970.96   98.74
   1  -5   9 1373.18   57.11
  -1  -4  10  506.56   36.01
  -1  -4  10  439.40   35.31
  -1  -4   9 1698.52   78.03
  -1  -4   9 1877.58   82.20
  -1  -4   8 6320.25  165.07
  -1  -4   723021.03  280.60
  -1  -4   723328.92  316.55
  -1  -4   723332.24  294.60
  -1  -4   6 6043.40  236.61
  -1  -4   5 1931.83  117.76
  -1  -4   419587.10  326.49
   1  -4  -419327.23  268.93
  -1  -4   317463.67  262.34
   1  -4  -317452.99  235.25
  -1  -4   317635.13  283.43
  -1  -4   2 6147.14  127.41
   1  -4  -2 6141.55  131.71
   1  -4  -1 7094.66  148.52
  -1  -4   1 7321.14   98.83
   1  -4  -1 6944.92  139.84
   1  -4   019370.42  262.69
   1  -4   018924.29  243.28
   1  -4   1 3068.81  113.76
   1  -4   1 3006.39  104.76
   1  -4   211222.86  227.25
   1  -4   326719.06  397.77
   1  -4   4 1526.71  109.73
   1  -4   521107.12  450.50
   1  -4   611536.89  193.38
   1  -4   612793.23  382.88
   1  -4   611818.71  200.42
   1  -4   612728.79  229.13
   1  -4   611983.93  222.44
   1  -4   7 3402.35  121.38
   1  -4   7 3308.08  107.58
   1  -4   7 3179.17  121.57
   1  -4   8 2576.35  100.65
   1  -4   8 2542.87  100.41
   1  -4   9 1711.75   68.14
  -1  -3  11 1949.02   51.65
  -1  -3  10 1285.89   60.65
  -1  -3  10 1189.12   57.63
  -1  -3   9 4161.49  128.29
  -1  -3   9 4032.24  118.47
  -1  -3   8  667.39   54.19
  -1  -3   7 3143.54  185.38
  -1  -3   7 3057.80  111.26
  -1  -3   6 1944.44  133.25
  -1  -3   517907.08  347.69
   1  -3  -518541.59  298.63
  -1  -3   4  922.20   68.06
   1  -3  -4  968.60   61.42
  -1  -3   4  851.43   57.81
  -1  -3   344169.74  397.16
  -1  -3   344089.59  392.66
   1  -3  -345260.85  365.61
   1  -3  -241917.53  325.56
  -1  -3   240909.08  310.87
   1  -3   0  389.56   33.42
   1  -3   0  307.83   30.12
   1  -3   119864.08  247.92
   1  -3   119771.45  247.42
  -1  -3  -2 1886.24   61.38
   1  -3   2 1799.03   86.65
   1  -3   3 1143.87   79.89
   1  -3   4 8433.78  242.43
   1  -3   5 8774.34  279.97
   1  -3   6 8522.52  179.87
   1  -3   6 8636.04  306.33
   1  -3   6 8529.36  172.20
   1  -3   6 8873.54  189.31
   1  -3   7   80.14   23.79
   1  -3   7   78.39   23.02
   1  -3   7  112.13   25.65
   1  -3   7   75.16   19.59
   1  -3   8  648.29   47.89
   1  -3   8  632.65   52.89
   1  -3   8  592.29   52.15
   1  -3   9   76.75   20.89
   1  -3   9   92.87   19.62
   1  -3  10    2.18    5.80
  -1  -2  11 2452.16   61.54
  -1  -2  10 4424.93  111.95
  -1  -2  10 4884.78  122.57
  -1  -2   9 2824.32   91.78
  -1  -2   9 3001.30  101.73
  -1  -2   8  891.12   53.90
  -1  -2   8  824.09   58.33
  -1  -2   7   92.51   37.47
  -1  -2   7  112.33   23.69
   1  -2  -6  289.50   43.73
  -1  -2   6  247.03   48.03
  -1  -2   5 4551.15  172.53
   1  -2  -5 4758.81  155.59
   1  -2  -4 4436.27  131.38
  -1  -2   4 4285.35  107.37
  -1  -2   4 4338.74  142.96
   1  -2  -310301.40  171.70
  -1  -2   310028.13  160.75
  -1  -2   310512.23  186.07
   1  -2  -214044.43  176.67
  -1  -2   214145.82  175.54
   1  -2   226964.12  310.07
  -1  -2  -227249.26  243.51
   1  -2   334183.48  405.21
   1  -2   411942.75  276.74
   1  -2   5  890.25   85.64
   1  -2   6 2865.14  101.75
   1  -2   6 2836.70  107.54
   1  -2   6 2607.43  165.65
   1  -2   7  647.52   55.42
   1  -2   7  776.93   60.34
   1  -2   7  850.61   58.92
   1  -2   8 1919.83   91.40
   1  -2   8 1921.93   84.00
   1  -2   8 1910.33   87.97
   1  -2   9  671.31   43.84
   1  -2   9  673.04   44.23
   1  -2   9  701.81   49.44
   1  -2  10  120.90   14.30
  -1  -1  11  297.02   23.23
  -1  -1  10   21.96   10.73
  -1  -1  10   52.31   20.47
  -1  -1  10   25.91   13.47
  -1  -1   9 9031.69  170.21
  -1  -1   8  679.13   51.14
  -1  -1   7  447.38   40.75
   1  -1  -7  565.70   70.16
  -1  -1   7  421.28   36.74
  -1  -1   7  484.47   73.43
  -1  -1   612863.11  323.63
   1  -1  -612489.67  293.48
   1  -1  -521744.96  333.89
   1  -1  -522234.59  290.07
  -1  -1   463922.66  538.41
   1  -1  -465375.03  502.28
   1  -1  -464598.45  429.69
   1  -1  -310855.56  175.19
  -1  -1   311039.92  187.68
   1  -1  -310929.57  145.32
  -1  -1   310630.54  131.56
   1  -1  -128404.51  211.91
   1  -1   0 5851.57   94.75
  -1  -1  -210526.33  158.68
   1  -1   210392.12  179.45
   1  -1   338129.49  408.14
   1  -1   470011.94  642.44
  -1  -1  -5 6711.53  192.93
   1  -1   5 6152.86  220.21
   1  -1   6 1701.16  128.59
   1  -1   7 3824.74  125.57
   1  -1   7 3968.47  132.44
   1  -1   7 3828.72  127.34
   1  -1   8 6337.29  156.85
   1  -1   8 6179.38  163.08
   1  -1   8 5835.53  151.91
   1  -1   9  683.22   46.20
   1  -1   9  570.10   45.76
   1  -1   9  598.64   40.62
   1  -1  10 1162.75   39.42
  -1   0  11  343.45   24.40
  -1   0  10  342.25   32.42
  -1   0  10  339.17   28.96
  -1   0  10  364.78   36.17
  -1   0   9 3385.90  109.58
  -1   0   8 2041.31   91.32
  -1   0   8 2082.20   85.26
  -1   0   8 1984.65   75.92
   1   0  -7  398.44   62.10
  -1   0   7  462.38   38.93
  -1   0   7  423.18   42.80
   1   0  -6  806.82   69.59
  -1   0   6  827.29   82.22
   1   0  -6  809.08   77.71
  -1   0   562315.64  616.91
   1   0  -562726.43  589.58
   1   0  -4 1492.61   79.40
  -1   0   4 1536.22   83.19
   1   0  -4 1569.88   74.21
  -1   0   3 3794.88   43.27
   1   0  -3 3989.91  110.21
   1   0  -3 4150.16  102.46
  -1   0   3 4066.28  113.11
  -1   0   213489.46  165.80
   1   0  -213401.97  153.51
   1   0  -213339.24  165.78
   1   0   112598.10  134.69
   1   0   112594.08  148.92
   1   0   112435.20  115.81
   1   0   2  247.40   26.80
  -1   0  -2  240.27   26.95
  -1   0  -3 9678.49  119.98
   1   0   3 9447.20  193.91
   1   0   4 1242.29   84.06
   1   0   5 3259.00  154.37
  -1   0  -5 3244.41  144.03
   1   0   6 2680.75   92.40
   1   0   6 2890.26  162.22
  -1   0  -6 2900.23  150.25
   1   0   7 4613.89  143.10
   1   0   7 4317.60  130.63
   1   0   7 4606.25  223.41
   1   0   7 4697.23  135.36
   1   0   8 2772.49  106.57
   1   0   8 2714.60  106.19
   1   0   8 2675.99   97.02
   1   0   9  475.03   42.08
   1   0   9  527.16   42.20
   1   0   9  453.07   35.00
   1   0  10  410.98   27.70
  -1   1  11  263.63   19.90
  -1   1  11  238.31   18.15
  -1   1  10   31.52   14.99
  -1   1  10   21.29   13.85
  -1   1  10    9.33   13.57
  -1   1   9 9512.87  164.77
  -1   1   9 9424.18  189.25
  -1   1   8  702.75   54.97
  -1   1   8  699.81   47.06
  -1   1   8  646.27   49.55
   1   1  -7  393.37   58.25
  -1   1   7  405.13   44.33
   1   1  -7  404.99   64.60
  -1   1   7  472.43   40.03
  -1   1   7  441.90   35.80
   1   1  -612651.97  311.62
   1   1  -612902.78  293.38
   1   1  -522080.74  338.81
   1   1  -521535.13  353.16
  -1   1   521002.21  352.42
  -1   1   464856.40  531.41
   1   1  -467127.13  519.12
   1   1  -310674.53  182.26
   1   1  -128018.89  196.17
   1   1   0 6288.98   69.44
  -1   1  -210348.92  177.09
   1   1   2 9837.71  153.41
   1   1   337556.50  369.65
  -1   1  -340771.75  316.05
   1   1   470462.90  599.92
  -1   1  -5 6316.25  209.93
   1   1   5 6341.57  208.42
   1   1   6 1658.55   75.86
  -1   1  -6 1668.46  120.92
   1   1   6 1696.17   79.17
   1   1   6 1727.17   74.06
   1   1   6 1593.54  118.90
   1   1   7 3634.43  123.04
   1   1   7 3595.25  116.38
   1   1   7 3559.68  123.17
   1   1   8 6275.47  157.88
   1   1   8 6579.33  164.53
   1   1   9  627.52   43.34
   1   1   9  579.04   38.92
   1   1   9  677.96   47.69
   1   1  10 1278.20   48.12
  -1   2  11 2307.72   53.86
  -1   2  10 4737.04  113.27
  -1   2  10 4692.95  116.04
  -1   2   9 3104.62  110.33
  -1   2   9 3105.86  104.17
  -1   2   9 3121.63   96.60
  -1   2   8  751.36   50.39
  -1   2   8  750.13   54.28
  -1   2   8  853.56   60.61
   1   2  -7   32.94   22.85
  -1   2   7   58.32   16.92
   1   2  -7   61.24   29.67
  -1   2   7   73.49   17.65
  -1   2   7   60.87   18.29
   1   2  -6  278.66   48.23
   1   2  -6  250.51   47.83
   1   2  -5 4516.77  166.42
   1   2  -4 3877.90  137.20
   1   2  -310480.42  196.61
   1   2  -214117.33  201.12
   1   2   226227.72  229.07
  -1   2  -226752.79  286.12
  -1   2  -332824.14  337.48
   1   2   332515.34  326.92
  -1   2  -411829.78  268.93
   1   2   411855.46  237.35
  -1   2  -412171.61  209.89
  -1   2  -5  928.67   86.26
   1   2   5  838.68   75.03
   1   2   6 2731.48   95.51
   1   2   6 2673.75  100.66
   1   2   6 2626.48   97.46
  -1   2  -6 2612.17  157.95
   1   2   7  658.61   50.85
   1   2   7  713.67   53.34
   1   2   7  781.03   59.70
   1   2   8 1830.12   81.57
   1   2   8 1828.72   81.03
   1   2   8 1753.98   77.70
   1   2   9  557.91   38.95
   1   2   9  564.87   36.91
   1   2  10   98.57   14.56
  -1   3  11 2215.80   50.17
  -1   3  10 1152.40   51.60
  -1   3   9 4252.57  113.02
  -1   3   9 4155.71  120.49
  -1   3   9 4213.40  128.49
  -1   3   8  736.93   57.47
  -1   3   8  751.83   52.01
  -1   3   8  773.54   56.56
   1   3  -7 2932.49  173.48
  -1   3   7 3217.10  102.39
  -1   3   7 2991.23  111.23
  -1   3   7 3061.46  105.37
   1   3  -7 3255.26  186.77
   1   3  -6 1972.36  130.29
   1   3  -517800.86  349.57
   1   3  -4  900.09   72.68
   1   3  -345274.44  445.37
  -1   3   344961.32  299.54
   1   3  -241374.44  320.22
   1   3  -241395.38  379.90
   1   3   0  339.58   17.23
   1   3   120120.32  254.87
  -1   3  -120375.15  264.83
  -1   3  -2 1834.09   85.07
   1   3   2 1729.16   52.10
  -1   3  -3 1163.77   72.21
   1   3   3 1121.03   56.75
  -1   3  -3 1046.36   77.16
  -1   3  -4 8617.49  242.16
  -1   3  -4 8698.44  204.85
   1   3   4 8136.24  188.89
  -1   3  -5 8937.90  277.31
   1   3   6 8588.39  171.13
   1   3   6 8243.06  173.78
   1   3   6 8311.90  173.14
   1   3   6 8648.48  186.18
  -1   3  -6 8460.59  295.17
   1   3   7   83.46   23.53
   1   3   7   89.51   21.54
   1   3   7  106.92   26.59
   1   3   8  566.63   47.06
   1   3   8  637.74   46.44
   1   3   9   83.38   19.34
   1   3   9   64.96   13.75
   1   3  10    2.07    7.09
  -1   4  10  534.66   32.39
  -1   4   9 1858.32   83.61
  -1   4   9 1834.10   78.44
  -1   4   9 1805.76   74.11
  -1   4   8 6471.41  152.18
  -1   4   8 6820.72  160.72
  -1   4   8 6470.26  165.58
   1   4  -723982.56  515.48
  -1   4   723560.39  314.70
  -1   4   723227.73  286.52
   1   4  -723268.71  507.29
  -1   4   723285.93  295.62
   1   4  -6 5583.90  231.51
   1   4  -5 1710.83  117.25
   1   4  -420250.91  357.31
   1   4  -317879.79  226.04
   1   4  -317444.84  301.89
  -1   4   317950.68  225.90
  -1   4   2 6136.54  144.72
   1   4  -2 6201.84  137.73
   1   4  -2 6269.23  162.56
   1   4  -1 7019.64  151.81
  -1   4   1 7082.52  101.18
  -1   4   1 6758.30  159.40
   1   4   019159.59  264.11
  -1   4   019176.81  282.33
  -1   4  -1 3093.37  118.08
  -1   4  -211390.80  233.56
  -1   4  -211218.33  237.56
  -1   4  -326049.91  401.65
  -1   4  -326892.54  386.84
  -1   4  -4 1643.34  101.13
  -1   4  -4 1578.20  110.21
  -1   4  -521068.16  443.87
   1   4   612191.04  210.26
   1   4   611828.88  210.94
   1   4   612026.32  209.72
   1   4   612280.14  226.75
   1   4   7 3153.40  111.21
   1   4   7 2958.92  105.68
   1   4   8 2632.70   94.80
   1   4   8 2478.88   86.08
   1   4   9 1779.66   68.75
  -1   4 -10  195.63   16.97
  -1   5  10   33.05   11.52
  -1   5   9 2218.42   82.81
  -1   5   9 2151.53   84.74
  -1   5   9 2150.86   78.39
  -1   5   8  587.15   50.83
  -1   5   8  595.08   49.32
  -1   5   8  635.97   47.80
  -1   5   732880.12  347.81
  -1   5   731887.78  352.11
  -1   5   732507.79  367.20
  -1   5   611666.58  198.64
  -1   5   611287.00  203.69
   1   5  -611728.80  352.34
   1   5  -5  264.71   51.12
   1   5  -4 2729.26  141.85
   1   5  -319097.87  342.18
   1   5  -319952.58  261.32
  -1   5   319381.50  272.22
   1   5  -241255.43  456.13
   1   5  -241114.68  399.04
  -1   5   240859.54  427.12
  -1   5   115138.77  272.58
   1   5  -115544.02  255.91
   1   5   0  558.04   53.58
  -1   5   0  617.52   58.17
  -1   5   0  559.68   41.80
  -1   5  -1  198.56   31.38
  -1   5  -1  201.99   39.67
  -1   5  -2 7461.35  204.25
  -1   5  -2 7790.55  222.62
  -1   5  -3  186.63   38.97
  -1   5  -3  314.19   48.86
  -1   5  -4  562.30   66.99
  -1   5  -4  541.62   69.28
  -1   5  -5  542.37   76.94
   1   5   5  481.53   39.74
   1   5   5  524.36   42.58
   1   5   5  534.63   45.62
   1   5   5  500.39   43.19
   1   5   6 4308.72  127.15
   1   5   6 4378.51  128.56
   1   5   6 4532.12  128.58
   1   5   7  731.19   53.05
   1   5   7  805.60   57.28
   1   5   8 3111.53   99.70
   1   5   9 1462.89   55.70
  -1   6  10  296.18   20.90
   1   6 -10  154.40   15.40
  -1   6   9  244.84   26.70
  -1   6   9  212.21   25.58
  -1   6   8 1152.38   64.24
  -1   6   8 1128.71   65.92
  -1   6   8 1241.30   66.57
  -1   6   7 7953.80  174.44
  -1   6   7 7680.04  171.07
  -1   6   7 7622.27  174.55
  -1   6   610493.71  194.47
  -1   6   610442.86  196.12
  -1   6   610504.58  196.01
   1   6  -610619.66  353.10
  -1   6   519224.13  248.70
   1   6  -519553.67  443.00
   1   6  -410506.39  300.50
   1   6  -3 6016.23  206.91
  -1   6   2 7003.85  201.37
   1   6  -2 6980.27  203.70
  -1   6   1 5544.02  185.41
  -1   6   0 1894.65  113.14
  -1   6   0 2333.52   92.33
  -1   6  -1  881.48   82.21
  -1   6  -1  835.48   66.25
  -1   6  -2 3096.02  141.98
  -1   6  -2 3371.66  161.70
  -1   6  -311646.34  307.05
  -1   6  -312109.59  316.90
  -1   6  -4 9234.62  289.49
  -1   6  -4 9246.13  300.14
  -1   6  -510313.58  345.70
   1   6   510406.51  191.41
   1   6   510484.74  198.55
   1   6   510281.36  199.17
   1   6   510617.55  184.51
   1   6   510907.32  192.16
   1   6   619773.36  275.69
   1   6   620074.51  266.55
   1   6   7 3261.19  100.59
   1   6   7 3330.71  109.88
   1   6   8  565.02   40.89
  -1   6  -9   79.37   14.10
   1   6   9   90.04   12.92
  -1   6  -9   75.62   15.68
  -1   7   9 1025.97   47.51
   1   7  -9  863.10   44.48
  -1   7   8 1856.91   75.96
  -1   7   8 1741.78   73.60
  -1   7   712902.27  216.42
  -1   7   712203.52  208.60
  -1   7   712762.52  216.18
  -1   7   6 1512.55   76.05
  -1   7   6 1514.44   74.02
  -1   7   6 1488.86   74.01
   1   7  -5 4835.48  231.42
  -1   7   5 4643.52  128.23
  -1   7   5 4680.97  128.14
   1   7  -4 3135.40  174.59
   1   7  -310383.46  294.73
  -1   7   2 3371.14  154.59
  -1   7   113306.42  319.02
  -1   7   0 3506.57  170.07
  -1   7  -115241.47  365.42
  -1   7  -115353.73  301.54
  -1   7  -219026.69  422.25
  -1   7  -218830.05  375.36
  -1   7  -3 1270.13  108.90
  -1   7  -3 1336.17  116.55
   1   7   4 3241.25  103.08
  -1   7  -4 3442.86  190.33
   1   7   4 3449.41  116.86
  -1   7  -4 3280.76  187.78
   1   7   4 3384.50  112.55
   1   7   4 3339.05  110.89
   1   7   5 6810.67  165.80
   1   7   5 6982.84  161.19
   1   7   5 6790.82  155.36
   1   7   6  637.69   49.05
   1   7   6  575.13   48.56
   1   7   6  619.33   45.09
   1   7   7 1396.18   68.16
   1   7   7 1411.32   62.42
   1   7   8  314.24   28.05
   1   7   8  298.54   25.16
  -1   7  -8  316.57   32.70
  -1   7  -9  188.76   17.60
  -1   7  -9  176.06   16.60
  -1   7  -9  197.93   17.14
   1   8  -9   25.29    8.52
   1   8  -9   45.72   11.92
  -1   8   9   31.01   11.18
  -1   8   8   14.75   11.80
   1   8  -8    8.96   11.18
  -1   8   7 3886.35  115.99
  -1   8   7 3714.72  108.10
   1   8  -7 3693.37  114.37
  -1   8   6  974.68   63.01
   1   8  -6 1012.45   65.72
  -1   8   6  961.91   57.45
  -1   8   5 1601.06   78.95
  -1   8   5 1524.33   73.31
   1   8  -5 1633.09   81.35
  -1   8   4   26.75   16.46
  -1   8   4   23.92   13.25
  -1   8   4   34.37   17.26
   1   8  -3 6783.06  170.58
  -1   8   3 7058.87  157.50
  -1   8   3 7211.83  160.73
  -1   8   3 6865.60  148.60
  -1   8   2 2794.13  153.84
  -1   8   111631.94  325.32
  -1   8   0 8199.91  282.80
  -1   8  -1 7230.85  271.57
  -1   8  -2 6738.85  167.81
  -1   8  -2 6655.45  269.49
   1   8   2 6748.72  158.38
  -1   8  -2 6596.17  160.83
   1   8   2 6407.73  155.35
   1   8   2 6663.01  157.65
  -1   8  -3  296.57   60.96
   1   8   3  224.99   33.06
  -1   8  -3  216.65   48.37
  -1   8  -3  211.20   29.98
   1   8   3  216.93   32.02
  -1   8  -3  298.64   37.58
   1   8   4 6564.45  147.30
   1   8   4 6791.18  165.96
   1   8   4 6606.59  167.36
  -1   8  -4 6911.40  179.87
   1   8   5  522.59   45.61
  -1   8  -5  392.02   49.88
   1   8   5  470.73   46.72
   1   8   5  430.53   39.90
   1   8   6 1862.34   77.13
   1   8   6 1817.36   73.72
   1   8   6 1870.83   81.17
  -1   8  -6 1922.75   92.53
   1   8   7  454.53   35.21
  -1   8  -7  442.39   38.90
  -1   8  -7  471.59   42.32
  -1   8  -8  188.70   22.83
  -1   8  -8  218.60   21.95
  -1   8  -8  243.67   25.34
   1   9  -8  130.53   19.41
  -1   9   8  184.25   20.34
  -1   9   7  401.90   32.11
  -1   9   7  405.18   35.65
   1   9  -7  378.52   32.24
   1   9  -7  359.85   37.45
   1   9  -6 7546.95  180.58
  -1   9   6 7977.04  167.43
  -1   9   6 7818.20  152.07
   1   9  -6 7572.15  159.51
   1   9  -5 4282.05  142.11
  -1   9   5 4066.89  112.63
   1   9  -4   64.19   23.86
  -1   9   4   45.73   18.83
  -1   9   4  104.22   19.69
  -1   9   4   45.46   19.19
   1   9  -3 2685.37  110.90
  -1   9   3 2762.01  105.30
  -1   9   3 2643.73   95.88
  -1   9   3 2694.57  101.43
  -1   9   2  391.20   39.14
  -1   9   2  385.30   38.28
  -1   9   2  339.38   37.08
   1   9  -2  378.44   42.88
  -1   9   2  396.61   40.60
  -1   9   1 7839.23  169.21
  -1   9   1 8359.87  174.12
  -1   9   1 8121.86  293.72
   1   9  -1 8434.78  186.84
  -1   9   1 8816.12  186.30
  -1   9   0 6067.15  262.41
   1   9   0 6095.00  158.28
   1   9   0 6234.84  151.14
  -1   9   0 6187.10  157.97
  -1   9  -1  555.46   50.01
   1   9   1  506.40   46.22
  -1   9  -1  468.53   75.44
  -1   9  -1  469.95   45.50
   1   9   1  512.01   46.72
  -1   9  -2 3338.66  120.42
   1   9   2 3594.45  122.45
  -1   9  -2 3413.06  124.74
   1   9   2 3485.19  122.01
  -1   9  -2 3388.24  205.86
  -1   9  -3 1131.02   75.62
   1   9   3 1205.19   73.48
   1   9   3 1092.28   70.51
  -1   9  -3 1102.85   64.52
  -1   9  -3 1165.64   73.48
  -1   9  -4 1032.93   63.57
   1   9   4 1042.43   68.36
   1   9   4 1067.70   57.04
  -1   9  -4 1088.37   72.03
   1   9   4 1032.86   67.01
   1   9   5 1099.16   58.93
  -1   9  -5 1134.23   65.35
   1   9   5 1082.54   65.59
   1   9   5 1037.13   61.93
  -1   9  -5 1058.73   68.59
  -1   9  -6  818.13   51.77
   1   9   6  735.66   44.55
  -1   9  -6  720.99   52.45
   1   9   7 1118.14   47.29
  -1   9  -7 1136.49   56.74
  -1   9  -7 1142.31   51.24
  -1   9  -7 1141.42   55.11
  -1   9  -8  614.18   29.01
  -1   9  -8  376.30   21.95
  -1  10   8 2728.94   58.52
   1  10  -8 2424.01   56.74
  -1  10   7  499.89   33.55
   1  10  -7  482.56   36.74
  -1  10   6  661.53   45.08
   1  10  -6  668.46   50.99
  -1  10   5 2581.47   92.05
   1  10  -5 2608.87  105.71
  -1  10   4 3320.95   99.66
  -1  10   4 3123.99  106.59
   1  10  -4 2959.20  116.74
   1  10  -3  248.02   37.76
  -1  10   3  255.83   33.12
  -1  10   3  216.51   29.42
   1  10  -2  347.86   42.14
  -1  10   2  400.23   41.18
  -1  10   2  427.90   42.71
  -1  10   2  387.87   42.26
   1  10  -113272.79  244.23
  -1  10   113289.00  226.59
   1  10  -113577.26  215.75
  -1  10   113562.96  239.87
  -1  10   021307.99  304.72
   1  10   021847.45  292.99
   1  10   021245.06  306.04
   1  10   1 1943.63   91.07
  -1  10  -1 1953.33   94.10
   1  10   1 1911.35   91.89
  -1  10  -2  803.98   62.73
   1  10   2  908.74   63.58
  -1  10  -3 7575.72  186.17
  -1  10  -3 7118.38  155.32
   1  10   3 7290.68  175.43
  -1  10  -3 7416.78  181.95
  -1  10  -4  713.83   49.14
  -1  10  -4  776.72   58.76
  -1  10  -4  724.40   60.46
   1  10   4  752.25   55.31
  -1  10  -5   73.19   17.82
   1  10   5  131.68   23.24
  -1  10  -5   74.31   25.20
  -1  10  -5   87.89   22.47
   1  10   6  689.91   34.62
  -1  10  -6  714.93   47.08
  -1  10  -6  685.19   39.48
  -1  10  -6  740.94   45.98
  -1  10  -7 1035.40   42.84
  -1  10  -7  725.14   28.92
  -1  11   7  996.26   35.03
   1  11  -7  895.38   37.91
   1  11  -6 1831.74   69.87
  -1  11   6 1928.50   61.47
  -1  11   5   18.42   10.81
   1  11  -5   30.11   16.15
   1  11  -4  727.61   56.24
  -1  11   4  777.44   45.03
  -1  11   3 3599.75  111.61
  -1  11   3 3434.66  106.30
   1  11  -3 3397.78  121.83
  -1  11   2 7041.62  159.94
   1  11  -2 6761.34  173.13
  -1  11   2 6867.03  157.96
  -1  11   2 7008.23  168.78
  -1  11   1 7306.86  165.86
  -1  11   1 7205.25  168.29
   1  11  -1 7175.61  178.46
   1  11  -1 7436.31  155.10
  -1  11   1 7441.71  176.68
  -1  11   0 2470.43   98.60
   1  11   0 2453.52   95.57
  -1  11   0 2303.26  101.88
   1  11   0 2358.88  102.16
  -1  11  -1  954.47   66.44
   1  11   1  935.66   61.82
   1  11   1  932.36   54.92
  -1  11  -1  929.53   61.52
   1  11   1  877.03   61.97
  -1  11  -2  953.36   65.92
  -1  11  -2  934.41   59.79
   1  11   2  858.52   60.48
  -1  11  -3 1315.42   75.38
   1  11   3 1353.64   73.25
  -1  11  -3 1267.98   64.70
  -1  11  -4 1869.42   82.89
   1  11   4 1852.75   78.49
  -1  11  -4 1791.09   68.21
  -1  11  -5 2322.59   81.72
  -1  11  -6 1172.58   47.86
   1  12  -6 1802.25   45.99
   1  12  -6 2456.07   60.48
   1  12  -5  275.59   27.34
  -1  12   5  241.59   19.45
  -1  12   4 2267.28   66.12
   1  12  -4 2569.90   88.77
  -1  12   3 1913.08   71.44
   1  12  -3 2033.88   85.21
  -1  12   2  188.40   27.50
  -1  12   2  189.99   26.11
   1  12  -2  200.61   30.24
  -1  12   113449.29  205.80
  -1  12   113652.67  212.13
  -1  12   113803.50  224.99
   1  12  -113241.78  224.29
  -1  12   016181.45  231.93
  -1  12   017383.22  246.53
   1  12   016486.93  227.73
   1  12   016544.12  250.55
  -1  12   017431.15  253.46
   1  12   1  572.94   44.87
  -1  12  -1  580.81   45.65
  -1  12  -1  542.70   46.74
   1  12   1  530.90   37.34
   1  12   2 2243.04   86.35
  -1  12  -2 2128.80   82.51
  -1  12  -2 2210.56   89.69
  -1  12  -3 3038.12   89.13
  -1  12  -3 3074.69   98.92
  -1  12  -4  349.77   32.13
  -1  12  -4  347.13   25.74
  -1  12  -5  727.65   36.26
   1  13  -5 1224.88   37.22
   1  13  -4  721.10   38.70
   1  13  -4  762.60   37.94
  -1  13   3    4.96    6.99
   1  13  -3   21.76   11.91
   1  13  -3   18.10   11.30
   1  13  -2  844.05   47.79
  -1  13   2  833.90   42.84
   1  13  -2  775.29   47.15
  -1  13   1 6665.24  119.35
   1  13  -1 6540.47  129.55
  -1  13   1 6664.15  131.05
   1  13  -1 6674.77  138.41
  -1  13   0 4966.66  106.12
  -1  13   0 5336.89  117.83
   1  13   0 5008.53  105.84
  -1  13   0 5366.59  124.32
  -1  13  -1 1135.95   54.33
  -1  13  -1 1189.76   58.06
  -1  13  -2  167.01   24.28
  -1  13  -2  131.64   19.34
  -1  13  -3  116.09   18.05
  -1  13  -3  124.50   16.09
  -1  13  -4  260.90   20.17
   1  14  -3  477.16   24.32
   1  14  -2 2596.88   60.26
  -1  14   1 1289.54   43.76
   1  14  -1 1275.49   42.06
   1  14   0  430.93   25.75
  -1  14   0 1549.20   49.52
  -1  14  -1  166.22   16.87
  -1  14  -2  377.10   22.00
   2 -14  -2  285.05   17.87
  -2 -14   2  250.10   16.94
  -2 -14   1  327.00   19.31
   2 -14  -1  570.33   27.13
   2 -14   0   31.56    7.71
  -2 -13   5 3039.57   53.32
  -2 -13   4  614.57   30.83
  -2 -13   4  642.96   31.83
  -2 -13   4  655.81   29.38
   2 -13  -3 1164.32   44.88
  -2 -13   3 1087.71   43.34
  -2 -13   3 1035.38   38.15
  -2 -13   3 1088.36   46.18
  -2 -13   2 2196.77   68.52
  -2 -13   2 2180.53   60.92
  -2 -13   1  109.70   14.02
   2 -13  -1  160.34   17.39
   2 -13   0  145.81   18.08
   2 -13   1  880.14   41.26
   2 -13   1  842.15   32.94
   2 -13   2  176.64   15.86
   2 -13   2  159.54   15.03
   2 -13   3   89.68   11.42
  -2 -12   6 1720.05   51.07
  -2 -12   6 1582.38   40.95
  -2 -12   5 3845.22   91.22
  -2 -12   5 3943.67   89.51
  -2 -12   5 3728.66   83.06
  -2 -12   4 1248.99   56.60
  -2 -12   4 1335.76   55.85
  -2 -12   4 1358.16   57.89
  -2 -12   4 1306.14   57.10
  -2 -12   3  885.83   49.71
  -2 -12   3  958.04   50.00
  -2 -12   3  956.89   47.61
  -2 -12   2  549.04   37.50
  -2 -12   2  528.32   39.48
   2 -12  -1 1329.95   58.75
  -2 -12   1 1246.08   57.91
   2 -12   0  692.10   44.83
   2 -12   1  941.64   46.51
   2 -12   1 1024.60   54.01
   2 -12   2  460.82   35.52
   2 -12   2  444.23   31.40
   2 -12   2  382.14   30.07
   2 -12   3  936.42   43.41
   2 -12   3  915.18   44.53
   2 -12   3  860.79   41.71
   2 -12   4  482.63   27.81
   2 -12   4  497.21   26.45
  -2 -11   7  385.08   22.35
  -2 -11   7  920.06   38.78
  -2 -11   6  138.18   20.04
  -2 -11   6  119.42   17.38
  -2 -11   6  142.77   17.12
  -2 -11   6  190.53   23.77
  -2 -11   5 1796.59   73.24
  -2 -11   5 1872.47   74.83
  -2 -11   5 1759.66   72.46
  -2 -11   5 1864.66   76.58
  -2 -11   5 1799.85   69.08
  -2 -11   4 2739.28   93.53
  -2 -11   4 2690.90   97.41
  -2 -11   4 2553.36   93.03
  -2 -11   4 2621.62   89.61
  -2 -11   4 2834.34   96.23
  -2 -11   3 4545.13  122.21
  -2 -11   3 4442.26  124.28
  -2 -11   3 4332.45  112.41
   2 -11  -2 1830.96   71.14
  -2 -11   2 1833.30   76.12
  -2 -11   2 1885.06   78.16
   2 -11  -1 8477.65  163.86
   2 -11   0 2197.73   77.09
   2 -11   0 2106.54   85.62
   2 -11   1  677.71   46.50
   2 -11   1  711.04   47.06
   2 -11   1  698.14   50.80
   2 -11   2 1577.63   72.30
   2 -11   2 1503.65   67.36
   2 -11   3  302.34   31.43
   2 -11   3  360.42   33.41
   2 -11   4 2749.26   77.98
   2 -11   4 2850.89   81.83
   2 -11   5  719.60   37.67
   2 -11   5  671.64   29.11
  -2 -10   8  515.93   28.69
  -2 -10   8  488.39   24.70
  -2 -10   7  376.51   30.87
  -2 -10   7  323.08   30.36
  -2 -10   7  294.91   22.07
  -2 -10   6 1317.18   58.16
  -2 -10   6 1403.24   69.94
  -2 -10   6 1368.33   64.51
  -2 -10   6 1397.09   68.08
  -2 -10   6 1399.53   67.90
  -2 -10   5   -5.80   15.92
  -2 -10   5   22.38   15.39
  -2 -10   5   -5.79   14.06
  -2 -10   5   35.37   16.06
  -2 -10   4  660.14   49.83
  -2 -10   4  684.88   52.86
  -2 -10   3 4252.62  126.86
  -2 -10   3 4393.82  124.65
   2 -10  -2 5952.10  133.94
   2 -10   0  367.22   38.87
   2 -10   0  353.65   34.18
   2 -10   1 2784.17   97.06
   2 -10   1 2701.64  102.51
   2 -10   2 4414.25  130.45
   2 -10   2 4410.61  124.58
   2 -10   2 4670.14  140.95
   2 -10   3 9678.72  180.35
   2 -10   310075.97  204.78
   2 -10   3 9529.41  183.52
   2 -10   4  607.68   48.46
   2 -10   4  578.15   43.56
   2 -10   4  547.08   41.04
   2 -10   5 1060.48   56.79
   2 -10   5 1094.12   53.44
   2 -10   5 1135.11   47.42
   2 -10   6  488.19   30.15
  -2  -9   9 2162.27   55.25
  -2  -9   8  329.40   26.39
  -2  -9   7 1309.28   66.70
  -2  -9   7 1259.67   59.28
  -2  -9   7 1315.95   64.16
  -2  -9   7 1246.70   50.90
  -2  -9   7 1382.95   67.11
  -2  -9   7 1243.60   66.35
  -2  -9   6  190.59   25.26
  -2  -9   6  179.24   27.94
  -2  -9   6  210.82   31.72
  -2  -9   6  203.64   30.51
  -2  -9   6  181.78   30.96
  -2  -9   5 2352.47   95.69
  -2  -9   5 2240.57   88.84
  -2  -9   5 2397.55  100.01
  -2  -9   5 2160.07   95.20
  -2  -9   5 2291.55   94.21
  -2  -9   4  327.40   38.46
  -2  -9   4  343.95   39.41
  -2  -9   3 2250.23   92.52
  -2  -9   3 2317.46  159.69
  -2  -9   2 1466.68  127.26
  -2  -9   1  366.63   65.36
   2  -9   0  550.39   43.28
  -2  -9   0  513.14   73.78
   2  -9   0  534.53   43.89
   2  -9   1 1250.36   74.13
   2  -9   1 1254.53   66.09
   2  -9   1 1281.04   69.01
  -2  -9  -1 1228.23  111.85
   2  -9   2 4025.88  134.39
   2  -9   2 4005.84  125.64
   2  -9   2 3951.20  120.87
   2  -9   2 3941.34  124.17
   2  -9   3 2041.07   92.51
   2  -9   3 2155.16   99.70
   2  -9   3 2128.74   91.76
   2  -9   3 2103.34   88.98
   2  -9   4 5051.07  130.58
   2  -9   4 5326.43  151.78
   2  -9   4 5023.31  135.17
   2  -9   5 2815.35   85.31
   2  -9   5 2922.75   95.50
   2  -9   5 3040.73  106.92
   2  -9   6 2604.76   86.27
   2  -9   7  445.85   24.78
  -2  -8   9  128.76   15.24
  -2  -8   8 6735.31  140.38
  -2  -8   8 6763.55  147.90
  -2  -8   8 6355.69  124.26
  -2  -8   711181.78  186.76
  -2  -8   711146.54  211.21
  -2  -8   711465.01  205.56
  -2  -8   711784.17  210.42
  -2  -8   711152.28  201.06
  -2  -8   6 1747.35   86.27
  -2  -8   6 1773.86   82.22
  -2  -8   6 1821.13   87.39
  -2  -8   6 1862.53   88.59
  -2  -8   6 1855.50   75.71
  -2  -8   5 2747.04  108.54
  -2  -8   5 2865.79  110.51
  -2  -8   5 2867.34  107.62
  -2  -8   4 1267.23  113.64
  -2  -8   4 1193.19   69.31
  -2  -8   4 1213.53   66.44
  -2  -8   3  432.65   66.15
  -2  -8   3  344.02   36.55
  -2  -8   2 7183.06  263.23
  -2  -8   113436.40  354.36
   2  -8   1 6336.53  147.17
   2  -8   1 6369.01  142.89
   2  -8   1 6030.35  135.94
   2  -8   2 4610.00  203.19
   2  -8   2 4783.56  145.33
   2  -8   2 5084.50  137.82
   2  -8   2 5140.29  135.25
   2  -8   2 4980.03  137.24
   2  -8   312392.41  223.82
   2  -8   312585.72  220.23
   2  -8   312914.76  220.49
   2  -8   312955.63  246.97
   2  -8   4  735.64   51.64
   2  -8   4  641.82   50.06
   2  -8   4  733.77   59.98
   2  -8   4  672.33   54.44
   2  -8   4  648.12   54.08
   2  -8   5 6333.89  137.14
   2  -8   5 6481.04  152.24
   2  -8   5 6247.44  147.35
   2  -8   5 6719.07  170.49
   2  -8   6   27.47   16.36
   2  -8   6   20.30   13.07
   2  -8   7 1127.74   51.00
   2  -8   7 1130.09   46.41
   2  -8   7 1053.40   46.66
   2  -8   7  989.43   37.51
  -2  -7  10 1082.34   36.03
  -2  -7   9  440.10   36.53
  -2  -7   8 2495.63   97.94
  -2  -7   8 2313.61   81.86
  -2  -7   8 2378.55   91.00
  -2  -7   7 4366.29  137.26
  -2  -7   7 4266.47  116.80
  -2  -7   7 4152.40  131.10
  -2  -7   7 4261.86  128.79
  -2  -7   6 8856.28  195.39
  -2  -7   6 9255.10  184.88
  -2  -7   6 9436.04  169.60
  -2  -7   6 9045.61  198.73
  -2  -7   6 9119.29  198.98
  -2  -7   5 1351.65   74.12
  -2  -7   5 1310.05  110.38
  -2  -7   5 1363.10   75.52
  -2  -7   4 7958.76  265.17
  -2  -7   4 8159.22  173.72
  -2  -7   3 5679.87  221.14
   2  -7  -2 8443.03  224.61
   2  -7  -113075.95  290.84
   2  -7   0 3281.77  146.69
   2  -7   1  845.15   79.08
   2  -7   2  161.58   26.62
   2  -7   2  169.98   26.32
   2  -7   2  166.66   40.82
   2  -7   2  198.03   28.09
   2  -7   3 1443.40   72.24
   2  -7   3 1559.48   84.17
   2  -7   3 1340.42   68.85
   2  -7   3 1396.18   72.12
   2  -7   3 1477.24   75.64
   2  -7   4  126.36   28.78
   2  -7   4   31.96   14.86
   2  -7   4   25.55   17.75
   2  -7   4   90.78   23.24
   2  -7   4   54.87   18.74
   2  -7   5 4495.59  118.66
   2  -7   5 4653.40  132.94
   2  -7   5 4427.80  133.63
   2  -7   6  838.15   58.86
   2  -7   6  713.12   52.38
   2  -7   7  415.84   35.41
   2  -7   7  345.96   29.30
   2  -7   7  392.10   35.31
   2  -7   8   56.98    8.97
   2  -7   8  187.31   15.75
  -2  -6  10  412.84   29.18
  -2  -6   9 2285.05   88.10
  -2  -6   9 2319.25   75.79
  -2  -6   8 5302.23  126.23
  -2  -6   8 5677.38  144.34
  -2  -6   8 5645.05  154.07
  -2  -6   7  499.79   45.87
  -2  -6   7  543.40   49.32
  -2  -6   7  562.55   43.25
  -2  -6   7  442.85   47.85
  -2  -6   6 3448.59  109.66
  -2  -6   6 3423.30  118.46
  -2  -6   6 3628.77  122.35
  -2  -6   6 3483.42  122.36
  -2  -6   5 9361.31  271.87
  -2  -6   5 9293.79  189.30
  -2  -6   5 9191.75  188.41
  -2  -6   4 3966.35  174.12
   2  -6  -313934.99  271.57
   2  -6  -2 1846.87   99.34
   2  -6  -110254.98  238.37
   2  -6   0 5036.38  176.18
   2  -6   1 6637.77  210.59
   2  -6   2 3976.61  177.02
   2  -6   3 1240.44  108.69
   2  -6   4 1395.03   69.57
   2  -6   4 1426.57  126.00
   2  -6   4 1513.23   77.01
   2  -6   4 1478.71   73.98
   2  -6   4 1403.98   74.02
   2  -6   511034.88  209.10
   2  -6   511272.50  217.47
   2  -6   6 7079.71  172.54
   2  -6   6 6471.90  163.94
   2  -6   7  769.02   49.73
   2  -6   7  757.26   52.39
   2  -6   7  806.39   46.59
   2  -6   8  532.38   35.61
  -2  -5  10   99.46   15.42
  -2  -5  10   80.32   16.58
  -2  -5   9 1392.05   65.39
  -2  -5   9 1224.59   68.60
  -2  -5   8 2890.42  103.15
  -2  -5   8 2992.46  114.31
  -2  -5   712573.44  218.90
  -2  -5   712745.20  236.27
  -2  -5   712372.47  224.99
  -2  -5   6 2743.27  103.43
  -2  -5   6 2803.44  102.59
  -2  -5   5 1264.69   91.12
   2  -5  -4 6982.47  198.61
  -2  -5   4 7129.36  215.42
   2  -5  -3 9036.10  210.43
   2  -5  -2 2008.26   97.71
   2  -5  -125217.66  349.09
   2  -5   0 2037.28  104.94
   2  -5   149603.86  536.91
   2  -5   148550.00  539.67
   2  -5   2  474.55   59.74
   2  -5   3  421.76   61.54
   2  -5   4 1915.38  139.39
   2  -5   4 1831.98   80.73
   2  -5   4 1851.59   83.18
   2  -5   4 1951.24   83.00
   2  -5   517988.23  275.54
   2  -5   518732.69  466.73
   2  -5   518899.32  261.88
   2  -5   519028.00  282.24
   2  -5   6  687.21   55.88
   2  -5   6  656.70   55.86
   2  -5   7 1085.71   60.26
   2  -5   7 1264.19   72.15
   2  -5   8  318.13   31.18
   2  -5   9 1032.46   35.29
  -2  -4  11  182.86   15.10
  -2  -4  11  301.79   21.29
  -2  -4  10  666.17   41.30
  -2  -4  10  617.04   40.41
  -2  -4   9 2899.47  106.30
  -2  -4   8  364.50   37.73
  -2  -4   8  326.93   40.84
  -2  -4   7 7555.80  170.59
   2  -4  -5 2135.95  114.32
  -2  -4   5 2359.98  112.40
  -2  -4   5 2372.72  128.16
  -2  -4   410911.65  238.42
  -2  -4   411697.18  244.65
   2  -4  -411074.96  241.55
   2  -4  -3 2467.55  108.05
   2  -4  -2 6888.13  172.74
   2  -4  -1 7402.64  174.80
   2  -4   0 3244.71  120.61
   2  -4   1 1572.38   90.88
   2  -4   211529.54  268.20
   2  -4   3 7320.65  233.68
   2  -4   4  354.89   59.44
   2  -4   513062.16  218.58
   2  -4   513650.76  236.91
   2  -4   513852.83  391.69
   2  -4   512876.60  215.29
   2  -4   513322.02  234.70
   2  -4   6 6922.27  175.78
   2  -4   6 6677.07  167.66
   2  -4   6 6590.14  175.23
   2  -4   7    5.78   16.21
   2  -4   8 1687.65   72.31
   2  -4   8 1082.46   48.87
   2  -4   9 1780.39   54.83
  -2  -3  11  576.03   30.86
  -2  -3  11  415.50   26.22
  -2  -3  10  886.98   52.40
  -2  -3  10  789.69   46.15
  -2  -3   9  572.05   50.10
  -2  -3   8  332.38   40.58
  -2  -3   714237.14  240.82
  -2  -3   714067.69  223.05
   2  -3  -611594.89  287.51
   2  -3  -5 8007.74  217.19
  -2  -3   5 8133.20  228.13
  -2  -3   414967.40  270.72
   2  -3  -415100.31  269.70
   2  -3  -3 9019.59  199.15
   2  -3  -216106.44  245.57
   2  -3  -154387.06  447.89
   2  -3   0 4868.00  136.81
   2  -3   125995.44  338.15
   2  -3   235891.38  447.72
  -2  -3  -312894.72  238.26
   2  -3   313328.17  301.70
   2  -3   4 3246.47  167.94
   2  -3   5 2532.44  100.50
   2  -3   5 2551.66  164.97
   2  -3   5 2514.63   94.58
   2  -3   5 2442.74   98.67
   2  -3   6 2454.44   99.47
   2  -3   6 2418.57  107.23
   2  -3   6 2353.39  103.94
   2  -3   7  461.82   44.12
   2  -3   7  481.79   48.26
   2  -3   7  527.33   49.61
   2  -3   8  314.80   34.66
   2  -3   8  263.88   25.63
   2  -3   9  901.40   40.30
   2  -3   9  987.73   44.08
  -2  -2  11   -5.00    8.59
  -2  -2  11    8.74    7.85
  -2  -2  10  549.46   38.10
  -2  -2   9   90.11   18.62
  -2  -2   9  103.95   25.37
  -2  -2   828941.16  314.06
  -2  -2   7 6296.99  156.84
   2  -2  -7 6349.68  236.75
   2  -2  -6 1063.14   90.15
   2  -2  -518019.14  326.90
   2  -2  -4 9562.80  212.50
   2  -2  -344329.92  415.04
   2  -2   032377.31  323.16
   2  -2   1 7491.82  167.08
   2  -2   2 7820.78  196.08
  -2  -2  -3 2461.77  108.31
   2  -2   3 2639.58  127.96
   2  -2   4 6931.24  234.64
   2  -2   5 1935.14   85.88
   2  -2   5 1768.42  131.46
   2  -2   5 1825.69   80.52
   2  -2   5 1723.97   80.17
   2  -2   6 2655.35  103.82
   2  -2   6 2785.04  111.16
   2  -2   6 2612.55  172.24
   2  -2   6 2486.54  104.75
   2  -2   7 5956.73  152.67
   2  -2   7 5993.65  162.24
   2  -2   7 5684.04  154.58
   2  -2   8  249.06   30.53
   2  -2   8  288.19   34.91
   2  -2   8  243.90   26.13
   2  -2   9  745.15   37.90
   2  -2   9  818.68   41.55
  -2  -1  11  491.51   32.92
  -2  -1  11  303.75   22.12
  -2  -1  10 1957.77   69.81
  -2  -1   9  768.35   52.66
  -2  -1   9  748.60   53.03
  -2  -1   8 1734.46   80.32
  -2  -1   8 1753.18   72.22
  -2  -1   7  690.64   50.84
   2  -1  -7  521.66   72.23
   2  -1  -6 1499.95  107.24
   2  -1  -5 1523.87   96.84
   2  -1  -4 6393.43  176.20
   2  -1  -3 3291.56  111.07
   2  -1   034125.38  306.45
   2  -1   1 7983.93  156.17
  -2  -1  -2  605.91   50.50
   2  -1   2  552.49   51.50
   2  -1   326588.57  384.82
  -2  -1  -326850.65  365.92
   2  -1   4 3019.70  149.10
  -2  -1  -5 9359.05  262.27
   2  -1   5 8536.86  278.32
   2  -1   6 2912.88  110.51
   2  -1   6 2798.37  110.20
   2  -1   6 2928.42  176.24
   2  -1   6 2944.42  109.52
   2  -1   7   45.36   21.15
   2  -1   7   54.19   18.61
   2  -1   7   47.83   17.29
   2  -1   8   42.09   19.27
   2  -1   8   23.84   18.46
   2  -1   8   17.21   12.53
   2  -1   8   20.27   13.66
   2  -1   9  355.03   28.02
   2  -1   9  394.74   29.49
  -2   0  11  836.51   43.13
  -2   0  10  557.13   40.55
  -2   0   9 1484.13   77.32
  -2   0   9 1473.35   68.07
  -2   0   8    6.07   11.59
   2   0  -8   -6.63   21.82
  -2   0   8    9.69   13.11
  -2   0   8   37.44   18.60
   2   0  -7 7398.87  265.94
   2   0  -6   74.92   27.29
   2   0  -512554.11  272.86
   2   0  -4 2702.21  113.51
   2   0  -3 3820.95  119.64
   2   0   0 7928.11  134.92
   2   0   1  842.05   43.63
   2   0   1  757.00   43.69
  -2   0  -229475.39  359.07
   2   0   229175.05  336.55
   2   0   228892.53  254.38
  -2   0  -3 3356.22  134.42
   2   0   3 3362.28  131.14
   2   0   4 1001.39   82.16
   2   0   5 1926.07  128.12
  -2   0  -5 1952.03  127.73
   2   0   6 5224.67  228.65
   2   0   6 5102.60  129.06
   2   0   6 5590.46  152.53
   2   0   6 5496.56  143.97
   2   0   7   44.67   20.13
   2   0   7   52.77   21.68
   2   0   7   42.49   16.56
   2   0   7   46.72   18.39
   2   0   8   89.71   21.36
   2   0   8  101.97   24.06
   2   0   8   94.77   17.71
   2   0   9  125.47   19.39
   2   0   9  140.10   18.03
   2   0   9  136.07   16.98
  -2   1  11  383.84   29.28
  -2   1  11  248.89   19.71
  -2   1  10 1919.83   76.60
  -2   1   9  713.02   49.35
  -2   1   9  712.24   54.18
   2   1  -8 1694.63  140.15
  -2   1   8 1721.59   84.89
  -2   1   8 1763.54   78.15
   2   1  -7  768.33   87.85
  -2   1   7  678.52   47.29
  -2   1   7  732.64   47.69
   2   1  -6 1375.54  105.66
   2   1  -5 1513.98   97.13
   2   1  -4 6752.81  179.96
   2   1  -3 3413.47  112.74
   2   1   034248.12  253.43
  -2   1  -1 8116.22  173.76
   2   1   1 7934.71  123.87
   2   1   1 7903.81  140.77
   2   1   1 7527.77  144.32
   2   1   2  601.71   43.91
   2   1   2  557.07   44.59
  -2   1  -2  589.99   54.60
   2   1   326612.13  352.38
   2   1   4 3004.42  136.92
  -2   1  -5 8986.45  281.37
   2   1   5 8738.77  260.39
   2   1   6 2847.41  103.40
   2   1   6 3037.89  114.21
   2   1   6 2831.95   97.86
   2   1   6 2840.48  102.46
  -2   1  -6 2972.49  171.55
   2   1   7   50.60   22.91
   2   1   7   33.05   14.89
   2   1   7   48.44   18.31
   2   1   8   20.31   15.27
   2   1   8   14.16   14.06
   2   1   8   17.06   11.38
   2   1   8   41.44   16.62
   2   1   9  351.83   29.88
   2   1   9  363.08   26.99
  -2   2  11    0.40    7.04
  -2   2  11    4.53    7.27
  -2   2  10  634.84   45.41
  -2   2   9   71.37   17.66
  -2   2   9   74.01   22.00
  -2   2   9   72.28   21.28
  -2   2   828284.19  290.91
  -2   2   828136.19  343.65
  -2   2   828181.29  318.54
  -2   2   7 6195.69  132.22
  -2   2   7 6350.22  151.52
  -2   2   7 6574.32  145.04
   2   2  -7 6538.25  256.67
   2   2  -6 1240.28  102.14
   2   2  -6 1193.89   96.64
   2   2  -518057.60  343.49
   2   2  -517911.71  337.61
   2   2  -4 9661.60  221.88
   2   2  -344641.54  421.15
   2   2   032770.98  220.54
   2   2   032009.51  323.82
   2   2   1 7567.66  121.21
   2   2   1 7206.64  158.88
  -2   2  -1 7508.69  173.35
   2   2   2 7536.22  147.77
  -2   2  -2 7534.62  196.84
   2   2   2 7455.06  169.47
  -2   2  -3 2542.80  109.60
   2   2   3 2475.15  101.88
   2   2   4 6921.94  195.95
   2   2   5 1616.50   72.78
  -2   2  -5 1702.51  127.57
   2   2   5 1674.25   75.33
   2   2   6 2558.53   97.96
   2   2   6 2477.24   97.52
  -2   2  -6 2516.02  166.00
   2   2   6 2515.29   93.84
   2   2   7 5672.80  136.96
   2   2   7 5420.72  146.87
   2   2   7 5508.70  132.63
   2   2   8  247.32   32.19
   2   2   8  266.58   31.14
   2   2   9  694.48   39.49
   2   2   9  772.45   37.14
  -2   3  11  507.47   27.66
  -2   3  10  863.61   41.67
  -2   3  10  856.45   51.18
  -2   3   9  621.33   43.10
  -2   3   9  631.77   52.32
  -2   3   9  617.30   48.18
  -2   3   8  372.06   35.79
  -2   3   8  334.06   40.29
  -2   3   8  321.00   37.04
  -2   3   714388.27  211.36
   2   3  -714614.20  397.31
  -2   3   714520.37  236.05
  -2   3   714694.45  239.49
  -2   3   714490.67  222.90
   2   3  -611757.39  316.71
   2   3  -611857.47  321.56
   2   3  -5 8154.62  239.85
   2   3  -5 7689.16  231.32
   2   3  -414661.32  297.41
   2   3  -414676.53  283.44
   2   3  -3 9219.80  199.66
   2   3  -216200.68  228.80
   2   3  -157664.23  361.19
   2   3  -157630.91  472.79
   2   3   0 4712.94  136.42
   2   3   0 4481.75   53.39
  -2   3   0 4762.24  129.66
   2   3   0 4769.96   69.76
  -2   3  -125745.14  337.79
   2   3   126438.15  333.35
   2   3   236175.41  418.29
  -2   3  -313179.46  277.04
  -2   3  -4 3220.21  166.93
   2   3   5 2529.84   92.09
  -2   3  -5 2415.00  158.29
   2   3   5 2393.23   91.58
   2   3   5 2417.55   96.39
   2   3   5 2360.04   92.53
   2   3   6 2408.66   95.78
   2   3   6 2281.79   98.08
   2   3   6 2370.41   93.75
   2   3   6 2301.82   93.53
   2   3   7  408.21   39.29
   2   3   7  498.44   46.18
   2   3   7  490.32   47.30
   2   3   8  383.90   36.85
   2   3   8  326.45   32.63
   2   3   9  872.27   41.41
  -2   3  -9  909.69   37.90
  -2   4  11  409.79   22.97
  -2   4  10  594.18   34.32
  -2   4  10  588.04   38.75
  -2   4  10  585.74   41.46
  -2   4   9 3120.01   94.56
  -2   4   9 3055.70  107.43
  -2   4   9 3096.47  102.51
  -2   4   8  421.22   38.86
  -2   4   8  308.57   39.55
  -2   4   8  368.76   39.68
  -2   4   7 7797.10  160.80
  -2   4   7 7906.97  179.42
  -2   4   7 8234.60  180.33
  -2   4   7 7913.51  169.80
   2   4  -7 8327.52  301.34
   2   4  -6  430.37   64.84
   2   4  -6  438.87   66.91
   2   4  -5 2562.96  144.27
   2   4  -5 2423.91  136.59
   2   4  -410895.23  256.33
   2   4  -411827.37  236.28
   2   4  -3 2423.41  108.07
   2   4  -3 2765.66  112.84
   2   4  -2 7529.42  182.80
  -2   4   2 7265.97  116.60
   2   4  -1 7056.90  130.22
  -2   4   1 6915.34  141.55
   2   4  -1 7165.30  180.71
   2   4   0 3268.01  127.50
   2   4   1 1567.89   90.27
  -2   4  -211293.94  268.06
  -2   4  -3 7486.66  228.95
  -2   4  -4  378.74   62.03
  -2   4  -4  319.98   50.83
   2   4   513393.31  213.90
   2   4   512918.68  225.22
  -2   4  -513887.37  393.23
   2   4   513138.78  223.24
   2   4   513720.13  233.31
   2   4   6 6449.81  157.60
   2   4   6 6631.41  156.31
   2   4   6 6792.26  168.35
   2   4   7   15.46   17.43
   2   4   7    7.12   16.38
   2   4   7   37.90   16.45
   2   4   7   -0.24   10.84
   2   4   8 1696.93   67.22
   2   4   8 1767.59   72.26
   2   4   9 1452.80   47.05
  -2   4  -9 1612.39   48.09
  -2   4  -9 1536.73   51.65
  -2   5  10  103.65   15.31
  -2   5  10  128.80   19.71
  -2   5  10  117.85   18.31
  -2   5   9 1197.89   58.82
  -2   5   9 1268.57   66.09
  -2   5   9 1270.73   64.62
  -2   5   8 2848.27   98.67
  -2   5   8 2835.87  107.27
  -2   5   8 2942.75  104.80
  -2   5   712585.12  211.29
  -2   5   712980.70  221.17
  -2   5   6 2616.17  101.03
  -2   5   6 2524.25   94.96
  -2   5   6 2614.20   96.77
   2   5  -6 2662.56  162.90
   2   5  -5 1226.77  102.22
   2   5  -4 6965.54  216.55
   2   5  -4 7638.90  196.49
   2   5  -3 9202.61  221.02
   2   5  -3 9079.87  217.53
  -2   5   3 9171.97  221.73
   2   5  -2 2039.23  104.43
  -2   5   2 1875.98  106.30
   2   5  -2 2038.26   90.61
   2   5  -125924.56  375.58
  -2   5   125255.11  390.67
   2   5   0 2432.87  120.59
  -2   5   0 2250.35  123.06
   2   5   147053.63  552.04
  -2   5  -149308.15  583.84
  -2   5  -2  532.23   65.07
  -2   5  -3  388.46   59.59
  -2   5  -3  424.06   61.55
   2   5   4 1887.49   75.64
  -2   5  -4 1932.94  130.42
  -2   5  -4 1796.12  135.14
   2   5   4 1792.04   80.02
   2   5   4 1887.99   83.35
   2   5   4 1851.42   84.28
   2   5   518699.06  254.40
  -2   5  -519186.37  474.92
   2   5   518692.82  265.90
   2   5   518032.03  276.64
   2   5   518299.24  253.50
   2   5   6  656.62   51.63
   2   5   6  704.64   52.30
   2   5   6  668.79   54.78
   2   5   7 1254.89   66.41
   2   5   7 1385.61   68.88
   2   5   7 1319.37   68.08
   2   5   7 1209.44   61.80
   2   5   8  311.11   27.58
  -2   5  -9  698.50   30.79
  -2   5  -9  808.36   30.21
  -2   6  10  446.92   26.57
  -2   6   9 2317.29   77.25
  -2   6   9 2354.02   82.89
  -2   6   8 5649.32  138.18
  -2   6   8 5613.45  141.54
  -2   6   8 5545.39  141.96
  -2   6   7  554.14   46.49
  -2   6   7  556.15   47.49
  -2   6   7  536.80   47.32
  -2   6   6 3552.86  119.83
  -2   6   6 3525.94  113.16
  -2   6   6 3172.38  109.76
   2   6  -6 3708.69  197.34
   2   6  -5 9535.79  292.45
  -2   6   5 9005.71  176.04
  -2   6   5 9021.48  179.92
   2   6  -4 3937.80  170.98
  -2   6   313941.94  300.25
   2   6  -314106.55  290.59
   2   6  -313750.54  285.80
  -2   6   2 1587.86  105.93
   2   6  -2 1942.98  109.40
  -2   6   1 9815.59  270.22
   2   6  -110047.21  258.23
  -2   6   0 4849.75  156.60
  -2   6   0 5198.07  201.38
   2   6   0 5285.48  192.93
  -2   6  -1 6154.96  198.50
  -2   6  -1 6428.14  233.33
  -2   6  -2 3979.71  177.19
  -2   6  -2 4407.58  201.29
  -2   6  -3 1243.21  108.98
  -2   6  -3 1341.94  116.15
   2   6   4 1459.28   76.81
   2   6   4 1602.64   70.93
  -2   6  -4 1564.14  124.97
   2   6   4 1520.39   77.79
   2   6   4 1519.23   74.66
   2   6   4 1575.99   77.68
  -2   6  -4 1506.43  129.65
   2   6   511291.02  197.36
   2   6   511407.72  211.47
   2   6   511435.81  220.34
   2   6   511645.13  205.68
   2   6   6 6216.59  146.68
   2   6   6 6187.90  154.12
   2   6   7  757.18   47.60
   2   6   7  761.38   45.67
   2   6   7  739.35   45.80
  -2   6  -8  607.63   38.07
   2   6   8  513.66   28.53
  -2   6  -8  576.89   38.09
  -2   7  10 1139.62   35.04
  -2   7   9  442.33   32.55
  -2   7   9  434.24   33.50
  -2   7   8 2509.51   88.59
  -2   7   8 2395.38   88.58
  -2   7   8 2326.74   84.22
  -2   7   7 4356.35  125.73
  -2   7   7 4269.53  120.01
  -2   7   7 4203.34  124.24
  -2   7   6 9192.72  186.47
  -2   7   5 1382.21   71.78
  -2   7   5 1384.83   72.13
   2   7  -5 1412.66  117.36
  -2   7   5 1316.44   65.40
  -2   7   4 8396.08  169.22
  -2   7   4 7804.32  158.05
   2   7  -4 7796.96  251.89
  -2   7   3 5783.84  210.02
   2   7  -3 6159.73  206.26
  -2   7   2 8213.55  262.89
   2   7  -2 8848.58  257.05
  -2   7   113151.57  343.99
  -2   7   0 3309.83  178.09
  -2   7  -1  829.99   93.19
  -2   7  -1  860.49   77.97
  -2   7  -2  155.59   39.81
  -2   7  -2  215.52   50.36
   2   7   2  204.66   30.47
   2   7   2  170.97   26.60
   2   7   2  126.65   25.11
  -2   7  -2  187.39   29.93
  -2   7  -3 1477.77  129.45
  -2   7  -3 1332.35  119.15
   2   7   3 1423.60   75.23
   2   7   3 1389.75   74.96
   2   7   3 1421.19   76.51
  -2   7  -3 1464.50   82.87
   2   7   4   46.11   15.83
   2   7   4   40.24   17.53
   2   7   4   33.61   15.65
   2   7   4   53.56   20.60
   2   7   5 4333.11  120.04
   2   7   5 4337.71  127.58
   2   7   5 4643.91  127.19
   2   7   5 4442.80  137.68
   2   7   6  742.31   48.45
   2   7   6  717.60   50.97
  -2   7  -6  713.48   57.58
  -2   7  -7  403.53   36.15
   2   7   7  426.34   31.93
  -2   7  -7  402.93   37.59
  -2   7  -8  185.78   18.66
  -2   7  -8  196.23   20.38
  -2   8   9  119.76   16.43
  -2   8   9  105.02   15.69
  -2   8   8 6708.44  134.45
  -2   8   8 6612.03  132.40
  -2   8   711830.99  200.25
  -2   8   711507.09  194.25
  -2   8   6 1691.62   78.97
  -2   8   5 2917.27  109.12
  -2   8   5 2944.75   98.54
   2   8  -4 1171.58   70.01
  -2   8   4 1386.34   72.98
  -2   8   4 1285.93   67.42
   2   8  -3  317.84   37.62
  -2   8   3  319.85   36.07
  -2   8   3  335.00   35.37
  -2   8   3  325.75   35.80
  -2   8   2 7098.08  158.65
  -2   8   2 7131.78  265.42
  -2   8   114276.21  220.41
  -2   8   113453.92  375.50
  -2   8   0  408.04   38.59
   2   8   0  445.21   40.86
  -2   8  -1 6594.02  158.81
   2   8   1 6534.79  159.21
   2   8   1 6556.53  158.52
  -2   8  -1 6269.15  150.70
  -2   8  -1 6688.09  163.69
  -2   8  -1 6517.13  277.28
   2   8   1 6203.25  151.20
   2   8   1 6572.43  161.32
  -2   8  -2 5035.37  144.03
   2   8   2 4994.04  145.26
  -2   8  -2 5211.81  250.61
  -2   8  -2 4772.13  137.72
   2   8   2 5021.24  143.23
   2   8   2 5096.00  145.52
  -2   8  -2 5201.99  150.77
  -2   8  -312271.38  224.65
   2   8   312455.03  230.46
   2   8   312380.02  228.62
   2   8   312497.02  235.49
  -2   8  -313181.37  244.47
  -2   8  -4  722.15   57.12
   2   8   4  767.13   57.03
   2   8   4  723.82   58.79
  -2   8  -4  708.60   59.13
   2   8   5 6138.06  133.11
  -2   8  -5 6095.44  156.55
   2   8   5 6272.67  146.73
   2   8   5 6447.76  159.33
  -2   8  -5 6352.84  167.71
   2   8   6   26.32   11.85
  -2   8  -6   35.34   15.54
   2   8   6   10.95   13.00
  -2   8  -6    8.70   17.18
  -2   8  -7  989.81   49.12
  -2   8  -7 1033.01   49.56
  -2   8  -7 1158.61   54.36
  -2   9   9 2403.00   53.02
   2   9  -8  265.31   24.25
  -2   9   8  317.78   27.82
  -2   9   8  298.81   25.42
   2   9  -7 1216.87   61.45
  -2   9   7 1431.79   65.36
  -2   9   7 1347.47   60.07
   2   9  -6  138.94   26.74
  -2   9   6  178.93   26.16
   2   9  -5 2175.14   96.05
  -2   9   5 2292.40   89.26
  -2   9   5 2417.08   86.81
   2   9  -4  340.87   40.65
  -2   9   4  339.67   39.22
  -2   9   4  382.86   38.51
   2   9  -3 2322.67   99.28
  -2   9   3 2418.43   99.27
  -2   9   3 2213.58   93.57
  -2   9   3 2478.81   96.54
   2   9  -2 1518.59   79.68
  -2   9   2 1550.04   77.02
  -2   9   2 1543.64  129.41
  -2   9   2 1609.97   79.06
  -2   9   1  376.22   69.47
  -2   9   1  351.81   38.16
   2   9  -1  411.50   40.24
   2   9  -1  380.95   41.89
  -2   9   1  347.11   38.39
  -2   9   0  629.49   51.20
  -2   9   0  590.87   47.81
  -2   9   0  556.55   84.58
   2   9   0  564.08   49.15
   2   9   0  570.72   48.23
   2   9   0  549.02   48.67
  -2   9  -1 1363.66   76.45
  -2   9  -1 1369.56  133.98
  -2   9  -1 1332.66   71.24
  -2   9  -1 1172.62   67.34
   2   9   1 1335.18   76.02
   2   9   1 1343.59   76.37
  -2   9  -1 1323.44   77.69
  -2   9  -2 4035.81  131.90
  -2   9  -2 3923.93  117.74
   2   9   2 4044.62  132.81
   2   9   2 3871.72  132.13
  -2   9  -2 3589.77  120.32
  -2   9  -2 3980.04  135.87
  -2   9  -3 2146.54   97.18
  -2   9  -3 2117.69   82.73
  -2   9  -3 1993.09   90.83
   2   9   3 2072.64   95.48
   2   9   3 2042.99   96.24
  -2   9  -3 2123.52   99.82
  -2   9  -4 5203.53  147.41
  -2   9  -4 4934.41  138.94
   2   9   4 5108.23  140.42
   2   9   4 5193.06  147.87
  -2   9  -4 5388.66  151.69
  -2   9  -5 2911.91  103.29
  -2   9  -5 2848.11   99.26
   2   9   5 2760.68   91.71
   2   9   5 2968.45  103.23
  -2   9  -5 3139.83  109.04
  -2   9  -6 2593.71   84.98
  -2   9  -6 2549.81   81.46
   2   9   6 2658.15   81.09
  -2   9  -6 2713.57   89.70
  -2   9  -7  650.03   32.03
  -2   9  -7  686.80   32.68
  -2   9  -7  622.44   34.01
  -2  10   8  506.06   27.43
   2  10  -7  291.52   26.55
  -2  10   7  343.32   29.68
  -2  10   7  331.72   25.52
   2  10  -6 1246.15   62.92
  -2  10   6 1367.86   63.32
  -2  10   6 1316.43   56.62
   2  10  -5   23.21   18.05
  -2  10   5   19.83   13.07
  -2  10   5   12.79   11.11
   2  10  -4  693.93   54.51
  -2  10   4  701.36   53.56
  -2  10   4  710.15   50.76
  -2  10   4  655.89   44.87
   2  10  -3 4125.26  131.15
  -2  10   3 4373.61  132.08
  -2  10   3 4273.95  127.50
  -2  10   2 5823.90  152.56
  -2  10   2 5968.91  151.90
  -2  10   2 5668.27  148.65
   2  10  -2 5586.48  153.22
  -2  10   1  873.10   59.36
   2  10  -1  880.25   58.07
   2  10  -1  791.86   59.13
  -2  10   1  814.80   58.39
  -2  10   0  486.98   45.71
  -2  10   0  380.94   40.87
   2  10   0  360.72   41.59
   2  10   0  329.06   39.78
  -2  10  -1 2655.57  106.75
  -2  10  -1 2848.05  103.66
   2  10   1 2927.68  111.92
  -2  10  -2 4509.30  138.86
  -2  10  -2 4466.32  124.25
  -2  10  -2 4450.36  127.40
   2  10   2 4312.59  139.10
   2  10   2 4513.98  139.73
  -2  10  -3 9501.00  195.90
  -2  10  -3 9380.74  167.36
  -2  10  -3 9319.85  183.48
   2  10   3 9527.52  198.19
   2  10   3 9804.07  201.64
  -2  10  -3 9852.81  205.34
  -2  10  -4  644.06   50.07
  -2  10  -4  554.20   43.71
   2  10   4  611.19   46.60
   2  10   4  659.67   50.57
  -2  10  -4  547.91   48.26
  -2  10  -5 1214.18   59.05
  -2  10  -5 1159.46   55.10
   2  10   5 1165.18   53.25
  -2  10  -5 1143.62   60.99
  -2  10  -6  495.08   30.95
  -2  10  -6  486.77   28.97
  -2  11   7  877.92   36.08
  -2  11   6  143.89   19.83
   2  11  -6  134.07   19.09
   2  11  -5 1739.24   72.11
   2  11  -4 2497.74   93.52
  -2  11   4 2763.09   95.51
  -2  11   4 2601.30   88.44
  -2  11   3 4419.27  126.48
  -2  11   3 4347.72  122.21
   2  11  -3 4147.65  126.69
  -2  11   2 1835.44   85.06
  -2  11   2 1822.31   82.62
  -2  11   2 1884.14   83.38
   2  11  -2 1787.69   82.96
   2  11  -1 8480.95  169.17
  -2  11   1 8491.72  179.87
   2  11  -1 8110.32  177.55
  -2  11   1 8543.41  179.44
  -2  11   0 2208.10   92.57
   2  11   0 2281.17   94.04
  -2  11   0 2306.83   94.20
  -2  11  -1  650.79   50.91
  -2  11  -1  638.70   48.24
   2  11   1  661.29   53.03
  -2  11  -2 1492.71   75.15
  -2  11  -2 1510.34   69.53
   2  11   2 1585.60   78.62
  -2  11  -3  329.09   35.21
  -2  11  -3  390.23   32.01
   2  11   3  388.05   38.08
  -2  11  -4 2859.81   87.34
   2  11   4 2746.54   86.47
  -2  11  -5  679.69   36.29
  -2  12   6 1428.88   40.48
  -2  12   5 3272.92   75.18
   2  12  -5 3284.35   78.90
  -2  12   4 1378.32   54.07
   2  12  -4 1314.07   57.22
  -2  12   3  971.28   53.68
  -2  12   3  916.09   50.73
   2  12  -3  802.67   49.69
  -2  12   2  603.82   45.06
  -2  12   2  596.41   44.47
  -2  12   2  554.46   37.63
   2  12  -2  579.76   43.94
  -2  12   1 1341.70   66.89
   2  12  -1 1339.71   58.55
  -2  12   1 1385.72   68.74
   2  12  -1 1297.91   65.13
  -2  12   1 1323.42   66.55
   2  12   0  620.04   38.90
   2  12   0  646.78   45.37
  -2  12   0  641.67   45.85
  -2  12   0  614.74   45.88
  -2  12  -1 1026.20   55.10
   2  12   1  987.75   56.33
  -2  12  -1 1061.16   57.70
  -2  12  -2  498.25   35.61
   2  12   2  507.68   39.90
  -2  12  -2  454.29   36.94
  -2  12  -3  839.58   38.85
   2  12   3  960.45   49.63
  -2  12  -3  883.74   45.71
  -2  12  -4  445.41   27.73
   2  13  -5 2603.80   57.42
   2  13  -4  451.33   24.53
  -2  13   3 1056.55   43.50
  -2  13   2 2246.45   68.93
  -2  13   2 2231.47   69.82
   2  13  -2 2161.52   68.10
  -2  13   1  100.02   18.95
   2  13  -1  146.10   18.66
  -2  13   1  166.70   21.51
  -2  13   1  157.43   17.49
  -2  13   0  115.83   18.24
  -2  13   0  167.93   21.52
  -2  13   0  144.44   20.02
  -2  13  -1  899.44   43.16
  -2  13  -1  878.03   42.49
  -2  13  -2  180.25   17.63
  -2  13  -2  172.57   18.72
  -2  13  -3   -0.36    6.22
  -2  14   2  271.93   17.44
  -2  14   1  516.94   26.54
  -2  14   0   27.82    7.84
  -3 -13   4 2801.39   57.74
  -3 -13   4 2937.63   59.55
   3 -13  -3  383.84   23.50
  -3 -13   3  348.57   24.52
  -3 -13   3  351.07   22.91
   3 -13  -2 5682.23   99.14
  -3 -13   2 4919.09   82.22
   3 -13  -1 1887.67   58.44
   3 -13  -1 1669.32   43.66
   3 -13   0  494.54   28.41
   3 -13   0  483.99   26.12
   3 -13   1   88.15   10.70
   3 -13   1   97.06   12.49
   3 -13   2  865.44   28.67
  -3 -12   6  547.80   25.99
  -3 -12   6  540.87   26.75
  -3 -12   5  579.94   33.26
  -3 -12   5  559.21   29.78
  -3 -12   5  605.86   33.44
  -3 -12   5  571.79   32.20
  -3 -12   4 1934.74   66.75
  -3 -12   4 1927.11   64.50
  -3 -12   4 1955.27   63.50
  -3 -12   4 2046.92   66.15
   3 -12  -4 2062.90   60.82
   3 -12  -3  132.15   20.19
  -3 -12   3  138.84   18.09
  -3 -12   3  134.18   19.90
  -3 -12   3  149.17   19.09
   3 -12  -1 3939.24   90.98
   3 -12   0   86.49   19.21
   3 -12   0   92.49   17.44
   3 -12   1 1125.36   50.11
   3 -12   1 1121.34   49.57
   3 -12   2  436.64   29.79
   3 -12   2  410.14   25.95
   3 -12   3  405.94   23.44
   3 -12   3  488.99   26.47
  -3 -11   7  576.94   30.18
  -3 -11   6   67.72   12.05
  -3 -11   6   52.31   12.99
  -3 -11   6   27.35   12.67
  -3 -11   6   29.61   11.39
  -3 -11   6   34.41   12.64
  -3 -11   5  243.86   27.87
  -3 -11   5  290.32   29.78
  -3 -11   5  268.82   29.96
  -3 -11   5  282.03   27.61
  -3 -11   5  242.83   24.51
   3 -11  -4  950.17   50.49
  -3 -11   4  856.44   51.65
  -3 -11   4  874.01   47.59
  -3 -11   3  449.44   38.02
   3 -11  -2  187.91   22.44
  -3 -11   2  187.58   25.03
   3 -11  -1 3380.78   98.82
   3 -11   0 1073.50   58.66
   3 -11   1  820.26   48.03
   3 -11   1  854.11   51.77
   3 -11   1  817.83   44.19
   3 -11   2  108.22   19.50
   3 -11   2   95.53   17.73
   3 -11   2  104.60   20.28
   3 -11   2  113.87   18.92
   3 -11   3  553.98   35.64
   3 -11   3  547.60   36.72
   3 -11   4  257.49   22.29
   3 -11   4  233.49   18.96
  -3 -10   8 3195.71   63.09
  -3 -10   7  382.82   27.79
  -3 -10   7  393.83   31.68
  -3 -10   7  340.45   30.15
  -3 -10   7  384.57   32.06
  -3 -10   6  560.95   35.81
  -3 -10   6  615.26   45.16
  -3 -10   6  589.98   43.95
  -3 -10   6  634.86   42.91
  -3 -10   5  405.07   38.40
  -3 -10   5  413.68   38.45
  -3 -10   5  402.77   39.95
  -3 -10   4 2808.00  103.37
  -3 -10   4 2988.26  101.12
  -3 -10   3 5274.49  129.73
   3 -10  -212818.10  192.35
   3 -10  -1 1736.06   76.35
   3 -10   0  736.35   51.90
   3 -10   0  791.40   50.85
   3 -10   0  827.77   47.59
   3 -10   1  936.57   58.99
   3 -10   1  882.11   56.27
   3 -10   1  892.13   52.01
   3 -10   2 4224.05  120.26
   3 -10   2 4189.11  112.71
   3 -10   2 4089.85  120.36
   3 -10   3  982.93   54.52
   3 -10   3  957.75   56.54
   3 -10   3  958.42   53.56
   3 -10   4 4004.89  103.81
   3 -10   4 3962.63   93.39
   3 -10   5 1154.46   46.17
   3 -10   5  964.66   32.67
  -3  -9   9  145.34   14.22
  -3  -9   8  323.85   26.58
  -3  -9   8  377.86   31.56
  -3  -9   7  272.49   27.48
  -3  -9   7  312.06   32.76
  -3  -9   7  284.41   31.44
  -3  -9   7  306.63   33.11
  -3  -9   7  316.50   31.64
  -3  -9   6 5262.39  132.27
  -3  -9   6 5385.54  119.22
  -3  -9   6 5551.80  135.17
  -3  -9   6 5478.94  142.71
  -3  -9   6 5500.13  143.98
  -3  -9   5 1533.16   78.63
  -3  -9   4 2007.58   88.36
  -3  -9   3 1729.77   78.73
   3  -9  -215597.18  217.22
   3  -9  -110278.04  186.41
   3  -9   0 5971.18  147.68
   3  -9   0 5952.57  146.10
   3  -9   0 6074.48  133.57
   3  -9   1 5435.72  132.92
   3  -9   1 5360.07  143.33
   3  -9   2 1805.07   90.76
   3  -9   2 1685.44   80.78
   3  -9   2 1721.73   78.62
   3  -9   3 2176.41   87.83
   3  -9   3 2346.80  100.44
   3  -9   3 2220.22   88.11
   3  -9   4  891.55   59.22
   3  -9   4  962.48   57.58
   3  -9   4  839.84   49.57
   3  -9   5   76.00   17.15
   3  -9   5   80.85   13.84
   3  -9   6  144.05   15.53
  -3  -8   9 1803.19   57.10
  -3  -8   9 1806.67   61.55
  -3  -8   9 1659.17   47.36
  -3  -8   8 7114.98  136.75
  -3  -8   8 7086.16  146.70
  -3  -8   8 7251.46  148.90
  -3  -8   7 1129.52   63.78
  -3  -8   7 1078.27   56.92
  -3  -8   7 1142.54   66.06
  -3  -8   7 1115.92   65.67
  -3  -8   6  901.56   62.25
  -3  -8   6  919.55   52.09
  -3  -8   6  889.48   57.63
  -3  -8   6  929.13   62.07
  -3  -8   6  962.64   62.17
  -3  -8   5 2132.04   94.79
  -3  -8   5 2285.38   92.47
  -3  -8   4 1407.17   75.68
  -3  -8   4 1209.24  115.25
  -3  -8   3  852.63   97.11
  -3  -8   3  852.05   56.80
   3  -8  -213247.82  332.98
   3  -8  -213177.64  199.31
   3  -8  -1 2447.75   89.26
   3  -8  -1 2474.06   89.25
   3  -8   010428.46  192.68
   3  -8   010330.30  173.97
   3  -8   0 9898.69  301.07
   3  -8   1 1896.30   93.19
   3  -8   1 1915.66   84.47
   3  -8   1 1670.71  129.31
   3  -8   1 1772.80   77.14
   3  -8   2 2009.60   86.74
   3  -8   2 2336.48  103.90
   3  -8   2 2257.09   94.31
   3  -8   3 1770.45   82.24
   3  -8   3 1718.63   89.59
   3  -8   3 1701.21   80.43
   3  -8   4 7564.94  157.33
   3  -8   4 7865.49  182.86
   3  -8   4 8023.16  167.83
   3  -8   5 7996.43  166.58
   3  -8   5 7827.15  158.67
   3  -8   5 7575.10  133.29
   3  -8   6  234.92   22.60
  -3  -7  10 1720.29   44.61
  -3  -7   9  540.40   40.13
  -3  -7   9  497.45   34.43
  -3  -7   8 1843.45   74.75
  -3  -7   8 1607.47   70.03
  -3  -7   8 1861.03   80.55
  -3  -7   8 1912.00   84.27
  -3  -7   7 3528.31  123.08
  -3  -7   7 3775.85  108.19
  -3  -7   7 3623.91  118.91
  -3  -7   7 3661.69  124.03
  -3  -7   6 1379.22   77.31
  -3  -7   6 1316.96   74.02
  -3  -7   5 2720.40  107.53
  -3  -7   5 3009.73  168.34
  -3  -7   5 2909.98  105.45
  -3  -7   4 1693.16  127.96
  -3  -7   4 1765.01   83.66
   3  -7  -3 1747.92  117.27
  -3  -7   3 1719.06   78.27
   3  -7  -2 2806.73  148.73
   3  -7  -1  452.08   62.70
   3  -7   0 3290.71  103.78
   3  -7   0 3245.54  167.19
   3  -7   1 2758.31  162.65
   3  -7   1 2700.84   92.92
   3  -7   1 2761.34   99.57
   3  -7   2  141.48   27.01
   3  -7   2  102.22   38.58
   3  -7   2  169.79   29.50
   3  -7   2  111.79   24.67
   3  -7   3  998.66   62.31
   3  -7   3  985.35   68.56
   3  -7   3  894.26   60.87
   3  -7   3  872.04   60.11
   3  -7   4 2450.09   94.38
   3  -7   4 2508.87  106.22
   3  -7   4 2414.58   97.41
   3  -7   4 2338.72   96.89
   3  -7   512535.58  220.68
   3  -7   511890.09  205.51
   3  -7   511742.69  180.93
   3  -7   511840.86  208.60
   3  -7   511905.50  187.70
   3  -7   6 1137.08   57.50
   3  -7   6 1049.95   52.39
   3  -7   6 1073.79   50.56
   3  -7   7  624.80   28.66
  -3  -6  10 1529.51   56.82
  -3  -6   9 2760.42   85.08
  -3  -6   9 2765.84   96.86
  -3  -6   8 4431.96  118.30
  -3  -6   8 4424.68  128.70
  -3  -6   8 4429.67  135.10
  -3  -6   7  351.06   37.72
  -3  -6   7  362.68   41.67
  -3  -6   7  390.64   43.31
  -3  -6   6 1726.50   87.44
  -3  -6   6 1863.03   88.30
  -3  -6   5 1811.76   85.58
  -3  -6   5 1738.23  122.76
   3  -6  -4  286.76   47.66
   3  -6  -3 6056.69  209.94
   3  -6  -2 4305.12  176.93
   3  -6  -1  787.29   78.89
   3  -6   0  538.08   67.04
   3  -6   1  846.25   86.83
   3  -6   2 5427.06  138.82
   3  -6   2 5054.19  143.15
   3  -6   2 5278.86  229.29
   3  -6   2 5273.18  133.96
   3  -6   2 5328.18  137.38
   3  -6   3 1058.22   63.54
   3  -6   3  934.19   65.52
   3  -6   3 1101.83   64.65
   3  -6   3 1076.16  109.42
   3  -6   3 1011.84   64.10
   3  -6   4 3612.45  127.48
   3  -6   4 3376.56  119.56
   3  -6   4 3464.58  117.74
   3  -6   4 3497.16  111.83
   3  -6   5 1458.82   77.91
   3  -6   5 1307.07   72.23
   3  -6   5 1400.63   64.94
   3  -6   5 1258.96   73.34
   3  -6   6  307.23   33.09
   3  -6   6  268.90   29.29
   3  -6   6  304.48   34.63
   3  -6   7  248.42   24.56
  -3  -5  10  712.50   35.43
  -3  -5  10  923.68   49.20
  -3  -5   9 1914.61   71.93
  -3  -5   9 1876.29   72.68
  -3  -5   9 1785.48   83.12
  -3  -5   8  459.70   39.79
  -3  -5   8  503.67   45.55
  -3  -5   8  491.97   48.57
  -3  -5   7 2168.03   91.26
  -3  -5   7 2327.70   99.27
  -3  -5   6 5998.20  156.13
  -3  -5   6 6545.80  162.18
   3  -5  -5  785.11   81.36
  -3  -5   5  803.57   77.74
   3  -5  -4 9648.98  263.43
   3  -5  -3 8727.38  240.24
   3  -5  -2 7643.68  219.54
   3  -5  -1 3173.01  144.68
   3  -5   0 6069.36  204.80
   3  -5   1 3637.58  169.16
   3  -5   1 3759.83  168.93
   3  -5   2 4386.98  199.99
   3  -5   3  861.01   54.34
   3  -5   3  761.84   53.46
   3  -5   3  759.13   55.63
   3  -5   3  736.29   89.67
   3  -5   3  791.92   55.54
   3  -5   4 5831.32  158.38
   3  -5   4 5765.50  257.31
   3  -5   4 5750.48  156.60
   3  -5   4 5699.05  140.02
   3  -5   5 4282.36  132.88
   3  -5   5 4080.09  125.77
   3  -5   5 4188.77  135.18
   3  -5   6 1137.27   61.15
   3  -5   6 1315.87   62.91
   3  -5   6 1334.12   74.77
   3  -5   7 1162.62   58.49
   3  -5   7 1168.16   57.58
   3  -5   8  542.52   24.32
   3  -5   8 1740.54   50.17
  -3  -4  11  785.87   34.45
  -3  -4  10 1178.83   54.33
  -3  -4  10 1031.42   55.48
  -3  -4   9 1890.54   87.25
  -3  -4   8 5077.49  137.77
  -3  -4   7 3084.72  115.83
  -3  -4   7 3045.00  111.58
  -3  -4   6 1786.84   84.15
   3  -4  -6 1805.80  126.81
  -3  -4   6 1898.90   86.00
   3  -4  -517262.20  360.34
   3  -4  -4 3424.18  151.67
   3  -4  -3  173.68   36.39
   3  -4  -234890.18  445.42
   3  -4  -1 3727.79  148.00
   3  -4   0 1136.09   83.08
   3  -4   114604.94  311.60
   3  -4   114323.43  317.91
  -3  -4  -2 9645.50  239.43
   3  -4   2 9988.75  286.74
   3  -4   3  854.48   92.03
   3  -4   4  502.59   45.78
   3  -4   4  448.85   72.45
   3  -4   4  549.00   48.41
   3  -4   4  513.01   42.10
   3  -4   5  244.47   32.19
   3  -4   5  265.67   33.19
   3  -4   5  246.10   36.91
   3  -4   6 2999.25  113.27
   3  -4   7   28.36   15.03
   3  -4   8  217.83   18.41
   3  -4   8  515.58   32.04
  -3  -3  11  254.09   21.11
  -3  -3  11  219.93   17.63
  -3  -3  10 6747.22  141.14
  -3  -3   9 2229.31   96.40
  -3  -3   8 3036.38  115.53
  -3  -3   8 3049.83  104.66
  -3  -3   7 2871.36  113.77
  -3  -3   7 3137.22  109.04
   3  -3  -7 2707.49  168.35
   3  -3  -6 9690.51  286.73
   3  -3  -5 3059.62  148.83
   3  -3  -419406.47  360.59
   3  -3  -326832.43  388.20
   3  -3  -213280.54  264.98
   3  -3  -113482.92  264.03
   3  -3   012793.33  264.16
   3  -3   117792.10  324.69
  -3  -3  -219916.74  346.09
   3  -3   219575.92  381.64
   3  -3   3 7531.17  255.94
  -3  -3  -3 7440.30  221.10
   3  -3   4 6864.38  161.28
   3  -3   4 7123.35  273.76
   3  -3   4 6739.75  163.27
   3  -3   511647.34  224.01
   3  -3   6 3308.50  120.08
   3  -3   7 2139.41   81.12
   3  -3   7 2158.53   86.65
   3  -3   8  473.65   28.19
   3  -3   8  869.54   44.66
  -3  -2  11  905.25   42.80
  -3  -2  10  475.78   33.19
  -3  -2  10  465.29   38.69
  -3  -2   9 4284.69  118.52
  -3  -2   8 9814.05  208.20
  -3  -2   7  117.32   25.84
   3  -2  -7   61.76   29.98
  -3  -2   7   45.57   16.06
   3  -2  -6 8251.81  263.03
   3  -2  -5 2716.60  139.87
   3  -2  -410143.32  245.93
   3  -2  -320269.63  337.29
   3  -2  -217900.23  293.46
   3  -2  -124909.26  341.67
   3  -2   0 8400.13  200.08
   3  -2   1  476.67   53.15
  -3  -2  -2 9528.75  240.35
   3  -2   2 9300.44  250.55
  -3  -2  -317610.36  348.26
   3  -2   316870.23  369.92
   3  -2   423377.85  288.83
   3  -2   424116.78  305.04
   3  -2   423529.08  297.54
   3  -2   5 5826.37  153.62
   3  -2   5 5602.74  249.16
   3  -2   5 5768.64  155.00
   3  -2   6 3883.56  126.29
   3  -2   6 3756.25  127.68
   3  -2   7  747.01   49.24
   3  -2   7  750.59   44.64
   3  -2   7  723.61   50.59
   3  -2   8  292.42   23.96
   3  -2   8  480.34   35.73
  -3  -1  11 1423.25   43.84
  -3  -1  10  805.90   47.65
  -3  -1  10  814.32   49.30
  -3  -1   9    9.05   14.20
  -3  -1   8 7351.44  174.11
  -3  -1   7 3139.43  109.26
   3  -1  -7 2951.08  174.13
   3  -1  -613395.22  334.55
   3  -1  -5 6767.37  217.82
   3  -1  -410336.24  246.54
   3  -1  -3 3187.21  128.51
   3  -1  -2 1063.43   72.08
   3  -1  -1 8623.37  191.50
   3  -1   022159.48  302.48
   3  -1   1 3526.27  126.51
  -3  -1  -2 5399.51  182.43
   3  -1   2 5202.91  177.75
   3  -1   3 1999.35  122.95
  -3  -1  -3 1893.93  118.35
   3  -1   4 6059.49  146.02
   3  -1   4 5926.42  231.80
   3  -1   5 1192.82   70.45
   3  -1   5 1161.17   71.10
   3  -1   5 1178.90  112.23
   3  -1   5 1242.12   70.88
   3  -1   6 1775.59   87.24
   3  -1   6 1746.65   84.02
   3  -1   6 1722.93   83.99
   3  -1   7 3403.99  115.74
   3  -1   7 3413.04  104.80
   3  -1   7 3357.26   95.00
   3  -1   7 3278.14  105.97
   3  -1   8  684.86   42.04
   3  -1   8  718.80   41.69
  -3   0  11    2.29    8.31
  -3   0  10 1479.43   67.52
  -3   0  10 1424.43   61.22
  -3   0   9  224.50   33.57
  -3   0   9  260.15   28.15
  -3   0   8 1386.75   74.34
  -3   0   8 1307.89   65.29
  -3   0   8 1256.22   61.23
  -3   0   7   82.26   19.44
   3   0  -7   22.27   24.56
  -3   0   7   27.74   16.42
   3   0  -614407.80  351.61
   3   0  -5 2262.23  127.03
   3   0  -4 1343.66   91.60
   3   0  -3 1198.85   78.61
   3   0  -225217.15  329.85
   3   0  -127261.85  325.51
   3   0   054822.22  451.15
   3   0   1  484.16   44.71
   3   0   1  476.18   42.04
   3   0   2 1219.29   82.61
  -3   0  -2 1215.62   89.62
   3   0   3 8673.49  241.03
  -3   0  -3 8918.44  258.99
   3   0   4  831.33   55.07
   3   0   4  808.93   83.64
   3   0   5    5.15   14.68
   3   0   5    8.36   16.01
   3   0   5    6.64   13.36
   3   0   6 3959.39  131.12
   3   0   6 4141.70  127.90
   3   0   6 3887.03  118.74
   3   0   6 3959.27  122.63
   3   0   7  347.43   37.97
   3   0   7  363.57   33.33
   3   0   7  398.95   37.18
   3   0   7  358.53   37.58
   3   0   8  218.46   24.53
   3   0   8  173.36   21.06
  -3   1  11 1924.33   60.68
  -3   1  10  834.25   52.55
  -3   1   9   42.32   17.67
  -3   1   9   28.61   19.44
  -3   1   9    9.20   12.72
  -3   1   8 7295.02  165.08
  -3   1   8 7061.14  161.09
  -3   1   8 7122.89  150.50
  -3   1   7 2940.62  100.77
   3   1  -7 2974.65  178.18
  -3   1   7 2848.73   91.38
   3   1  -613273.49  339.98
   3   1  -5 6779.31  221.09
   3   1  -410472.86  249.46
   3   1  -3 3129.64  125.58
   3   1  -2 1049.44   66.98
   3   1  -1 8581.40  174.04
   3   1   022434.34  267.18
  -3   1  -1 3712.40  146.99
   3   1   1 3708.46  107.86
   3   1   1 3772.44  124.96
   3   1   1 3699.59  122.12
  -3   1  -2 5282.62  189.45
   3   1   2 5262.55  148.61
   3   1   2 5138.36  158.02
  -3   1  -3 1967.91  126.61
   3   1   3 2019.62  111.45
   3   1   4 5648.41  141.65
   3   1   4 5936.55  148.59
   3   1   5 1260.69   72.49
  -3   1  -5 1271.60  117.53
   3   1   5 1214.75   70.39
   3   1   5 1228.56   64.58
   3   1   5 1205.08   68.88
   3   1   6 1828.92   87.42
   3   1   6 1699.41   82.24
   3   1   6 1719.57   80.28
   3   1   6 1853.90   86.40
   3   1   7 3455.60  112.81
   3   1   7 3422.69  104.02
   3   1   7 3384.50   99.39
   3   1   7 3428.70  112.72
   3   1   7 3433.23  106.46
   3   1   8  728.85   43.01
   3   1   8  660.95   34.94
  -3   2  11  422.94   24.26
  -3   2  11  873.44   40.94
  -3   2  10  514.08   41.26
  -3   2  10  429.49   33.54
  -3   2   9 4326.40  129.98
  -3   2   9 4303.09  117.38
  -3   2   810529.55  192.45
  -3   2   810615.73  200.10
  -3   2   810825.86  189.91
   3   2  -7   81.22   31.35
  -3   2   7   77.82   20.10
  -3   2   7   82.25   19.15
   3   2  -6 8158.54  270.50
   3   2  -5 2543.70  141.00
   3   2  -4 9813.03  243.08
   3   2  -321225.83  326.29
   3   2  -217131.21  265.54
   3   2  -124941.48  291.53
   3   2   0 8569.85  148.06
   3   2   0 8542.26  202.17
  -3   2  -1  504.35   57.93
   3   2   1  456.09   40.01
   3   2   1  479.62   49.66
  -3   2  -2 9301.67  257.47
   3   2   2 9341.81  219.73
  -3   2  -318363.98  340.34
   3   2   421710.83  271.67
   3   2   423896.98  295.82
   3   2   422499.79  278.62
   3   2   423466.86  292.68
   3   2   422885.91  278.94
   3   2   5 5692.16  151.64
  -3   2  -5 5538.29  250.69
   3   2   5 5780.85  152.07
   3   2   5 5802.88  151.73
   3   2   5 5283.17  137.69
   3   2   5 5679.59  147.43
   3   2   6 3883.97  125.55
   3   2   6 3724.74  121.35
   3   2   6 3565.48  116.39
   3   2   6 3719.35  126.82
   3   2   6 3868.53  118.31
   3   2   7  752.40   52.00
   3   2   7  746.13   53.78
   3   2   7  717.26   47.73
   3   2   7  705.53   44.35
   3   2   8  334.62   24.56
   3   2   8  461.32   33.57
  -3   3  11  252.08   21.78
  -3   3  10 6856.19  143.53
  -3   3  10 6879.74  130.11
  -3   3   9 2346.69   76.81
  -3   3   9 2336.67   96.54
  -3   3   9 2384.31   88.82
  -3   3   8 3174.16   96.27
  -3   3   8 2929.45  108.39
  -3   3   8 3017.56  112.18
  -3   3   8 2922.38  102.29
  -3   3   7 3385.25  115.65
   3   3  -7 3327.41  192.41
  -3   3   7 3375.55  106.74
   3   3  -6 9416.93  295.20
   3   3  -5 2596.34  143.82
   3   3  -420563.03  360.58
   3   3  -326259.13  369.68
   3   3  -212595.19  231.75
  -3   3   112890.29  244.30
   3   3  -113391.80  204.31
   3   3  -113219.53  269.53
  -3   3   012614.72  260.90
   3   3   012943.96  265.68
  -3   3  -118330.26  339.76
   3   3   117096.47  313.88
   3   3   219871.23  347.94
  -3   3  -3 7978.65  244.04
   3   3   4 6462.12  143.00
   3   3   4 6082.14  143.35
   3   3   4 7231.98  167.82
   3   3   4 7225.81  166.93
   3   3   4 6909.24  156.46
   3   3   4 7285.79  167.76
   3   3   511464.40  216.10
   3   3   511455.84  209.95
   3   3   511370.26  200.22
   3   3   511344.18  215.54
   3   3   511273.00  220.16
   3   3   6 3454.85  115.07
   3   3   6 3463.86  116.10
   3   3   6 3245.09  112.64
   3   3   6 3329.29  119.75
   3   3   7 2120.00   81.31
   3   3   7 2155.52   78.64
   3   3   7 2181.90   86.03
  -3   3  -8  807.50   34.94
   3   3   8  824.28   42.22
  -3   4  10 1174.09   43.80
  -3   4  10 1174.23   56.27
  -3   4  10 1191.33   53.71
  -3   4   9 1935.74   71.39
  -3   4   9 1932.64   84.72
  -3   4   9 2075.38   83.36
  -3   4   8 5135.53  126.51
  -3   4   8 5031.43  143.91
  -3   4   8 4887.47  141.42
  -3   4   8 4986.33  135.21
   3   4  -7 3119.35  187.68
  -3   4   7 3137.46  113.81
  -3   4   7 3094.41  106.29
   3   4  -6 1933.10  138.95
  -3   4   6 1947.30   85.21
   3   4  -516934.57  372.53
   3   4  -4 3232.57  147.72
   3   4  -3  564.23   57.79
   3   4  -3  173.91   38.86
   3   4  -232875.89  381.54
  -3   4   233257.79  361.99
  -3   4   1 3615.81  132.27
   3   4  -1 3732.57  154.27
  -3   4   0 1185.77   82.80
   3   4   0 1188.48   88.53
   3   4   113898.94  307.20
  -3   4  -210032.49  287.11
  -3   4  -3  875.57   89.08
   3   4   4  498.29   41.03
   3   4   4  526.81   46.18
  -3   4  -4  420.56   71.16
   3   4   4  518.10   46.89
   3   4   4  589.08   49.76
   3   4   4  483.16   46.93
   3   4   5  205.23   29.24
   3   4   5  281.02   33.33
   3   4   5  206.08   33.20
   3   4   5  256.23   32.84
   3   4   5  252.60   36.81
   3   4   6 3080.62  102.40
   3   4   6 3003.56  111.40
   3   4   6 2885.71  105.99
   3   4   7   27.26   13.83
   3   4   7   56.43   16.19
  -3   4  -7   27.97   14.60
   3   4   7   46.37   17.90
  -3   4  -8  477.98   26.19
  -3   4  -8  522.06   28.95
  -3   5  10  891.94   37.54
  -3   5  10  888.55   45.06
  -3   5  10  948.28   45.99
  -3   5   9 1782.50   67.55
  -3   5   9 1842.22   78.36
  -3   5   9 1877.27   76.45
  -3   5   8  528.82   42.28
  -3   5   8  477.66   44.94
  -3   5   8  474.40   44.11
  -3   5   7 2261.87   97.62
  -3   5   7 2253.13   93.89
  -3   5   7 2382.69   95.90
  -3   5   6 6520.72  159.97
   3   5  -6 6466.30  257.08
  -3   5   6 6375.03  143.18
   3   5  -5  843.68   87.32
   3   5  -4 9640.09  263.32
   3   5  -4 9497.35  264.19
   3   5  -3 8869.75  227.33
   3   5  -3 8642.08  249.61
   3   5  -2 7465.96  230.95
   3   5  -1 3178.58  151.32
   3   5   0 5817.71  209.27
   3   5   1 3676.61  170.88
  -3   5  -1 3555.20  179.83
  -3   5  -2 4444.16  207.36
   3   5   3  751.90   54.86
   3   5   3  860.75   60.24
  -3   5  -3  778.55   93.47
  -3   5  -3  808.49   90.58
   3   5   3  877.11   58.86
   3   5   3  757.96   53.29
   3   5   3  788.33   58.42
   3   5   4 5650.15  133.00
  -3   5  -4 6272.86  272.02
   3   5   4 5770.40  151.31
   3   5   4 5627.98  157.81
   3   5   4 5580.61  154.61
   3   5   4 5816.17  143.72
   3   5   4 5750.22  158.40
   3   5   5 4101.52  122.36
   3   5   5 4086.04  134.49
   3   5   5 4188.80  132.43
   3   5   6 1324.96   69.88
   3   5   6 1320.30   71.94
   3   5   7 1191.27   49.10
  -3   5  -7 1188.55   56.53
   3   5   7 1091.82   51.34
  -3   5  -7 1124.67   57.37
  -3   5  -8 1544.56   42.93
  -3   5  -8 1096.74   37.34
  -3   6  10 1449.04   43.52
  -3   6  10 1365.98   49.35
  -3   6  10 1473.00   51.90
  -3   6   9 2743.13   80.89
  -3   6   9 2682.97   86.13
  -3   6   9 2794.87   88.67
  -3   6   8 4573.89  120.10
  -3   6   8 4356.24  124.46
  -3   6   8 4539.09  125.10
  -3   6   7  351.77   39.85
  -3   6   7  326.64   38.70
  -3   6   7  281.19   35.27
   3   6  -6 1889.10  141.22
  -3   6   6 1808.66   85.64
  -3   6   6 1598.68   75.34
  -3   6   6 1638.03   75.49
  -3   6   5 1647.08   79.20
   3   6  -5 1802.56  129.99
  -3   6   5 1676.43   76.34
  -3   6   5 1670.25   79.07
  -3   6   5 1777.94   76.36
   3   6  -4  307.33   51.43
   3   6  -4  290.92   49.24
   3   6  -3 6122.90  224.79
  -3   6   3 5922.02  225.09
   3   6  -2 4371.26  187.47
  -3   6   2 4199.00  193.61
   3   6  -1  880.43   87.26
  -3   6   1  858.69   90.75
   3   6   0  508.17   69.68
  -3   6   0  398.23   65.62
  -3   6  -1  826.50   93.63
   3   6   2 5453.84  146.77
  -3   6  -2 5376.40  243.55
  -3   6  -2 5053.29  222.66
  -3   6  -2 5326.92  142.49
   3   6   2 5562.13  150.84
   3   6   2 5323.90  144.06
  -3   6  -2 5391.64  146.69
   3   6   3 1096.76   69.87
  -3   6  -3  998.16  105.24
  -3   6  -3 1092.35   68.18
   3   6   3 1098.26   67.51
  -3   6  -3 1220.71  115.97
   3   6   3 1080.02   66.22
  -3   6  -3 1076.32   68.92
  -3   6  -4 3237.16  117.97
   3   6   4 3305.72  123.82
   3   6   4 3224.60  117.01
   3   6   4 3417.60  112.93
  -3   6  -5 1327.24   74.45
   3   6   5 1291.42   70.67
   3   6   5 1459.29   78.53
  -3   6  -6  263.79   32.77
   3   6   6  264.12   31.42
  -3   6  -6  267.60   32.28
  -3   6  -7  246.92   25.45
   3   6   7  220.61   22.00
  -3   6  -7  250.78   25.98
  -3   7  10 1984.57   51.20
  -3   7   9  484.59   32.81
  -3   7   9  507.24   32.03
  -3   7   9  554.60   37.01
  -3   7   8 1993.67   78.04
  -3   7   8 1869.50   71.85
  -3   7   8 1870.09   77.50
  -3   7   7 3800.42  117.72
  -3   7   6 1252.64   71.10
  -3   7   6 1239.52   63.79
  -3   7   5 2784.53  105.32
  -3   7   5 2731.11   99.92
  -3   7   5 2876.89  103.50
  -3   7   5 2760.20   97.18
  -3   7   4 1624.43   75.57
  -3   7   4 1876.59   83.34
  -3   7   4 1821.67   80.63
  -3   7   4 1720.79   78.16
  -3   7   3 1574.39  124.73
  -3   7   3 1706.73   77.59
   3   7  -3 1625.98  122.58
  -3   7   2 2850.55  171.59
   3   7  -2 2815.53  164.18
  -3   7   1  454.86   71.76
   3   7  -1  453.59   70.84
  -3   7   0 3168.89  190.66
  -3   7   0 3337.78  110.05
   3   7   0 3259.14  111.80
   3   7   0 3280.57  112.14
  -3   7   0 3258.88  111.66
  -3   7  -1 2769.18   91.02
  -3   7  -1 2737.36  103.80
   3   7   1 2661.86  104.06
   3   7   1 2683.23  102.48
  -3   7  -1 2645.46  177.95
   3   7   1 2661.48  104.23
  -3   7  -1 2704.58  104.16
  -3   7  -2  113.02   36.58
  -3   7  -2  148.36   27.95
   3   7   2  121.60   26.05
   3   7   2  130.42   27.15
   3   7   2  195.89   32.16
  -3   7  -2  162.12   46.87
  -3   7  -2  144.81   30.17
  -3   7  -3  904.08   63.51
   3   7   3 1031.04   69.35
   3   7   3  931.53   63.30
   3   7   3  964.92   67.68
  -3   7  -3 1082.24   70.71
   3   7   4 2339.11   99.63
  -3   7  -4 2446.55  102.08
   3   7   4 2354.42   95.03
   3   7   4 2560.35  107.13
  -3   7  -4 2464.12  104.99
  -3   7  -512107.57  214.97
   3   7   511850.93  199.94
   3   7   511990.07  185.85
   3   7   511845.89  216.79
  -3   7  -512393.41  220.39
  -3   7  -6 1073.28   57.12
   3   7   6 1096.38   56.84
  -3   7  -6 1107.64   59.01
  -3   7  -7  541.51   27.65
  -3   7  -7  686.33   35.64
   3   7   7  637.72   30.54
  -3   7  -7  598.43   33.84
  -3   8   9 1905.72   55.58
  -3   8   9 1784.72   57.39
  -3   8   8 7513.19  138.58
  -3   8   8 7233.35  138.11
  -3   8   7 1157.03   62.39
  -3   8   6  842.07   56.04
  -3   8   5 2154.98   92.69
  -3   8   5 2098.20   88.19
  -3   8   5 2053.64   87.14
  -3   8   5 2075.79   83.69
  -3   8   4 1429.27   74.27
  -3   8   4 1429.31   73.69
  -3   8   4 1292.78   69.68
  -3   8   3  834.46   59.76
  -3   8   3  861.76   58.19
   3   8  -213499.43  216.68
  -3   8   213663.65  224.03
  -3   8   1 2552.06  177.38
  -3   8   1 2580.84   96.21
   3   8  -1 2407.46   97.20
   3   8  -1 2487.01   98.56
   3   8  -1 2339.48   89.94
  -3   8   010181.38  188.24
  -3   8   010575.76  364.56
   3   8   010487.46  206.45
   3   8   010075.77  196.53
   3   8   010288.91  208.76
  -3   8  -1 1799.52   81.93
  -3   8  -1 1746.41   76.14
  -3   8  -1 1665.96   83.85
   3   8   1 1849.24   90.71
   3   8   1 1778.66   88.32
  -3   8  -1 1695.50  148.61
   3   8   1 1702.44   85.91
  -3   8  -1 1902.75   91.96
  -3   8  -2 2139.19   90.45
  -3   8  -2 2111.17   95.12
   3   8   2 2139.64   96.12
   3   8   2 2058.10   96.46
   3   8   2 2117.02   97.89
  -3   8  -2 2202.32   99.41
  -3   8  -3 1722.00   81.81
  -3   8  -3 1748.49   85.99
   3   8   3 1664.09   84.98
   3   8   3 1635.33   86.65
   3   8   3 1663.79   86.49
  -3   8  -3 1844.20   90.45
  -3   8  -4 7742.73  167.19
  -3   8  -4 7335.06  170.74
   3   8   4 7480.42  165.18
   3   8   4 7502.33  178.32
   3   8   4 7586.18  172.40
  -3   8  -4 8009.86  180.64
  -3   8  -5 7605.47  150.31
  -3   8  -5 7594.37  158.93
   3   8   5 7355.74  137.38
   3   8   5 7836.86  163.62
  -3   8  -6  195.24   21.28
  -3   8  -6  217.39   24.43
   3   8   6  213.94   24.12
  -3   8  -6  260.01   26.54
  -3   8  -7  170.04   14.54
  -3   9   9  380.86   20.49
  -3   9   9  231.72   15.93
  -3   9   8  402.68   30.17
  -3   9   8  429.22   29.93
  -3   9   7  292.24   30.66
  -3   9   7  337.31   31.49
  -3   9   6 5262.63  131.74
  -3   9   5 1629.42   82.12
  -3   9   5 1610.69   75.64
  -3   9   5 1640.35   70.77
  -3   9   4 2066.60   90.42
  -3   9   4 2019.87   88.05
  -3   9   4 1890.76   81.50
  -3   9   3 1687.65   84.23
  -3   9   3 1640.22   81.23
   3   9  -215288.79  234.70
  -3   9   215475.56  246.55
  -3   9   1 9868.10  195.49
   3   9  -1 9931.39  200.23
  -3   9   110333.11  190.56
  -3   9   0 6225.18  148.95
  -3   9   0 6088.25  149.30
   3   9   0 6178.84  162.69
   3   9   0 5858.36  153.83
  -3   9  -1 5729.54  144.78
  -3   9  -1 5563.01  138.05
  -3   9  -1 5461.19  149.66
   3   9   1 5599.48  156.13
   3   9   1 5302.61  150.92
  -3   9  -2 1591.93   76.89
  -3   9  -2 1708.54   71.38
   3   9   2 1713.02   87.04
   3   9   2 1769.04   87.59
  -3   9  -2 1743.76   84.52
  -3   9  -2 1713.85   88.76
  -3   9  -3 2312.97   89.90
  -3   9  -3 2208.51   93.22
   3   9   3 2179.08   94.42
   3   9   3 2130.52   94.98
  -3   9  -3 2192.89   96.80
  -3   9  -4  793.59   49.89
  -3   9  -4  831.47   53.34
   3   9   4  797.19   51.66
   3   9   4  850.36   58.14
  -3   9  -4  875.65   59.37
  -3   9  -5   97.54   17.10
  -3   9  -5   84.19   18.50
   3   9   5   62.29   14.18
   3   9   5   67.69   17.86
  -3   9  -5   85.56   20.39
  -3   9  -6  203.41   18.85
  -3  10   8 4640.96   78.86
  -3  10   8 3552.06   62.93
  -3  10   7  388.26   30.24
  -3  10   7  381.86   28.11
  -3  10   6  579.59   39.24
  -3  10   5  422.79   37.17
  -3  10   5  354.68   33.33
  -3  10   4 2735.51  104.27
  -3  10   4 2728.89  100.35
  -3  10   4 2932.61   94.99
  -3  10   3 5227.63  145.15
  -3  10   3 5356.32  143.22
  -3  10   212572.43  225.91
  -3  10   212568.91  220.77
  -3  10   213054.10  205.94
  -3  10   1 1703.82   81.37
   3  10  -1 1836.48   84.28
  -3  10   1 1826.91   78.69
  -3  10   0  859.05   56.46
   3  10   0  758.81   57.78
  -3  10   0  796.59   52.89
  -3  10  -1  931.60   58.32
  -3  10  -1  912.96   55.01
   3  10   1  928.78   64.42
   3  10   1  949.26   62.35
  -3  10  -2 4307.78  118.01
  -3  10  -2 4260.63  107.02
   3  10   2 4219.03  129.94
   3  10   2 4327.81  131.71
  -3  10  -3  957.03   53.18
   3  10   3  946.29   59.21
   3  10   3  926.48   59.53
  -3  10  -4 4105.57   94.91
   3  10   4 3996.45  101.44
   3  10   4 4248.70  111.43
  -3  10  -5  984.65   35.52
   3  10   5 1055.83   37.47
  -3  11   7  589.96   29.31
  -3  11   6   19.54   10.52
  -3  11   6   32.60   10.29
  -3  11   5  255.14   23.27
  -3  11   4  844.71   54.11
  -3  11   4  902.23   51.72
  -3  11   4  774.15   42.54
  -3  11   4  792.51   44.41
  -3  11   3  505.01   43.35
  -3  11   3  439.24   41.29
  -3  11   3  496.79   38.21
  -3  11   2  197.21   30.63
  -3  11   2  181.48   28.48
  -3  11   1 3386.00  107.44
   3  11  -1 3407.53  106.17
  -3  11   1 3391.96   99.42
  -3  11   0 1055.18   59.73
   3  11   0 1232.98   66.85
  -3  11   0 1122.53   57.70
  -3  11  -1  833.38   49.59
   3  11   1  878.28   57.46
  -3  11  -1  866.07   50.21
  -3  11  -2  141.21   20.97
  -3  11  -2   99.14   17.51
   3  11   2  111.43   23.28
   3  11   3  532.01   38.56
  -3  11  -3  510.34   32.59
   3  11   4  270.59   22.57
  -3  11  -4  177.52   15.31
  -3  12   6  332.48   19.56
  -3  12   5  378.18   26.07
  -3  12   4 2065.00   65.95
  -3  12   3  153.54   22.75
  -3  12   3  142.63   21.36
  -3  12   3  127.09   17.40
  -3  12   2  214.49   27.18
  -3  12   2  246.66   28.52
  -3  12   2  238.47   26.04
  -3  12   1 4005.84  108.53
  -3  12   1 4144.66  106.45
   3  12  -1 3864.14   93.77
  -3  12   0   91.82   20.04
  -3  12   0   98.40   18.29
   3  12   0   98.02   18.57
  -3  12   0  125.11   19.16
  -3  12  -1 1136.74   48.55
   3  12   1 1185.68   56.15
  -3  12  -2  260.85   19.72
  -3  12  -2  349.99   23.31
   3  12   3  519.24   29.96
   3  13  -4 2778.36   61.82
  -3  13   3  309.30   22.93
   3  13  -3  313.99   21.77
  -3  13   2 5336.06   97.88
  -3  13   2 5423.61   98.44
  -3  13   1 1831.16   58.58
  -3  13   1 1875.73   58.34
  -3  13   1 1744.19   52.73
  -3  13   0  473.19   29.40
  -3  13   0  451.09   27.67
  -3  13   0  467.90   28.66
  -3  13  -1   59.38   11.65
  -3  13  -1   72.26    9.80
  -3  13  -2   64.52   10.01
   4 -13  -2 3211.90   57.52
  -4 -13   2 2332.40   51.01
   4 -13  -1   45.58    7.77
  -4 -12   5  164.11   15.55
  -4 -12   5  174.95   15.72
  -4 -12   5  126.99   13.61
   4 -12  -4  745.70   31.89
  -4 -12   4  722.75   34.01
  -4 -12   4  775.82   37.11
  -4 -12   4  753.57   33.57
  -4 -12   4  644.49   31.09
   4 -12  -3 2924.47   72.90
  -4 -12   3 2609.42   61.87
   4 -12  -2 1067.63   47.80
   4 -12  -1  374.39   28.88
   4 -12  -1  382.63   24.03
   4 -12   0  331.65   24.94
   4 -12   0  317.92   22.99
   4 -12   1  294.32   18.61
   4 -12   1  401.49   24.09
   4 -12   2 2186.22   46.68
  -4 -11   7   -9.42    6.11
  -4 -11   6    9.42    7.36
  -4 -11   6    7.79    9.71
  -4 -11   6   15.02    8.14
  -4 -11   6    2.37    8.47
  -4 -11   5   47.61   11.57
  -4 -11   5   42.96   12.94
  -4 -11   5   60.51   14.72
  -4 -11   5   31.38   10.17
   4 -11  -4  558.44   35.67
  -4 -11   4  526.05   38.57
   4 -11  -3 2013.49   73.43
  -4 -11   3 1874.16   71.07
   4 -11  -2  547.91   42.20
   4 -11  -2  554.45   33.18
   4 -11  -1   30.16   11.87
   4 -11  -1   61.11   18.47
   4 -11   0  125.49   19.65
   4 -11   0  104.14   19.13
   4 -11   1  825.25   42.49
   4 -11   1  808.98   41.64
   4 -11   1  847.75   44.35
   4 -11   2  828.21   40.01
   4 -11   2  872.52   41.74
   4 -11   3 1011.08   37.89
   4 -11   3 1137.21   38.29
  -4 -10   7  500.35   28.03
  -4 -10   7  492.09   32.23
  -4 -10   7  396.66   30.47
  -4 -10   7  495.19   32.78
  -4 -10   6  512.43   35.91
  -4 -10   6  498.23   37.84
  -4 -10   6  495.62   36.90
   4 -10  -5  990.34   47.71
  -4 -10   5  970.23   56.32
  -4 -10   5  995.65   53.94
   4 -10  -4  855.28   50.81
  -4 -10   4  883.96   49.99
   4 -10  -3   83.02   20.27
   4 -10  -2 1589.96   64.93
   4 -10  -2 1610.28   76.15
   4 -10  -1 1830.22   74.21
   4 -10  -1 1951.05   73.30
   4 -10  -1 1821.61   80.07
   4 -10   0 3000.17   96.59
   4 -10   0 3043.55   96.02
   4 -10   0 3063.70  100.93
   4 -10   1 2401.48   84.73
   4 -10   1 2218.53   80.29
   4 -10   1 2347.29   84.45
   4 -10   2  282.88   29.99
   4 -10   2  268.56   24.36
   4 -10   2  286.50   30.13
   4 -10   3 3012.89   83.33
   4 -10   3 3033.87   79.67
   4 -10   4 6479.21  102.33
   4 -10   4 6394.31   87.08
  -4  -9   8 1551.65   52.32
  -4  -9   8 1678.88   58.21
  -4  -9   7  290.67   25.87
  -4  -9   7  318.49   29.80
  -4  -9   7  311.45   31.13
  -4  -9   7  321.64   27.08
  -4  -9   6 4739.50  126.81
  -4  -9   6 4698.65  125.66
   4  -9  -5  785.92   46.36
  -4  -9   5  779.30   54.63
   4  -9  -4 7364.18  156.16
  -4  -9   4 7045.70  158.92
   4  -9  -3 1759.86   81.39
  -4  -9   3 1828.62   77.69
   4  -9  -2  747.70   47.82
   4  -9  -2  663.30   54.28
   4  -9  -1  953.58   56.83
   4  -9  -1  886.27   55.00
   4  -9  -1  925.69   60.64
   4  -9   0 3027.03  102.64
   4  -9   0 3050.75  107.67
   4  -9   0 3047.90  104.56
   4  -9   1 3581.86  113.60
   4  -9   1 3578.28  113.89
   4  -9   1 3377.81  105.92
   4  -9   2  675.25   43.09
   4  -9   2  658.71   49.10
   4  -9   2  763.45   51.84
   4  -9   3 2654.25   90.79
   4  -9   3 2582.30   85.34
   4  -9   4 1859.14   66.28
   4  -9   4 1883.39   60.31
   4  -9   5   62.97   10.94
  -4  -8   9  686.98   33.68
  -4  -8   9  674.15   33.98
  -4  -8   8 1432.62   58.13
  -4  -8   8 1450.84   63.64
  -4  -8   8 1579.00   63.75
  -4  -8   7 1360.35   58.80
  -4  -8   7 1289.34   66.06
  -4  -8   7 1450.84   71.98
  -4  -8   7 1351.37   65.15
  -4  -8   6 2207.77   92.71
  -4  -8   6 2308.07   86.65
   4  -8  -5 4521.56  117.74
  -4  -8   5 4584.14  136.72
   4  -8  -4 2708.76   96.42
  -4  -8   4 2743.72  104.06
   4  -8  -3 1854.44   84.02
  -4  -8   3 1922.79   83.75
   4  -8  -2 6997.43  146.14
   4  -8  -1 8934.19  176.59
   4  -8  -1 9176.17  181.93
   4  -8  -1 9008.58  187.56
   4  -8   0 3856.43  118.49
   4  -8   0 3754.85  122.60
   4  -8   0 3822.30  121.52
   4  -8   1 5124.86  141.01
   4  -8   1 5281.98  144.19
   4  -8   1 5163.36  128.02
   4  -8   1 4791.30  135.50
   4  -8   2 7904.15  157.62
   4  -8   2 8366.80  183.81
   4  -8   3 3882.86  119.79
   4  -8   3 3982.67  114.94
   4  -8   4 5606.95  130.32
   4  -8   4 5226.09  115.99
   4  -8   5  326.11   26.19
   4  -8   5  288.93   19.73
  -4  -7  10  695.91   30.00
  -4  -7   9   62.10   14.24
  -4  -7   9   57.66   14.56
  -4  -7   8  199.36   24.46
  -4  -7   8  177.28   26.37
  -4  -7   8  194.35   27.69
  -4  -7   7 8147.48  149.75
  -4  -7   7 7924.72  168.21
  -4  -7   7 8146.72  177.83
  -4  -7   7 8299.66  176.09
  -4  -7   6   30.44   19.39
  -4  -7   6   74.81   21.04
   4  -7  -5  530.56   41.56
  -4  -7   5  570.33   50.83
   4  -7  -4  352.21   35.93
  -4  -7   4  303.53   37.86
   4  -7  -3 4683.10  213.30
   4  -7  -3 5183.20  138.08
   4  -7  -2 6370.00  139.17
   4  -7  -2 6232.33  246.16
   4  -7  -2 5944.19  141.39
   4  -7  -1 5868.44  141.16
   4  -7  -1 5877.62  241.69
   4  -7  -1 5614.95  141.39
   4  -7  -1 5598.78  147.40
   4  -7   0 5011.71  134.98
   4  -7   0 5037.77  139.33
   4  -7   0 4884.59  227.34
   4  -7   0 4772.41  140.06
   4  -7   1 2874.10  105.89
   4  -7   1 2839.21  104.25
   4  -7   1 2830.17  107.81
   4  -7   1 2717.65   95.79
   4  -7   2 9157.50  188.83
   4  -7   2 8906.36  191.81
   4  -7   3  471.33   45.62
   4  -7   3  427.73   40.98
   4  -7   4 2011.94   84.55
   4  -7   4 2032.99   77.89
   4  -7   4 2012.17   71.93
   4  -7   5   11.96   11.10
   4  -7   5   18.43    9.30
   4  -7   5   14.51    8.82
  -4  -6  10  187.10   20.21
  -4  -6   9 1320.29   58.98
  -4  -6   9 1335.78   64.86
  -4  -6   8  312.37   30.96
  -4  -6   8  340.38   36.60
  -4  -6   8  332.56   38.09
  -4  -6   7 6871.42  170.34
  -4  -6   7 6978.52  168.17
  -4  -6   6 1269.17   76.67
  -4  -6   5 3413.99  112.16
   4  -6  -5 3983.03  193.92
   4  -6  -4 2450.17  150.71
   4  -6  -4 2356.24   88.46
   4  -6  -3 5167.37  218.17
   4  -6  -3 5584.44  137.60
   4  -6  -2 2772.04  160.04
   4  -6  -2 2850.97   99.65
   4  -6  -1 3975.31  111.84
   4  -6  -1 3756.15  187.76
   4  -6  -1 3917.08  115.97
   4  -6  -1 3735.48  117.78
   4  -6   0 2673.48   97.03
   4  -6   0 2602.45  161.31
   4  -6   0 2601.60   98.35
   4  -6   0 3031.25  107.22
   4  -6   0 2513.23  161.51
   4  -6   110282.17  195.57
   4  -6   1 9937.23  190.75
   4  -6   110297.57  335.54
   4  -6   110058.30  180.05
   4  -6   110155.21  199.07
   4  -6   2   36.92   17.79
   4  -6   2   45.85   19.91
   4  -6   3 3536.14  121.73
   4  -6   3 3620.74  117.59
   4  -6   3 3694.86  112.99
   4  -6   4 2664.67  100.39
   4  -6   4 2723.11   95.59
   4  -6   4 2657.52   94.12
   4  -6   5 3587.86  102.60
   4  -6   5 3509.98   88.83
   4  -6   5 3647.74  101.76
   4  -6   6  125.55   17.08
  -4  -5  10   46.63   14.25
  -4  -5   9 2223.40   80.50
  -4  -5   9 2255.75   90.07
  -4  -5   8 2678.78  101.49
  -4  -5   7 1348.41   77.04
  -4  -5   7 1323.24   76.47
  -4  -5   6   87.31   22.33
   4  -5  -6  133.45   41.36
  -4  -5   5  482.53   42.79
   4  -5  -5  431.48   66.36
   4  -5  -412354.15  330.85
   4  -5  -3 7842.87  258.81
   4  -5  -2  819.38   84.27
   4  -5  -1  946.15   92.50
   4  -5   0 1671.35  122.84
   4  -5   1  247.07   31.73
   4  -5   1  322.55   58.56
   4  -5   1  272.03   33.52
   4  -5   1  259.09   31.62
   4  -5   2 1786.02   88.15
   4  -5   2 2056.68  151.15
   4  -5   2 1899.61   87.06
   4  -5   2 1880.43   84.81
   4  -5   2 1907.34   81.71
   4  -5   3  937.00   65.24
   4  -5   3  866.48   60.72
   4  -5   3  824.89   61.03
   4  -5   3  853.33   58.47
   4  -5   3  830.34   56.94
   4  -5   4 1265.01   67.64
   4  -5   4 1375.67   73.46
   4  -5   4 1412.82   73.61
   4  -5   5 1228.04   61.20
   4  -5   5 1194.90   64.54
   4  -5   6 3283.61   91.08
   4  -5   7 1068.98   38.08
   4  -5   7 1293.30   42.48
  -4  -4  11  500.35   25.39
  -4  -4  10  425.18   35.26
  -4  -4   9  276.93   29.69
  -4  -4   9  300.84   37.56
  -4  -4   813949.29  244.98
  -4  -4   813559.84  227.61
  -4  -4   7 6407.53  163.98
  -4  -4   7 6257.47  162.42
  -4  -4   6 9984.07  195.81
   4  -4  -6 8943.54  301.01
   4  -4  -5 3035.65  169.70
   4  -4  -4  632.23   76.88
   4  -4  -313704.83  329.18
   4  -4  -252370.96  631.95
   4  -4  -1 2278.41  132.80
   4  -4   0 7814.99  254.17
   4  -4   1 7069.47  249.91
   4  -4   1 6797.35  253.40
   4  -4   2 2582.57   99.28
   4  -4   2 2528.90   99.50
   4  -4   2 2612.21  165.83
   4  -4   2 2559.07  100.29
   4  -4   2 2593.42   97.47
   4  -4   2 2578.65   96.48
   4  -4   3 9582.57  198.47
   4  -4   310177.26  339.76
   4  -4   310011.87  198.10
   4  -4   3 9900.05  193.02
   4  -4   3 9946.30  205.62
   4  -4   310115.84  198.57
   4  -4   4 9912.91  194.31
   4  -4   4 9990.40  187.02
   4  -4   4 9605.58  205.02
   4  -4   4 9921.95  200.86
   4  -4   5  865.37   52.18
   4  -4   5  954.81   62.48
   4  -4   6  378.90   35.26
   4  -4   6  389.82   36.61
   4  -4   7 2084.22   59.67
   4  -4   7 2268.15   65.55
  -4  -3  11  353.90   21.92
  -4  -3  11  463.50   26.53
  -4  -3  10 1427.16   65.27
  -4  -3   9 1986.41   74.96
  -4  -3   8 5034.69  149.09
  -4  -3   8 4904.33  135.60
  -4  -3   7  981.62   64.57
   4  -3  -7  891.52   99.69
  -4  -3   6 1522.32   76.81
   4  -3  -6 1274.97  115.23
   4  -3  -5 3874.40  188.22
   4  -3  -4   87.18   32.41
   4  -3  -352981.01  631.77
   4  -3  -258844.25  643.53
   4  -3  -1 2700.81  139.45
   4  -3   014188.91  321.29
   4  -3   1  263.95   48.65
   4  -3   1  257.61   49.75
  -4  -3  -2 7705.34  256.24
   4  -3   2 7770.10  272.79
   4  -3   2 7718.07  165.57
   4  -3   2 7983.07  166.28
   4  -3   2 7964.75  171.72
   4  -3   2 7895.02  165.22
   4  -3   3  663.70   51.04
   4  -3   3  761.33   91.16
   4  -3   3  795.00   54.40
   4  -3   3  719.58   55.88
   4  -3   3  738.70   55.98
   4  -3   4 6231.97  150.15
   4  -3   4 6166.15  146.97
   4  -3   4 5920.55  162.39
   4  -3   4 6136.42  161.07
   4  -3   5 3822.06  127.22
   4  -3   5 3983.70  128.91
   4  -3   6 2037.47   81.44
   4  -3   6 2045.99   84.31
   4  -3   7   46.47   13.08
   4  -3   7   27.04   11.63
   4  -3   7   41.60    9.70
  -4  -2  11  486.85   27.69
  -4  -2  10 2532.29   75.39
  -4  -2  10 2290.18   85.43
  -4  -2   9 2745.26  109.80
  -4  -2   8 2453.82  102.86
  -4  -2   8 2302.53   91.11
  -4  -2   7  726.44   56.01
   4  -2  -7  683.64   90.93
   4  -2  -6 2718.69  164.78
   4  -2  -5 1127.78   99.66
   4  -2  -4 5157.88  199.95
   4  -2  -326782.29  437.70
   4  -2  -246456.37  558.24
   4  -2  -111938.93  276.87
   4  -2   0 8093.42  230.71
   4  -2   1 7385.05  228.80
   4  -2   1 7353.86  240.32
  -4  -2  -2 6275.67  231.40
   4  -2   2 6079.67  231.80
   4  -2   3 1567.02  127.40
   4  -2   3 1642.93   76.06
  -4  -2  -3 1492.50  118.01
   4  -2   3 1609.21   75.75
   4  -2   3 1613.05   80.81
   4  -2   3 1569.85   78.60
   4  -2   419016.22  253.23
   4  -2   418976.55  283.72
   4  -2   419426.20  287.42
   4  -2   5  976.27   66.83
   4  -2   6 2376.34   90.06
   4  -2   6 2150.01   81.66
   4  -2   6 2420.50   94.48
   4  -2   7  728.26   40.59
   4  -2   7  706.24   35.15
   4  -2   7  746.69   42.17
   4  -2   7  714.95   42.40
  -4  -1  11  543.96   27.52
  -4  -1  11  609.81   29.81
  -4  -1  10  839.07   48.11
  -4  -1  10  825.71   51.63
  -4  -1   9 8168.68  179.42
  -4  -1   8 2768.64  108.55
  -4  -1   7 2269.96   97.36
   4  -1  -7 2239.14  158.43
  -4  -1   7 2270.38   85.01
   4  -1  -6 4998.41  222.36
  -4  -1   6 4940.68  130.24
   4  -1  -514393.91  351.53
   4  -1  -4 3592.43  165.97
   4  -1  -3 8818.25  244.96
   4  -1  -2 6179.15  198.39
   4  -1  -121181.93  354.62
   4  -1   020726.74  352.15
   4  -1   1 2460.03  124.88
   4  -1   1 2498.37  134.71
  -4  -1  -215293.72  367.26
   4  -1   214732.51  348.11
   4  -1   3 1907.37  134.58
  -4  -1  -3 1955.37  139.21
   4  -1   3 1996.17   83.41
   4  -1   3 2004.95   87.01
   4  -1   3 2019.30   88.95
   4  -1   4 3199.05  114.30
   4  -1   4 3192.94  116.24
   4  -1   5 2666.82  106.26
   4  -1   5 2557.82   93.32
   4  -1   5 2472.35  104.18
   4  -1   6   42.93   18.75
   4  -1   6   36.71   20.88
   4  -1   6   64.35   18.79
   4  -1   7 1156.88   51.16
   4  -1   7 1197.96   47.95
   4  -1   7 1210.72   55.20
   4  -1   7 1174.48   55.01
  -4   0  11  560.25   31.47
  -4   0  10 2038.14   77.36
  -4   0   913405.79  227.05
  -4   0   913775.20  196.93
  -4   0   8   74.53   22.76
  -4   0   8   74.19   20.30
  -4   0   7 2151.19   86.06
   4   0  -7 2065.11  153.31
   4   0  -6 3356.40  182.98
   4   0  -5  216.39   48.12
   4   0  -4 3187.74  154.07
   4   0  -3 2845.19  141.06
   4   0  -2 3792.12  151.93
   4   0  -112729.30  263.43
   4   0   0 7884.46  207.24
  -4   0  -1 3311.76  162.02
   4   0   1 3233.91  133.26
   4   0   1 3116.43  143.72
   4   0   2 1360.78  101.40
  -4   0  -2 1446.75  114.41
   4   0   3  224.78   31.10
   4   0   3  174.93   28.01
   4   0   3  155.41   37.14
   4   0   3  177.44   25.92
  -4   0  -3  265.30   54.03
   4   0   414089.84  233.17
   4   0   414375.99  245.27
   4   0   414157.00  241.92
   4   0   510371.47  208.67
   4   0   510220.25  189.01
   4   0   510192.86  202.29
   4   0   510393.93  207.23
   4   0   6   47.68   18.99
   4   0   6   27.42   15.16
   4   0   6   64.17   22.18
   4   0   7  123.59   18.43
   4   0   7  137.04   19.04
   4   0   7  143.23   21.57
   4   0   7  125.66   19.22
   4   0   8 2671.28   54.42
  -4   1  11  664.82   35.17
  -4   1  10  816.80   50.22
  -4   1   9 8099.56  169.75
  -4   1   9 8174.08  159.97
  -4   1   9 7780.67  144.07
  -4   1   8 2837.87  107.41
  -4   1   8 2878.57  101.84
  -4   1   8 2852.44   90.90
  -4   1   7 2312.85   92.91
   4   1  -7 2123.84  156.18
  -4   1   7 2216.85   91.15
   4   1  -6 4973.38  223.80
  -4   1   6 4819.86  129.15
   4   1  -514654.48  352.55
   4   1  -4 3623.30  164.42
   4   1  -3 9722.92  251.74
   4   1  -2 5902.26  184.01
   4   1  -121832.05  333.02
   4   1   021231.07  314.11
   4   1   020260.57  350.60
  -4   1  -1 2543.92  145.35
   4   1   1 2636.58  123.85
   4   1   1 2564.87  122.12
  -4   1  -215496.10  374.37
   4   1   3 1845.92   80.16
   4   1   3 2111.32   90.84
   4   1   3 1937.26   81.78
   4   1   3 2107.51   89.26
   4   1   4 3061.05  108.17
   4   1   4 3179.70  116.21
   4   1   4 3200.66  113.14
   4   1   4 3180.20  113.68
   4   1   5 2489.00   99.39
   4   1   5 2493.51  102.44
   4   1   5 2579.98   94.72
   4   1   5 2396.80   99.91
   4   1   5 2584.73  103.89
   4   1   5 2526.24  100.19
   4   1   6   55.22   16.20
   4   1   6   37.42   17.51
   4   1   6   44.68   17.57
   4   1   6   34.50   16.34
   4   1   7 1155.65   51.69
   4   1   7 1239.83   56.77
   4   1   7 1088.28   47.00
  -4   2  11  532.23   31.05
  -4   2  10 2488.26   84.71
  -4   2  10 2482.97   70.96
  -4   2   9 2950.45   98.83
  -4   2   9 2880.17   99.03
  -4   2   9 2995.70  106.94
  -4   2   9 3089.67   94.51
  -4   2   8 2314.83   94.84
  -4   2   8 2250.12   84.37
  -4   2   8 2393.21   95.91
  -4   2   7  704.68   54.34
   4   2  -7  679.27   91.63
  -4   2   7  714.60   48.71
  -4   2   7  693.93   51.74
   4   2  -6 2927.15  174.33
  -4   2   6 3042.93  104.90
  -4   2   6 2827.51   98.92
   4   2  -5 1255.52  106.70
   4   2  -4 5149.48  195.20
   4   2  -328691.46  431.28
   4   2  -248151.19  519.33
   4   2  -111940.03  235.21
  -4   2   0 8295.87  248.55
   4   2   0 7884.80  228.69
  -4   2  -1 7538.20  253.17
   4   2   1 6954.33  214.95
  -4   2  -2 6007.08  238.63
   4   2   3 1469.52   76.96
   4   2   3 1492.36   77.34
   4   2   3 1614.25   80.52
   4   2   3 1628.96   77.25
   4   2   3 1649.05   77.77
   4   2   419450.67  261.20
   4   2   418805.28  283.74
   4   2   418705.30  277.36
   4   2   419149.82  284.50
   4   2   419307.09  281.94
   4   2   419279.71  272.22
   4   2   5 1016.01   62.58
   4   2   5  947.45   64.58
   4   2   5 1044.64   66.88
   4   2   5  964.75   64.98
   4   2   5 1042.87   62.51
   4   2   6 2327.07   89.20
   4   2   6 2223.67   85.86
   4   2   6 2434.61   92.95
   4   2   6 2356.97   81.97
   4   2   7  704.12   39.74
   4   2   7  720.09   43.22
  -4   3  11  440.37   26.98
  -4   3  10 1485.98   65.21
  -4   3  10 1499.51   56.75
  -4   3   9 1904.50   80.95
  -4   3   9 1910.02   83.95
  -4   3   9 1833.10   74.43
  -4   3   8 4930.12  139.35
  -4   3   8 5073.40  130.06
   4   3  -7  846.44  101.44
  -4   3   7  931.75   62.47
  -4   3   7  922.33   56.07
  -4   3   7  837.70   55.43
   4   3  -6 1392.47  121.81
  -4   3   6 1487.52   75.68
  -4   3   6 1379.11   69.59
   4   3  -5 3801.18  188.38
   4   3  -4    9.55   16.68
   4   3  -353195.16  592.78
   4   3  -258598.98  560.66
  -4   3   1 2736.17  136.60
   4   3  -1 2797.93  144.49
  -4   3   013957.04  329.10
   4   3   014426.23  326.01
  -4   3  -1  234.52   48.01
   4   3   1  361.19   53.31
   4   3   2 8031.24  171.93
   4   3   2 7973.33  176.79
   4   3   2 7981.45  171.81
  -4   3  -3  773.35   53.31
   4   3   3  796.72   58.57
   4   3   3  860.76   60.25
   4   3   3  860.60   61.70
   4   3   3  824.29   57.37
   4   3   3  693.58   51.40
  -4   3  -4 5968.95  146.14
   4   3   4 6074.22  163.71
   4   3   4 6232.59  158.24
   4   3   4 6032.27  162.39
   4   3   4 6094.27  159.47
   4   3   4 6361.33  151.11
   4   3   5 3856.00  114.90
  -4   3  -5 4115.43  114.57
   4   3   5 3867.43  126.73
   4   3   5 3960.21  117.71
   4   3   5 4141.25  131.66
   4   3   5 3886.35  127.16
  -4   3  -6 1963.01   68.67
   4   3   6 1990.16   80.54
   4   3   6 2028.04   82.76
   4   3   7   37.24   12.30
  -4   4  11  492.87   25.08
  -4   4  10  468.75   34.79
  -4   4  10  464.77   31.38
  -4   4   9  213.05   30.31
  -4   4   9  290.30   31.72
  -4   4   814236.24  197.83
  -4   4   813970.53  235.52
  -4   4   813913.24  220.02
  -4   4   7 6447.77  162.75
  -4   4   7 6254.15  149.21
   4   4  -6 9801.81  322.49
  -4   4   6 9869.20  197.76
  -4   4   6 9275.65  181.38
  -4   4   5 3294.61  109.20
   4   4  -5 3016.11  167.98
  -4   4   5 3012.45  101.70
   4   4  -4  738.79   77.97
   4   4  -4  667.95   79.92
   4   4  -313719.73  297.87
   4   4  -313571.02  345.73
  -4   4   251987.66  564.21
   4   4  -253311.15  665.14
  -4   4   1 2343.02  128.81
   4   4  -1 2708.73  149.40
  -4   4   0 8072.84  254.61
   4   4   0 8375.72  264.64
   4   4   1 6888.98  247.90
   4   4   2 2696.25  104.52
  -4   4  -2 2796.71  100.63
   4   4   2 2765.50  106.59
   4   4   2 2680.76  103.28
   4   4   2 2639.32   96.98
  -4   4  -2 2688.93  167.69
  -4   4  -310294.75  196.96
   4   4   310175.34  209.04
   4   4   3 9836.09  205.56
   4   4   3 9906.85  207.75
   4   4   310269.58  203.28
  -4   4  -4 9932.76  192.25
   4   4   4 9639.94  206.99
   4   4   4 9836.63  200.31
   4   4   410043.62  210.93
   4   4   4 9906.72  205.41
  -4   4  -5  890.07   55.72
   4   4   5  869.68   61.12
   4   4   5  868.74   55.62
   4   4   5  916.08   62.83
  -4   4  -5  896.47   55.66
  -4   4  -6  387.07   31.44
   4   4   6  347.50   35.75
   4   4   6  390.07   36.57
  -4   4  -6  323.89   28.62
   4   4   7 2091.31   56.70
  -4   5  10   51.15   13.71
  -4   5  10   41.08   11.71
  -4   5   9 2427.58   70.79
  -4   5   9 2352.20   83.83
  -4   5   9 2489.24   83.13
  -4   5   8 2728.54   88.10
  -4   5   8 2734.72  103.39
  -4   5   8 2654.46   98.96
  -4   5   8 2800.71   97.95
  -4   5   7 1312.98   74.52
  -4   5   7 1203.66   67.92
  -4   5   7 1201.49   62.57
   4   5  -6  147.02   46.59
  -4   5   6  109.29   24.33
  -4   5   6  115.08   21.76
  -4   5   6  142.07   27.30
  -4   5   5  514.38   43.56
   4   5  -5  499.55   73.42
  -4   5   5  513.43   45.74
   4   5  -5  557.56   75.63
  -4   5   5  456.04   42.18
  -4   5   411800.38  198.33
   4   5  -412280.75  346.65
   4   5  -3 8392.89  281.41
   4   5  -2  781.06   87.84
  -4   5   1  902.35   81.72
   4   5  -1  802.77   91.71
   4   5   0 1498.52  120.51
   4   5   1  234.52   31.54
  -4   5  -1  324.98   37.53
   4   5   1  293.45   35.55
   4   5   1  265.56   35.96
   4   5   1  237.50   33.24
   4   5   1  275.69   53.69
  -4   5  -1  383.49   67.07
  -4   5  -1  226.44   30.50
  -4   5  -2 1930.86  149.61
  -4   5  -2 1962.38   88.68
   4   5   2 1998.99   92.49
   4   5   2 1868.61   90.37
   4   5   2 1832.68   89.25
  -4   5  -2 1971.32   84.06
  -4   5  -3  934.17   63.10
   4   5   3  906.60   65.70
   4   5   3  857.04   62.61
   4   5   3  738.91   65.29
   4   5   3  860.65   61.37
   4   5   3  862.96   59.49
  -4   5  -3  819.04   56.30
  -4   5  -4 1365.09   74.81
   4   5   4 1379.22   79.02
   4   5   4 1249.71   73.39
   4   5   4 1367.97   77.36
   4   5   4 1375.43   69.13
  -4   5  -4 1394.75   73.05
   4   5   5 1149.50   61.58
  -4   5  -5 1179.32   63.00
   4   5   5 1180.95   67.87
  -4   5  -5 1210.94   61.20
  -4   5  -6 3307.20   86.71
   4   5   6 3150.07   92.59
  -4   5  -6 2994.32   78.42
   4   5   7 1274.22   38.27
  -4   6  10  144.24   15.13
  -4   6  10  172.21   17.52
  -4   6   9 1339.44   51.57
  -4   6   9 1311.41   55.74
  -4   6   9 1377.53   58.76
  -4   6   8  352.57   32.93
  -4   6   8  346.62   36.78
  -4   6   8  286.09   30.80
  -4   6   8  302.95   33.44
  -4   6   7 7167.58  169.02
  -4   6   7 6723.18  150.38
  -4   6   7 6773.73  157.35
  -4   6   6 1285.14   72.82
  -4   6   6 1236.76   64.20
  -4   6   6 1145.48   65.77
  -4   6   5 3731.23  119.37
  -4   6   5 3705.11  118.03
  -4   6   5 3775.12  120.55
  -4   6   5 3879.11  121.61
  -4   6   4 2484.81   91.75
  -4   6   4 2547.80   97.03
  -4   6   4 2349.38   91.12
   4   6  -4 2249.45  152.95
  -4   6   4 2292.60   92.48
   4   6  -3 5621.57  150.54
  -4   6   3 5381.89  137.03
   4   6  -3 5594.30  241.09
   4   6  -2 2819.49  108.15
  -4   6   2 2620.77   92.43
   4   6  -2 3000.37  174.95
   4   6  -1 3962.96  128.24
  -4   6   1 3543.75  105.19
   4   6  -1 3888.64  202.12
  -4   6   1 3856.62  210.33
   4   6  -1 3541.46  114.78
   4   6   0 2549.94  104.12
  -4   6   0 2566.03  100.93
   4   6   0 2589.68  102.33
   4   6   0 2706.85  169.99
  -4   6   0 2561.24  174.21
  -4   6   0 2606.51   98.46
  -4   6  -1 9992.10  202.22
   4   6   110116.84  208.27
  -4   6  -110095.80  195.99
  -4   6  -110245.42  353.83
  -4   6  -2   54.31   22.19
   4   6   2   24.83   18.58
   4   6   2   46.05   21.65
   4   6   2   26.30   17.30
  -4   6  -2   48.03   18.31
  -4   6  -3 3471.46  120.57
   4   6   3 3757.60  131.69
   4   6   3 3629.22  127.87
   4   6   3 3423.06  119.12
  -4   6  -3 3875.08  122.18
  -4   6  -4 2618.66  100.06
   4   6   4 2568.46  102.52
   4   6   4 2588.54   93.80
  -4   6  -4 2812.92  100.16
  -4   6  -5 3597.90  105.08
   4   6   5 3516.92  101.81
   4   6   5 3580.12  111.48
  -4   6  -5 3815.93  103.76
  -4   6  -6  113.59   17.18
   4   6   6  117.73   18.63
  -4   6  -6  101.92   14.73
  -4   7  10  510.77   23.93
  -4   7   9   49.70   11.82
  -4   7   9   65.61   15.45
  -4   7   8  158.35   23.08
  -4   7   8  187.27   26.22
  -4   7   7 8189.17  171.64
  -4   7   7 7876.45  165.10
  -4   7   6  103.32   24.77
  -4   7   6   43.60   17.40
  -4   7   5  515.22   45.82
  -4   7   5  515.66   46.49
  -4   7   5  523.15   44.29
  -4   7   5  499.98   44.93
  -4   7   4  359.36   39.15
  -4   7   4  339.66   38.57
  -4   7   4  330.26   35.06
   4   7  -4  360.59   64.64
  -4   7   4  377.29   39.55
  -4   7   3 5315.36  138.78
  -4   7   3 5392.94  140.92
   4   7  -3 5574.27  248.09
  -4   7   3 5099.29  242.33
  -4   7   2 6432.12  151.23
   4   7  -2 6176.87  147.67
   4   7  -2 6258.79  155.88
   4   7  -2 6809.92  278.16
  -4   7   2 6153.34  277.26
  -4   7   1 5823.59  139.52
   4   7  -1 5838.54  151.41
   4   7  -1 5808.12  155.70
   4   7  -1 6162.18  267.13
  -4   7   1 5793.27  269.93
  -4   7   0 5022.64  254.76
  -4   7   0 4856.12  125.56
   4   7   0 4882.18  147.14
   4   7   0 4818.11  135.44
   4   7   0 4992.67  146.00
  -4   7  -1 2984.69  112.51
   4   7   1 2887.59  115.27
   4   7   1 2761.52  113.32
   4   7   1 2794.49  108.94
  -4   7  -1 2864.67  109.04
  -4   7  -2 9021.87  193.71
   4   7   2 9013.49  203.62
   4   7   2 8652.72  194.60
   4   7   2 8560.36  194.94
  -4   7  -3  451.00   44.05
   4   7   3  436.64   46.88
   4   7   3  427.55   43.46
   4   7   3  432.95   45.47
  -4   7  -3  468.90   44.07
  -4   7  -4 2044.60   84.82
   4   7   4 2012.58   84.90
   4   7   4 1919.51   78.30
   4   7   4 2029.08   89.52
  -4   7  -4 2046.69   82.56
  -4   7  -5   28.33   14.37
   4   7   5   11.40   12.64
  -4   7  -5   28.57   13.69
  -4   7  -6   88.55   13.26
   4   7   6  124.67   16.08
  -4   8   9  662.22   29.27
  -4   8   9  700.86   33.44
  -4   8   8 1508.31   58.11
  -4   8   8 1544.60   61.04
  -4   8   7 1381.77   65.46
  -4   8   6 1990.57   83.45
  -4   8   6 1938.33   80.19
  -4   8   5 4639.25  132.60
  -4   8   5 4520.04  129.07
  -4   8   5 4616.52  123.00
  -4   8   5 4492.11  128.48
  -4   8   4 2726.98  102.88
  -4   8   4 2690.43  104.38
  -4   8   4 2640.08  101.50
  -4   8   3 1931.49   87.02
  -4   8   3 1864.82   85.65
  -4   8   2 6738.48  159.19
   4   8  -2 6549.50  160.46
  -4   8   1 9535.03  183.53
   4   8  -1 9200.28  198.88
   4   8  -1 9195.62  194.15
  -4   8   0 3864.31  113.52
   4   8   0 3792.47  130.30
   4   8   0 3805.91  130.76
   4   8   0 3862.72  123.13
   4   8   1 5259.56  153.83
   4   8   1 4985.62  151.05
   4   8   1 5143.39  146.18
  -4   8  -2 8527.82  186.29
   4   8   2 8729.23  197.21
   4   8   2 8571.15  191.09
   4   8   2 8215.71  186.55
  -4   8  -2 8692.18  188.32
  -4   8  -3 4136.38  122.50
   4   8   3 4185.09  127.86
   4   8   3 3998.58  121.52
   4   8   3 3998.86  127.38
  -4   8  -3 4259.11  123.15
  -4   8  -4 5619.10  129.31
   4   8   4 5216.32  120.28
   4   8   4 5528.52  137.13
  -4   8  -4 5612.55  128.44
  -4   8  -5  341.90   28.06
   4   8   5  345.98   29.26
  -4   9   8 1593.30   52.00
  -4   9   8 1598.39   52.94
  -4   9   7  321.46   29.81
  -4   9   6 4330.62  115.06
  -4   9   5  875.85   55.85
  -4   9   5  758.22   50.59
  -4   9   4 7407.96  165.70
  -4   9   4 7164.90  162.12
  -4   9   4 7033.84  160.81
  -4   9   3 1815.00   83.96
  -4   9   3 1726.96   82.20
  -4   9   3 1717.95   82.90
  -4   9   2  730.33   53.78
   4   9  -2  770.32   55.15
  -4   9   1  877.89   57.04
   4   9  -1  947.58   64.06
  -4   9   0 3129.04  100.86
   4   9   0 3001.27  114.62
   4   9   0 3074.01  105.70
  -4   9  -1 3523.44   97.37
   4   9   1 3614.29  123.18
   4   9   1 3442.22  115.75
   4   9   2  682.35   52.93
   4   9   2  788.06   55.68
   4   9   3 2604.00   91.58
   4   9   3 2558.42   92.66
   4   9   4 1814.27   62.82
   4   9   4 1902.41   70.71
   4   9   5   95.68   13.70
  -4  10   8 1315.11   36.53
  -4  10   7  422.93   28.87
  -4  10   7  496.70   29.84
  -4  10   6  509.14   35.39
  -4  10   5  921.21   49.60
  -4  10   4  820.61   53.25
  -4  10   4  851.06   53.41
  -4  10   4  792.79   51.02
  -4  10   3   93.26   23.51
  -4  10   3   65.19   18.46
  -4  10   3   85.20   22.84
  -4  10   2 1625.19   77.46
  -4  10   2 1599.22   75.26
   4  10  -2 1581.03   71.56
  -4  10   1 1874.14   78.93
   4  10  -1 1916.44   83.99
  -4  10   0 3015.34   93.40
   4  10   0 3214.11  110.58
  -4  10  -1 2224.21   71.27
   4  10   1 2310.45   92.83
   4  10   2  324.85   34.42
   4  10   2  261.12   29.85
   4  10   3 2975.08   86.44
   4  10   3 3075.80   88.01
   4  10   4 6519.37   93.21
  -4  11   7    3.06    4.22
  -4  11   6    5.69    6.46
  -4  11   5   61.49   12.76
  -4  11   4  557.25   39.61
  -4  11   4  587.31   39.40
  -4  11   4  561.87   36.07
  -4  11   3 1921.03   74.16
  -4  11   3 1937.91   74.90
  -4  11   3 1855.90   72.01
  -4  11   2  639.33   44.31
  -4  11   2  556.75   40.67
  -4  11   2  558.06   41.93
  -4  11   1   32.53   15.94
  -4  11   1   24.46   12.72
   4  11  -1   11.03   12.34
  -4  11   0  110.16   19.01
   4  11   0  119.02   22.14
  -4  11  -1  758.14   34.68
   4  11   1  868.37   50.43
   4  11   2  826.63   45.04
   4  11   3 1242.10   43.92
  -4  12   4  637.73   28.83
  -4  12   3 2757.90   73.88
  -4  12   3 2824.02   74.58
  -4  12   3 2732.12   69.51
  -4  12   2 1056.79   47.68
  -4  12   2 1074.80   46.60
  -4  12   2 1017.09   46.23
  -4  12   1  419.15   30.72
  -4  12   1  433.18   28.86
   4  12  -1  335.98   24.77
  -4  12   1  367.38   29.01
  -4  12   0  265.68   23.94
  -4  12   0  302.78   21.28
   4  12   0  328.92   25.36
  -4  12   0  271.77   25.10
  -4  12  -1  212.68   19.59
  -4  12  -1  304.76   22.78
  -4  12  -2   97.43   11.94
   4  12   2 2248.18   52.20
  -4  13   1   41.62    8.41
   5 -12  -3  213.75   15.55
  -5 -12   3  283.69   17.83
   5 -12  -2   32.31    8.06
  -5 -11   6 1432.69   39.66
  -5 -11   6  569.92   25.52
  -5 -11   5 2128.60   56.41
  -5 -11   5 2111.93   57.26
   5 -11  -4 1883.63   50.83
   5 -11  -4 2021.67   56.56
  -5 -11   4 1841.13   57.60
   5 -11  -3  143.40   18.61
  -5 -11   3  122.56   16.24
   5 -11  -2 3782.19   87.31
  -5 -11   2 2645.38   64.40
   5 -11  -1 2437.25   67.99
   5 -11  -1 2371.04   58.14
   5 -11   0  409.70   25.89
   5 -11   0  388.90   25.11
   5 -11   1  152.20   14.74
  -5 -10   7  629.33   28.94
  -5 -10   7  586.94   27.29
  -5 -10   6  195.37   18.96
  -5 -10   6  194.54   21.67
  -5 -10   6  227.68   21.09
   5 -10  -5  254.52   21.91
  -5 -10   5  222.65   25.96
  -5 -10   5  249.57   22.70
   5 -10  -4  773.22   42.63
   5 -10  -3 1954.91   72.60
   5 -10  -2   47.64   11.85
   5 -10  -2   54.54   18.48
   5 -10  -1 4637.15  111.89
   5 -10  -1 4404.11   99.78
   5 -10   0 4280.88   99.49
   5 -10   0 4303.72   99.40
   5 -10   1  581.29   31.72
   5 -10   1  653.34   37.41
   5 -10   2  235.67   20.75
  -5  -9   8  429.24   22.17
  -5  -9   8  472.53   26.48
  -5  -9   7  132.09   14.47
  -5  -9   7  130.78   18.25
  -5  -9   7  135.02   19.32
  -5  -9   6 1013.73   52.75
   5  -9  -5 2256.79   74.37
   5  -9  -5 2350.67   74.61
  -5  -9   5 2224.37   80.61
   5  -9  -4 1390.03   63.71
  -5  -9   4 1297.70   61.37
   5  -9  -3  612.22   45.92
   5  -9  -2 2982.92  101.52
   5  -9  -2 2862.54   85.71
   5  -9  -1 1449.07   69.61
   5  -9  -1 1401.11   64.36
   5  -9   0 3375.71  101.24
   5  -9   0 3518.50  101.19
   5  -9   1 2117.49   79.33
   5  -9   1 1899.84   68.05
   5  -9   1 2116.08   76.47
   5  -9   2   13.60   11.40
   5  -9   2   40.06   14.90
   5  -9   3 4750.39   88.81
  -5  -8   9 1940.29   46.89
  -5  -8   8 1348.80   48.96
  -5  -8   8 1415.61   56.89
  -5  -8   8 1381.87   46.95
  -5  -8   7  462.27   30.70
  -5  -8   7  491.49   37.99
  -5  -8   7  487.81   39.42
  -5  -8   6  988.56   59.11
   5  -8  -5  801.16   50.40
   5  -8  -5  780.56   48.52
  -5  -8   5  775.81   53.08
   5  -8  -4 2152.57   85.61
  -5  -8   4 2203.30   88.53
   5  -8  -313917.77  226.98
  -5  -8   313976.17  213.63
   5  -8  -2 5851.32  150.51
   5  -8  -2 5823.28  131.98
   5  -8  -1 1383.62   74.10
   5  -8  -1 1274.14   65.54
   5  -8   0  917.26   59.21
   5  -8   0  964.73   58.63
   5  -8   0  936.09   57.93
   5  -8   1  336.60   37.07
   5  -8   1  302.98   32.62
   5  -8   1  276.45   33.35
   5  -8   2  743.07   49.98
   5  -8   2  741.69   48.26
   5  -8   3 6063.73  123.89
   5  -8   3 5717.69  116.75
   5  -8   4 1814.19   49.49
   5  -8   4 2096.93   51.33
  -5  -7   9  148.67   17.40
  -5  -7   9  155.68   17.80
  -5  -7   8 2100.69   67.67
  -5  -7   8 2235.76   79.40
  -5  -7   8 2315.43   75.55
  -5  -7   7  998.94   59.98
  -5  -7   7 1045.26   54.91
   5  -7  -6    3.94   10.31
  -5  -7   6   27.37   17.15
   5  -7  -5 1397.49   71.52
   5  -7  -5 1413.02   67.06
  -5  -7   5 1414.44   76.98
   5  -7  -4 1252.92   68.79
   5  -7  -319989.63  278.35
   5  -7  -210208.97  201.12
   5  -7  -2 9763.73  178.71
   5  -7  -1 2772.51  104.98
   5  -7  -1 2978.68  110.93
   5  -7  -1 2886.13  101.44
   5  -7   0 3437.45  116.53
   5  -7   0 3335.83  114.24
   5  -7   0 3391.42  112.17
   5  -7   1 1333.41   73.91
   5  -7   1 1361.59   67.43
   5  -7   1 1389.76   72.25
   5  -7   2  139.87   25.61
   5  -7   2  107.22   23.52
   5  -7   3   55.49   17.22
   5  -7   3   50.36   17.20
   5  -7   4   60.43   13.30
   5  -7   5  548.63   25.90
  -5  -6  10   97.37   12.84
  -5  -6   9 1921.50   65.53
  -5  -6   9 2056.82   70.51
  -5  -6   8 2018.13   70.10
  -5  -6   8 2103.52   82.79
  -5  -6   8 2045.96   80.55
  -5  -6   7 7462.26  169.79
  -5  -6   7 7755.07  163.57
   5  -6  -6  207.76   27.12
  -5  -6   6  187.24   33.05
   5  -6  -5 1860.85   85.78
   5  -6  -5 1909.01   79.38
   5  -6  -4 2473.50   94.19
   5  -6  -3 9477.48  189.92
   5  -6  -2  741.32   58.55
   5  -6  -2  744.71   50.49
   5  -6  -1  621.51   51.09
   5  -6  -1  684.15   53.78
   5  -6  -1  684.90   50.82
   5  -6   0 4314.67  132.56
   5  -6   0 4157.73  127.72
   5  -6   0 4331.61  128.68
   5  -6   1  869.44   60.43
   5  -6   1  858.98   56.44
   5  -6   1  853.58   58.83
   5  -6   2 1844.70   86.67
   5  -6   2 1872.38   84.93
   5  -6   2 1812.42   76.69
   5  -6   3  333.41   35.16
   5  -6   3  310.97   33.44
   5  -6   3  293.20   30.66
   5  -6   4  492.91   35.35
   5  -6   5  159.23   18.39
  -5  -5  10  436.12   29.71
  -5  -5   9  807.20   46.13
  -5  -5   9  805.61   49.84
  -5  -5   8 1569.11   75.08
  -5  -5   7 1045.66   68.35
  -5  -5   7 1115.58   69.37
   5  -5  -6 1896.45   81.13
  -5  -5   6 1911.65   85.83
   5  -5  -5 6750.70  162.57
  -5  -5   5 6803.10  153.26
   5  -5  -5 6861.53  150.35
   5  -5  -4 1249.11  117.18
   5  -5  -4 1355.75   70.02
   5  -5  -335996.10  611.87
   5  -5  -336469.21  373.76
   5  -5  -2 5980.03  250.65
   5  -5  -2 6127.81  152.28
   5  -5  -2 5819.31  136.27
   5  -5  -110994.81  338.99
   5  -5  -110914.87  206.06
   5  -5  -110444.67  202.76
   5  -5  -111322.24  198.24
   5  -5   0  171.63   47.30
   5  -5   0  183.31   49.67
   5  -5   0  170.11   28.06
   5  -5   0  212.10   32.08
   5  -5   0  140.12   28.73
   5  -5   115542.41  253.90
   5  -5   115291.41  235.10
   5  -5   115883.93  250.65
   5  -5   115302.68  231.60
   5  -5   2 2559.09  102.65
   5  -5   2 2553.32  100.48
   5  -5   2 2655.42   97.41
   5  -5   3  392.53   39.96
   5  -5   3  400.38   39.46
   5  -5   3  371.36   37.85
   5  -5   4  314.77   30.87
   5  -5   4  323.73   32.90
   5  -5   5  523.79   35.41
   5  -5   5  522.04   34.82
   5  -5   6  685.15   27.73
  -5  -4  10 1697.97   63.69
  -5  -4   9 1615.48   67.65
  -5  -4   8  334.00   39.48
  -5  -4   8  319.04   37.00
  -5  -4   7 4399.15  134.33
   5  -4  -6 2250.22   90.54
  -5  -4   6 2268.57   96.54
   5  -4  -5 1208.03   69.76
  -5  -4   5 1152.90   64.91
   5  -4  -5 1172.93  114.58
   5  -4  -5 1155.69   62.63
   5  -4  -4 6710.64  266.35
   5  -4  -4 6879.29  155.24
   5  -4  -3 4188.65  206.07
   5  -4  -3 4286.37  124.91
   5  -4  -2 1052.09  104.04
   5  -4  -2 1151.50   65.76
   5  -4  -2 1247.79   63.04
   5  -4  -1  571.17   76.97
   5  -4  -1  572.25   47.47
   5  -4  -1  578.31   47.71
   5  -4  -1  626.17   47.40
   5  -4   0   70.04   30.89
   5  -4   0   31.11   24.65
   5  -4   0   60.39   18.71
   5  -4   0   54.86   18.74
   5  -4   0   45.13   18.50
   5  -4   110566.20  350.17
   5  -4   110568.82  207.06
   5  -4   110054.53  190.34
   5  -4   110733.33  206.34
   5  -4   110473.17  198.43
   5  -4   2 1824.11   87.86
   5  -4   2 1970.80   89.55
   5  -4   2 1963.33   87.21
   5  -4   3 3932.39  122.12
   5  -4   3 3684.72  118.77
   5  -4   3 3864.22  122.11
   5  -4   4  383.46   34.76
   5  -4   4  412.52   38.55
   5  -4   5  164.23   22.54
   5  -4   5  143.84   18.43
   5  -4   5  162.59   22.72
   5  -4   6  690.36   32.85
   5  -4   6  602.49   27.79
  -5  -3  11  325.85   20.40
  -5  -3  10 1173.25   55.91
  -5  -3   9   73.45   21.29
  -5  -3   9   64.37   16.54
  -5  -3   8 6187.30  160.25
  -5  -3   8 6095.67  151.24
  -5  -3   7 9163.14  196.24
  -5  -3   6  458.08   44.61
   5  -3  -6  367.96   67.41
   5  -3  -6  387.12   39.32
   5  -3  -5 6236.82  154.99
   5  -3  -5 5854.94  254.41
   5  -3  -5 5712.43  139.79
   5  -3  -416431.35  248.96
   5  -3  -415877.29  402.12
   5  -3  -415969.11  231.05
   5  -3  -3 2028.63  141.80
   5  -3  -3 2052.77   84.26
   5  -3  -2  706.27   81.75
   5  -3  -2  647.78   50.04
   5  -3  -1 1517.53  118.73
   5  -3  -1 1684.39   77.57
   5  -3   0 4403.80  206.03
   5  -3   0 4844.71  135.61
   5  -3   0 4674.45  130.72
   5  -3   0 5011.05  134.60
   5  -3   0 4498.72  128.44
  -5  -3  -1 4529.56  216.26
   5  -3   1 4148.60  128.79
   5  -3   1 4059.89  212.36
   5  -3   1 4138.40  121.19
   5  -3   1 4228.74  129.00
   5  -3   1 4108.47  125.53
   5  -3   2 3026.47  110.13
   5  -3   2 2955.77  109.39
   5  -3   2 3002.12  110.52
   5  -3   3 2242.68   93.75
   5  -3   3 2171.63   95.60
   5  -3   4 1992.43   85.56
   5  -3   4 1940.26   78.22
   5  -3   4 1935.94   86.40
   5  -3   5 4974.46  121.62
   5  -3   5 4825.41  122.60
   5  -3   6    7.19    9.38
   5  -3   6   13.81    8.51
   5  -3   6    7.03    7.31
  -5  -2  11  516.73   26.36
  -5  -2  10 5796.26  108.92
  -5  -2   9 4150.99  126.24
  -5  -2   8 4197.98  131.93
  -5  -2   7 3610.50  124.42
   5  -2  -6 2996.56  185.38
   5  -2  -6 2977.10  106.92
   5  -2  -5 8205.77  175.50
  -5  -2   5 8217.19  168.82
   5  -2  -410367.85  194.90
   5  -2  -4 9300.77  302.62
   5  -2  -3 1147.36  103.64
   5  -2  -2 2296.39  141.72
   5  -2  -1 6400.06  234.37
   5  -2   0  706.59   78.31
   5  -2   0  827.31   54.77
   5  -2   0  765.68   53.64
   5  -2   0  697.25   52.49
  -5  -2  -1 3122.46  181.38
   5  -2   1 3100.20  179.74
   5  -2   1 3133.85  109.64
   5  -2   1 3035.95  108.01
   5  -2   2 9783.47  324.52
   5  -2   2 9931.15  199.40
   5  -2   2 9886.59  201.06
   5  -2   3 3268.13  113.62
   5  -2   3 3535.28  121.04
   5  -2   4 1057.34   64.63
   5  -2   4 1048.74   58.32
   5  -2   4 1137.60   68.06
   5  -2   5 3390.41  102.22
   5  -2   5 3054.13   88.09
   5  -2   5 3186.46   99.64
   5  -2   5 3389.57   95.35
   5  -2   5 3311.00  103.03
   5  -2   6 1880.53   62.85
   5  -2   6 1926.65   60.53
   5  -2   6 1920.46   58.57
   5  -2   6 1763.20   62.67
  -5  -1  11  757.49   28.36
  -5  -1  11 1000.02   36.43
  -5  -1  10  160.59   22.01
  -5  -1   9 5983.86  149.42
  -5  -1   8  892.41   62.46
  -5  -1   8  903.03   53.91
  -5  -1   7 2182.65   86.94
   5  -1  -6 4602.16  234.25
  -5  -1   6 4923.18  137.89
   5  -1  -5 4357.47  212.66
  -5  -1   5 4280.89  121.92
   5  -1  -5 3978.15  124.19
   5  -1  -4  496.34   72.06
   5  -1  -3  115.96   38.28
   5  -1  -2 4542.57  194.71
   5  -1  -1  675.47   75.45
   5  -1   0  210.86   44.41
   5  -1   0  176.56   27.97
   5  -1   0  262.56   32.39
  -5  -1  -1 5854.68  246.62
   5  -1   1 5339.48  224.94
   5  -1   1 4950.73  133.65
   5  -1   1 5467.95  134.27
   5  -1   1 5459.48  145.68
   5  -1   1 5239.06  142.06
   5  -1   2  229.15   33.74
   5  -1   2  138.92   41.84
   5  -1   2  204.87   30.17
   5  -1   2  177.77   30.46
  -5  -1  -2  186.02   48.04
   5  -1   315137.86  246.94
   5  -1   314732.21  237.93
   5  -1   314859.47  251.06
   5  -1   4 3807.72  121.75
   5  -1   4 3670.52  121.99
   5  -1   5  230.54   39.04
   5  -1   5  178.86   23.13
   5  -1   5  206.99   28.01
   5  -1   5  190.91   25.21
   5  -1   5  203.55   27.71
   5  -1   6 1825.97   63.59
   5  -1   6 1714.80   60.10
   5  -1   6 1770.21   58.81
  -5   0  11 1425.48   43.76
  -5   0  11 1070.55   35.25
  -5   0  10   10.09   11.42
  -5   0  10    6.19   11.41
  -5   0   913773.59  224.01
  -5   0   913480.70  190.13
  -5   0   8 1239.70   75.07
  -5   0   8 1343.42   68.07
  -5   0   7 7345.32  165.56
   5   0  -6 2041.88  154.61
  -5   0   6 2165.42   91.20
  -5   0   512315.89  209.72
   5   0  -511896.54  217.26
   5   0  -4 3403.14  176.60
   5   0  -3 1639.82  120.95
   5   0  -2  441.24   59.44
   5   0  -1 8014.10  242.56
   5   0   0 1738.29   80.48
   5   0   1   72.97   20.45
   5   0   1    8.03   12.79
   5   0   1   32.09   14.13
  -5   0  -1   70.75   38.80
   5   0   1   18.45   15.59
   5   0   2  724.03   52.44
  -5   0  -2  782.32   95.10
   5   0   2  695.04   54.96
   5   0   2  732.72   56.34
   5   0   338552.97  385.98
   5   0   339442.01  367.38
   5   0   339294.31  402.70
   5   0   338989.03  405.16
   5   0   4 8347.87  182.09
   5   0   4 8047.76  174.31
   5   0   4 8048.12  180.95
   5   0   4 8289.64  170.64
   5   0   4 7910.24  179.28
   5   0   5  235.20   30.92
   5   0   5  193.28   26.91
   5   0   5  226.34   30.75
   5   0   5  213.42   27.22
   5   0   5  211.55   28.79
   5   0   6  285.81   27.31
   5   0   6  263.98   25.23
   5   0   6  275.58   25.20
  -5   1  11 1088.94   39.56
  -5   1  10  133.28   20.47
  -5   1  10  171.58   23.17
  -5   1   9 5754.12  142.19
  -5   1   9 5674.83  129.73
  -5   1   8  855.72   57.51
  -5   1   7 2301.42   94.99
  -5   1   7 2063.03   93.04
   5   1  -6 5025.32  237.37
  -5   1   6 4768.12  136.57
   5   1  -5 3632.87  194.17
  -5   1   5 4162.93  123.21
   5   1  -4  545.12   71.48
   5   1  -3  209.35   43.84
   5   1  -2 4804.62  189.18
   5   1  -1  666.37   79.29
  -5   1   0  290.70   55.40
   5   1   0  214.96   30.96
   5   1   0  172.47   38.97
   5   1   1 5259.42  139.68
  -5   1  -1 5717.65  250.66
   5   1   1 5410.82  136.74
   5   1   1 5507.01  147.81
   5   1   1 5140.55  141.65
   5   1   2  219.43   31.08
   5   1   2  180.05   29.37
   5   1   2  169.00   25.73
  -5   1  -2  218.17   53.81
   5   1   2  217.93   33.02
   5   1   314964.79  249.36
   5   1   314488.45  250.45
   5   1   314446.36  249.08
   5   1   314506.27  228.46
   5   1   314649.04  247.22
   5   1   4 3700.17  122.78
   5   1   4 3559.08  118.18
   5   1   4 3418.47  121.15
   5   1   4 3632.05  115.24
   5   1   4 3578.31  118.70
   5   1   5  177.45   28.61
   5   1   5  158.59   23.78
   5   1   5  191.98   28.13
   5   1   5  175.73   25.90
   5   1   6 1786.15   63.73
   5   1   6 1797.64   63.13
   5   1   6 1793.36   60.82
  -5   2  11  527.54   27.75
  -5   2  10 5592.66  109.39
  -5   2  10 6058.32  122.99
  -5   2   9 4010.73  114.32
  -5   2   9 3940.61  110.64
  -5   2   8 3875.02  121.86
  -5   2   8 3967.62  104.15
  -5   2   7 3662.51  121.87
  -5   2   7 3464.07  101.80
  -5   2   7 3479.50  119.16
   5   2  -6 3029.04  185.18
  -5   2   6 3036.51  110.16
   5   2  -5 7684.87  280.74
   5   2  -5 7820.74  168.48
   5   2  -4 8355.97  281.83
   5   2  -3 1204.95   96.99
  -5   2   1 6763.69  248.79
   5   2  -1 6581.33  245.37
  -5   2   0  810.04   91.00
   5   2   0  773.10   56.38
   5   2   0  808.71   84.26
   5   2   1 3344.00  111.38
   5   2   1 3005.18  105.33
  -5   2  -1 3076.30  183.88
   5   2   1 3147.56  109.04
   5   2   210261.93  201.25
   5   2   210088.55  210.73
   5   2   2 9709.52  201.47
   5   2   2 9865.87  183.50
   5   2   3 3403.39  119.81
   5   2   3 3414.90  122.44
   5   2   3 3499.19  123.26
   5   2   3 3299.30  110.28
   5   2   4 1155.93   69.34
   5   2   4 1105.61   66.77
   5   2   4 1154.99   70.66
   5   2   4 1109.90   64.92
   5   2   5 3317.96  104.92
   5   2   5 3181.15   93.96
   5   2   5 3269.97  105.05
   5   2   5 3242.12   98.38
   5   2   6 1936.69   64.37
  -5   3  11  311.12   20.01
  -5   3  10 1140.52   51.62
  -5   3  10 1065.56   39.36
  -5   3   9   71.80   16.81
  -5   3   9   81.75   19.66
  -5   3   9   54.02   14.51
  -5   3   8 6179.29  152.45
  -5   3   8 6042.25  133.87
  -5   3   7 9211.99  194.28
  -5   3   7 8862.18  186.17
   5   3  -6  362.58   67.59
  -5   3   6  377.69   42.16
  -5   3   6  443.97   43.80
   5   3  -5 5986.63  150.77
  -5   3   5 6233.60  150.54
   5   3  -415466.70  247.33
  -5   3   415637.66  230.79
   5   3  -3 1947.39   89.80
   5   3  -3 2121.25  150.16
  -5   3   2  654.58   77.31
   5   3  -2  691.28   54.70
   5   3  -2  646.77   83.30
  -5   3   1 1579.07  121.54
   5   3  -1 1562.66   81.65
   5   3  -1 1468.34   73.25
   5   3  -1 1538.50  123.18
   5   3   0 4578.57  138.40
   5   3   0 4503.96  127.55
  -5   3   0 4662.53  219.15
   5   3   0 4792.05  138.65
   5   3   0 4507.09  124.46
   5   3   0 4660.88  210.59
   5   3   1 4286.81  127.56
  -5   3  -1 4385.10  120.86
   5   3   1 4439.44  131.23
   5   3   1 4292.24  135.14
   5   3   1 4161.57  127.81
  -5   3  -1 4152.37  215.98
  -5   3  -2 3164.90  102.53
   5   3   2 3025.93  113.42
   5   3   2 3047.01  116.23
   5   3   2 2923.66  110.55
   5   3   2 2907.43  102.20
  -5   3  -3 2247.36   84.55
   5   3   3 2244.17   99.10
   5   3   3 2217.88   98.60
   5   3   3 2221.42   97.86
   5   3   3 2311.78   93.01
   5   3   4 2009.11   89.64
   5   3   4 1836.77   83.41
   5   3   4 1889.73   88.67
   5   3   4 1911.09   82.22
   5   3   5 4929.06  125.75
   5   3   5 4745.49  112.24
   5   3   5 4856.43  118.40
   5   3   6   25.60   11.19
  -5   4  10 1730.29   58.72
  -5   4  10 1760.17   50.28
  -5   4   9 1728.87   64.81
  -5   4   9 1773.45   72.13
  -5   4   9 1721.00   70.58
  -5   4   9 1703.87   64.64
  -5   4   8  384.53   39.68
  -5   4   8  327.06   33.57
  -5   4   7 4223.58  131.87
  -5   4   7 4026.66  124.45
  -5   4   6 2393.40   99.17
  -5   4   6 2307.93   97.07
   5   4  -5 1139.45   67.48
   5   4  -5 1164.90  117.85
  -5   4   5 1131.51   66.61
   5   4  -4 6569.18  167.14
   5   4  -4 6654.84  277.64
  -5   4   4 7023.37  158.79
   5   4  -3 4258.78  136.00
   5   4  -3 4174.54  217.53
  -5   4   3 4334.04  121.08
   5   4  -2 1129.92   70.61
  -5   4   2 1078.84   97.14
   5   4  -2 1114.53  111.47
  -5   4   2 1164.13   61.48
   5   4  -1  556.70   50.90
  -5   4   1  533.44   72.42
   5   4  -1  547.63   46.21
   5   4  -1  594.53   81.16
   5   4   0   75.31   20.43
   5   4   0   39.91   19.59
   5   4   0   58.74   19.34
   5   4   0   92.48   24.35
  -5   4   0   57.84   31.48
   5   4   0   41.31   25.00
   5   4   110745.72  204.06
  -5   4  -110735.75  197.77
   5   4   110550.99  207.71
   5   4   110654.80  215.86
   5   4   110206.86  204.91
  -5   4  -2 1997.40   85.59
   5   4   2 2036.05   94.67
   5   4   2 1913.63   95.98
   5   4   2 1957.79   92.70
  -5   4  -3 3959.74  114.55
   5   4   3 3947.75  130.97
   5   4   3 3882.38  129.60
   5   4   3 3566.37  127.71
   5   4   3 3743.89  119.58
   5   4   3 3807.71  117.60
  -5   4  -4  405.17   33.58
   5   4   4  410.89   41.94
   5   4   4  401.54   41.36
   5   4   5  198.20   27.30
   5   4   5  165.14   22.37
   5   4   6  659.80   32.71
  -5   5  10  405.35   24.91
  -5   5  10  408.71   23.49
  -5   5   9  776.68   43.83
  -5   5   9  794.92   43.27
  -5   5   8 1585.10   73.91
  -5   5   8 1510.04   68.41
  -5   5   8 1628.95   70.93
  -5   5   7 1060.17   65.60
  -5   5   7 1147.31   63.56
  -5   5   6 1844.98   87.42
  -5   5   6 1860.93   85.33
   5   5  -5 6817.22  165.60
  -5   5   5 6851.05  165.45
  -5   5   5 6542.30  163.21
   5   5  -4 1356.89   76.78
   5   5  -4 1241.80  122.82
  -5   5   4 1375.37   73.89
   5   5  -336803.58  403.06
   5   5  -337096.47  659.11
  -5   5   336867.52  366.76
  -5   5   2 5799.46  137.03
   5   5  -2 5908.17  161.99
   5   5  -2 5974.67  262.91
  -5   5   2 6102.02  145.65
   5   5  -110675.64  218.33
   5   5  -110602.85  202.43
   5   5  -111148.66  355.12
   5   5   0  157.33   29.02
   5   5   0  158.00   29.30
   5   5   0  171.37   47.08
   5   5   116051.57  252.70
  -5   5  -115872.76  247.27
   5   5   116121.65  262.43
   5   5   115643.40  264.69
  -5   5  -2 2643.67  100.47
   5   5   2 2524.56  107.19
   5   5   2 2449.73  107.16
  -5   5  -3  405.00   39.35
   5   5   3  380.16   43.32
   5   5   3  381.03   44.29
   5   5   3  374.58   37.57
  -5   5  -4  344.09   31.72
   5   5   4  342.98   37.73
   5   5   4  314.49   35.47
   5   5   5  488.77   32.62
   5   5   5  545.28   38.41
   5   5   6  700.62   28.97
  -5   6  10   96.24   10.56
  -5   6   9 1932.94   56.89
  -5   6   9 1987.55   63.26
  -5   6   8 1793.87   62.14
  -5   6   8 1985.19   79.06
  -5   6   8 1823.47   66.44
  -5   6   8 2098.55   76.60
  -5   6   7 7102.73  158.77
  -5   6   7 7078.00  145.26
  -5   6   6  228.11   32.57
  -5   6   6  202.93   29.10
  -5   6   6  220.92   31.65
  -5   6   5 1904.43   85.69
  -5   6   5 1781.04   84.82
  -5   6   4 2399.61   86.77
  -5   6   4 2294.95   93.12
  -5   6   4 2404.52   98.82
   5   6  -3 9018.49  206.71
  -5   6   3 9413.31  183.23
  -5   6   3 9452.21  190.15
   5   6  -2  794.93   62.70
  -5   6   2  766.42   51.66
   5   6  -2  761.44   53.48
   5   6  -1  589.64   54.33
  -5   6   1  626.68   44.39
   5   6  -1  606.11   51.00
   5   6   0 4152.05  134.51
   5   6   1  844.94   63.63
  -5   6  -2 1902.82   85.57
   5   6   2 1932.06   92.29
   5   6   2 1918.85   88.90
  -5   6  -3  357.51   35.36
   5   6   3  344.05   39.58
   5   6   3  299.44   32.89
   5   6   4  443.16   39.03
   5   6   4  485.58   32.35
   5   6   4  504.68   40.41
   5   6   5  164.17   20.27
  -5   7   9  158.29   16.99
  -5   7   8 2028.93   62.60
  -5   7   8 2365.70   76.59
  -5   7   7  987.33   56.16
  -5   7   7  895.10   54.15
  -5   7   6   28.60   15.03
  -5   7   6    4.73   11.47
  -5   7   6   17.90   15.09
  -5   7   5 1369.73   69.38
  -5   7   5 1419.37   75.10
  -5   7   4 1383.54   67.96
  -5   7   4 1352.03   74.41
  -5   7   320709.52  259.23
  -5   7   320176.70  269.75
  -5   7   320331.55  281.71
  -5   7   210141.41  185.63
   5   7  -210033.22  189.18
  -5   7   1 3143.75   97.98
   5   7  -1 3002.42  109.98
   5   7  -1 3034.67  117.60
   5   7   0 3333.08  119.79
   5   7   0 3403.68  124.36
   5   7   0 3372.01  109.58
   5   7   1 1293.72   76.34
   5   7   1 1268.56   75.39
   5   7   1 1320.06   72.61
   5   7   2  144.22   28.10
   5   7   2  142.59   27.21
   5   7   2  114.39   24.97
   5   7   3   75.22   22.48
   5   7   3   68.10   18.76
   5   7   3   80.90   20.50
   5   7   4   88.11   18.58
   5   7   4   85.59   13.67
   5   7   4   92.58   18.94
   5   7   5  703.68   32.23
  -5   8   9 1749.34   43.76
  -5   8   8 1068.88   41.10
  -5   8   8 1480.45   53.43
  -5   8   7  511.49   36.95
  -5   8   6  962.04   51.09
  -5   8   6  921.66   47.47
  -5   8   5  807.08   55.09
  -5   8   4 2240.04   85.07
  -5   8   4 2114.80   90.70
  -5   8   314035.77  215.63
  -5   8   314068.19  222.14
   5   8  -313699.19  216.26
  -5   8   313595.18  230.23
  -5   8   2 5803.64  141.05
  -5   8   2 5701.98  137.87
   5   8  -2 5558.27  148.64
  -5   8   2 5789.74  147.88
  -5   8   1 1344.43   63.56
   5   8  -1 1266.22   71.00
   5   8  -1 1391.62   76.78
   5   8   0  870.13   61.89
   5   8   0  964.82   64.40
   5   8   0  950.00   55.82
   5   8   1  290.11   37.93
   5   8   1  348.44   39.27
   5   8   1  305.74   34.22
   5   8   2  832.26   58.97
   5   8   2  728.59   50.78
   5   8   2  670.64   47.37
   5   8   3 6051.52  129.42
   5   8   3 5885.85  119.38
   5   8   3 6115.05  126.61
   5   8   4 2367.92   65.89
  -5   9   8  192.23   14.15
  -5   9   8  481.11   25.29
  -5   9   7  144.74   18.86
  -5   9   5 2015.17   69.62
  -5   9   5 2216.45   82.36
  -5   9   4 1434.43   63.93
  -5   9   4 1405.77   68.95
  -5   9   3  599.04   43.56
  -5   9   3  587.57   44.05
  -5   9   3  634.65   47.94
  -5   9   2 2788.35   92.08
  -5   9   2 2755.00   91.25
   5   9  -2 2730.77   96.43
  -5   9   2 2772.98   98.76
  -5   9   1 1356.72   60.60
   5   9  -1 1302.65   70.89
   5   9   0 3408.01  112.52
   5   9   0 3527.94   95.81
   5   9   1 1997.82   82.72
   5   9   1 2095.31   74.95
   5   9   2   14.45   12.33
   5   9   2    7.03   10.81
  -5   9  -2   15.10    8.44
   5   9   3 4876.27   93.84
   5   9   3 4851.55   95.29
  -5  10   7  250.90   17.23
  -5  10   7  588.03   26.85
  -5  10   6  153.61   18.73
  -5  10   5  210.71   23.64
  -5  10   4  741.94   42.37
  -5  10   4  721.52   44.85
  -5  10   3 1928.33   69.25
  -5  10   3 1902.51   73.06
  -5  10   2   56.52   15.86
  -5  10   2   55.77   15.02
   5  10  -2   55.79   14.57
  -5  10   2   51.52   16.13
  -5  10   1 4474.31  105.59
   5  10  -1 4462.35  113.98
  -5  10   1 4561.45  111.85
   5  10   0 4366.14  111.77
  -5  10   0 4257.42  100.70
   5  10   1  686.54   42.67
  -5  10  -1  626.27   34.16
   5  10   2  277.10   23.82
  -5  10  -2  178.14   14.33
  -5  11   6  550.43   22.98
  -5  11   5 2005.69   49.98
  -5  11   4 1876.94   58.00
  -5  11   3  110.84   16.55
  -5  11   3  156.93   19.83
  -5  11   2 3683.02   80.53
  -5  11   2 3711.53   87.89
  -5  11   1 2387.72   64.59
   5  11  -1 2386.26   66.51
  -5  11   1 2486.20   69.83
   5  11   0  414.90   28.68
  -5  11   0  399.40   26.45
   5  11   1  175.42   17.47
  -5  11  -1  150.27   13.89
  -5  12   3  234.82   16.00
  -5  12   2   18.66    6.79
  -5  12   1 1189.62   35.38
  -6 -10   5 1697.30   50.86
   6 -10  -4 2282.34   58.14
   6 -10  -4 2244.82   58.46
   6 -10  -3  508.89   30.69
   6 -10  -3  530.31   31.24
   6 -10  -2 1127.00   45.75
   6 -10  -2 1195.79   46.27
   6 -10  -1  209.05   18.77
   6 -10  -1  181.29   14.98
   6 -10   0   15.72    6.16
   6 -10   0   25.95    6.94
  -6  -9   7  247.88   17.53
  -6  -9   7  222.36   16.71
  -6  -9   6  757.11   31.45
  -6  -9   6  830.58   39.81
  -6  -9   6  788.53   35.93
   6  -9  -5  637.25   35.05
   6  -9  -5  675.93   34.41
  -6  -9   5  645.98   33.91
   6  -9  -4  353.85   29.87
   6  -9  -4  355.30   29.52
   6  -9  -3  889.58   48.47
   6  -9  -3  908.83   48.72
   6  -9  -2   98.10   14.10
   6  -9  -2  126.16   20.32
   6  -9  -1 1160.25   51.68
   6  -9  -1 1118.36   46.93
   6  -9   0  538.93   31.36
   6  -9   0  553.29   32.64
   6  -9   1   49.55   11.25
  -6  -8   8  323.20   21.40
  -6  -8   7   99.06   14.96
  -6  -8   7  117.94   17.19
  -6  -8   6  662.77   41.72
   6  -8  -6  640.41   34.87
   6  -8  -5 2445.58   78.22
   6  -8  -5 2477.38   76.21
  -6  -8   5 2462.56   79.83
   6  -8  -4 2228.41   81.88
   6  -8  -4 2231.49   79.44
  -6  -8   4 2237.57   75.53
   6  -8  -3  490.51   40.19
   6  -8  -2  681.45   46.46
   6  -8  -2  657.56   40.07
   6  -8  -1 1915.47   74.54
   6  -8  -1 2002.48   71.68
   6  -8   0  431.44   33.46
   6  -8   0  348.64   31.41
   6  -8   1   78.45   16.26
   6  -8   1   81.68   12.79
   6  -8   2 2727.26   67.43
  -6  -7   8 1059.12   37.36
  -6  -7   8 1432.52   53.68
  -6  -7   7  510.36   37.80
   6  -7  -6 1051.92   47.62
  -6  -7   6 1007.37   57.89
   6  -7  -6 1064.34   51.95
   6  -7  -5 2435.65   86.56
   6  -7  -5 2378.07   83.77
  -6  -7   5 2426.63   90.00
   6  -7  -4 3493.33  110.50
   6  -7  -4 3419.10  106.38
  -6  -7   4 3393.81  106.55
   6  -7  -3 2132.41   86.86
  -6  -7   3 2154.73   80.63
   6  -7  -2 1127.20   64.39
   6  -7  -2 1165.37   58.30
   6  -7  -1 3274.69  105.49
   6  -7  -1 3110.77   97.65
   6  -7   0 5478.56  128.71
   6  -7   0 5693.54  132.28
   6  -7   1 1015.82   48.19
   6  -7   1 1044.02   55.19
   6  -7   2 1230.25   53.70
   6  -7   3  996.60   38.12
  -6  -6   9  517.70   28.41
  -6  -6   9  530.17   26.75
  -6  -6   8  236.51   20.24
  -6  -6   8  259.58   27.31
  -6  -6   8  279.47   24.82
  -6  -6   7 3067.85  100.30
  -6  -6   7 3081.85   86.47
   6  -6  -6  706.74   43.36
  -6  -6   6  800.98   55.08
   6  -6  -6  655.58   46.01
   6  -6  -5  187.33   28.07
   6  -6  -5  162.71   26.24
   6  -6  -412658.01  220.51
   6  -6  -412974.87  213.95
   6  -6  -3 9028.09  184.22
   6  -6  -3 8973.95  158.10
   6  -6  -2 3048.63  107.48
   6  -6  -2 2823.10   95.39
   6  -6  -1 4273.55  125.78
   6  -6  -1 4150.44  120.70
   6  -6   0 4173.68  118.60
   6  -6   0 4160.24  120.59
   6  -6   1 4670.94  112.61
   6  -6   1 4613.10  123.98
   6  -6   2 1820.92   72.34
   6  -6   3  419.84   25.23
   6  -6   3  576.01   34.66
   6  -6   4 1044.74   36.12
  -6  -5   9 2402.91   68.14
  -6  -5   9 2482.60   70.88
  -6  -5   8 2788.79   90.59
  -6  -5   8 2869.94   87.87
  -6  -5   7  131.68   27.28
  -6  -5   6 2221.61   83.39
   6  -5  -6 2163.51   79.03
   6  -5  -6 2131.27   86.69
   6  -5  -5  289.88   35.74
   6  -5  -5  243.47   31.12
   6  -5  -4 1608.79   80.16
   6  -5  -4 1594.21   78.42
   6  -5  -316297.44  251.81
   6  -5  -315615.81  220.10
   6  -5  -2 2157.91   94.40
   6  -5  -2 2180.12   86.31
   6  -5  -1 2015.00   88.71
   6  -5  -1 1796.08   82.09
   6  -5   0  657.35   51.51
   6  -5   0  724.37   52.76
   6  -5   1 7033.39  150.47
   6  -5   1 7362.94  163.33
   6  -5   2  634.60   40.33
   6  -5   2  745.57   50.47
   6  -5   3  153.78   19.65
   6  -5   3  170.39   22.74
   6  -5   4  172.96   16.59
   6  -5   4  150.03   15.19
  -6  -4  10  282.52   21.61
  -6  -4   9  945.69   45.41
  -6  -4   9  970.23   50.19
  -6  -4   8 3127.84   99.25
  -6  -4   8 3000.15   98.49
  -6  -4   7 2453.26   91.08
  -6  -4   6  849.62   55.40
   6  -4  -6  829.80   51.42
   6  -4  -6  840.15   56.86
   6  -4  -5 4997.84  140.69
   6  -4  -5 5204.02  136.92
   6  -4  -432208.16  362.42
   6  -4  -432307.73  353.47
   6  -4  -3 9149.92  196.07
   6  -4  -3 9057.93  191.15
   6  -4  -3 9026.30  169.17
   6  -4  -2  424.29   43.87
   6  -4  -2  360.13   40.13
   6  -4  -2  409.37   39.23
   6  -4  -1  112.97   24.82
   6  -4  -1  108.78   25.94
   6  -4   0 3022.47  107.54
   6  -4   0 3241.18  112.76
   6  -4   0 3011.57  109.25
   6  -4   1  301.74   34.11
   6  -4   1  311.55   37.04
   6  -4   2  300.07   29.63
   6  -4   2  315.82   36.07
   6  -4   3 3999.45   98.63
   6  -4   3 4131.60  106.58
   6  -4   4  283.72   23.69
   6  -4   4  217.29   21.55
  -6  -3  10  707.37   37.60
  -6  -3   9 1475.65   58.38
  -6  -3   8 1349.06   68.81
  -6  -3   8 1171.53   63.10
  -6  -3   7  768.82   56.78
  -6  -3   6  590.99   47.95
   6  -3  -6  551.92   43.35
   6  -3  -6  539.76   47.50
   6  -3  -5 1682.89   83.64
  -6  -3   5 1767.77   80.65
   6  -3  -5 1675.22   79.79
   6  -3  -4 2806.87  108.82
   6  -3  -4 2815.25  106.86
   6  -3  -3 2544.29  102.94
   6  -3  -3 2537.33  102.08
   6  -3  -3 2396.36   90.20
   6  -3  -2 1721.52   84.26
   6  -3  -2 1854.39   89.01
   6  -3  -2 1944.73   83.87
   6  -3  -1 2848.49  106.71
   6  -3  -1 2886.59  109.43
   6  -3  -1 2844.71  105.53
   6  -3   0 6841.67  158.05
   6  -3   0 6790.62  164.66
   6  -3   0 6788.38  165.75
   6  -3   1 1203.64   68.00
   6  -3   1 1256.11   73.04
   6  -3   2  648.70   44.49
   6  -3   2  737.84   54.09
   6  -3   3 3044.54   90.78
   6  -3   3 2830.46   92.72
   6  -3   4  626.10   37.07
   6  -3   4  587.79   38.82
   6  -3   5  238.98   17.38
   6  -3   5  263.43   19.18
  -6  -2  10 4067.00   77.38
  -6  -2   9 9001.92  166.11
  -6  -2   9 8630.59  139.37
  -6  -2   8 4887.00  132.40
  -6  -2   7 1631.08   82.38
  -6  -2   7 1841.04   76.10
   6  -2  -6 1372.17   68.09
   6  -2  -5 1477.12   78.39
  -6  -2   5 1586.01   75.59
   6  -2  -5 1559.08   82.18
   6  -2  -4 1164.42   69.96
   6  -2  -4 1159.87   69.75
  -6  -2   4 1114.44   61.10
   6  -2  -3 1930.33   89.34
   6  -2  -3 1890.35  145.24
   6  -2  -3 1949.72   90.57
   6  -2  -3 1788.36   78.52
   6  -2  -2 1414.87   75.12
   6  -2  -2 1371.29  121.57
   6  -2  -2 1356.41   77.45
   6  -2  -2 1296.77   70.44
   6  -2  -1 4031.92  123.50
   6  -2  -1 3843.89  130.13
   6  -2  -1 3764.87  123.85
   6  -2   0 1207.64   74.47
   6  -2   0 1351.97   75.74
   6  -2   1   24.09   12.94
   6  -2   1   20.52   17.13
   6  -2   1   25.43   14.99
   6  -2   2 5835.11  136.90
   6  -2   2 5752.22  148.81
   6  -2   3 2811.56   92.11
   6  -2   3 2767.57   93.34
   6  -2   4 1648.77   62.92
   6  -2   4 1608.84   62.99
   6  -2   4 1667.68   67.12
   6  -2   5 1319.50   44.09
   6  -2   5 1385.54   46.81
  -6  -1  10 2688.34   69.79
  -6  -1   9 1444.44   68.89
  -6  -1   8 1671.15   81.08
  -6  -1   8 1731.52   70.95
   6  -1  -610296.67  190.20
  -6  -1   610609.19  203.38
   6  -1  -5 1196.50   68.05
   6  -1  -5 1340.19   75.23
   6  -1  -4  837.15   99.52
   6  -1  -4  877.20   60.95
  -6  -1   4  854.56   55.37
   6  -1  -4  865.60   61.96
   6  -1  -3 2322.83   98.10
   6  -1  -3 2374.19  158.77
   6  -1  -3 2503.90  103.63
   6  -1  -3 2306.92   90.64
   6  -1  -2 6264.32  157.26
   6  -1  -2 6795.13  169.70
   6  -1  -2 6524.02  157.50
   6  -1  -1 4099.86  124.31
   6  -1  -1 4105.03  133.31
   6  -1  -1 3923.95  126.36
   6  -1   0 1718.28   85.55
   6  -1   0 1640.18   84.37
   6  -1   1 3923.37  120.48
   6  -1   1 3921.31  111.37
   6  -1   1 3771.52  127.38
   6  -1   2 3627.16  110.04
   6  -1   2 3167.86  113.05
   6  -1   3 4432.20  117.54
   6  -1   3 4262.25  123.36
   6  -1   4 1430.71   61.29
   6  -1   4 1429.57   61.68
   6  -1   4 1570.25   66.41
   6  -1   5  173.22   17.64
   6  -1   5  195.25   20.12
  -6   0  1012467.32  164.09
  -6   0  1012467.22  155.12
  -6   0   9    5.93   13.33
  -6   0   9   30.76   12.07
  -6   0   8 3663.52  119.62
  -6   0   8 3588.94  106.53
  -6   0   7   58.37   19.82
   6   0  -6 3560.59  112.54
  -6   0   6 3487.27  119.51
   6   0  -5 1273.49   72.46
  -6   0   5 1244.27   70.19
   6   0  -4 2798.95  176.04
   6   0  -4 2668.24  106.61
  -6   0   4 2636.83   99.46
   6   0  -4 2834.25  110.29
   6   0  -3  349.61   59.62
   6   0  -3  336.79   41.01
  -6   0   3  352.55   35.57
   6   0  -3  359.51   40.12
   6   0  -2    5.97   14.54
   6   0  -2   32.45   16.46
   6   0  -2   37.81   18.86
   6   0  -1 7511.82  179.63
   6   0  -1 7229.86  172.24
   6   0  -1 7128.95  161.48
   6   0   0 2369.26  100.46
   6   0   0 2298.99   99.91
   6   0   1  595.85   49.55
   6   0   1  657.46   47.38
   6   0   1  538.25   52.15
   6   0   2  151.92   26.10
   6   0   3 2704.01   94.80
   6   0   3 2587.58  100.65
   6   0   3 2625.02  100.00
   6   0   4 3357.86   94.46
   6   0   4 3065.00   90.74
   6   0   4 3232.65   97.10
   6   0   5  171.95   18.26
   6   0   5  169.11   14.74
   6   0   5  212.84   20.93
  -6   1  10 2568.75   72.75
  -6   1  10 2593.77   72.08
  -6   1   9 1424.82   67.32
  -6   1   9 1368.54   59.35
  -6   1   8 1702.94   75.65
  -6   1   7  452.20   43.95
  -6   1   7  461.65   45.69
   6   1  -610249.55  192.81
  -6   1   610183.30  204.92
   6   1  -5 1263.77   73.69
  -6   1   5 1255.65   72.05
   6   1  -4  716.04   88.33
   6   1  -4  879.92   63.88
  -6   1   4  860.17   58.76
   6   1  -3 2420.69  105.59
   6   1  -2 6889.30  175.60
   6   1  -2 6147.75  263.16
  -6   1   1 4359.84  221.27
   6   1  -1 4149.74  135.92
   6   1   0 1740.88   88.18
   6   1   0 1680.25   77.46
   6   1   1 3746.95  119.57
   6   1   1 3760.80  114.70
   6   1   1 3734.54  127.25
   6   1   1 3730.06  120.63
   6   1   2 3636.97  114.08
   6   1   2 3638.07  125.00
   6   1   2 3638.26  118.36
   6   1   3 4176.89  119.34
   6   1   3 4174.41  123.13
   6   1   3 4160.52  122.44
   6   1   4 1417.28   62.85
   6   1   4 1470.71   62.74
   6   1   4 1528.54   66.40
   6   1   5  164.43   18.42
   6   1   5  142.10   14.09
  -6   2  10 4079.65   84.66
  -6   2  10 4130.38   87.91
  -6   2   9 9100.63  161.69
  -6   2   9 8819.70  150.38
  -6   2   8 4602.61  124.49
  -6   2   7 1613.81   81.16
  -6   2   7 1612.49   82.13
   6   2  -6 1382.30   71.45
  -6   2   6 1357.73   74.75
   6   2  -5 1676.94   84.73
  -6   2   5 1514.63   80.24
   6   2  -4 1075.09   72.20
   6   2  -3 1857.68   94.85
   6   2  -3 1930.97  154.26
  -6   2   2 1460.70  125.84
   6   2  -2 1407.04   81.65
   6   2  -2 1398.70   70.50
   6   2  -2 1268.35  122.04
   6   2  -1 3842.94  134.47
   6   2  -1 3846.79  125.67
   6   2   0 1273.68   74.89
   6   2   0 1297.41   65.69
   6   2   0 1298.88   75.76
   6   2   0 1286.02   68.96
   6   2   1   23.08   14.01
   6   2   1   25.96   19.54
   6   2   1   50.48   20.16
   6   2   1   56.00   18.01
   6   2   2 6034.99  147.79
   6   2   2 5906.03  156.69
   6   2   2 5904.73  149.96
   6   2   3 2917.55   99.04
   6   2   3 2927.29  102.47
   6   2   3 2793.88   99.94
   6   2   4 1634.68   66.47
   6   2   4 1568.16   64.44
   6   2   4 1615.23   67.86
  -6   3  10  581.58   28.01
  -6   3  10  700.91   34.06
  -6   3   9 1481.35   62.20
  -6   3   9 1416.22   61.04
  -6   3   8 1214.52   63.35
  -6   3   8 1199.30   51.67
  -6   3   7  807.71   57.02
  -6   3   7  788.86   46.73
  -6   3   7  707.83   54.19
   6   3  -6  551.16   45.84
  -6   3   6  599.35   50.90
   6   3  -5 1788.51   86.78
  -6   3   5 1630.70   83.93
   6   3  -4 2621.88  113.14
  -6   3   4 2710.36   98.76
   6   3  -3 2673.00  111.64
  -6   3   3 2569.19   91.53
   6   3  -2 1924.73   97.05
   6   3  -2 1778.44   79.47
   6   3  -1 2732.23  115.15
   6   3  -1 2797.78  105.96
   6   3   0 6483.96  169.71
   6   3   0 6501.99  153.34
   6   3   0 6637.68  169.37
   6   3   0 6782.45  154.95
   6   3   1 1245.87   69.27
   6   3   1 1287.72   69.60
   6   3   1 1299.85   75.42
   6   3   1 1261.46   68.97
   6   3   2  705.84   53.42
   6   3   2  651.90   53.26
   6   3   2  689.34   52.48
   6   3   3 3053.90  100.87
   6   3   3 3077.76  102.71
   6   3   3 2931.54  101.66
   6   3   3 2876.36   83.27
   6   3   4  595.90   39.92
   6   3   4  579.21   38.54
   6   3   5  237.49   19.48
  -6   4  10  254.57   17.93
  -6   4   9  979.43   45.57
  -6   4   9  910.63   46.74
  -6   4   9  934.24   44.64
  -6   4   9  884.59   36.74
  -6   4   8 3058.56   97.84
  -6   4   8 3037.37   84.25
  -6   4   7 2218.12   90.55
  -6   4   7 2187.85   89.96
   6   4  -6  838.59   55.33
  -6   4   6  871.90   59.81
  -6   4   6  792.57   58.95
   6   4  -5 5083.67  146.97
   6   4  -432430.77  384.67
  -6   4   431821.03  339.67
   6   4  -3 8809.93  207.33
  -6   4   3 9077.24  176.86
   6   4  -2  390.57   47.21
   6   4  -2  355.65   37.69
  -6   4   2  421.51   37.96
   6   4  -1  116.03   25.80
   6   4  -1   88.31   25.07
   6   4   0 3046.72  115.15
   6   4   0 3171.31  115.38
   6   4   1  298.23   36.09
   6   4   1  298.88   37.43
   6   4   1  283.81   37.66
   6   4   2  294.60   36.25
   6   4   2  351.59   40.21
   6   4   3 4328.50  116.03
   6   4   3 4107.84   97.70
   6   4   4  249.08   24.84
  -6   5   9 1854.83   52.57
  -6   5   9 2490.48   70.03
  -6   5   9 1968.73   54.84
  -6   5   9 2388.22   58.14
  -6   5   8 2769.03   87.08
  -6   5   8 2541.23   74.40
  -6   5   8 2761.66   78.29
  -6   5   7  104.18   21.54
  -6   5   7  124.63   24.23
  -6   5   6 2152.97   89.21
  -6   5   6 2081.84   91.17
   6   5  -5  212.23   32.35
  -6   5   5  236.81   32.83
  -6   5   5  229.05   33.17
   6   5  -4 1554.95   87.23
  -6   5   4 1606.79   77.57
   6   5  -315963.57  274.56
  -6   5   316004.55  238.22
   6   5  -2 2162.55  103.43
   6   5  -2 2170.88   87.41
  -6   5   2 2151.06   84.53
   6   5  -1 1808.06   93.38
   6   5  -1 1964.21   88.48
  -6   5   1 1952.95   75.26
   6   5   0  614.90   53.49
   6   5   0  610.63   51.26
   6   5   1 7005.49  167.72
   6   5   2  719.50   52.96
   6   5   2  739.14   49.28
   6   5   3  145.51   25.57
   6   5   3  213.13   21.94
   6   5   4  203.78   20.06
   6   5   4  211.53   20.63
  -6   6   9  556.67   25.88
  -6   6   8  244.20   25.26
  -6   6   8  268.01   24.15
  -6   6   7 3081.06   93.23
  -6   6   7 2990.71   88.86
  -6   6   7 2942.32   90.55
  -6   6   6  707.38   48.00
  -6   6   6  787.28   52.61
  -6   6   5  160.65   26.13
  -6   6   5  113.14   23.99
  -6   6   413202.51  205.52
  -6   6   412734.83  215.30
   6   6  -3 9196.56  206.75
  -6   6   3 8873.47  178.27
   6   6  -2 2917.55  117.72
   6   6  -2 2934.31   98.64
  -6   6   2 2921.01   98.31
   6   6  -1 4089.80  122.03
  -6   6   1 4308.22  112.01
   6   6   0 4050.12  124.65
   6   6   1 4531.92  128.61
   6   6   1 4557.04  129.12
   6   6   1 4470.32  116.52
   6   6   2 1838.21   76.29
   6   6   2 1779.66   72.04
   6   6   2 1721.37   68.72
   6   6   3  582.56   38.49
   6   6   3  593.08   32.66
   6   6   3  567.37   35.79
   6   6   4 1004.86   35.67
  -6   7   8 1458.25   48.69
  -6   7   7  451.31   33.14
  -6   7   7  470.49   34.16
  -6   7   7  481.66   33.31
  -6   7   6  967.25   50.66
  -6   7   6 1022.29   54.19
  -6   7   5 2318.22   79.23
  -6   7   5 2294.13   88.62
  -6   7   4 3298.39  106.57
   6   7  -3 2127.14   87.47
  -6   7   3 2146.39   85.05
   6   7  -2 1213.74   68.96
  -6   7   2 1221.92   62.04
   6   7  -1 3188.02  102.79
   6   7  -1 3025.77  109.71
  -6   7   1 3168.01   94.04
   6   7   0 5606.05  137.99
   6   7   0 5486.89  143.44
  -6   7   0 5745.55  113.25
   6   7   1  966.34   56.69
   6   7   1 1068.61   59.11
   6   7   1 1061.28   51.46
   6   7   2 1190.03   57.00
   6   7   2 1202.51   54.75
   6   7   2 1238.85   51.60
   6   7   3  814.16   31.96
   6   7   3  964.46   38.75
  -6   8   8  352.52   20.43
  -6   8   7  102.55   15.32
  -6   8   6  645.89   37.04
  -6   8   5 2272.80   78.40
  -6   8   5 2256.49   78.77
  -6   8   4 2275.86   82.32
   6   8  -3  503.50   38.66
  -6   8   3  459.15   38.55
   6   8  -2  687.06   47.48
  -6   8   2  641.92   43.40
   6   8  -1 1925.45   80.09
  -6   8   1 1929.91   69.27
   6   8   0  383.61   33.92
   6   8   0  400.53   36.29
  -6   8   0  428.93   29.04
   6   8   1   87.05   19.29
   6   8   1   95.17   19.24
   6   8   1   82.15   13.44
   6   8   2 2706.40   69.88
   6   8   2 2220.35   54.38
  -6   9   7  247.26   17.62
  -6   9   6  795.68   37.79
  -6   9   5  678.23   35.30
  -6   9   4  345.66   31.22
   6   9  -3  843.05   40.74
  -6   9   3  882.79   47.34
   6   9  -2  130.11   20.17
  -6   9   2  124.04   18.63
   6   9  -1 1134.38   54.21
  -6   9   1 1209.26   48.68
   6   9   0  570.35   37.86
  -6   9   0  580.99   29.26
   6   9   1   59.89   13.16
  -6  10   5 1891.54   49.71
  -6  10   4 1872.80   49.17
  -6  10   4 2178.06   59.76
  -6  10   3  502.92   30.57
   6  10  -2 1096.68   39.12
  -6  10   2 1268.03   45.77
   6  10  -1  207.79   19.37
  -6  10   1  188.52   16.71
   6  10   0   35.86    9.32
   7  -9  -4    2.31    5.06
   7  -9  -4   -3.03    4.33
   7  -9  -3  101.54   12.89
   7  -9  -3  110.06   12.75
   7  -9  -2  109.55   12.69
   7  -9  -2  134.49   12.58
   7  -8  -5  345.25   22.45
   7  -8  -5  370.95   24.65
   7  -8  -4 5504.04  100.34
   7  -8  -4 5429.16   97.58
   7  -8  -3  860.93   41.44
   7  -8  -3  859.00   41.45
   7  -8  -2   31.65    9.91
   7  -8  -2   50.48   12.71
   7  -8  -1   87.22   11.80
   7  -8  -1  130.84   15.57
   7  -8  -1  131.65   13.67
   7  -8   0   57.30    9.02
  -7  -7   7 1563.76   41.69
  -7  -7   7 1830.32   51.84
   7  -7  -6  223.58   18.24
  -7  -7   6  383.80   27.43
   7  -7  -5  762.60   39.08
  -7  -7   5  756.04   39.48
   7  -7  -5  769.60   42.08
   7  -7  -4  728.05   43.55
   7  -7  -4  745.09   42.26
  -7  -7   4  631.58   34.86
   7  -7  -3 1618.25   64.12
   7  -7  -3 1740.36   66.08
   7  -7  -2 1221.16   54.00
   7  -7  -2 1297.28   56.84
   7  -7  -2 1202.49   46.64
   7  -7  -1  442.20   30.47
   7  -7  -1  425.16   31.97
   7  -7  -1  476.53   30.68
   7  -7   0 1527.22   46.76
   7  -7   0 1621.41   52.85
   7  -7   1  289.16   20.06
  -7  -6   8   29.80    8.84
  -7  -6   7   30.00   12.11
   7  -6  -6  106.11   15.55
  -7  -6   6   97.85   18.22
   7  -6  -512699.80  177.43
  -7  -6   513017.66  188.40
   7  -6  -512713.69  185.94
   7  -6  -412870.46  192.53
   7  -6  -413238.66  192.02
   7  -6  -3  877.79   52.29
   7  -6  -3  891.39   52.35
   7  -6  -2 1422.65   63.40
   7  -6  -2 1557.79   68.44
   7  -6  -2 1409.42   58.10
   7  -6  -1 2448.69   75.90
   7  -6  -1 2440.92   80.94
   7  -6  -1 2374.95   75.78
   7  -6   0 2085.50   65.47
   7  -6   0 2019.65   68.16
   7  -6   1 1079.85   45.41
   7  -6   2  957.38   34.14
  -7  -5   8 2725.13   72.33
  -7  -5   7  280.84   28.79
   7  -5  -6 4100.07   96.06
   7  -5  -5   17.28   13.65
   7  -5  -5   -2.02   12.77
   7  -5  -4 3263.46  106.02
   7  -5  -4 3214.25  104.18
   7  -5  -3  305.68   34.58
   7  -5  -3  289.29   36.16
   7  -5  -3  213.43   24.69
   7  -5  -2  724.54   49.27
   7  -5  -2  666.78   53.85
   7  -5  -2  783.97   47.21
   7  -5  -1 2204.36   78.90
   7  -5  -1 2255.04   84.84
   7  -5  -1 2361.59   82.78
   7  -5   0  763.07   45.33
   7  -5   0  878.01   49.79
   7  -5   1   47.70   15.21
  -7  -4   9  553.03   26.04
  -7  -4   9  546.80   26.30
  -7  -4   8  515.17   34.66
  -7  -4   7  189.87   21.86
   7  -4  -6  758.72   45.60
   7  -4  -5  343.15   34.65
   7  -4  -5  318.99   35.96
   7  -4  -4 3980.63  120.85
   7  -4  -4 3872.95  117.18
   7  -4  -3   80.54   20.70
   7  -4  -3   44.19   15.64
   7  -4  -3   42.53   18.04
   7  -4  -2  933.14   57.41
   7  -4  -2  970.16   61.61
   7  -4  -2  982.37   55.47
   7  -4  -1  657.52   44.98
   7  -4  -1  643.63   49.90
   7  -4  -1  679.58   47.70
   7  -4   0   61.36   18.71
   7  -4   0   49.34   16.27
   7  -4   1  485.51   37.72
   7  -4   3   77.41   11.35
   7  -4   3  112.91   12.14
  -7  -3   9  364.87   22.61
  -7  -3   8  383.94   31.39
  -7  -3   8  392.63   32.28
  -7  -3   7  426.76   35.28
  -7  -3   6  961.08   51.52
   7  -3  -6  935.87   53.13
   7  -3  -5 1275.81   67.90
   7  -3  -5 1151.53   67.79
   7  -3  -4 2527.04   99.62
   7  -3  -4 2424.72   97.80
   7  -3  -3  335.40   39.32
   7  -3  -3  292.02   31.51
   7  -3  -3  327.61   37.26
   7  -3  -2  306.79   35.37
   7  -3  -2  319.49   38.22
   7  -3  -2  328.77   36.36
   7  -3  -1   34.73   14.08
   7  -3  -1   32.21   15.25
   7  -3  -1   38.91   17.95
   7  -3   0 1546.33   71.23
   7  -3   0 1412.29   70.41
   7  -3   1  980.75   55.31
   7  -3   2  216.22   25.03
   7  -3   2  197.45   22.33
   7  -3   3   -0.04    7.32
   7  -3   3   19.10    8.18
  -7  -2   9   16.27    9.64
  -7  -2   9   15.24    7.54
  -7  -2   8  583.65   40.38
  -7  -2   7  544.85   42.22
  -7  -2   7  670.05   42.21
  -7  -2   6 1100.20   59.04
   7  -2  -6 1057.65   57.47
   7  -2  -5 3180.38  107.58
   7  -2  -4 1122.27   67.85
   7  -2  -4 1007.77   64.83
   7  -2  -3   45.82   20.66
   7  -2  -3   39.84   17.84
   7  -2  -2  356.56   41.52
   7  -2  -2  334.37   37.70
   7  -2  -2  322.99   36.99
   7  -2  -1   64.22   19.31
   7  -2  -1   46.81   19.13
   7  -2  -1   72.39   18.56
   7  -2   0 1576.32   75.76
   7  -2   0 1722.86   80.67
   7  -2   2 4686.26  111.20
   7  -2   2 4611.70  105.08
   7  -2   3 1313.70   48.82
   7  -2   3 1369.58   48.65
  -7  -1  10 1442.21   42.23
  -7  -1   9  458.23   32.62
  -7  -1   8  806.09   48.38
  -7  -1   8  759.44   40.38
  -7  -1   7 3036.32  102.16
  -7  -1   7 3201.81   96.94
   7  -1  -6 2928.73   97.78
   7  -1  -5 1453.53   74.76
  -7  -1   5 1471.67   69.55
   7  -1  -4  317.66   38.56
  -7  -1   4  319.51   33.52
   7  -1  -3  680.17   55.72
   7  -1  -3  589.18   49.64
   7  -1  -2 2611.63  104.95
   7  -1  -1  345.79   41.79
   7  -1   0  225.69   33.84
   7  -1   0  222.64   26.33
   7  -1   1  533.77   46.03
   7  -1   1  537.81   38.63
   7  -1   2 2655.05   86.41
   7  -1   2 2523.48   79.48
   7  -1   3 2275.26   65.97
   7  -1   3 2280.86   65.21
  -7   0  10 8921.58   97.54
  -7   0   9 2469.86   75.37
  -7   0   9 2035.32   54.84
  -7   0   8  315.01   32.66
  -7   0   8  280.34   27.51
  -7   0   7 1681.15   73.68
   7   0  -6 2665.17   98.97
  -7   0   6 2539.69   95.90
   7   0  -5  391.51   41.26
  -7   0   5  387.97   37.62
   7   0  -4 4597.18  140.67
  -7   0   4 4688.22  124.38
   7   0  -3   61.37   23.21
   7   0  -2 2042.87  102.29
   7   0  -2 2079.38   82.31
   7   0  -1 1063.73   72.25
   7   0  -1 1054.02   63.62
   7   0   0  195.76   30.96
   7   0   0  202.16   31.36
   7   0   0  206.02   25.37
   7   0   1 5051.28  135.02
   7   0   1 5293.53  121.79
   7   0   213570.92  196.56
   7   0   213872.46  184.21
   7   0   3  724.81   38.10
   7   0   3  672.89   35.60
  -7   1  10 1732.78   42.98
  -7   1   9  454.01   33.14
  -7   1   9  447.44   28.02
  -7   1   8  784.36   50.00
  -7   1   8  790.31   46.14
  -7   1   7 3201.33  102.59
   7   1  -6 2730.99   95.84
  -7   1   6 2774.90  100.35
   7   1  -5 1358.79   75.52
  -7   1   5 1385.42   71.27
   7   1  -4  304.83   41.87
  -7   1   4  342.13   35.71
   7   1  -3  673.50   56.90
  -7   1   3  623.72   47.04
   7   1  -2 2735.23  111.32
   7   1  -2 2554.81   90.59
   7   1  -1  354.57   42.95
   7   1  -1  433.49   40.31
   7   1   0  242.89   32.59
   7   1   0  250.95   32.96
   7   1   0  255.79   27.62
   7   1   1  539.27   44.65
   7   1   1  519.72   38.76
   7   1   2 2676.68   86.90
   7   1   2 2429.82   78.19
   7   1   3 2392.71   68.05
  -7   2   9   82.93   15.34
  -7   2   9    8.02    8.00
  -7   2   8  572.31   43.31
  -7   2   8  559.96   39.80
  -7   2   7  610.72   45.79
  -7   2   7  593.30   46.49
   7   2  -6 1023.42   59.16
  -7   2   6  990.48   60.57
   7   2  -5 3283.57  115.70
  -7   2   5 3290.01  113.76
   7   2  -4  956.36   67.23
  -7   2   4 1064.25   63.54
   7   2  -3   68.48   25.32
   7   2  -2  387.00   45.45
   7   2  -2  368.28   36.01
   7   2  -1   39.53   16.70
   7   2  -1   35.15   18.59
   7   2   0 1518.25   75.27
   7   2   0 1726.06   78.75
   7   2   1 1245.77   64.33
   7   2   1 1125.09   55.79
   7   2   2 4840.59  114.95
   7   2   2 3834.10   85.22
   7   2   3 1415.22   51.79
  -7   3   9  400.56   28.65
  -7   3   9  422.36   26.64
  -7   3   9  412.28   25.63
  -7   3   8  412.44   33.11
  -7   3   7  441.68   38.38
  -7   3   7  394.49   38.80
   7   3  -6  931.74   54.94
  -7   3   6  928.26   59.62
  -7   3   6  925.58   58.44
   7   3  -5 1155.49   68.61
  -7   3   5 1170.91   66.94
   7   3  -4 2555.33  106.53
  -7   3   4 2577.30   97.87
   7   3  -3  321.55   41.15
   7   3  -2  291.51   38.44
   7   3  -2  335.41   33.11
   7   3  -1   37.09   15.27
   7   3  -1   19.18   16.60
   7   3   0 1375.58   69.05
   7   3   0 1485.53   71.36
   7   3   1  960.13   55.51
   7   3   2  207.27   24.96
   7   3   2  179.17   19.63
   7   3   3   25.35    9.79
  -7   4   9  454.93   25.67
  -7   4   9  668.53   30.67
  -7   4   8  500.81   34.31
  -7   4   7  243.13   28.73
  -7   4   7  238.00   21.08
  -7   4   7  187.18   26.96
  -7   4   6  713.11   48.39
  -7   4   6  725.19   50.58
   7   4  -5  380.91   40.08
  -7   4   5  321.31   36.52
   7   4  -4 3861.54  126.14
   7   4  -3   15.09   19.85
   7   4  -2  897.21   64.15
   7   4  -1  541.82   49.67
   7   4  -1  673.69   46.77
   7   4   0   25.53   14.39
   7   4   1  475.57   38.82
   7   4   1  424.79   35.55
   7   4   2   93.70   17.29
   7   4   2   76.49   13.14
   7   4   2   84.29   13.46
   7   4   3  116.10   13.62
  -7   5   8 2711.15   68.93
  -7   5   7  235.29   24.78
  -7   5   7  253.16   21.50
  -7   5   7  236.00   26.72
  -7   5   6 4007.00  103.66
  -7   5   6 4184.45  111.30
  -7   5   5   -2.39   10.62
  -7   5   5    3.02   16.10
   7   5  -4 3346.51  113.97
  -7   5   4 3068.57   93.76
   7   5  -3  228.24   37.16
   7   5  -2  770.21   56.63
   7   5  -1 2259.95   79.73
   7   5   0  859.91   49.37
   7   5   1   42.50   15.25
   7   5   1   43.66   14.01
   7   5   2  729.99   38.02
   7   5   2  628.94   29.46
  -7   6   8   -1.79    5.12
  -7   6   8   27.13    7.49
  -7   6   7   23.41    9.42
  -7   6   7   24.21    9.11
  -7   6   7   18.40   10.21
  -7   6   6  109.24   17.26
  -7   6   6  107.50   19.05
  -7   6   512632.24  165.01
  -7   6   513130.22  194.42
  -7   6   411776.72  158.23
   7   6  -412407.21  174.43
   7   6  -2 1426.98   68.21
   7   6  -1 2389.32   73.20
   7   6  -1 2319.46   84.99
   7   6   0 1992.80   67.60
   7   6   0 1993.03   73.27
   7   6   1 1078.08   46.28
   7   6   1 1083.96   46.24
   7   6   2 1164.05   38.77
  -7   7   7 1797.57   45.54
  -7   7   6  339.81   20.93
  -7   7   6  359.15   27.34
  -7   7   5  769.12   42.93
   7   7  -3 1668.97   62.66
   7   7  -2 1183.11   55.57
   7   7  -1  461.86   35.58
   7   7   0 1647.74   58.63
   7   7   1  282.10   20.63
  -7   8   6  421.65   22.41
  -7   8   6  229.98   16.79
  -7   8   5  373.58   25.68
  -7   8   4 5416.79  101.27
   7   8  -3  780.29   34.16
   7   8  -2   60.29   12.28
   7   8  -1  146.51   17.13
   7   8   0   73.88   11.66
  -7   9   4    5.51    5.12
  -7   9   3  116.86   12.76
  -7   9   2  105.33   11.73
   8  -6  -5 3017.54   59.71
   8  -6  -4 1664.13   51.73
   8  -6  -3  151.52   17.19
   8  -6  -2  290.88   20.23
  -8  -5   6  522.15   28.68
   8  -5  -5 1395.21   48.96
  -8  -5   5 1328.61   47.10
   8  -5  -4 1655.69   58.27
  -8  -5   4 1039.62   39.73
   8  -5  -3  570.59   35.01
   8  -5  -2  432.83   29.03
   8  -5  -1 1306.67   41.48
  -8  -4   7  118.12   14.75
   8  -4  -6 1675.78   48.73
   8  -4  -5 4804.80  100.53
   8  -4  -4 3191.64   87.72
   8  -4  -3 3930.15   98.34
   8  -4  -2 2152.32   70.11
   8  -4  -2 2127.41   53.03
   8  -4  -1 2610.65   67.47
   8  -4  -1 3174.04   67.49
   8  -4   0  242.96   17.79
  -8  -3   8   49.22    8.60
   8  -3  -6  894.82   40.98
   8  -3  -5 1408.44   59.49
   8  -3  -4  755.79   46.45
   8  -3  -3  784.42   48.26
   8  -3  -2    8.41    7.88
   8  -3  -2    6.57   11.37
   8  -3  -1  757.95   40.61
   8  -3  -1  906.38   40.63
   8  -3   0  836.25   37.08
  -8  -2   8  552.53   26.59
  -8  -2   7  168.14   16.12
  -8  -2   7  221.44   18.39
   8  -2  -6 1392.31   53.15
   8  -2  -5 1184.30   56.28
   8  -2  -4  862.78   51.78
   8  -2  -3  582.07   43.45
   8  -2  -2  986.05   53.47
   8  -2  -2  964.34   42.26
   8  -2  -1  234.02   26.33
   8  -2  -1  284.57   24.50
   8  -2   0 1390.73   48.99
   8  -2   1 1955.58   49.70
  -8  -1   8 1734.05   47.84
  -8  -1   8 1079.53   37.17
  -8  -1   7  115.06   15.58
  -8  -1   7  108.47   15.70
  -8  -1   6   93.09   14.47
   8  -1  -6  104.65   18.35
   8  -1  -5  605.42   43.26
   8  -1  -4  148.43   23.76
   8  -1  -3 2881.76   96.78
   8  -1  -2 2147.56   80.22
   8  -1  -2 1994.50   60.33
   8  -1  -1  366.70   31.55
   8  -1  -1  392.43   29.16
   8  -1   0  134.31   15.43
   8  -1   0  236.90   22.33
   8  -1   1 1215.79   41.96
  -8   0   8    2.25    6.72
  -8   0   8    2.80    6.23
  -8   0   7  435.95   30.32
  -8   0   7  458.84   31.71
  -8   0   6  186.44   21.43
   8   0  -6  138.16   19.51
   8   0  -5   61.75   17.28
   8   0  -4    8.15   14.72
   8   0  -3  105.72   23.74
   8   0  -2  946.32   62.12
   8   0  -1   17.58    9.87
   8   0  -1    4.04   10.28
   8   0   0   31.21   11.27
   8   0   0    6.28    6.85
   8   0   1  973.33   37.39
  -8   1   8 1885.65   54.03
  -8   1   8 1822.91   49.68
  -8   1   7  111.78   17.53
  -8   1   7  113.42   17.60
   8   1  -6  100.56   17.45
   8   1  -5  640.42   44.62
  -8   1   5  659.33   38.77
   8   1  -4   95.43   22.01
  -8   1   4  101.49   15.76
   8   1  -3 2820.42   97.79
   8   1  -2 2144.70   80.51
   8   1  -1  310.09   29.30
   8   1  -1  374.16   28.21
   8   1   0  119.30   15.12
   8   1   0  229.42   21.62
   8   1   1 1235.79   42.00
  -8   2   8  617.05   32.00
  -8   2   8  747.73   31.64
  -8   2   7  267.43   23.77
   8   2  -6 1399.58   54.16
  -8   2   6 1452.95   59.67
   8   2  -5 1179.55   57.32
  -8   2   5 1185.34   52.07
   8   2  -4  814.50   51.35
  -8   2   4  876.73   44.07
   8   2  -3  565.08   44.28
  -8   2   3  561.32   32.88
   8   2  -2  912.59   53.17
   8   2  -1  206.11   24.71
   8   2  -1  270.50   23.60
   8   2   0 1407.36   48.08
   8   2   1 1775.93   47.34
  -8   3   8   41.19    9.90
  -8   3   8   74.23   10.52
  -8   3   7 1382.60   49.20
  -8   3   6  946.68   46.34
  -8   3   6  848.52   42.83
   8   3  -5 1370.40   60.23
  -8   3   5 1367.22   57.16
  -8   3   5 1371.48   56.61
   8   3  -4  727.92   47.79
  -8   3   4  721.91   40.23
   8   3  -3  726.95   47.25
  -8   3   3  783.54   39.23
   8   3  -2   14.56   12.49
   8   3  -1  768.33   34.37
   8   3   0  746.31   32.99
   8   3   0  775.18   37.91
  -8   4   7  119.68   13.73
  -8   4   6 1796.90   55.70
  -8   4   6 1383.15   51.89
  -8   4   5 4761.76   95.42
  -8   4   5 4899.38  101.31
  -8   4   4 2673.14   71.03
  -8   4   4 3148.05   80.00
   8   4  -3 3541.75   97.64
  -8   4   3 3988.85   85.86
  -8   4   2 1764.74   49.98
   8   4  -1 3143.45   80.75
   8   4   0  236.07   19.29
  -8   5   6  467.28   23.59
  -8   5   6  403.75   25.69
  -8   5   5 1238.33   39.92
  -8   5   5 1421.64   50.62
   8   5  -4 1577.32   49.42
  -8   5   4 1779.18   56.92
   8   5  -3  634.06   35.23
  -8   5   3  646.19   32.94
   8   5  -2  483.02   30.97
  -8   5   2  328.43   20.95
   8   5  -1 2048.74   57.60
  -8   6   5 3832.23   72.70
  -8   6   4 2338.12   57.50
   8   6  -3  177.52   15.69
  -8   6   3  172.36   15.85
   8   6  -2  396.25   23.30
   9  -1  -4  361.19   21.88
   9   0  -4    1.12    5.95
   9   0  -3  225.62   17.09
   9   1  -4  335.49   21.16
   0   0   0    0.00    0.00
;
_shelx_hkl_checksum              35698
_shelx_shelxl_version_number     2014/7
_olex2_submission_special_instructions 'No special instructions were received'
loop_
_space_group_symop_operation_xyz
'x, y, z'
'-x, y+1/2, -z'
loop_
_atom_site_label
_atom_site_type_symbol
_atom_site_fract_x
_atom_site_fract_y
_atom_site_fract_z
_atom_site_U_iso_or_equiv
_atom_site_adp_type
_atom_site_occupancy
_atom_site_site_symmetry_order
_atom_site_calc_flag
_atom_site_refinement_flags_posn
O1 O -0.0018(2) 0.18416(12) 0.18439(16) 0.0305(3) Uani 1 1 d .
O2 O 0.17371(19) 0.34884(10) 0.26224(14) 0.0219(3) Uani 1 1 d .
O3 O 0.63758(18) 0.54156(11) 0.46421(14) 0.0209(3) Uani 1 1 d .
O4 O 0.7020(2) 0.41244(12) 0.65845(15) 0.0277(3) Uani 1 1 d .
O5 O 0.4544(2) 0.64009(11) 0.66698(14) 0.0232(3) Uani 1 1 d .
O6 O 0.3080(2) 0.80995(12) 0.67786(16) 0.0287(3) Uani 1 1 d .
C1 C 0.0434(3) 0.27734(16) 0.1506(2) 0.0225(4) Uani 1 1 d .
C2 C -0.0121(3) 0.33880(17) 0.0030(2) 0.0240(4) Uani 1 1 d .
H2 H -0.1013 0.3112 -0.0929 0.029 Uiso 1 1 calc R
C3 C 0.0838(3) 0.43988(16) 0.0263(2) 0.0225(4) Uani 1 1 d .
H3 H 0.0759 0.4963 -0.0504 0.027 Uiso 1 1 calc R
C4 C 0.2026(3) 0.44906(15) 0.1892(2) 0.0197(4) Uani 1 1 d .
C5 C 0.3195(3) 0.53473(16) 0.2654(2) 0.0212(4) Uani 1 1 d .
H5 H 0.3374 0.5988 0.2071 0.025 Uiso 1 1 calc R
C6 C 0.4253(3) 0.53808(16) 0.4364(2) 0.0203(4) Uani 1 1 d .
H6 H 0.3912 0.4680 0.4858 0.024 Uiso 1 1 calc R
C7 C 0.3681(3) 0.64690(16) 0.5013(2) 0.0235(4) Uani 1 1 d .
H7A H 0.4192 0.7159 0.4636 0.028 Uiso 1 1 calc R
H7B H 0.2211 0.6531 0.4685 0.028 Uiso 1 1 calc R
C8 C 0.4151(3) 0.73130(16) 0.7422(2) 0.0206(4) Uani 1 1 d .
C9 C 0.5197(3) 0.72372(16) 0.9118(2) 0.0205(4) Uani 1 1 d .
C10 C 0.6430(3) 0.63086(16) 0.9814(2) 0.0230(4) Uani 1 1 d .
H10 H 0.6616 0.5686 0.9206 0.028 Uiso 1 1 calc R
C11 C 0.7386(3) 0.63026(18) 1.1404(2) 0.0269(4) Uani 1 1 d .
H11 H 0.8222 0.5671 1.1885 0.032 Uiso 1 1 calc R
C12 C 0.7125(3) 0.72153(18) 1.2293(2) 0.0265(4) Uani 1 1 d .
H12 H 0.7787 0.7207 1.3379 0.032 Uiso 1 1 calc R
C13 C 0.5899(3) 0.81383(18) 1.1600(2) 0.0259(4) Uani 1 1 d .
H13 H 0.5716 0.8760 1.2210 0.031 Uiso 1 1 calc R
C14 C 0.4941(3) 0.81503(16) 1.0014(2) 0.0236(4) Uani 1 1 d .
H14 H 0.4107 0.8784 0.9537 0.028 Uiso 1 1 calc R
C15 C 0.7581(3) 0.47206(16) 0.5748(2) 0.0213(4) Uani 1 1 d .
C16 C 0.9674(3) 0.48016(19) 0.5772(2) 0.0280(4) Uani 1 1 d .
H16A H 0.9737 0.4513 0.4794 0.042 Uiso 1 1 calc GR
H16B H 1.0549 0.4334 0.6623 0.042 Uiso 1 1 calc GR
H16C H 1.0112 0.5611 0.5914 0.042 Uiso 1 1 calc GR
loop_
_atom_site_aniso_label
_atom_site_aniso_U_11
_atom_site_aniso_U_22
_atom_site_aniso_U_33
_atom_site_aniso_U_23
_atom_site_aniso_U_13
_atom_site_aniso_U_12
O1 0.0351(8) 0.0226(7) 0.0345(8) -0.0028(6) 0.0129(6) -0.0061(6)
O2 0.0248(6) 0.0198(6) 0.0197(6) 0.0011(5) 0.0059(5) -0.0016(5)
O3 0.0203(6) 0.0210(6) 0.0207(6) 0.0027(5) 0.0062(5) -0.0008(5)
O4 0.0336(7) 0.0288(7) 0.0207(6) 0.0059(5) 0.0094(6) 0.0033(6)
O5 0.0270(7) 0.0214(6) 0.0198(6) -0.0017(5) 0.0061(5) 0.0027(5)
O6 0.0341(7) 0.0253(7) 0.0264(7) 0.0028(6) 0.0100(6) 0.0080(6)
C1 0.0212(8) 0.0212(9) 0.0254(9) -0.0045(7) 0.0086(7) 0.0007(7)
C2 0.0199(8) 0.0293(10) 0.0209(8) -0.0040(7) 0.0046(7) 0.0023(7)
C3 0.0220(9) 0.0261(10) 0.0190(8) 0.0016(7) 0.0064(7) 0.0056(7)
C4 0.0210(8) 0.0187(8) 0.0205(9) 0.0025(7) 0.0086(7) 0.0040(7)
C5 0.0226(9) 0.0208(8) 0.0199(8) 0.0039(7) 0.0069(7) 0.0020(7)
C6 0.0200(8) 0.0200(8) 0.0208(8) 0.0008(7) 0.0068(7) -0.0019(7)
C7 0.0246(9) 0.0240(9) 0.0199(9) -0.0001(7) 0.0053(7) 0.0010(8)
C8 0.0194(9) 0.0190(8) 0.0256(9) -0.0008(7) 0.0107(7) -0.0021(7)
C9 0.0187(8) 0.0208(8) 0.0244(9) -0.0005(7) 0.0106(7) -0.0042(7)
C10 0.0255(9) 0.0203(8) 0.0260(10) 0.0000(7) 0.0124(8) -0.0026(7)
C11 0.0281(10) 0.0257(9) 0.0264(10) 0.0047(8) 0.0089(8) -0.0005(8)
C12 0.0284(10) 0.0317(9) 0.0209(9) -0.0005(8) 0.0106(7) -0.0078(8)
C13 0.0247(9) 0.0285(9) 0.0283(9) -0.0076(8) 0.0139(8) -0.0052(8)
C14 0.0214(8) 0.0222(9) 0.0299(9) -0.0013(8) 0.0123(7) -0.0013(7)
C15 0.0258(9) 0.0211(9) 0.0159(8) -0.0017(7) 0.0058(7) 0.0019(7)
C16 0.0247(9) 0.0320(11) 0.0247(9) -0.0018(8) 0.0055(8) 0.0017(8)
loop_
_atom_type_symbol
_atom_type_description
_atom_type_scat_dispersion_real
_atom_type_scat_dispersion_imag
_atom_type_scat_source
C C 0.0181 0.0091 'International Tables Vol C Tables 4.2.6.8 and 6.1.1.4'
H H 0.0000 0.0000 'International Tables Vol C Tables 4.2.6.8 and 6.1.1.4'
O O 0.0492 0.0322 'International Tables Vol C Tables 4.2.6.8 and 6.1.1.4'
loop_
_geom_angle_atom_site_label_1
_geom_angle_atom_site_label_2
_geom_angle_atom_site_label_3
_geom_angle
C4 O2 C1 107.82(13)
C15 O3 C6 118.10(14)
C8 O5 C7 114.76(14)
O1 C1 O2 120.70(17)
O1 C1 C2 131.98(18)
O2 C1 C2 107.32(15)
C1 C2 H2 125.8
C3 C2 C1 108.44(16)
C3 C2 H2 125.8
C2 C3 H3 125.9
C2 C3 C4 108.26(17)
C4 C3 H3 125.9
O2 C4 C3 108.14(14)
C5 C4 O2 122.24(15)
C5 C4 C3 129.61(16)
C4 C5 H5 117.5
C4 C5 C6 124.98(17)
C6 C5 H5 117.5
O3 C6 C5 107.49(14)
O3 C6 H6 110.4
O3 C6 C7 108.60(14)
C5 C6 H6 110.4
C5 C6 C7 109.54(15)
C7 C6 H6 110.4
O5 C7 C6 107.62(14)
O5 C7 H7A 110.2
O5 C7 H7B 110.2
C6 C7 H7A 110.2
C6 C7 H7B 110.2
H7A C7 H7B 108.5
O5 C8 C9 112.41(15)
O6 C8 O5 123.11(17)
O6 C8 C9 124.48(17)
C10 C9 C8 122.48(16)
C14 C9 C8 117.51(16)
C14 C9 C10 120.00(17)
C9 C10 H10 120.3
C11 C10 C9 119.41(17)
C11 C10 H10 120.3
C10 C11 H11 119.8
C12 C11 C10 120.38(18)
C12 C11 H11 119.8
C11 C12 H12 119.9
C13 C12 C11 120.16(17)
C13 C12 H12 119.9
C12 C13 H13 120.1
C12 C13 C14 119.79(18)
C14 C13 H13 120.1
C9 C14 H14 119.9
C13 C14 C9 120.26(18)
C13 C14 H14 119.9
O3 C15 C16 110.27(16)
O4 C15 O3 124.03(17)
O4 C15 C16 125.70(17)
C15 C16 H16A 109.5
C15 C16 H16B 109.5
C15 C16 H16C 109.5
H16A C16 H16B 109.5
H16A C16 H16C 109.5
H16B C16 H16C 109.5
loop_
_geom_bond_atom_site_label_1
_geom_bond_atom_site_label_2
_geom_bond_distance
O1 C1 1.196(2)
O2 C1 1.395(2)
O2 C4 1.391(2)
O3 C6 1.450(2)
O3 C15 1.349(2)
O4 C15 1.204(2)
O5 C7 1.442(2)
O5 C8 1.345(2)
O6 C8 1.203(2)
C1 C2 1.466(3)
C2 H2 0.9500
C2 C3 1.332(3)
C3 H3 0.9500
C3 C4 1.454(2)
C4 C5 1.328(3)
C5 H5 0.9500
C5 C6 1.498(2)
C6 H6 1.0000
C6 C7 1.509(3)
C7 H7A 0.9900
C7 H7B 0.9900
C8 C9 1.487(3)
C9 C10 1.395(3)
C9 C14 1.392(3)
C10 H10 0.9500
C10 C11 1.390(3)
C11 H11 0.9500
C11 C12 1.389(3)
C12 H12 0.9500
C12 C13 1.387(3)
C13 H13 0.9500
C13 C14 1.387(3)
C14 H14 0.9500
C15 C16 1.493(3)
C16 H16A 0.9800
C16 H16B 0.9800
C16 H16C 0.9800
loop_
_geom_torsion_atom_site_label_1
_geom_torsion_atom_site_label_2
_geom_torsion_atom_site_label_3
_geom_torsion_atom_site_label_4
_geom_torsion
O1 C1 C2 C3 -178.3(2)
O2 C1 C2 C3 1.2(2)
O2 C4 C5 C6 -3.1(3)
O3 C6 C7 O5 -69.43(17)
O5 C8 C9 C10 -0.3(2)
O5 C8 C9 C14 178.41(16)
O6 C8 C9 C10 -179.81(18)
O6 C8 C9 C14 -1.1(3)
C1 O2 C4 C3 0.66(18)
C1 O2 C4 C5 179.78(17)
C1 C2 C3 C4 -0.8(2)
C2 C3 C4 O2 0.1(2)
C2 C3 C4 C5 -178.92(19)
C3 C4 C5 C6 175.78(18)
C4 O2 C1 O1 178.42(17)
C4 O2 C1 C2 -1.12(18)
C4 C5 C6 O3 118.20(18)
C4 C5 C6 C7 -123.98(19)
C5 C6 C7 O5 173.45(14)
C6 O3 C15 O4 -4.7(3)
C6 O3 C15 C16 175.14(15)
C7 O5 C8 O6 3.7(2)
C7 O5 C8 C9 -175.82(14)
C8 O5 C7 C6 -179.55(14)
C8 C9 C10 C11 179.04(16)
C8 C9 C14 C13 -179.11(17)
C9 C10 C11 C12 -0.3(3)
C10 C9 C14 C13 -0.4(3)
C10 C11 C12 C13 0.3(3)
C11 C12 C13 C14 -0.3(3)
C12 C13 C14 C9 0.3(3)
C14 C9 C10 C11 0.4(3)
C15 O3 C6 C5 -135.37(16)
C15 O3 C6 C7 106.20(17)
