#------------------------------------------------------------------------------
#$Date: 2016-10-05 04:54:15 +0300 (Wed, 05 Oct 2016) $
#$Revision: 186917 $
#$URL: file:///home/coder/svn-repositories/cod/cif/1/54/42/1544244.cif $
#------------------------------------------------------------------------------
#
# This file is available in the Crystallography Open Database (COD),
# http://www.crystallography.net/. The original data for this entry
# were provided by IUCr Journals, http://journals.iucr.org/.
#
# The file may be used within the scientific community so long as
# proper attribution is given to the journal article from which the
# data were obtained.
#
data_1544244
loop_
_publ_author_name
'Rillema, D. Paul'
'Moore, Curtis'
'KomReddy, Venugopal'
_publ_section_title
;
 Diethyl 2,2'-bipyridine-4,4'-dicarboxylate
;
_journal_issue                   10
_journal_name_full               IUCrData
_journal_page_first              x161547
_journal_paper_doi               10.1107/S2414314616015479
_journal_volume                  1
_journal_year                    2016
_chemical_formula_iupac          'C16 H16 N2 O4'
_chemical_formula_moiety         'C16 H16 N2 O4'
_chemical_formula_sum            'C16 H16 N2 O4'
_chemical_formula_weight         300.31
_chemical_name_systematic
;
Diethyl 2,2'-bipyridine-4,4'-dicarboxylate
;
_space_group_crystal_system      triclinic
_space_group_IT_number           2
_space_group_name_Hall           '-P 1'
_space_group_name_H-M_alt        'P -1'
_symmetry_space_group_name_Hall  '-P 1'
_symmetry_space_group_name_H-M   'P -1'
_atom_sites_solution_hydrogens   geom
_atom_sites_solution_primary     direct
_atom_sites_solution_secondary   difmap
_audit_creation_method
;
Olex2 1.2-beta
(compiled 2014.01.22 svn.r2872 for OlexSys, GUI svn.r4747)
;
_cell_angle_alpha                92.212(7)
_cell_angle_beta                 93.163(7)
_cell_angle_gamma                93.016(7)
_cell_formula_units_Z            2
_cell_length_a                   3.9059(8)
_cell_length_b                   13.493(3)
_cell_length_c                   13.767(3)
_cell_measurement_reflns_used    2248
_cell_measurement_temperature    100
_cell_measurement_theta_max      25.027
_cell_measurement_theta_min      2.966
_cell_volume                     722.8(3)
_computing_cell_refinement
;
SAINT (Bruker, 2013)
;
_computing_data_collection
;
APEX2 (Bruker, 2013)
;
_computing_data_reduction
;
SAINT (Bruker, 2013)
;
_computing_molecular_graphics
;
<i>OLEX2</i> (Dolomanov <i>et al.</i>,  2009) and Mercury (Macrae <i>et
al.</i>,  2008)
;
_computing_publication_material
;
<i>OLEX2</i> (Dolomanov <i>et al.</i>,  2009)
;
_computing_structure_refinement
;
SHELXL2014 (Sheldrick, 2015)
;
_computing_structure_solution
;
SHEXLS2014 (Sheldrick, 2008)
;
_diffrn_ambient_temperature      100
_diffrn_detector_area_resol_mean 7.9
_diffrn_measured_fraction_theta_full 0.997
_diffrn_measured_fraction_theta_max 0.996
_diffrn_measurement_device       'Kappa Four-Circle Diffractometer'
_diffrn_measurement_device_type  'Bruker APEXII Ultra'
_diffrn_measurement_method       '\w and \f scans'
_diffrn_radiation_monochromator  'Double Bounce Multilayer Mirrors'
_diffrn_radiation_type           MoK\a
_diffrn_radiation_wavelength     0.71073
_diffrn_reflns_av_R_equivalents  0.0535
_diffrn_reflns_limit_h_max       4
_diffrn_reflns_limit_h_min       -4
_diffrn_reflns_limit_k_max       16
_diffrn_reflns_limit_k_min       -16
_diffrn_reflns_limit_l_max       16
_diffrn_reflns_limit_l_min       -16
_diffrn_reflns_number            10150
_diffrn_reflns_theta_full        25.000
_diffrn_reflns_theta_max         25.399
_diffrn_reflns_theta_min         1.483
_diffrn_standards_number         0
_exptl_absorpt_coefficient_mu    0.100
_exptl_absorpt_correction_T_max  0.0916
_exptl_absorpt_correction_T_min  0.0659
_exptl_absorpt_correction_type   multi-scan
_exptl_absorpt_process_details
;
(SADABS; Bruker, 2013)
;
_exptl_crystal_colour            colorless
_exptl_crystal_density_diffrn    1.380
_exptl_crystal_description       Plate
_exptl_crystal_F_000             316
_exptl_crystal_size_max          0.131
_exptl_crystal_size_mid          0.083
_exptl_crystal_size_min          0.055
_refine_diff_density_max         0.593
_refine_diff_density_min         -0.261
_refine_ls_extinction_method     none
_refine_ls_goodness_of_fit_ref   1.020
_refine_ls_hydrogen_treatment    constr
_refine_ls_matrix_type           full
_refine_ls_number_parameters     201
_refine_ls_number_reflns         2664
_refine_ls_number_restraints     0
_refine_ls_restrained_S_all      1.020
_refine_ls_R_factor_all          0.1059
_refine_ls_R_factor_gt           0.0568
_refine_ls_shift/su_max          0.000
_refine_ls_shift/su_mean         0.000
_refine_ls_structure_factor_coef Fsqd
_refine_ls_weighting_details
'w=1/[\s^2^(Fo^2^)+(0.0623P)^2^+0.3520P] where P=(Fo^2^+2Fc^2^)/3'
_refine_ls_weighting_scheme      calc
_refine_ls_wR_factor_gt          0.1226
_refine_ls_wR_factor_ref         0.1413
_reflns_number_gt                1699
_reflns_number_total             2664
_reflns_threshold_expression     'I > 2\s(I)'
_cod_data_source_file            su4079sup1.cif
_cod_data_source_block           I
_cod_database_code               1544244
_shelx_space_group_comment
;
The symmetry employed for this shelxl refinement is uniquely defined
by the following loop, which should always be used as a source of
symmetry information in preference to the above space-group names.
They are only intended as comments.
;
_shelx_estimated_absorpt_t_min   0.987
_shelx_estimated_absorpt_t_max   0.994
_shelx_hkl_file
;
  -1   0   0   39.54    0.84
  -1   0   0   39.09    0.88
  -1   0   0   37.51    0.87
   1   0   0   39.62    0.89
   1   0   0   41.39    0.89
   1   0   0   39.12    0.86
  -2   0   0    4.21    0.29
  -2   0   0    3.66    0.28
  -2   0   0    4.52    0.31
   2   0   0    3.91    0.27
   2   0   0    4.13    0.29
   2   0   0    4.18    0.26
  -3   0   0    0.43    0.20
  -3   0   0    0.22    0.21
   3   0   0    0.60    0.22
   3   0   0    0.17    0.19
   3   0   0    0.50    0.18
  -4   0   0    1.73    0.34
  -4   0   0    1.50    0.31
   4   0   0    0.97    0.25
   4   0   0    1.04    0.29
   4  -1   0   -0.07    0.21
   4  -1   0   -0.41    0.26
  -4   1   0   -0.31    0.26
  -4   1   0   -0.08    0.24
   3  -1   0    0.38    0.20
   3  -1   0    0.23    0.19
   3  -1   0    0.19    0.18
  -3   1   0    0.21    0.20
  -3   1   0    0.01    0.22
   2  -1   0    0.11    0.15
   2  -1   0    0.01    0.13
   2  -1   0   -0.02    0.16
  -2   1   0   -0.06    0.16
  -2   1   0    0.18    0.15
  -2   1   0    0.03    0.15
   1  -1   0    0.01    0.14
   1  -1   0   -0.10    0.12
  -1   1   0    0.06    0.14
  -1   1   0   -0.13    0.14
   0  -1   0    0.01    0.03
   0  -1   0   -0.04    0.03
  -1  -1   0    1.20    0.15
  -1  -1   0    1.18    0.14
  -1  -1   0    1.45    0.14
  -1  -1   0    1.42    0.14
   1   1   0    1.28    0.17
   1   1   0    1.08    0.13
   1   1   0    1.24    0.14
  -2  -1   0    0.41    0.15
  -2  -1   0    0.41    0.13
  -2  -1   0    0.39    0.15
   2   1   0    0.62    0.16
   2   1   0   -0.05    0.16
   2   1   0    0.20    0.14
  -3  -1   0    0.00    0.18
  -3  -1   0   -0.05    0.20
   3   1   0    0.30    0.17
   3   1   0    0.26    0.19
   3   1   0   -0.34    0.18
  -4  -1   0    0.37    0.28
   4   1   0    0.30    0.25
   4   1   0    0.51    0.25
   4  -2   0    0.87    0.28
   4  -2   0    1.26    0.28
  -4   2   0    1.03    0.27
  -4   2   0    0.70    0.30
   3  -2   0    3.46    0.38
   3  -2   0    3.12    0.32
   3  -2   0    2.80    0.35
  -3   2   0    3.33    0.37
  -3   2   0    3.67    0.32
   2  -2   0   -0.02    0.18
   2  -2   0    0.08    0.16
   2  -2   0    0.07    0.17
  -2   2   0    0.19    0.16
  -2   2   0    0.30    0.15
  -2   2   0    0.16    0.17
   1  -2   0   12.09    0.39
   1  -2   0   12.37    0.42
  -1   2   0   12.08    0.40
  -1   2   0   12.06    0.40
   0  -2   0   17.52    0.39
   0  -2   0   17.36    0.40
   0   2   0   17.09    0.40
   0   2   0   17.35    0.39
  -1  -2   0  937.51   18.98
  -1  -2   0 1000.00   20.13
  -1  -2   0  942.67   18.97
   1   2   0  968.67   18.99
   1   2   0  966.94   18.95
  -2  -2   0   31.37    0.88
  -2  -2   0   30.15    0.74
  -2  -2   0   31.42    0.75
  -2  -2   0   31.38    0.79
  -2  -2   0   30.28    0.74
   2   2   0   31.66    0.73
   2   2   0   31.65    0.76
  -3  -2   0    0.38    0.12
  -3  -2   0    0.80    0.25
  -3  -2   0    0.80    0.18
  -3  -2   0    0.82    0.20
   3   2   0    0.80    0.19
   3   2   0    1.03    0.19
  -4  -2   0    0.20    0.27
   4   2   0   -0.06    0.19
   4  -3   0   -0.01    0.29
   4  -3   0    0.07    0.21
  -4   3   0    0.34    0.33
  -4   3   0   -0.06    0.22
   3  -3   0   -0.04    0.20
   3  -3   0    0.41    0.26
   3  -3   0    0.14    0.22
  -3   3   0    0.04    0.22
  -3   3   0    0.10    0.22
   2  -3   0    0.13    0.07
   2  -3   0    0.08    0.18
   2  -3   0   -0.17    0.17
  -2   3   0   -0.03    0.21
  -2   3   0    0.02    0.16
  -2   3   0    0.05    0.16
   1  -3   0    0.12    0.15
   1  -3   0    0.13    0.16
  -1   3   0    0.03    0.15
  -1   3   0    0.07    0.16
  -1   3   0    0.27    0.10
   0  -3   0   -0.05    0.12
   0  -3   0    0.08    0.11
   0   3   0    0.03    0.11
   0   3   0    0.19    0.13
  -2  -3   0    1.25    0.22
  -2  -3   0    1.03    0.15
  -2  -3   0    1.26    0.18
  -2  -3   0    1.27    0.15
  -2  -3   0    1.05    0.13
   2   3   0    0.66    0.12
   2   3   0    0.94    0.12
  -3  -3   0   -0.09    0.16
  -3  -3   0   -0.19    0.13
  -3  -3   0    0.09    0.16
  -3  -3   0    1.04    0.24
   3   3   0    0.21    0.13
   3   3   0   -0.04    0.15
  -4  -3   0    0.19    0.24
   4   3   0    0.10    0.16
   4  -4   0    0.42    0.27
   4  -4   0    0.26    0.28
  -4   4   0    0.02    0.32
  -4   4   0    0.05    0.24
   3  -4   0    3.38    0.36
   3  -4   0    4.46    0.46
   3  -4   0    3.16    0.37
  -3   4   0    3.84    0.35
  -3   4   0    3.21    0.41
   2  -4   0    4.31    0.33
   2  -4   0    3.44    0.32
  -2   4   0    3.88    0.33
  -2   4   0    3.41    0.24
  -2   4   0    3.27    0.38
   1  -4   0    0.44    0.17
   1  -4   0    1.04    0.20
  -1   4   0    0.91    0.19
  -1   4   0    0.72    0.18
  -1   4   0    0.81    0.10
   0  -4   0   11.31    0.34
   0  -4   0   11.54    0.34
   0  -4   0   11.24    0.29
   0   4   0   11.13    0.34
   0   4   0   11.42    0.34
  -2  -4   0  191.01    4.07
  -2  -4   0  188.09    3.79
  -2  -4   0  195.71    4.06
  -2  -4   0  190.43    3.77
  -2  -4   0  188.69    4.42
   2   4   0  191.25    3.76
   2   4   0  187.18    3.77
  -3  -4   0   14.43    0.58
  -3  -4   0   13.54    0.43
  -3  -4   0   14.44    0.45
  -3  -4   0   14.11    0.48
   3   4   0   14.11    0.41
   3   4   0   14.31    0.44
  -4  -4   0    0.68    0.29
   4   4   0   -0.11    0.15
   4  -5   0    0.44    0.32
   4  -5   0    0.15    0.29
  -4   5   0    0.43    0.23
  -4   5   0    0.39    0.32
   3  -5   0    0.03    0.25
   3  -5   0    0.02    0.23
  -3   5   0    0.37    0.31
  -3   5   0    0.10    0.19
   2  -5   0    0.12    0.21
   2  -5   0    0.07    0.18
  -2   5   0    0.18    0.20
  -2   5   0    0.03    0.18
  -2   5   0    0.07    0.14
   1  -5   0   -0.20    0.17
   1  -5   0   -0.21    0.17
  -1   5   0   -0.05    0.17
  -1   5   0   -0.02    0.18
   0  -5   0    0.19    0.12
   0  -5   0   -0.04    0.12
   0   5   0    0.20    0.13
   0   5   0    0.16    0.13
  -1  -5   0    1.68    0.19
  -2  -5   0    0.56    0.19
  -2  -5   0    0.68    0.17
  -2  -5   0    0.56    0.16
  -3  -5   0    0.61    0.19
  -3  -5   0    0.93    0.29
  -3  -5   0    0.60    0.12
  -3  -5   0    0.40    0.12
   3   5   0    0.41    0.10
  -4  -5   0    0.87    0.30
   4   5   0   -0.25    0.10
   4  -6   0    5.86    0.50
   4  -6   0    4.96    0.48
  -4   6   0    6.09    0.45
  -4   6   0    6.39    0.57
   3  -6   0    0.29    0.26
   3  -6   0    0.01    0.10
   3  -6   0    0.04    0.11
  -3   6   0    0.41    0.19
  -3   6   0   -0.33    0.26
   2  -6   0    7.74    0.45
   2  -6   0    6.79    0.41
  -2   6   0    6.90    0.46
  -2   6   0    7.06    0.30
  -2   6   0    7.95    0.42
   1  -6   0    0.49    0.20
   1  -6   0    0.58    0.20
  -1   6   0    0.43    0.19
  -1   6   0    0.25    0.18
   0  -6   0    2.18    0.22
   0  -6   0    2.65    0.23
   0   6   0    2.75    0.23
   0   6   0    2.48    0.23
  -1  -6   0    5.20    0.25
  -2  -6   0    1.06    0.19
  -2  -6   0    0.95    0.16
  -2  -6   0    1.20    0.23
  -3  -6   0   48.99    1.26
  -3  -6   0   49.41    1.38
  -4  -6   0    7.47    0.53
   4  -7   0   -0.18    0.23
   4  -7   0   -0.16    0.27
  -4   7   0    0.18    0.24
  -4   7   0    0.50    0.35
   3  -7   0    0.07    0.14
   3  -7   0   -0.14    0.12
   3  -7   0    0.36    0.27
  -3   7   0    0.04    0.18
  -3   7   0    0.26    0.29
   2  -7   0    0.12    0.21
   2  -7   0    0.36    0.23
  -2   7   0    0.13    0.13
  -2   7   0    0.17    0.23
  -2   7   0    0.14    0.20
   1  -7   0   -0.22    0.16
   1  -7   0    0.09    0.18
  -1   7   0   -0.36    0.16
  -1   7   0   -0.21    0.18
   0  -7   0    0.29    0.16
   0  -7   0    0.54    0.16
   0   7   0    0.45    0.15
   0   7   0    0.02    0.15
  -1  -7   0    0.37    0.14
  -1  -7   0    0.23    0.07
  -1  -7   0    0.24    0.07
  -2  -7   0    0.03    0.18
  -2  -7   0    0.32    0.18
  -3  -7   0    0.43    0.19
  -3  -7   0    0.33    0.27
  -4  -7   0    0.84    0.36
   4  -8   0    4.34    0.49
   4  -8   0    5.93    0.52
  -4   8   0    4.66    0.58
  -4   8   0    5.65    0.41
   3  -8   0   12.89    0.47
   3  -8   0   13.57    0.66
  -3   8   0   13.43    0.70
  -3   8   0   14.41    0.51
   2  -8   0    0.27    0.24
  -2   8   0    0.25    0.25
  -2   8   0   -0.06    0.24
   1  -8   0    8.75    0.45
   1  -8   0    8.00    0.42
  -1   8   0    7.74    0.43
  -1   8   0    8.83    0.43
   0  -8   0    0.16    0.16
   0  -8   0    0.01    0.13
   0   8   0    0.13    0.17
   0   8   0   -0.02    0.14
  -1  -8   0    1.06    0.13
  -1  -8   0    1.07    0.12
  -1  -8   0    1.55    0.21
   1   8   0    1.27    0.13
   1   8   0    1.15    0.12
  -2  -8   0    2.09    0.27
  -2  -8   0    2.10    0.28
  -3  -8   0    0.05    0.21
  -3  -8   0    0.45    0.24
   4  -9   0    0.22    0.30
  -4   9   0    0.12    0.35
   3  -9   0    0.45    0.31
   3  -9   0    0.07    0.17
  -3   9   0    0.21    0.33
  -3   9   0    0.11    0.15
   2  -9   0    0.55    0.25
  -2   9   0   -0.25    0.26
   1  -9   0    0.52    0.21
  -1   9   0    0.43    0.24
  -1   9   0    0.10    0.19
   0  -9   0   -0.04    0.16
   0  -9   0    0.24    0.16
   0   9   0    0.32    0.17
   0   9   0   -0.15    0.15
  -1  -9   0   -0.08    0.09
  -1  -9   0    0.51    0.15
  -1  -9   0    0.02    0.09
   1   9   0   -0.02    0.10
   1   9   0    0.11    0.09
  -2  -9   0    0.48    0.21
  -2  -9   0    0.41    0.24
  -3  -9   0    0.23    0.22
  -3  -9   0   -0.15    0.26
   3 -10   0    4.26    0.50
   3 -10   0    4.53    0.34
  -3  10   0    3.93    0.53
   2 -10   0   21.30    0.77
  -2  10   0   21.28    0.80
   1 -10   0    0.76    0.22
  -1  10   0    0.66    0.22
  -1  10   0    1.11    0.28
   0 -10   0    4.53    0.34
   0 -10   0    4.57    0.32
   0  10   0    4.36    0.35
   0  10   0    4.55    0.33
  -1 -10   0    0.10    0.10
  -1 -10   0    0.59    0.15
  -1 -10   0    0.09    0.10
   1  10   0    0.30    0.11
   1  10   0    0.19    0.11
  -2 -10   0    0.97    0.23
  -2 -10   0    0.21    0.21
  -3 -10   0    0.82    0.26
  -3 -10   0    0.97    0.29
   3 -11   0   -0.09    0.20
   3 -11   0    0.12    0.32
  -3  11   0   -0.17    0.31
   2 -11   0    0.04    0.26
  -2  11   0    0.42    0.30
   1 -11   0    0.10    0.21
  -1  11   0    0.60    0.29
  -1  11   0    0.67    0.26
   0 -11   0    0.04    0.21
   0  11   0   -0.10    0.18
   0  11   0    0.21    0.21
  -1 -11   0   -0.09    0.10
  -1 -11   0    0.19    0.15
  -1 -11   0    0.04    0.12
   1  11   0    0.11    0.12
   1  11   0   -0.05    0.12
  -2 -11   0   -0.07    0.24
  -2 -11   0    0.21    0.21
  -3 -11   0   -0.13    0.23
  -3 -11   0   -0.06    0.22
   3 -12   0    1.00    0.34
   3 -12   0    1.48    0.28
  -3  12   0    1.94    0.41
   2 -12   0    2.50    0.40
  -2  12   0    2.87    0.44
   1 -12   0   21.45    0.74
  -1  12   0   21.31    0.78
  -1  12   0   21.97    0.77
   0 -12   0    2.84    0.32
   0  12   0    2.15    0.26
   0  12   0    2.53    0.33
  -1 -12   0    2.27    0.24
  -1 -12   0    2.06    0.19
  -1 -12   0    1.63    0.19
   1  12   0    2.13    0.21
   1  12   0    1.65    0.21
  -2 -12   0    0.62    0.23
  -2 -12   0   -0.07    0.30
   3 -13   0    0.28    0.32
  -3  13   0   -0.53    0.33
   2 -13   0   -0.01    0.26
  -2  13   0    0.43    0.30
   1 -13   0    0.14    0.23
  -1  13   0   -0.25    0.24
   0 -13   0    0.18    0.18
   0  13   0    0.04    0.24
  -1 -13   0    0.05    0.16
  -1 -13   0   -0.03    0.28
   1  13   0    0.10    0.14
  -2 -13   0   -0.05    0.20
  -2 -13   0    0.85    0.35
   2 -14   0    1.21    0.29
   2 -14   0    1.08    0.32
  -2  14   0    0.89    0.36
   1 -14   0    1.13    0.27
  -1  14   0    0.69    0.33
   0  14   0   13.56    0.57
  -1 -14   0    3.00    0.41
   1  14   0    2.57    0.23
  -2 -14   0    1.06    0.36
   2 -15   0   -0.09    0.28
   2 -15   0    0.45    0.28
  -2  15   0   -0.06    0.31
   1 -15   0    0.65    0.31
  -1  15   0   -0.54    0.28
   0 -15   0   -0.06    0.28
   0  15   0   -0.21    0.25
  -1 -15   0   -0.03    0.27
   1 -16   0    1.18    0.37
  -1  16   0    0.80    0.35
   0 -16   0    0.06    0.29
   0  16   0    0.99    0.29
   0  16  -1    0.32    0.25
   0 -16   1    0.19    0.32
  -1  16  -1    0.06    0.32
   1 -16   1    0.35    0.35
  -1 -15   1    3.30    0.46
   0  15  -1    0.77    0.28
   0 -15   1    0.78    0.32
  -1  15  -1    0.35    0.30
   1 -15   1    0.29    0.27
  -2  15  -1    0.18    0.34
   2 -15   1    0.01    0.24
   2 -15   1    0.18    0.34
  -2 -14   1    0.06    0.28
   1  14  -1    5.71    0.27
  -1 -14   1    6.03    0.56
   0  14  -1    7.61    0.49
   0 -14   1    7.56    0.57
  -1  14  -1   -0.12    0.30
   1 -14   1    0.52    0.29
   1 -14   1   -0.08    0.23
  -2  14  -1   -0.26    0.30
   2 -14   1    0.18    0.29
   2 -14   1    0.19    0.28
  -2 -13   1    0.38    0.23
  -2 -13   1    0.20    0.32
   1  13  -1    3.05    0.21
  -1 -13   1    3.13    0.44
  -1 -13   1    2.79    0.24
   0  13  -1    5.76    0.43
   0 -13   1    6.18    0.51
   0 -13   1    6.51    0.41
  -1  13  -1    0.93    0.30
   1 -13   1    0.81    0.27
   1 -13   1    0.48    0.25
  -2  13  -1   -0.11    0.34
   2 -13   1    0.47    0.27
   2 -13   1    0.44    0.26
  -3  13  -1    0.61    0.40
   3 -13   1    0.33    0.33
  -2 -12   1   -0.39    0.28
  -2 -12   1   -0.10    0.19
   1  12  -1    0.46    0.13
   1  12  -1    0.31    0.13
  -1 -12   1    0.57    0.28
  -1 -12   1    0.31    0.16
  -1 -12   1    0.32    0.13
  -1 -12   1    0.45    0.13
   0  12  -1    8.65    0.43
   0  12  -1    9.37    0.44
   0 -12   1    9.17    0.43
   0 -12   1    9.21    0.56
  -1  12  -1   15.71    0.66
  -1  12  -1   15.55    0.65
   1 -12   1   16.85    0.66
  -2  12  -1    0.32    0.31
   2 -12   1   -0.06    0.26
   2 -12   1    0.26    0.23
  -3  12  -1   -0.03    0.33
   3 -12   1    0.69    0.33
  -3 -11   1    0.11    0.25
  -3 -11   1    0.08    0.24
  -2 -11   1    1.30    0.29
  -2 -11   1    1.16    0.23
   1  11  -1    0.41    0.13
   1  11  -1    0.28    0.12
  -1 -11   1    0.40    0.26
  -1 -11   1    0.19    0.12
  -1 -11   1    0.74    0.17
  -1 -11   1    0.34    0.12
   0  11  -1    4.21    0.34
   0  11  -1    5.75    0.36
   0 -11   1    4.90    0.37
  -1  11  -1    9.74    0.56
  -1  11  -1   10.44    0.54
   1 -11   1   10.46    0.54
  -2  11  -1    1.10    0.37
   2 -11   1    0.82    0.28
   2 -11   1    1.59    0.26
  -3  11  -1    0.51    0.35
   3 -11   1    0.27    0.29
   3 -11   1    0.25    0.21
  -3 -10   1    0.60    0.25
  -3 -10   1    0.49    0.28
  -2 -10   1   -0.25    0.21
  -2 -10   1    0.03    0.20
   1  10  -1    0.21    0.11
   1  10  -1    0.09    0.11
  -1 -10   1    0.20    0.10
  -1 -10   1    0.56    0.17
  -1 -10   1   -0.12    0.21
  -1 -10   1    0.21    0.11
   0  10  -1    2.81    0.27
   0  10  -1    2.79    0.30
   0 -10   1    3.07    0.30
   0 -10   1    2.94    0.29
  -1  10  -1    9.77    0.48
  -1  10  -1   10.04    0.50
   1 -10   1   10.22    0.48
  -2  10  -1   23.37    0.85
   2 -10   1   23.19    0.80
   2 -10   1   23.42    0.77
  -3  10  -1    0.52    0.33
   3 -10   1   -0.34    0.26
   3 -10   1    0.24    0.17
  -3  -9   1    1.13    0.28
  -3  -9   1    1.27    0.30
  -2  -9   1    1.32    0.25
  -2  -9   1    0.37    0.21
   1   9  -1    3.35    0.19
   1   9  -1    3.91    0.17
  -1  -9   1    4.19    0.24
  -1  -9   1    3.48    0.38
  -1  -9   1    3.36    0.17
  -1  -9   1    3.23    0.19
   0   9  -1    0.02    0.15
   0   9  -1    0.13    0.18
   0  -9   1    0.03    0.14
   0  -9   1    0.18    0.16
  -1   9  -1    7.78    0.42
  -1   9  -1    6.79    0.41
   1  -9   1    7.41    0.42
  -2   9  -1   12.05    0.61
  -2   9  -1   11.38    0.35
   2  -9   1   11.47    0.49
   2  -9   1   12.06    0.58
  -3   9  -1    1.16    0.20
  -3   9  -1    1.70    0.39
   3  -9   1    1.43    0.21
   3  -9   1    1.30    0.32
  -4   9  -1   -0.20    0.36
   4  -9   1   -0.26    0.30
   4  -9   1    0.15    0.34
  -3  -8   1    1.09    0.27
  -3  -8   1    1.30    0.26
  -2  -8   1    1.54    0.27
  -2  -8   1    1.76    0.24
   1   8  -1    0.03    0.08
   1   8  -1    0.00    0.09
  -1  -8   1    0.38    0.14
  -1  -8   1    0.04    0.08
  -1  -8   1   -0.18    0.17
  -1  -8   1    0.00    0.08
   0   8  -1    1.78    0.23
   0   8  -1    1.44    0.18
   0  -8   1    1.80    0.23
   0  -8   1    1.68    0.21
  -1   8  -1    5.71    0.38
  -1   8  -1    4.84    0.37
   1  -8   1    5.32    0.36
   1  -8   1    4.70    0.36
  -2   8  -1    6.29    0.48
  -2   8  -1    6.09    0.43
  -2   8  -1    6.81    0.27
   2  -8   1    6.71    0.45
   2  -8   1    6.06    0.35
  -3   8  -1   21.41    0.66
  -3   8  -1   21.97    0.87
   3  -8   1   20.74    0.61
   3  -8   1   21.59    0.81
  -4   8  -1    0.63    0.22
  -4   8  -1   -0.36    0.33
   4  -8   1    0.34    0.31
   4  -8   1    0.05    0.29
  -4  -7   1    1.30    0.33
  -3  -7   1    0.59    0.29
  -3  -7   1    0.55    0.23
  -2  -7   1    4.58    0.34
  -2  -7   1    4.80    0.29
  -2  -7   1    4.39    0.33
  -1  -7   1    3.13    0.13
  -1  -7   1    2.99    0.30
  -1  -7   1    2.89    0.15
   0   7  -1    8.81    0.35
   0   7  -1    9.21    0.36
   0  -7   1    9.29    0.35
   0  -7   1    8.86    0.36
  -1   7  -1    0.35    0.19
  -1   7  -1    0.19    0.18
   1  -7   1    0.21    0.17
   1  -7   1    0.06    0.20
  -2   7  -1    4.73    0.42
  -2   7  -1    4.95    0.38
  -2   7  -1    4.26    0.23
   2  -7   1    4.63    0.40
   2  -7   1    4.90    0.39
   2  -7   1    5.25    0.30
  -3   7  -1   10.35    0.62
  -3   7  -1   10.01    0.44
   3  -7   1    9.84    0.35
   3  -7   1   10.51    0.57
  -4   7  -1    1.00    0.37
  -4   7  -1    1.05    0.28
   4  -7   1    1.13    0.33
   4  -7   1    0.80    0.31
  -4  -6   1    1.49    0.35
  -3  -6   1    2.23    0.31
  -2  -6   1    3.71    0.27
  -2  -6   1    3.62    0.30
  -1  -6   1    6.50    0.36
   0   6  -1    0.30    0.14
   0   6  -1    0.27    0.14
   0  -6   1    0.36    0.14
   0  -6   1    0.21    0.14
  -1   6  -1    3.33    0.14
  -1   6  -1    3.15    0.30
  -1   6  -1    3.39    0.31
   1  -6   1    3.13    0.29
   1  -6   1    3.63    0.30
  -2   6  -1    3.38    0.34
  -2   6  -1    3.23    0.37
  -2   6  -1    2.81    0.22
   2  -6   1    3.22    0.35
   2  -6   1    3.42    0.32
   2  -6   1    2.82    0.23
  -3   6  -1    3.94    0.34
  -3   6  -1    2.99    0.40
   3  -6   1    3.39    0.19
   3  -6   1    3.36    0.40
   3  -6   1    3.46    0.18
  -4   6  -1   15.04    0.61
  -4   6  -1   13.80    0.75
   4  -6   1   12.75    0.65
   4  -6   1   14.22    0.69
  -4  -5   1    3.57    0.45
   3   5  -1    2.68    0.15
  -3  -5   1    2.62    0.18
  -3  -5   1    2.28    0.19
  -3  -5   1    2.72    0.35
  -3  -5   1    2.26    0.28
  -2  -5   1    1.54    0.23
  -2  -5   1    1.98    0.24
  -1  -5   1   22.57    0.65
   0   5  -1    7.64    0.29
   0   5  -1    7.98    0.28
   0  -5   1    7.76    0.30
   0  -5   1    7.35    0.28
  -1   5  -1   11.94    0.46
  -1   5  -1   12.92    0.35
  -1   5  -1   13.88    0.47
   1  -5   1   12.62    0.46
   1  -5   1   13.39    0.48
  -2   5  -1    0.29    0.19
  -2   5  -1    0.11    0.20
  -2   5  -1    0.32    0.15
   2  -5   1    0.17    0.21
   2  -5   1    0.10    0.18
   2  -5   1    0.18    0.12
  -3   5  -1    1.78    0.26
  -3   5  -1    1.75    0.33
   3  -5   1    1.47    0.25
   3  -5   1    1.41    0.27
   3  -5   1    1.25    0.33
  -4   5  -1    6.58    0.64
  -4   5  -1    6.88    0.47
   4  -5   1    5.97    0.49
   4  -5   1    6.30    0.51
   4   4  -1    0.57    0.18
  -4  -4   1    1.28    0.33
   3   4  -1    4.11    0.23
   3   4  -1    4.59    0.24
  -3  -4   1    4.03    0.30
  -3  -4   1    6.28    0.43
  -3  -4   1    3.72    0.26
  -3  -4   1    4.51    0.26
   2   4  -1    7.73    0.24
  -2  -4   1    9.15    0.27
  -1  -4   1   14.93    0.46
   0   4  -1   21.23    0.52
   0   4  -1   20.99    0.52
   0  -4   1   22.24    0.53
   0  -4   1   20.20    0.50
  -1   4  -1    0.46    0.09
  -1   4  -1    0.52    0.17
  -1   4  -1    0.53    0.17
   1  -4   1    0.53    0.16
   1  -4   1    0.52    0.18
  -2   4  -1    0.95    0.23
  -2   4  -1    1.06    0.23
  -2   4  -1    0.90    0.16
   2  -4   1    0.85    0.11
   2  -4   1    0.87    0.20
   2  -4   1    0.57    0.22
  -3   4  -1    1.79    0.30
  -3   4  -1    1.20    0.24
   3  -4   1    1.15    0.28
   3  -4   1    1.22    0.27
   3  -4   1    0.74    0.21
  -4   4  -1    1.84    0.30
  -4   4  -1    1.20    0.34
   4  -4   1    1.51    0.33
   4  -4   1    2.00    0.33
   4   3  -1    0.12    0.18
  -4  -3   1    0.35    0.26
   3   3  -1    7.28    0.32
   3   3  -1    6.63    0.31
  -3  -3   1    8.22    0.46
  -3  -3   1    7.28    0.33
  -3  -3   1    7.79    0.36
  -3  -3   1    7.38    0.35
   2   3  -1    7.15    0.24
   2   3  -1    6.19    0.24
  -2  -3   1    7.64    0.27
  -2  -3   1    7.29    0.28
  -2  -3   1    7.78    0.31
  -2  -3   1    6.85    0.30
  -1  -3   1    5.42    0.16
  -1  -3   1    5.70    0.24
   0   3  -1   99.66    2.05
   0   3  -1  102.76    2.05
   0  -3   1  100.23    2.04
   0  -3   1  102.20    2.05
  -1   3  -1    8.52    0.28
  -1   3  -1    9.48    0.36
  -1   3  -1    9.05    0.35
   1  -3   1    8.66    0.33
   1  -3   1    8.76    0.29
   1  -3   1    9.59    0.36
   1  -3   1    8.85    0.29
  -2   3  -1    9.13    0.43
  -2   3  -1    8.86    0.44
  -2   3  -1    8.90    0.37
   2  -3   1    8.64    0.40
   2  -3   1    9.00    0.47
  -3   3  -1    0.47    0.24
  -3   3  -1   -0.02    0.21
   3  -3   1    0.02    0.21
   3  -3   1    0.00    0.19
   3  -3   1    0.06    0.21
  -4   3  -1    0.84    0.28
  -4   3  -1    0.58    0.29
   4  -3   1    0.81    0.28
   4  -3   1    0.88    0.29
   4   2  -1   -0.40    0.19
  -4  -2   1    0.69    0.28
   3   2  -1    3.52    0.32
   3   2  -1    3.65    0.29
   3   2  -1    3.50    0.27
  -3  -2   1    3.70    0.37
  -3  -2   1    3.03    0.26
  -3  -2   1    3.22    0.22
  -3  -2   1    3.00    0.30
   2   2  -1   18.57    0.49
   2   2  -1   17.98    0.51
   2   2  -1   19.73    0.53
  -2  -2   1   16.59    0.50
  -2  -2   1   18.99    0.52
  -2  -2   1   17.40    0.51
  -2  -2   1   18.46    0.50
   1   2  -1    3.66    0.17
  -1  -2   1    4.12    0.19
   0   2  -1   40.49    0.86
   0   2  -1   40.64    0.92
   0   2  -1   41.17    0.85
   0  -2   1   39.92    0.85
   0  -2   1   40.86    0.85
   0  -2   1   40.76    0.91
   0  -2   1   41.61    0.94
  -1   2  -1   19.74    0.53
  -1   2  -1   20.36    0.56
  -1   2  -1   20.97    0.55
   1  -2   1   20.11    0.54
   1  -2   1   21.08    0.54
   1  -2   1   19.33    0.47
   1  -2   1   21.05    0.57
  -2   2  -1    0.30    0.18
  -2   2  -1    0.40    0.15
  -2   2  -1    0.05    0.16
   2  -2   1   -0.02    0.18
   2  -2   1    0.21    0.13
   2  -2   1    0.29    0.15
  -3   2  -1    0.15    0.20
  -3   2  -1    0.21    0.24
   3  -2   1    0.26    0.23
   3  -2   1    0.12    0.20
   3  -2   1   -0.09    0.18
  -4   2  -1    1.01    0.34
  -4   2  -1    0.63    0.27
   4  -2   1    0.34    0.27
   4  -2   1    1.13    0.27
   4   1  -1    0.24    0.24
   4   1  -1    0.41    0.24
  -4  -1   1    1.20    0.29
   3   1  -1    0.59    0.18
   3   1  -1    0.33    0.20
   3   1  -1    0.37    0.19
  -3  -1   1    0.27    0.19
  -3  -1   1    0.47    0.11
  -3  -1   1    0.50    0.24
   2   1  -1   24.40    0.64
   2   1  -1   24.82    0.66
   2   1  -1   23.76    0.63
  -2  -1   1   24.29    0.64
  -2  -1   1   23.33    0.58
  -2  -1   1   23.69    0.64
   1   1  -1   18.03    0.47
   1   1  -1   18.18    0.47
   1   1  -1   19.88    0.48
   1   1  -1   19.49    0.48
  -1  -1   1   18.99    0.47
  -1  -1   1   19.80    0.48
  -1  -1   1   20.32    0.48
  -1  -1   1   18.94    0.48
   0   1  -1   16.35    0.36
   0   1  -1   16.52    0.39
   0  -1   1   16.28    0.37
   0  -1   1   17.26    0.40
   0  -1   1   16.63    0.36
  -1   1  -1  106.76    2.15
  -1   1  -1  107.66    2.40
  -1   1  -1  103.31    2.15
   1  -1   1  103.25    2.13
   1  -1   1  103.81    2.21
   1  -1   1  102.24    2.16
   1  -1   1  102.25    2.40
  -2   1  -1    1.76    0.23
  -2   1  -1    1.86    0.22
  -2   1  -1    1.99    0.25
   2  -1   1    1.95    0.22
   2  -1   1    1.72    0.20
   2  -1   1    1.76    0.22
  -3   1  -1    2.92    0.37
  -3   1  -1    3.38    0.33
   3  -1   1    3.08    0.35
   3  -1   1    3.31    0.40
   3  -1   1    3.29    0.32
  -4   1  -1   -0.15    0.26
  -4   1  -1    0.29    0.27
   4  -1   1    0.54    0.27
   4  -1   1    0.32    0.23
   4   0  -1    0.17    0.22
   4   0  -1    0.00    0.28
  -4   0   1    0.33    0.25
  -4   0   1    0.33    0.27
   3   0  -1    0.37    0.19
   3   0  -1    0.41    0.20
   3   0  -1    0.69    0.18
  -3   0   1    0.14    0.22
  -3   0   1    0.25    0.21
   2   0  -1   14.31    0.49
   2   0  -1   13.58    0.46
   2   0  -1   13.95    0.44
  -2   0   1   13.18    0.48
  -2   0   1   13.70    0.47
  -2   0   1   13.82    0.36
   1   0  -1   47.56    1.04
   1   0  -1   48.63    1.04
   1   0  -1   48.35    1.05
   1   0  -1   47.87    1.04
  -1   0   1   46.36    1.04
  -1   0   1   46.09    1.05
  -1   0   1   49.55    1.04
   0   0  -1   -0.02    0.04
   0   0  -1   -0.05    0.02
   0   0  -1   -0.06    0.02
   0   0  -1   -0.04    0.03
   0   0   1   -0.04    0.03
   0   0   1   -0.07    0.03
   0   0   1   -0.05    0.02
  -1   0  -1   31.11    0.68
  -1   0  -1   30.61    0.73
  -1   0  -1   32.57    0.72
  -1   0  -1   31.88    0.80
  -1   0  -1   33.06    0.74
   1   0   1   31.47    0.73
   1   0   1   32.12    0.72
   1   0   1   31.01    0.81
   1   0   1   32.55    0.74
  -2   0  -1    4.31    0.28
  -2   0  -1    4.54    0.30
  -2   0  -1    3.82    0.28
   2   0   1    4.51    0.28
   2   0   1    4.72    0.31
   2   0   1    4.28    0.27
  -3   0  -1    0.50    0.23
  -3   0  -1    0.58    0.20
   3   0   1    0.60    0.19
   3   0   1    0.43    0.22
   3   0   1    0.52    0.20
  -4   0  -1    0.05    0.25
  -4   0  -1    0.30    0.27
   4   0   1    0.22    0.22
   4   0   1   -0.01    0.21
   4  -1  -1    0.77    0.26
   4  -1  -1   -0.10    0.25
  -4   1   1   -0.20    0.22
  -4   1   1    0.15    0.26
   3  -1  -1    2.19    0.32
   3  -1  -1    1.87    0.24
   3  -1  -1    2.21    0.27
  -3   1   1    2.29    0.31
  -3   1   1    2.01    0.31
   2  -1  -1    2.26    0.25
   2  -1  -1    2.69    0.14
   2  -1  -1    2.75    0.24
   2  -1  -1    2.50    0.29
  -2   1   1    2.26    0.28
  -2   1   1    2.66    0.28
   1  -1  -1   99.02    2.07
   1  -1  -1   98.63    2.10
   1  -1  -1  100.92    2.08
  -1   1   1   98.36    2.11
  -1   1   1   98.69    2.07
  -1   1   1  102.83    2.08
   0  -1  -1   17.77    0.42
   0  -1  -1   18.47    0.39
   0  -1  -1   17.97    0.39
   0   1   1   18.12    0.40
   0   1   1   17.71    0.42
   0   1   1   15.63    0.39
  -1  -1  -1   22.10    0.63
  -1  -1  -1   22.94    0.53
  -1  -1  -1   22.98    0.55
  -1  -1  -1   24.32    0.57
   1   1   1   23.11    0.54
   1   1   1   23.43    0.57
   1   1   1   23.42    0.53
  -2  -1  -1   31.40    0.77
  -2  -1  -1   31.64    0.76
  -2  -1  -1   30.10    0.78
  -2  -1  -1   31.67    0.88
  -2  -1  -1   30.76    0.70
   2   1   1   29.88    0.74
   2   1   1   30.66    0.78
   2   1   1   31.02    0.79
  -3  -1  -1    0.39    0.23
  -3  -1  -1    0.13    0.18
   3   1   1   -0.26    0.18
   3   1   1   -0.17    0.21
   3   1   1    0.15    0.17
  -4  -1  -1    1.08    0.32
   4   1   1    1.37    0.26
   4  -2  -1   -0.15    0.23
   4  -2  -1    0.35    0.23
  -4   2   1    0.70    0.30
  -4   2   1    0.47    0.29
   3  -2  -1    0.24    0.22
   3  -2  -1    0.22    0.24
   3  -2  -1   -0.21    0.19
  -3   2   1   -0.40    0.24
  -3   2   1    0.14    0.22
   2  -2  -1    0.10    0.18
   2  -2  -1   -0.02    0.08
   2  -2  -1   -0.01    0.17
  -2   2   1    0.26    0.16
  -2   2   1    0.25    0.19
   1  -2  -1   34.71    0.80
   1  -2  -1   34.23    0.84
   1  -2  -1   34.59    0.84
  -1   2   1   35.05    0.85
  -1   2   1   35.05    0.83
   0  -2  -1   35.85    0.78
   0  -2  -1   36.49    0.78
   0  -2  -1   36.30    0.84
   0   2   1   36.59    0.84
   0   2   1   37.05    0.79
   0   2   1   36.96    0.79
  -1  -2  -1    6.06    0.24
  -1  -2  -1    6.08    0.20
  -1  -2  -1    5.69    0.28
  -1  -2  -1    6.08    0.20
   1   2   1    6.28    0.19
  -2  -2  -1   10.87    0.37
  -2  -2  -1   10.93    0.33
  -2  -2  -1   10.92    0.45
  -2  -2  -1   10.80    0.38
  -2  -2  -1   10.47    0.36
   2   2   1   11.13    0.38
   2   2   1   10.96    0.35
  -3  -2  -1    0.56    0.25
  -3  -2  -1    0.32    0.19
  -3  -2  -1    0.16    0.11
   3   2   1    0.44    0.19
   3   2   1    0.59    0.18
  -4  -2  -1    0.56    0.30
   4   2   1    0.33    0.21
   4  -3  -1   -0.08    0.28
   4  -3  -1    0.04    0.26
  -4   3   1    0.62    0.34
  -4   3   1    0.54    0.28
   3  -3  -1   -0.01    0.24
   3  -3  -1    0.12    0.22
   3  -3  -1   -0.17    0.19
  -3   3   1   -0.20    0.22
  -3   3   1   -0.28    0.20
   2  -3  -1    7.98    0.42
   2  -3  -1    7.85    0.27
   2  -3  -1    7.93    0.43
  -2   3   1    8.60    0.42
  -2   3   1    7.90    0.47
   1  -3  -1    9.43    0.36
   1  -3  -1   10.12    0.39
  -1   3   1    9.80    0.40
  -1   3   1   10.07    0.39
   0  -3  -1  106.71    2.42
   0  -3  -1  109.74    2.18
   0  -3  -1  109.11    2.18
   0   3   1  103.18    2.41
   0   3   1  105.23    2.17
   0   3   1  107.53    2.17
  -1  -3  -1    9.16    0.24
  -1  -3  -1    9.49    0.23
  -1  -3  -1    9.35    0.34
   1   3   1    9.09    0.24
   1   3   1    9.12    0.23
  -2  -3  -1   10.94    0.38
  -2  -3  -1   10.60    0.33
  -2  -3  -1   10.68    0.33
  -2  -3  -1    9.69    0.44
   2   3   1   10.97    0.31
  -3  -3  -1   10.21    0.41
  -3  -3  -1   10.67    0.37
  -3  -3  -1   11.08    0.42
  -3  -3  -1   11.61    0.52
   3   3   1   11.69    0.43
   3   3   1   10.95    0.39
  -4  -3  -1    0.38    0.27
   4   3   1   -0.24    0.17
   4  -4  -1    0.74    0.29
   4  -4  -1    0.59    0.28
  -4   4   1    0.78    0.28
  -4   4   1    0.61    0.33
   3  -4  -1    1.13    0.28
   3  -4  -1    0.96    0.26
  -3   4   1    1.62    0.31
  -3   4   1    1.31    0.24
   2  -4  -1    0.69    0.20
   2  -4  -1    0.59    0.21
   2  -4  -1    0.95    0.14
  -2   4   1    1.11    0.22
  -2   4   1    0.85    0.22
   1  -4  -1    1.31    0.21
   1  -4  -1    1.29    0.21
  -1   4   1    0.88    0.20
  -1   4   1    1.26    0.22
   0  -4  -1   19.35    0.50
   0  -4  -1   19.33    0.50
   0  -4  -1   18.92    0.47
   0   4   1   19.37    0.51
   0   4   1   19.66    0.50
   0   4   1   19.26    0.47
  -1  -4  -1    7.01    0.29
  -1  -4  -1    7.64    0.18
  -1  -4  -1    7.05    0.20
  -2  -4  -1    6.47    0.36
  -2  -4  -1    5.72    0.21
  -2  -4  -1    5.93    0.32
  -2  -4  -1    5.85    0.22
   2   4   1    5.25    0.23
   2   4   1    5.57    0.19
  -3  -4  -1    2.41    0.35
  -3  -4  -1    1.58    0.22
  -3  -4  -1    1.82    0.21
  -3  -4  -1    1.95    0.25
   3   4   1    1.94    0.20
   3   4   1    1.56    0.19
  -4  -4  -1    0.17    0.28
   4   4   1    0.14    0.14
   4  -5  -1    3.74    0.48
   4  -5  -1    4.62    0.48
  -4   5   1    5.48    0.55
  -4   5   1    5.23    0.42
   3  -5  -1    0.81    0.13
   3  -5  -1    0.69    0.27
   3  -5  -1    0.67    0.26
  -3   5   1    1.16    0.21
  -3   5   1    0.82    0.31
   2  -5  -1    0.01    0.22
   2  -5  -1    0.22    0.21
  -2   5   1    0.14    0.13
  -2   5   1   -0.01    0.18
  -2   5   1   -0.10    0.20
   1  -5  -1   13.42    0.49
   1  -5  -1   13.71    0.49
  -1   5   1   13.82    0.50
  -1   5   1   14.14    0.50
   0  -5  -1    8.41    0.23
   0  -5  -1    8.39    0.32
   0  -5  -1    8.82    0.33
   0   5   1    8.30    0.32
   0   5   1    8.20    0.33
  -1  -5  -1   26.19    0.54
  -1  -5  -1   24.88    0.55
  -1  -5  -1   25.72    0.69
  -2  -5  -1    2.89    0.31
  -2  -5  -1    2.94    0.26
  -3  -5  -1    4.02    0.39
  -3  -5  -1    3.78    0.22
  -3  -5  -1    3.64    0.23
  -3  -5  -1    4.10    0.30
   3   5   1    3.59    0.18
   3   5   1    4.12    0.22
  -4  -5  -1    5.40    0.47
   4  -6  -1   14.74    0.66
   4  -6  -1   16.40    0.73
  -4   6   1   15.18    0.78
  -4   6   1   15.69    0.64
   3  -6  -1    3.01    0.40
   3  -6  -1    2.25    0.22
  -3   6   1    2.72    0.40
  -3   6   1    2.91    0.32
   2  -6  -1    3.53    0.35
   2  -6  -1    3.11    0.34
  -2   6   1    4.16    0.39
  -2   6   1    3.01    0.22
  -2   6   1    3.94    0.35
   1  -6  -1    4.51    0.33
   1  -6  -1    3.67    0.31
  -1   6   1    4.08    0.31
  -1   6   1    4.03    0.35
   0  -6  -1    0.48    0.16
   0  -6  -1    0.46    0.08
   0  -6  -1    0.51    0.16
   0   6   1    0.47    0.16
   0   6   1    0.47    0.16
  -1  -6  -1    3.08    0.14
  -1  -6  -1    3.17    0.22
  -1  -6  -1    2.95    0.13
   1   6   1    2.98    0.15
  -2  -6  -1    0.60    0.16
  -2  -6  -1    0.78    0.19
  -3  -6  -1    3.57    0.38
  -3  -6  -1    3.14    0.33
  -4  -6  -1    1.03    0.32
   4  -7  -1    1.60    0.35
   4  -7  -1    1.33    0.33
  -4   7   1    1.28    0.28
  -4   7   1    2.25    0.43
   3  -7  -1    7.56    0.53
   3  -7  -1    7.72    0.34
  -3   7   1    8.12    0.39
  -3   7   1    9.42    0.65
   2  -7  -1    4.24    0.38
   2  -7  -1    4.10    0.38
  -2   7   1    4.93    0.38
  -2   7   1    3.95    0.23
  -2   7   1    4.08    0.43
   1  -7  -1    0.17    0.18
   1  -7  -1    0.17    0.17
  -1   7   1    0.19    0.22
  -1   7   1   -0.10    0.18
   0  -7  -1   10.40    0.39
   0  -7  -1   10.93    0.30
   0  -7  -1   10.83    0.40
   0   7   1   10.94    0.41
   0   7   1   10.81    0.40
  -1  -7  -1    3.18    0.14
  -1  -7  -1    3.49    0.23
  -1  -7  -1    3.15    0.15
   1   7   1    2.98    0.16
  -2  -7  -1    6.41    0.37
  -3  -7  -1    0.95    0.29
  -3  -7  -1    1.12    0.24
  -4  -7  -1    1.21    0.34
   4  -8  -1    0.84    0.33
  -4   8   1    0.25    0.25
  -4   8   1    1.41    0.45
   3  -8  -1   23.91    0.86
   3  -8  -1   23.14    0.69
  -3   8   1   23.35    0.71
  -3   8   1   23.48    0.91
   2  -8  -1    6.81    0.47
  -2   8   1    7.71    0.29
  -2   8   1    8.14    0.50
  -2   8   1    7.19    0.47
   1  -8  -1    5.21    0.36
   1  -8  -1    5.22    0.35
  -1   8   1    4.88    0.41
  -1   8   1    5.31    0.36
   0  -8  -1    2.69    0.25
   0  -8  -1    2.85    0.27
   0   8   1    3.02    0.26
   0   8   1    3.17    0.27
  -1  -8  -1    0.00    0.10
  -1  -8  -1    0.21    0.13
  -1  -8  -1   -0.04    0.08
   1   8   1   -0.05    0.09
   1   8   1    0.08    0.09
  -2  -8  -1    0.30    0.20
  -3  -8  -1    0.08    0.26
  -3  -8  -1    0.38    0.23
   4  -9  -1    0.12    0.31
  -4   9   1   -0.24    0.34
   3  -9  -1    1.80    0.33
  -3   9   1    2.39    0.42
  -3   9   1    1.78    0.21
   2  -9  -1   10.89    0.56
  -2   9   1   10.47    0.58
  -2   9   1   10.12    0.32
   1  -9  -1    6.48    0.44
  -1   9   1    6.96    0.43
  -1   9   1    7.24    0.41
   0  -9  -1    0.21    0.16
   0  -9  -1    0.17    0.15
   0   9   1    0.26    0.19
   0   9   1    0.06    0.15
  -1  -9  -1    3.97    0.20
  -1  -9  -1    4.57    0.25
  -1  -9  -1    4.17    0.20
   1   9   1    3.98    0.21
   1   9   1    4.23    0.21
  -2  -9  -1    1.57    0.25
  -3  -9  -1    2.42    0.33
  -3  -9  -1    1.94    0.31
   3 -10  -1    0.11    0.29
  -3  10   1    0.59    0.32
   2 -10  -1   22.87    0.83
  -2  10   1   23.06    0.89
   1 -10  -1   11.03    0.53
  -1  10   1   11.10    0.56
  -1  10   1   11.18    0.55
   0 -10  -1    2.80    0.27
   0 -10  -1    2.64    0.33
   0  10   1    2.66    0.32
   0  10   1    2.64    0.30
  -1 -10  -1    0.89    0.14
  -1 -10  -1    1.08    0.17
  -1 -10  -1    0.66    0.12
   1  10   1    0.75    0.13
   1  10   1    0.88    0.14
  -2 -10  -1    0.11    0.19
  -3 -10  -1    0.00    0.21
  -3 -10  -1    0.17    0.24
   3 -11  -1   -0.09    0.30
  -3  11   1    0.12    0.32
   2 -11  -1    1.98    0.38
  -2  11   1    1.81    0.36
   1 -11  -1   11.39    0.55
  -1  11   1   11.81    0.58
  -1  11   1   12.65    0.60
   0 -11  -1    5.70    0.36
   0  11   1    5.42    0.41
   0  11   1    5.38    0.36
  -1 -11  -1    0.20    0.12
  -1 -11  -1    0.17    0.12
  -1 -11  -1    0.57    0.17
   1  11   1    0.22    0.12
   1  11   1    0.24    0.13
  -2 -11  -1    1.24    0.25
  -3 -11  -1    0.66    0.25
  -3 -11  -1    0.30    0.27
   3 -12  -1    0.63    0.32
  -3  12   1    0.51    0.36
   2 -12  -1   -0.25    0.26
  -2  12   1    0.14    0.30
   1 -12  -1   14.55    0.66
  -1  12   1   15.19    0.65
  -1  12   1   14.53    0.68
   0 -12  -1    8.89    0.41
   0  12   1    8.67    0.46
   0  12   1    8.81    0.43
  -1 -12  -1    0.41    0.13
  -1 -12  -1    0.56    0.16
   1  12   1    0.38    0.14
   1  12   1    0.56    0.16
  -2 -12  -1    0.24    0.22
  -2 -12  -1   -0.11    0.28
   3 -13  -1    0.63    0.36
  -3  13   1    0.00    0.36
   2 -13  -1    0.05    0.26
  -2  13   1    0.17    0.30
   1 -13  -1    0.41    0.24
  -1  13   1    0.91    0.28
   0 -13  -1    8.43    0.42
   0  13   1    7.92    0.45
  -1 -13  -1    3.17    0.25
   1  13   1    3.51    0.24
  -2 -13  -1    0.37    0.28
  -2 -13  -1    0.07    0.21
   2 -14  -1    0.44    0.29
  -2  14   1    0.75    0.35
   1 -14  -1    0.33    0.27
  -1  14   1    0.01    0.30
   0  14   1    5.60    0.45
   1  14   1    4.69    0.26
  -2 -14  -1    0.44    0.29
   2 -15  -1    0.18    0.31
  -2  15   1    0.30    0.37
  -1  15   1    0.97    0.34
   0  15   1   -0.13    0.26
   0  16   1    0.05    0.25
   0  16  -2    0.81    0.28
   0 -16   2    0.48    0.34
  -1 -15   2    0.55    0.33
   0  15  -2    0.06    0.25
   0 -15   2    0.23    0.34
  -1  15  -2    0.75    0.29
   1 -15   2    0.69    0.30
  -2 -14   2    0.62    0.36
   1  14  -2    0.52    0.15
  -1 -14   2    0.41    0.29
   0  14  -2    1.62    0.30
   0 -14   2    1.52    0.38
  -1  14  -2    0.79    0.30
   1 -14   2    0.89    0.30
   1 -14   2    1.24    0.27
  -2  14  -2    0.75    0.33
   2 -14   2    0.91    0.32
   2 -14   2    0.81    0.30
  -2 -13   2    0.14    0.22
  -2 -13   2   -0.30    0.25
   1  13  -2    1.55    0.21
  -1 -13   2    1.68    0.24
  -1 -13   2    2.04    0.34
   0  13  -2    0.47    0.25
   0 -13   2    0.46    0.32
   0 -13   2    0.16    0.19
  -1  13  -2    0.51    0.30
   1 -13   2    0.11    0.25
   1 -13   2   -0.07    0.22
  -2  13  -2    1.64    0.37
   2 -13   2    1.54    0.31
   2 -13   2    1.13    0.32
  -2 -12   2    0.59    0.23
  -2 -12   2   -0.20    0.28
   1  12  -2    0.10    0.13
   1  12  -2    0.13    0.14
  -1 -12   2    0.67    0.28
  -1 -12   2    0.67    0.18
  -1 -12   2    0.15    0.12
   0  12  -2    2.61    0.30
   0  12  -2    2.45    0.29
   0 -12   2    3.57    0.47
   0 -12   2    2.83    0.31
  -1  12  -2    2.89    0.38
  -1  12  -2    2.65    0.35
   1 -12   2    3.54    0.42
   1 -12   2    2.25    0.34
  -2  12  -2    0.43    0.36
   2 -12   2    0.64    0.27
   2 -12   2    0.87    0.35
  -3  12  -2    1.26    0.40
   3 -12   2    1.85    0.37
  -3 -11   2    0.59    0.25
  -3 -11   2    0.57    0.25
  -2 -11   2    0.31    0.20
  -2 -11   2    0.39    0.29
   1  11  -2    0.02    0.13
   1  11  -2   -0.14    0.13
  -1 -11   2    0.23    0.16
  -1 -11   2    0.05    0.23
  -1 -11   2   -0.20    0.11
  -1 -11   2    0.08    0.11
   0  11  -2    3.40    0.31
   0  11  -2    3.54    0.38
   0 -11   2    3.90    0.30
   0 -11   2    3.90    0.40
  -1  11  -2    0.48    0.25
  -1  11  -2    0.63    0.24
   1 -11   2    0.60    0.27
   1 -11   2    0.67    0.27
  -2  11  -2    0.08    0.28
   2 -11   2    0.20    0.27
   2 -11   2    0.16    0.22
  -3  11  -2    1.67    0.40
   3 -11   2    1.60    0.27
   3 -11   2    1.81    0.38
  -3 -10   2   -0.16    0.25
  -3 -10   2   -0.07    0.25
  -2 -10   2    1.64    0.25
  -2 -10   2    1.30    0.31
   1  10  -2    0.28    0.13
   1  10  -2    0.19    0.12
  -1 -10   2    0.11    0.12
  -1 -10   2    0.16    0.11
  -1 -10   2    0.13    0.26
   0  10  -2    0.32    0.17
   0  10  -2    0.11    0.21
   0 -10   2    0.22    0.20
   0 -10   2    0.68    0.20
   0 -10   2    0.42    0.18
  -1  10  -2    6.50    0.44
  -1  10  -2    6.37    0.41
   1 -10   2    6.73    0.44
   1 -10   2    6.45    0.47
  -2  10  -2    3.78    0.46
   2 -10   2    2.74    0.37
   2 -10   2    2.34    0.32
  -3  10  -2    0.82    0.37
   3 -10   2    0.61    0.32
   3 -10   2    0.52    0.20
  -3  -9   2   -0.16    0.28
  -3  -9   2    0.28    0.24
  -2  -9   2    1.68    0.26
  -2  -9   2    1.42    0.27
   1   9  -2    1.53    0.18
   1   9  -2    1.70    0.16
  -1  -9   2    1.44    0.17
  -1  -9   2    1.87    0.30
  -1  -9   2    1.86    0.17
   0   9  -2    0.13    0.19
   0   9  -2    0.11    0.15
   0  -9   2    0.07    0.07
   0  -9   2    0.22    0.16
   0  -9   2    0.15    0.18
   0  -9   2    0.02    0.15
  -1   9  -2    4.14    0.37
  -1   9  -2    4.55    0.36
   1  -9   2    4.90    0.37
   1  -9   2    5.05    0.39
  -2   9  -2    0.43    0.28
   2  -9   2    0.60    0.22
   2  -9   2    0.44    0.25
  -3   9  -2    0.13    0.16
  -3   9  -2   -0.38    0.31
   3  -9   2    0.13    0.17
   3  -9   2   -0.03    0.29
  -3  -8   2   -0.09    0.21
  -3  -8   2    0.33    0.28
  -2  -8   2    0.02    0.22
   1   8  -2    4.35    0.20
   1   8  -2    4.72    0.20
  -1  -8   2    4.73    0.21
  -1  -8   2    4.95    0.20
  -1  -8   2    5.32    0.39
   0   8  -2    0.23    0.16
   0   8  -2    0.28    0.18
   0  -8   2    0.33    0.16
   0  -8   2    0.23    0.14
   0  -8   2   -0.01    0.08
   0  -8   2    0.15    0.17
  -1   8  -2    0.16    0.18
  -1   8  -2    0.30    0.21
   1  -8   2    0.29    0.17
   1  -8   2    0.11    0.16
   1  -8   2    0.25    0.17
  -2   8  -2    8.04    0.30
  -2   8  -2    7.44    0.49
   2  -8   2    7.64    0.40
   2  -8   2    7.04    0.45
  -3   8  -2    1.11    0.22
  -3   8  -2    0.95    0.35
   3  -8   2    0.81    0.18
   3  -8   2    1.03    0.33
  -4   8  -2    0.54    0.34
  -4   8  -2    0.22    0.21
   4  -8   2    0.24    0.30
   4  -8   2    0.06    0.30
  -4  -7   2    1.75    0.34
  -3  -7   2    1.38    0.25
  -3  -7   2    0.93    0.29
  -2  -7   2    0.89    0.18
  -2  -7   2    1.38    0.24
   1   7  -2    5.49    0.20
   1   7  -2    5.41    0.20
  -1  -7   2    5.43    0.20
  -1  -7   2    5.39    0.36
  -1  -7   2    5.51    0.20
   0   7  -2    8.82    0.37
   0   7  -2    8.82    0.36
   0  -7   2    8.68    0.34
   0  -7   2    9.12    0.27
   0  -7   2    9.23    0.42
   0  -7   2    9.11    0.36
  -1   7  -2    0.28    0.19
  -1   7  -2    0.12    0.17
  -1   7  -2    0.20    0.08
   1  -7   2    0.29    0.08
   1  -7   2    0.37    0.17
   1  -7   2    0.22    0.17
   1  -7   2    0.14    0.17
  -2   7  -2    5.72    0.41
  -2   7  -2    4.59    0.42
  -2   7  -2    4.33    0.24
   2  -7   2    4.36    0.29
   2  -7   2    4.69    0.37
  -3   7  -2    0.35    0.20
  -3   7  -2    0.22    0.30
   3  -7   2    0.46    0.29
   3  -7   2    0.24    0.13
  -4   7  -2    0.15    0.24
  -4   7  -2    0.50    0.34
   4  -7   2   -0.01    0.30
   4  -7   2    0.49    0.31
  -4  -6   2    2.86    0.42
  -2  -6   2    0.81    0.21
  -2  -6   2    0.72    0.16
   1   6  -2    0.59    0.09
  -1  -6   2    0.23    0.17
  -1  -6   2    0.55    0.09
  -1  -6   2    0.63    0.10
   0   6  -2    6.48    0.29
   0   6  -2    6.59    0.29
   0  -6   2    6.17    0.37
   0  -6   2    6.87    0.30
   0  -6   2    6.61    0.22
   0  -6   2    6.84    0.31
  -1   6  -2    0.32    0.18
  -1   6  -2    0.19    0.16
  -1   6  -2    0.32    0.08
   1  -6   2    0.25    0.09
   1  -6   2    0.23    0.15
   1  -6   2    0.06    0.17
   1  -6   2    0.48    0.17
  -2   6  -2    0.02    0.21
  -2   6  -2   -0.02    0.12
  -2   6  -2   -0.04    0.21
   2  -6   2   -0.28    0.17
   2  -6   2    0.15    0.13
   2  -6   2    0.21    0.20
  -3   6  -2    5.37    0.52
  -3   6  -2    5.60    0.36
   3  -6   2    5.55    0.51
  -4   6  -2    0.09    0.24
  -4   6  -2    0.09    0.30
   4  -6   2    0.06    0.28
   4  -6   2   -0.27    0.27
   4   5  -2    0.33    0.13
  -4  -5   2    0.97    0.35
   3   5  -2    2.58    0.16
   3   5  -2    2.90    0.17
  -3  -5   2    1.96    0.29
  -3  -5   2    2.67    0.21
  -3  -5   2    2.76    0.20
  -2  -5   2    3.16    0.28
  -2  -5   2    3.55    0.14
  -2  -5   2    3.49    0.14
  -2  -5   2    3.40    0.24
   1   5  -2    6.00    0.19
   1   5  -2    5.67    0.18
  -1  -5   2    5.63    0.19
  -1  -5   2    5.74    0.19
  -1  -5   2    5.26    0.32
   0   5  -2    7.11    0.30
   0   5  -2    6.98    0.28
   0  -5   2    6.66    0.34
   0  -5   2    7.21    0.23
   0  -5   2    6.99    0.29
   0  -5   2    6.74    0.30
  -1   5  -2   18.47    0.58
  -1   5  -2   18.12    0.48
  -1   5  -2   18.02    0.56
   1  -5   2   17.40    0.48
   1  -5   2   18.60    0.59
   1  -5   2   17.88    0.55
   1  -5   2   18.71    0.53
  -2   5  -2   -0.07    0.20
  -2   5  -2    0.17    0.12
  -2   5  -2    0.26    0.18
   2  -5   2    0.07    0.12
   2  -5   2    0.52    0.21
   2  -5   2    0.28    0.18
  -3   5  -2    2.78    0.32
  -3   5  -2    3.55    0.41
   3  -5   2    2.79    0.36
   3  -5   2    2.97    0.38
   3  -5   2    2.75    0.36
  -4   5  -2    0.11    0.24
  -4   5  -2    0.45    0.31
   4  -5   2    0.31    0.29
   4  -5   2    0.75    0.29
   4   4  -2    0.77    0.18
  -4  -4   2    0.92    0.31
   3   4  -2    3.38    0.24
   3   4  -2    2.85    0.21
  -3  -4   2    2.89    0.25
  -3  -4   2    2.92    0.25
  -3  -4   2    2.26    0.29
   2   4  -2    9.57    0.28
   2   4  -2    9.01    0.28
  -2  -4   2   10.58    0.41
  -2  -4   2   11.09    0.35
  -2  -4   2    9.25    0.31
  -2  -4   2    9.35    0.31
   1   4  -2    0.76    0.09
  -1  -4   2    0.67    0.17
  -1  -4   2    0.63    0.09
   0   4  -2    1.04    0.14
   0   4  -2    1.07    0.14
   0  -4   2    0.86    0.16
   0  -4   2    0.94    0.15
   0  -4   2    0.86    0.14
   0  -4   2    0.82    0.12
  -1   4  -2    3.57    0.28
  -1   4  -2    3.60    0.30
  -1   4  -2    3.60    0.19
   1  -4   2    3.71    0.19
   1  -4   2    3.51    0.28
   1  -4   2    3.26    0.28
   1  -4   2    3.57    0.22
  -2   4  -2    0.06    0.14
  -2   4  -2    0.04    0.17
  -2   4  -2    0.10    0.20
   2  -4   2    0.34    0.20
   2  -4   2    0.01    0.10
   2  -4   2   -0.09    0.17
  -3   4  -2    0.08    0.21
  -3   4  -2    0.12    0.25
   3  -4   2    0.20    0.24
   3  -4   2    0.04    0.24
   3  -4   2    0.45    0.23
  -4   4  -2    2.00    0.37
  -4   4  -2    2.81    0.39
   4  -4   2    2.15    0.33
   4  -4   2    3.50    0.42
   4   3  -2    0.16    0.18
  -4  -3   2    1.24    0.30
   3   3  -2    1.44    0.19
   3   3  -2    1.38    0.19
  -3  -3   2    1.62    0.23
  -3  -3   2    1.43    0.20
  -3  -3   2    0.97    0.18
   2   3  -2    6.69    0.26
  -2  -3   2    6.63    0.27
  -2  -3   2    6.66    0.28
  -2  -3   2    6.60    0.30
  -2  -3   2    6.65    0.30
   1   3  -2   12.80    0.41
   1   3  -2   11.66    0.32
  -1  -3   2   12.35    0.32
  -1  -3   2   12.73    0.41
  -1  -3   2   13.08    0.35
  -1  -3   2   12.19    0.32
   0   3  -2    7.33    0.31
   0   3  -2    7.25    0.26
   0   3  -2    6.83    0.27
   0  -3   2    7.28    0.27
   0  -3   2    6.99    0.25
   0  -3   2    7.22    0.27
   0  -3   2    7.24    0.29
  -1   3  -2    4.96    0.30
  -1   3  -2    5.02    0.27
  -1   3  -2    4.55    0.21
   1  -3   2    5.22    0.30
   1  -3   2    4.94    0.22
   1  -3   2    4.94    0.27
   1  -3   2    5.28    0.23
  -2   3  -2   13.15    0.52
  -2   3  -2   13.89    0.46
  -2   3  -2   13.43    0.49
   2  -3   2   13.40    0.53
   2  -3   2   13.04    0.49
   2  -3   2   13.72    0.46
  -3   3  -2    0.25    0.22
  -3   3  -2   -0.07    0.23
   3  -3   2    0.24    0.22
   3  -3   2    0.31    0.19
   3  -3   2    0.38    0.25
  -4   3  -2    1.50    0.30
  -4   3  -2    0.80    0.31
   4  -3   2    1.46    0.31
   4  -3   2    1.26    0.31
   4   2  -2    0.34    0.22
  -4  -2   2    0.38    0.28
   3   2  -2    1.65    0.21
   3   2  -2    2.11    0.25
   3   2  -2    2.05    0.29
  -3  -2   2    2.02    0.25
  -3  -2   2    1.84    0.23
  -3  -2   2    1.78    0.20
   2   2  -2    4.05    0.24
   2   2  -2    4.65    0.25
   2   2  -2    3.97    0.25
  -2  -2   2    4.19    0.24
  -2  -2   2    3.89    0.25
  -2  -2   2    3.45    0.27
  -2  -2   2    4.18    0.24
   1   2  -2   27.36    0.64
   1   2  -2   28.12    0.63
   1   2  -2   29.21    0.70
  -1  -2   2   28.02    0.64
  -1  -2   2   28.09    0.64
  -1  -2   2   27.89    0.64
  -1  -2   2   28.95    0.70
   0   2  -2    1.81    0.13
   0   2  -2    1.68    0.16
   0   2  -2    1.67    0.18
   0   2  -2    1.90    0.19
   0  -2   2    1.70    0.20
   0  -2   2    1.91    0.19
   0  -2   2    1.96    0.15
   0  -2   2    1.65    0.15
  -1   2  -2    0.19    0.15
  -1   2  -2    0.20    0.09
  -1   2  -2    0.12    0.10
  -1   2  -2    0.02    0.14
   1  -2   2    0.15    0.10
   1  -2   2    0.10    0.13
   1  -2   2    0.10    0.12
   1  -2   2    0.06    0.15
  -2   2  -2    0.48    0.21
  -2   2  -2    0.76    0.17
  -2   2  -2    0.82    0.17
   2  -2   2    0.64    0.20
   2  -2   2    0.83    0.18
   2  -2   2    0.83    0.15
  -3   2  -2   -0.03    0.20
  -3   2  -2   -0.01    0.21
   3  -2   2    0.17    0.22
   3  -2   2    0.22    0.21
   3  -2   2   -0.17    0.19
  -4   2  -2    0.37    0.30
  -4   2  -2    0.63    0.32
   4  -2   2    0.57    0.26
   4  -2   2    0.36    0.29
   4   1  -2    1.17    0.27
   4   1  -2    0.63    0.21
  -4  -1   2    0.77    0.28
   3   1  -2    1.18    0.23
   3   1  -2    1.62    0.23
   3   1  -2    1.70    0.25
  -3  -1   2    1.55    0.18
  -3  -1   2    1.94    0.25
   2   1  -2    5.94    0.31
   2   1  -2    5.75    0.28
   2   1  -2    5.51    0.30
   2   1  -2    5.57    0.25
  -2  -1   2    5.76    0.26
  -2  -1   2    6.05    0.30
  -2  -1   2    5.22    0.32
   1   1  -2   19.12    0.46
   1   1  -2   18.98    0.49
   1   1  -2   19.45    0.49
   1   1  -2   18.61    0.52
  -1  -1   2   19.43    0.49
  -1  -1   2   18.05    0.54
  -1  -1   2   19.34    0.49
   0   1  -2   23.19    0.53
   0   1  -2   21.86    0.52
   0   1  -2   22.85    0.56
   0   1  -2   24.02    0.57
   0  -1   2   24.27    0.57
   0  -1   2   22.79    0.56
   0  -1   2   23.30    0.54
   0  -1   2   24.04    0.53
  -1   1  -2   12.91    0.32
  -1   1  -2   12.52    0.39
  -1   1  -2   12.22    0.39
  -1   1  -2   13.01    0.42
   1  -1   2   12.69    0.36
   1  -1   2   12.56    0.33
   1  -1   2   12.92    0.41
   1  -1   2   12.51    0.39
   1  -1   2   12.35    0.38
  -2   1  -2    3.32    0.29
  -2   1  -2    3.42    0.28
  -2   1  -2    3.11    0.27
   2  -1   2    3.71    0.31
   2  -1   2    3.24    0.22
   2  -1   2    3.31    0.26
  -3   1  -2    6.39    0.41
  -3   1  -2    6.73    0.42
   3  -1   2    7.10    0.44
   3  -1   2    6.34    0.39
   3  -1   2    6.52    0.41
  -4   1  -2    0.33    0.27
  -4   1  -2   -0.14    0.30
   4  -1   2    0.40    0.26
   4  -1   2    0.10    0.23
   4   0  -2    0.03    0.24
   4   0  -2    0.01    0.23
  -4   0   2    0.13    0.24
  -4   0   2    0.24    0.26
   3   0  -2    0.69    0.22
   3   0  -2    0.61    0.18
   3   0  -2    0.94    0.22
  -3   0   2    0.55    0.13
  -3   0   2    1.02    0.25
   2   0  -2    2.51    0.27
   2   0  -2    2.44    0.24
   2   0  -2    2.74    0.18
   2   0  -2    2.38    0.26
  -2   0   2    2.68    0.27
  -2   0   2    2.29    0.30
  -2   0   2    2.61    0.20
   1   0  -2    6.43    0.27
   1   0  -2    5.55    0.26
   1   0  -2    5.59    0.27
  -1   0   2    5.58    0.26
  -1   0   2    6.05    0.27
   0   0  -2   30.58    0.72
   0   0  -2   29.53    0.69
   0   0  -2   29.69    0.65
   0   0  -2   30.38    0.66
   0   0   2   29.98    0.69
   0   0   2   29.71    0.65
   0   0   2   31.28    0.72
   0   0   2   30.09    0.66
  -1   0  -2    5.58    0.20
  -1   0  -2    5.76    0.23
  -1   0  -2    6.37    0.28
  -1   0  -2    5.63    0.25
  -1   0  -2    5.74    0.25
   1   0   2    5.91    0.26
   1   0   2    5.94    0.23
   1   0   2    6.16    0.27
   1   0   2    5.83    0.24
  -2   0  -2    1.37    0.20
  -2   0  -2    1.35    0.20
  -2   0  -2    1.24    0.21
   2   0   2    1.03    0.20
   2   0   2    1.40    0.19
   2   0   2    1.08    0.17
  -3   0  -2   -0.13    0.20
  -3   0  -2    0.57    0.22
   3   0   2    0.06    0.21
   3   0   2    0.52    0.18
   3   0   2    0.11    0.20
  -4   0  -2    0.06    0.26
  -4   0  -2    0.01    0.28
   4   0   2    0.05    0.24
   4   0   2    0.46    0.26
   4  -1  -2    0.76    0.26
   4  -1  -2    0.85    0.29
  -4   1   2    0.14    0.27
  -4   1   2    0.79    0.29
   3  -1  -2    2.88    0.34
   3  -1  -2    2.84    0.31
   3  -1  -2    2.86    0.33
  -3   1   2    3.03    0.35
   2  -1  -2    5.17    0.23
   2  -1  -2    5.44    0.34
   2  -1  -2    5.06    0.32
   2  -1  -2    5.33    0.29
  -2   1   2    4.95    0.24
  -2   1   2    5.66    0.34
  -2   1   2    5.19    0.34
   1  -1  -2    8.26    0.33
   1  -1  -2    7.95    0.30
   1  -1  -2    8.32    0.33
  -1   1   2    8.03    0.32
  -1   1   2    8.21    0.33
   0  -1  -2   24.27    0.60
   0  -1  -2   24.35    0.59
   0  -1  -2   24.35    0.56
   0  -1  -2   24.22    0.55
   0   1   2   23.49    0.58
   0   1   2   23.65    0.56
   0   1   2   24.27    0.59
   0   1   2   24.55    0.55
  -1  -1  -2   10.01    0.30
  -1  -1  -2    9.52    0.33
  -1  -1  -2    9.55    0.32
  -1  -1  -2    9.38    0.31
   1   1   2    9.76    0.32
   1   1   2    9.07    0.29
   1   1   2   10.39    0.36
  -2  -1  -2    9.14    0.28
  -2  -1  -2    9.21    0.37
  -2  -1  -2    9.42    0.35
  -2  -1  -2    8.74    0.35
  -2  -1  -2    9.18    0.39
   2   1   2    8.78    0.36
   2   1   2    8.90    0.37
   2   1   2    9.02    0.36
  -3  -1  -2    1.10    0.25
  -3  -1  -2    1.10    0.23
   3   1   2    0.48    0.21
   3   1   2    0.74    0.22
   3   1   2    0.80    0.20
  -4  -1  -2    2.88    0.42
   4   1   2    2.89    0.34
   4  -2  -2    0.39    0.25
   4  -2  -2    0.48    0.25
  -4   2   2   -0.11    0.23
  -4   2   2   -0.15    0.29
   3  -2  -2   -0.06    0.24
   3  -2  -2   -0.10    0.17
   3  -2  -2    0.13    0.21
  -3   2   2   -0.34    0.23
   2  -2  -2    2.11    0.26
   2  -2  -2    1.91    0.24
   2  -2  -2    1.99    0.19
  -2   2   2    2.29    0.26
  -2   2   2    1.65    0.25
   1  -2  -2    0.44    0.16
   1  -2  -2    0.03    0.16
   1  -2  -2    0.17    0.11
  -1   2   2    0.16    0.15
  -1   2   2    0.02    0.15
   0  -2  -2    1.24    0.13
   0  -2  -2    1.45    0.18
   0  -2  -2    1.46    0.16
   0   2   2    1.28    0.13
   0   2   2    1.32    0.15
   0   2   2    1.21    0.17
  -1  -2  -2   17.59    0.53
  -1  -2  -2   18.95    0.46
  -1  -2  -2   19.69    0.46
   1   2   2   19.22    0.47
   1   2   2   19.46    0.46
   1   2   2   18.33    0.54
  -2  -2  -2    3.05    0.25
  -2  -2  -2    2.62    0.24
  -2  -2  -2    3.03    0.27
  -2  -2  -2    2.80    0.23
   2   2   2    2.79    0.21
   2   2   2    2.45    0.22
  -3  -2  -2    0.68    0.11
  -3  -2  -2    1.03    0.25
  -3  -2  -2    1.06    0.15
  -3  -2  -2    0.62    0.19
   3   2   2    0.59    0.18
   3   2   2    0.48    0.21
  -4  -2  -2    0.15    0.27
   4   2   2    0.27    0.21
   4  -3  -2    1.00    0.29
   4  -3  -2    0.89    0.28
  -4   3   2    0.97    0.32
  -4   3   2    1.48    0.31
   3  -3  -2    0.24    0.23
   3  -3  -2    0.56    0.22
   3  -3  -2    0.60    0.28
   3  -3  -2    0.44    0.11
  -3   3   2    0.56    0.28
   2  -3  -2   10.14    0.47
   2  -3  -2    9.55    0.44
   2  -3  -2    9.77    0.33
  -2   3   2    9.78    0.46
  -2   3   2    9.06    0.47
   1  -3  -2    6.34    0.33
   1  -3  -2    6.19    0.33
  -1   3   2    7.04    0.34
  -1   3   2    6.64    0.33
   0  -3  -2    6.90    0.27
   0  -3  -2    6.45    0.22
   0  -3  -2    6.89    0.28
   0   3   2    6.81    0.27
   0   3   2    6.95    0.29
   0   3   2    6.77    0.22
  -1  -3  -2    7.76    0.25
  -1  -3  -2    7.26    0.30
  -1  -3  -2    8.05    0.24
   1   3   2    7.20    0.32
   1   3   2    7.35    0.24
  -2  -3  -2    2.53    0.21
  -2  -3  -2    2.35    0.27
  -2  -3  -2    2.43    0.19
  -2  -3  -2    2.43    0.24
   2   3   2    1.92    0.17
   2   3   2    2.58    0.17
  -3  -3  -2    3.23    0.35
  -3  -3  -2    2.93    0.30
  -3  -3  -2    2.84    0.22
   3   3   2    3.12    0.28
   3   3   2    2.86    0.27
  -4  -3  -2    0.30    0.29
   4   3   2    0.26    0.19
   4  -4  -2    2.95    0.43
   4  -4  -2    4.48    0.54
  -4   4   2    3.44    0.39
  -4   4   2    3.53    0.49
   3  -4  -2    0.06    0.11
   3  -4  -2   -0.42    0.24
   3  -4  -2   -0.09    0.23
  -3   4   2    0.22    0.25
   2  -4  -2   -0.07    0.18
   2  -4  -2   -0.15    0.17
   2  -4  -2   -0.26    0.12
  -2   4   2   -0.14    0.16
  -2   4   2    0.04    0.20
   1  -4  -2    5.49    0.34
   1  -4  -2    5.12    0.31
  -1   4   2    5.22    0.33
  -1   4   2    5.27    0.34
   0  -4  -2    1.37    0.17
   0  -4  -2    1.49    0.19
   0  -4  -2    1.22    0.12
   0   4   2    1.35    0.17
   0   4   2    1.33    0.12
   0   4   2    1.61    0.20
  -1  -4  -2    0.69    0.10
  -1  -4  -2    0.85    0.15
  -1  -4  -2    0.69    0.11
   1   4   2    0.65    0.16
   1   4   2    0.79    0.11
  -2  -4  -2    3.68    0.30
  -2  -4  -2    3.73    0.20
  -2  -4  -2    3.98    0.20
  -2  -4  -2    3.88    0.27
   2   4   2    3.36    0.20
   2   4   2    3.88    0.19
  -3  -4  -2    2.06    0.23
  -3  -4  -2    1.57    0.18
  -3  -4  -2    1.93    0.23
  -3  -4  -2    2.16    0.34
   3   4   2    1.11    0.15
   3   4   2    2.08    0.22
  -4  -4  -2    0.66    0.30
   4   4   2    0.36    0.18
   4  -5  -2    0.62    0.30
   4  -5  -2    0.31    0.24
  -4   5   2    0.81    0.34
  -4   5   2    0.58    0.24
   3  -5  -2    2.46    0.21
   3  -5  -2    2.70    0.34
   3  -5  -2    1.73    0.32
  -3   5   2    2.51    0.31
  -3   5   2    2.90    0.39
   2  -5  -2    0.45    0.14
   2  -5  -2    0.66    0.22
   2  -5  -2    0.30    0.21
  -2   5   2    0.65    0.20
  -2   5   2    0.24    0.22
   1  -5  -2   16.80    0.57
   1  -5  -2   17.05    0.58
  -1   5   2   17.07    0.58
  -1   5   2   17.17    0.59
   0  -5  -2    5.86    0.29
   0  -5  -2    5.99    0.28
   0  -5  -2    5.75    0.20
   0   5   2    5.59    0.27
   0   5   2    5.68    0.20
   0   5   2    6.03    0.28
  -1  -5  -2    5.12    0.19
  -1  -5  -2    5.10    0.21
  -1  -5  -2    5.00    0.25
   1   5   2    5.17    0.19
   1   5   2    4.68    0.21
  -2  -5  -2    1.88    0.23
  -2  -5  -2    1.57    0.21
  -2  -5  -2    1.78    0.14
   2   5   2    1.64    0.16
   2   5   2    1.64    0.13
  -3  -5  -2    0.62    0.13
  -3  -5  -2    1.06    0.21
  -3  -5  -2    0.84    0.15
  -3  -5  -2    1.08    0.28
   3   5   2    0.45    0.12
   3   5   2    0.43    0.13
  -4  -5  -2    1.68    0.35
   4   5   2    0.77    0.15
   4  -6  -2    0.30    0.30
   4  -6  -2    0.27    0.29
  -4   6   2    0.72    0.34
  -4   6   2    0.85    0.27
   3  -6  -2    8.26    0.33
   3  -6  -2    7.81    0.53
  -3   6   2    7.63    0.39
  -3   6   2    7.76    0.58
   2  -6  -2   -0.06    0.21
   2  -6  -2   -0.37    0.18
  -2   6   2   -0.11    0.22
  -2   6   2    0.16    0.19
   1  -6  -2    0.15    0.18
   1  -6  -2   -0.05    0.19
  -1   6   2   -0.14    0.17
  -1   6   2    0.08    0.19
  -1   6   2   -0.05    0.08
   0  -6  -2    5.85    0.21
   0  -6  -2    5.69    0.30
   0  -6  -2    5.88    0.30
   0   6   2    5.82    0.31
   0   6   2    5.78    0.33
   0   6   2    5.74    0.21
  -1  -6  -2    1.14    0.12
  -1  -6  -2    1.32    0.16
  -1  -6  -2    0.93    0.12
   1   6   2    1.32    0.16
   1   6   2    1.64    0.15
  -2  -6  -2    0.38    0.20
  -3  -6  -2    0.69    0.26
  -3  -6  -2    0.29    0.10
  -3  -6  -2    0.39    0.21
  -4  -6  -2    1.65    0.35
   4  -7  -2    0.49    0.32
  -4   7   2    0.18    0.33
  -4   7   2    0.10    0.21
   3  -7  -2    0.71    0.34
   3  -7  -2    0.26    0.16
  -3   7   2    0.75    0.19
  -3   7   2    0.18    0.31
   2  -7  -2    4.06    0.40
  -2   7   2    3.52    0.37
  -2   7   2    3.76    0.40
   1  -7  -2    0.27    0.20
   1  -7  -2    0.15    0.18
  -1   7   2    0.22    0.21
  -1   7   2    0.14    0.19
   0  -7  -2   10.54    0.41
   0  -7  -2   10.14    0.39
   0  -7  -2    9.51    0.29
   0   7   2    9.53    0.40
   0   7   2    9.65    0.40
  -1  -7  -2    3.31    0.17
  -1  -7  -2    3.25    0.18
  -1  -7  -2    3.12    0.24
   1   7   2    3.19    0.18
   1   7   2    3.49    0.21
  -2  -7  -2    0.67    0.20
  -3  -7  -2    0.42    0.26
  -3  -7  -2    0.68    0.22
  -4  -7  -2    0.49    0.31
   4  -8  -2   -0.19    0.29
  -4   8   2    0.44    0.25
  -4   8   2    0.17    0.34
   3  -8  -2    1.70    0.22
   3  -8  -2    2.05    0.36
  -3   8   2    1.39    0.23
  -3   8   2    1.75    0.37
   2  -8  -2    8.92    0.50
  -2   8   2    8.76    0.53
  -2   8   2    8.78    0.32
   1  -8  -2    0.34    0.19
   1  -8  -2    0.48    0.22
  -1   8   2    0.08    0.20
  -1   8   2   -0.04    0.18
   0  -8  -2    0.36    0.18
   0  -8  -2    0.23    0.08
   0  -8  -2    0.28    0.16
   0   8   2    0.32    0.19
   0   8   2    0.41    0.17
  -1  -8  -2    3.20    0.20
  -1  -8  -2    3.07    0.18
  -1  -8  -2    3.25    0.23
   1   8   2    3.26    0.22
  -2  -8  -2    0.35    0.20
  -3  -8  -2    0.34    0.23
  -3  -8  -2    0.21    0.24
   4  -9  -2    1.19    0.37
  -4   9   2    1.02    0.39
   3  -9  -2    0.59    0.35
  -3   9   2    0.55    0.34
  -3   9   2    0.04    0.16
   2  -9  -2    0.82    0.27
  -2   9   2    0.89    0.29
  -2   9   2    0.58    0.12
   1  -9  -2    4.83    0.39
  -1   9   2    5.39    0.44
  -1   9   2    5.63    0.43
   0  -9  -2   -0.01    0.15
   0  -9  -2   -0.16    0.16
   0  -9  -2   -0.04    0.08
   0   9   2   -0.01    0.17
   0   9   2    0.24    0.19
  -1  -9  -2    2.37    0.21
  -1  -9  -2    2.84    0.23
  -1  -9  -2    2.56    0.18
   1   9   2    2.83    0.23
  -2  -9  -2    0.71    0.22
  -3  -9  -2   -0.53    0.25
  -3  -9  -2    0.31    0.23
   3 -10  -2    0.27    0.31
  -3  10   2    0.95    0.37
   2 -10  -2    2.97    0.36
  -2  10   2    2.40    0.38
   1 -10  -2    6.58    0.43
  -1  10   2    6.57    0.42
  -1  10   2    5.17    0.45
   0 -10  -2    1.21    0.24
   0  10   2    1.05    0.21
   0  10   2    0.81    0.22
  -1 -10  -2    0.31    0.14
  -1 -10  -2    0.52    0.16
  -1 -10  -2    0.42    0.13
   1  10   2    0.34    0.15
   1  10   2    0.47    0.13
  -2 -10  -2    0.90    0.24
  -3 -10  -2   -0.12    0.24
  -3 -10  -2    0.10    0.24
   3 -11  -2    1.64    0.39
  -3  11   2    1.00    0.39
   2 -11  -2    0.08    0.28
  -2  11   2    0.22    0.28
   1 -11  -2    0.80    0.28
  -1  11   2    0.62    0.30
  -1  11   2    0.51    0.22
   0 -11  -2    5.15    0.39
   0  11   2    5.37    0.41
   0  11   2    4.88    0.40
  -1 -11  -2   -0.11    0.16
  -1 -11  -2    0.26    0.15
  -1 -11  -2    0.08    0.12
   1  11   2    0.10    0.13
   1  11   2    0.02    0.16
  -2 -11  -2    0.45    0.21
  -3 -11  -2    0.25    0.27
  -3 -11  -2    0.35    0.27
   3 -12  -2    1.91    0.38
  -3  12   2    1.66    0.42
   2 -12  -2    0.73    0.32
  -2  12   2    1.29    0.36
   1 -12  -2    2.31    0.36
  -1  12   2    2.24    0.32
  -1  12   2    2.91    0.38
   0 -12  -2    2.49    0.29
   0  12   2    1.92    0.30
   0  12   2    2.37    0.32
  -1 -12  -2    1.54    0.21
   1  12   2    1.20    0.16
   1  12   2    1.57    0.19
  -2 -12  -2    0.07    0.20
   2 -13  -2    1.81    0.36
  -2  13   2    1.61    0.36
   1 -13  -2   -0.10    0.24
  -1  13   2    0.00    0.25
   0 -13  -2    0.49    0.22
   0  13   2    0.46    0.27
  -1 -13  -2    1.94    0.23
   1  13   2    2.27    0.23
  -2 -13  -2   -0.03    0.20
   2 -14  -2    0.84    0.31
  -2  14   2    0.81    0.40
   1 -14  -2    1.45    0.29
  -1  14   2    1.31    0.32
   0  14   2    1.52    0.32
   1  14   2    0.13    0.15
  -2 -14  -2    1.36    0.35
  -1  15   2    1.15    0.32
   0  15   2   -0.17    0.23
   0  16   2    0.72    0.29
   0  16  -3    0.00    0.25
   0 -16   3   -0.29    0.36
  -1 -15   3    1.38    0.42
   0  15  -3    0.18    0.23
   0 -15   3    0.52    0.39
  -1  15  -3    1.78    0.37
   1 -15   3    0.99    0.32
  -2 -14   3    0.43    0.32
   1  14  -3    4.46    0.26
  -1 -14   3    4.13    0.49
   0  14  -3    0.64    0.27
   0 -14   3    0.21    0.31
  -1  14  -3    0.19    0.27
   1 -14   3    0.23    0.33
   1 -14   3    0.38    0.28
  -2  14  -3    2.33    0.40
   2 -14   3    2.39    0.37
   2 -14   3    3.00    0.38
  -2 -13   3    0.76    0.24
  -2 -13   3    0.76    0.32
   1  13  -3    0.85    0.18
  -1 -13   3    0.77    0.18
  -1 -13   3    1.08    0.33
   0  13  -3    4.44    0.41
   0 -13   3    3.17    0.41
   0 -13   3    3.52    0.35
  -1  13  -3    0.58    0.33
   1 -13   3    0.83    0.32
   1 -13   3   -0.04    0.26
  -2  13  -3    1.02    0.35
   2 -13   3    0.81    0.30
   2 -13   3    0.51    0.29
  -2 -12   3    0.13    0.20
  -2 -12   3    0.34    0.28
   1  12  -3    0.04    0.14
   1  12  -3    0.21    0.15
  -1 -12   3    0.28    0.18
  -1 -12   3   -0.05    0.26
   0  12  -3    7.98    0.46
   0  12  -3    7.84    0.41
   0 -12   3    8.01    0.56
   0 -12   3    7.87    0.40
  -1  12  -3    0.09    0.21
  -1  12  -3    0.61    0.26
   1 -12   3    0.34    0.25
   1 -12   3    0.43    0.23
  -2  12  -3    1.26    0.33
   2 -12   3   -0.03    0.26
   2 -12   3    0.37    0.27
  -3  12  -3    1.75    0.41
   3 -12   3    2.26    0.38
  -3 -11   3    1.49    0.31
  -3 -11   3    1.12    0.32
  -2 -11   3    3.67    0.43
  -2 -11   3    3.41    0.33
   1  11  -3    2.37    0.23
   1  11  -3    2.69    0.24
  -1 -11   3    2.84    0.22
  -1 -11   3    2.90    0.26
  -1 -11   3    3.22    0.46
   0  11  -3    1.47    0.26
   0  11  -3    1.35    0.22
   0 -11   3    1.68    0.30
   0 -11   3    1.03    0.14
   0 -11   3    1.18    0.21
  -1  11  -3    4.04    0.41
  -1  11  -3    3.96    0.38
   1 -11   3    3.87    0.39
   1 -11   3    3.75    0.38
  -2  11  -3    0.34    0.28
   2 -11   3    0.04    0.24
   2 -11   3    0.36    0.28
  -3  11  -3    1.06    0.37
   3 -11   3    0.40    0.31
  -3 -10   3   -0.05    0.25
  -3 -10   3   -0.45    0.25
  -2 -10   3   -0.21    0.28
   1  10  -3    0.77    0.15
   1  10  -3    0.44    0.14
  -1 -10   3    0.48    0.14
  -1 -10   3    1.07    0.28
  -1 -10   3    0.51    0.15
   0  10  -3    0.33    0.18
   0  10  -3    0.09    0.19
   0 -10   3    0.37    0.18
   0 -10   3    0.26    0.22
   0 -10   3    0.12    0.10
  -1  10  -3    8.71    0.50
  -1  10  -3    8.59    0.48
   1 -10   3    8.22    0.46
   1 -10   3    9.34    0.48
  -2  10  -3    0.01    0.11
  -2  10  -3    0.29    0.26
   2 -10   3    0.44    0.29
   2 -10   3    0.27    0.20
  -3  10  -3   -0.18    0.30
   3 -10   3    0.39    0.30
   3 -10   3    0.24    0.21
  -3  -9   3    0.20    0.26
  -3  -9   3   -0.01    0.24
  -2  -9   3    1.96    0.30
   1   9  -3   11.67    0.35
   1   9  -3   11.75    0.36
  -1  -9   3   11.72    0.35
  -1  -9   3   11.24    0.37
  -1  -9   3   11.10    0.52
   0   9  -3    7.03    0.35
   0   9  -3    7.41    0.38
   0  -9   3    7.43    0.38
   0  -9   3    6.95    0.25
   0  -9   3    7.06    0.42
   0  -9   3    7.57    0.35
  -1   9  -3    2.19    0.26
  -1   9  -3    1.93    0.30
   1  -9   3    2.09    0.27
   1  -9   3    1.99    0.28
  -2   9  -3    2.27    0.35
  -2   9  -3    2.64    0.20
   2  -9   3    2.79    0.38
   2  -9   3    3.00    0.35
  -3   9  -3   -0.45    0.28
  -3   9  -3    0.13    0.17
   3  -9   3    0.31    0.29
   3  -9   3   -0.07    0.18
  -3  -8   3   -0.17    0.23
  -2  -8   3    0.18    0.15
  -2  -8   3    0.18    0.23
   1   8  -3    0.36    0.12
   1   8  -3    0.35    0.11
  -1  -8   3    0.34    0.11
  -1  -8   3    0.42    0.20
  -1  -8   3    0.51    0.13
   0   8  -3    1.86    0.23
   0   8  -3    2.00    0.26
   0  -8   3    2.11    0.25
   0  -8   3    1.68    0.15
   0  -8   3    1.75    0.24
   0  -8   3    1.87    0.26
  -1   8  -3    1.55    0.23
  -1   8  -3    1.20    0.14
  -1   8  -3    1.30    0.24
   1  -8   3    1.43    0.25
   1  -8   3    1.39    0.23
   1  -8   3    1.13    0.13
   1  -8   3    1.57    0.23
  -2   8  -3    6.11    0.28
  -2   8  -3    6.47    0.47
   2  -8   3    6.27    0.43
   2  -8   3    6.28    0.37
  -3   8  -3   -0.23    0.28
  -3   8  -3    0.28    0.18
   3  -8   3   -0.08    0.15
   3  -8   3    0.15    0.27
  -4   8  -3    0.55    0.36
  -4   8  -3    0.09    0.23
   4  -8   3    0.74    0.37
   4  -8   3   -0.11    0.30
  -4  -7   3    0.09    0.29
  -3  -7   3    0.03    0.22
  -2  -7   3    0.30    0.16
  -2  -7   3    0.52    0.20
   1   7  -3    1.89    0.16
   1   7  -3    2.15    0.18
  -1  -7   3    1.80    0.25
  -1  -7   3    2.05    0.18
  -1  -7   3    2.12    0.17
   0   7  -3   29.66    0.75
   0   7  -3   28.15    0.75
   0  -7   3   29.94    0.74
   0  -7   3   29.23    0.73
   0  -7   3   28.18    0.75
   0  -7   3   29.17    0.84
  -1   7  -3   13.32    0.52
  -1   7  -3   12.85    0.37
  -1   7  -3   12.80    0.51
   1  -7   3   12.68    0.51
   1  -7   3   12.73    0.37
   1  -7   3   12.34    0.48
   1  -7   3   12.72    0.47
  -2   7  -3    1.63    0.26
  -2   7  -3    2.00    0.32
  -2   7  -3    1.93    0.20
   2  -7   3    2.26    0.25
   2  -7   3    1.76    0.28
  -3   7  -3    1.13    0.34
  -3   7  -3    1.36    0.22
   3  -7   3    1.17    0.31
   3  -7   3    1.23    0.17
  -4   7  -3    0.01    0.33
  -4   7  -3   -0.23    0.23
   4  -7   3    0.12    0.24
   4  -7   3    0.72    0.33
  -4  -6   3    1.14    0.33
  -3  -6   3    0.61    0.21
  -3  -6   3    0.80    0.12
  -3  -6   3    1.02    0.13
  -2  -6   3    0.13    0.15
  -2  -6   3    0.00    0.18
   1   6  -3    0.11    0.08
  -1  -6   3    0.40    0.19
  -1  -6   3    0.35    0.11
  -1  -6   3    0.21    0.11
   0   6  -3    1.66    0.21
   0   6  -3    1.39    0.20
   0  -6   3    1.51    0.22
   0  -6   3    1.53    0.18
   0  -6   3    1.18    0.14
   0  -6   3    1.69    0.24
  -1   6  -3    1.05    0.22
  -1   6  -3    1.56    0.24
  -1   6  -3    1.23    0.15
   1  -6   3    1.65    0.20
   1  -6   3    1.28    0.15
   1  -6   3    1.18    0.21
   1  -6   3    1.34    0.21
  -2   6  -3    2.57    0.23
  -2   6  -3    2.64    0.32
  -2   6  -3    2.18    0.29
   2  -6   3    2.48    0.33
   2  -6   3    2.83    0.34
   2  -6   3    2.46    0.24
  -3   6  -3    2.94    0.38
  -3   6  -3    2.54    0.33
   3  -6   3    2.65    0.36
   3  -6   3    2.58    0.37
  -4   6  -3    0.13    0.34
  -4   6  -3    0.02    0.22
   4  -6   3   -0.12    0.26
   4  -6   3    0.05    0.32
   4   5  -3    0.12    0.13
  -4  -5   3    0.47    0.31
   3   5  -3    0.15    0.10
   3   5  -3    0.35    0.12
  -3  -5   3    0.23    0.12
  -3  -5   3    0.68    0.23
  -3  -5   3    0.28    0.14
   2   5  -3    0.33    0.11
   2   5  -3    0.17    0.07
  -2  -5   3    0.34    0.12
  -2  -5   3    0.05    0.13
  -2  -5   3    0.24    0.18
  -2  -5   3    0.24    0.11
   1   5  -3    0.52    0.12
  -1  -5   3    0.40    0.19
  -1  -5   3    0.63    0.11
  -1  -5   3    0.74    0.12
   0   5  -3    2.19    0.24
   0   5  -3    1.68    0.19
   0  -5   3    1.78    0.24
   0  -5   3    2.01    0.20
   0  -5   3    1.74    0.16
   0  -5   3    2.18    0.24
  -1   5  -3   38.89    0.98
  -1   5  -3   38.05    0.99
  -1   5  -3   40.47    0.97
   1  -5   3   39.74    0.97
   1  -5   3   40.37    1.02
   1  -5   3   40.23    0.98
   1  -5   3   40.46    0.98
  -2   5  -3   11.75    0.42
  -2   5  -3   13.62    0.52
  -2   5  -3   12.61    0.54
   2  -5   3   12.82    0.40
   2  -5   3   12.75    0.52
   2  -5   3   13.33    0.55
  -3   5  -3    1.52    0.24
  -3   5  -3    1.28    0.36
   3  -5   3    1.02    0.26
   3  -5   3    1.77    0.30
  -4   5  -3   -0.02    0.25
  -4   5  -3    0.36    0.32
   4  -5   3    0.28    0.33
   4  -5   3    0.27    0.25
   4   4  -3    0.27    0.17
  -4  -4   3    0.26    0.30
   3   4  -3    0.58    0.11
   3   4  -3    0.43    0.15
  -3  -4   3    0.44    0.15
  -3  -4   3    0.46    0.22
  -3  -4   3    0.28    0.16
   2   4  -3    2.01    0.20
   2   4  -3    1.99    0.15
  -2  -4   3    1.93    0.18
  -2  -4   3    1.97    0.20
  -2  -4   3    1.73    0.25
  -2  -4   3    1.84    0.20
   1   4  -3   -0.01    0.02
   1   4  -3    0.00    0.11
   1   4  -3    0.13    0.17
  -1  -4   3    0.08    0.10
  -1  -4   3    0.00    0.14
  -1  -4   3    0.15    0.10
   0   4  -3    3.18    0.22
   0   4  -3    2.83    0.20
   0   4  -3    3.31    0.25
   0  -4   3    3.67    0.28
   0  -4   3    3.03    0.17
   0  -4   3    3.10    0.23
   0  -4   3    3.06    0.23
  -1   4  -3    1.55    0.18
  -1   4  -3    1.69    0.21
  -1   4  -3    1.53    0.22
   1  -4   3    1.88    0.24
   1  -4   3    1.87    0.22
   1  -4   3    1.60    0.17
   1  -4   3    1.54    0.22
  -2   4  -3    0.82    0.20
  -2   4  -3    1.13    0.18
  -2   4  -3    1.11    0.24
   2  -4   3    0.76    0.13
   2  -4   3    0.54    0.19
   2  -4   3    0.56    0.17
   2  -4   3    0.79    0.21
  -3   4  -3    2.35    0.38
  -3   4  -3    2.78    0.33
   3  -4   3    2.32    0.33
   3  -4   3    2.16    0.29
   3  -4   3    2.10    0.29
  -4   4  -3    1.18    0.37
  -4   4  -3    1.22    0.27
   4  -4   3    1.53    0.30
   4  -4   3    0.98    0.29
   4   3  -3   -0.10    0.20
  -4  -3   3    0.80    0.30
   3   3  -3    0.38    0.18
   3   3  -3    0.22    0.13
  -3  -3   3    0.36    0.18
  -3  -3   3   -0.08    0.18
  -3  -3   3    0.28    0.19
   2   3  -3    0.32    0.16
   2   3  -3    0.52    0.13
   2   3  -3    0.87    0.14
  -2  -3   3    0.59    0.14
  -2  -3   3    0.51    0.18
  -2  -3   3    0.43    0.13
  -2  -3   3    0.40    0.15
   1   3  -3    1.64    0.18
   1   3  -3    1.80    0.15
   1   3  -3    2.03    0.24
  -1  -3   3    1.95    0.18
  -1  -3   3    1.87    0.18
  -1  -3   3    2.22    0.16
  -1  -3   3    1.55    0.21
   0   3  -3    2.32    0.19
   0   3  -3    2.67    0.22
   0   3  -3    2.46    0.19
   0   3  -3    2.51    0.22
   0  -3   3    2.49    0.22
   0  -3   3    2.26    0.23
   0  -3   3    2.67    0.17
   0  -3   3    2.34    0.19
  -1   3  -3    0.16    0.11
  -1   3  -3    0.17    0.15
  -1   3  -3    0.27    0.11
  -1   3  -3    0.25    0.18
   1  -3   3    0.16    0.11
   1  -3   3    0.13    0.13
   1  -3   3   -0.02    0.14
   1  -3   3    0.28    0.17
  -2   3  -3   24.94    0.72
  -2   3  -3   25.77    0.74
  -2   3  -3   24.87    0.75
   2  -3   3   25.72    0.59
   2  -3   3   24.96    0.72
   2  -3   3   24.82    0.69
   2  -3   3   25.55    0.76
   2  -3   3   24.29    0.72
  -3   3  -3    7.90    0.46
  -3   3  -3    8.40    0.50
   3  -3   3    7.43    0.43
   3  -3   3    7.78    0.51
   3  -3   3    7.64    0.48
  -4   3  -3    0.78    0.36
  -4   3  -3    0.26    0.27
   4  -3   3    0.48    0.25
   4  -3   3    0.17    0.30
   4   2  -3    0.44    0.23
  -4  -2   3    0.22    0.25
   3   2  -3    0.32    0.20
   3   2  -3    0.17    0.16
   3   2  -3   -0.07    0.18
  -3  -2   3   -0.01    0.17
  -3  -2   3    0.12    0.20
   2   2  -3    2.28    0.23
   2   2  -3    1.92    0.19
   2   2  -3    1.88    0.23
   2   2  -3    1.96    0.21
  -2  -2   3    2.09    0.23
  -2  -2   3    2.41    0.24
  -2  -2   3    2.13    0.25
   1   2  -3    1.56    0.19
   1   2  -3    1.45    0.19
   1   2  -3    1.16    0.16
  -1  -2   3    1.35    0.18
  -1  -2   3    1.55    0.18
  -1  -2   3    1.36    0.14
  -1  -2   3    1.15    0.17
   0   2  -3    5.13    0.26
   0   2  -3    5.94    0.28
   0   2  -3    5.16    0.25
   0   2  -3    5.21    0.24
   0  -2   3    5.45    0.25
   0  -2   3    5.45    0.27
   0  -2   3    4.94    0.26
   0  -2   3    5.35    0.24
  -1   2  -3    6.87    0.34
  -1   2  -3    6.94    0.31
  -1   2  -3    6.67    0.27
  -1   2  -3    7.19    0.26
   1  -2   3    7.48    0.35
   1  -2   3    6.71    0.26
   1  -2   3    7.08    0.25
   1  -2   3    6.49    0.31
   1  -2   3    6.95    0.28
  -2   2  -3    1.81    0.25
  -2   2  -3    2.24    0.27
  -2   2  -3    2.47    0.29
   2  -2   3    2.11    0.26
   2  -2   3    1.94    0.25
   2  -2   3    2.12    0.22
   2  -2   3    2.25    0.29
  -3   2  -3    0.58    0.25
  -3   2  -3   -0.02    0.20
   3  -2   3    0.12    0.21
   3  -2   3   -0.06    0.24
   3  -2   3    0.41    0.20
  -4   2  -3    1.34    0.32
  -4   2  -3    1.57    0.37
   4  -2   3    0.96    0.29
   4  -2   3    1.50    0.32
   4   1  -3    3.39    0.40
   4   1  -3    3.48    0.38
  -4  -1   3    4.06    0.43
   3   1  -3    0.13    0.19
   3   1  -3    0.03    0.20
   3   1  -3   -0.10    0.16
  -3  -1   3    0.18    0.15
  -3  -1   3    0.55    0.21
   2   1  -3    0.22    0.12
   2   1  -3    0.11    0.15
   2   1  -3    0.17    0.14
   2   1  -3    0.14    0.14
  -2  -1   3    0.14    0.13
  -2  -1   3    0.40    0.17
  -2  -1   3    0.38    0.15
   1   1  -3    2.81    0.23
   1   1  -3    3.06    0.21
   1   1  -3    3.57    0.24
   1   1  -3    3.12    0.16
  -1  -1   3    3.42    0.23
  -1  -1   3    3.30    0.22
  -1  -1   3    3.15    0.21
   0   1  -3    8.00    0.31
   0   1  -3    8.38    0.20
   0   1  -3    8.33    0.30
   0   1  -3    8.27    0.33
   0   1  -3    8.38    0.30
   0  -1   3    8.48    0.30
   0  -1   3    8.65    0.30
   0  -1   3    8.08    0.33
   0  -1   3    8.49    0.34
  -1   1  -3    1.07    0.15
  -1   1  -3    1.27    0.14
  -1   1  -3    1.23    0.16
  -1   1  -3    1.13    0.13
  -1   1  -3    1.42    0.20
   1  -1   3    1.33    0.19
   1  -1   3    1.35    0.16
   1  -1   3    1.10    0.15
   1  -1   3    1.10    0.17
   1  -1   3    1.08    0.15
  -2   1  -3    0.37    0.15
  -2   1  -3    0.36    0.18
  -2   1  -3    0.19    0.16
   2  -1   3    0.07    0.14
   2  -1   3    0.40    0.16
   2  -1   3    0.22    0.18
   2  -1   3    0.20    0.17
  -3   1  -3    9.33    0.49
  -3   1  -3    9.84    0.52
   3  -1   3    9.47    0.44
   3  -1   3    9.55    0.49
   3  -1   3    8.82    0.45
  -4   1  -3    4.05    0.41
  -4   1  -3    3.03    0.42
   4  -1   3    2.94    0.39
   4  -1   3    2.58    0.35
   4   0  -3    0.06    0.24
   4   0  -3   -0.58    0.24
  -4   0   3   -0.04    0.26
  -4   0   3    0.22    0.26
   3   0  -3    0.01    0.18
   3   0  -3    0.02    0.20
   3   0  -3    0.28    0.13
   3   0  -3   -0.06    0.20
  -3   0   3    0.09    0.23
  -3   0   3    0.17    0.14
   2   0  -3    1.52    0.21
   2   0  -3    1.44    0.18
   2   0  -3    1.80    0.23
   2   0  -3    1.67    0.22
  -2   0   3    1.51    0.20
  -2   0   3    1.47    0.22
  -2   0   3    1.30    0.19
   1   0  -3    4.60    0.26
   1   0  -3    4.83    0.26
   1   0  -3    4.13    0.26
  -1   0   3    4.95    0.26
  -1   0   3    4.52    0.23
  -1   0   3    3.99    0.25
   0   0  -3   -0.11    0.12
   0   0  -3   -0.27    0.13
   0   0  -3   -0.07    0.12
   0   0   3   -0.26    0.14
   0   0   3   -0.01    0.12
   0   0   3   -0.22    0.13
   0   0   3    0.03    0.13
  -1   0  -3    7.11    0.28
  -1   0  -3    7.36    0.27
  -1   0  -3    7.34    0.30
  -1   0  -3    6.82    0.31
  -1   0  -3    7.40    0.26
   1   0   3    7.61    0.32
   1   0   3    7.05    0.29
   1   0   3    6.69    0.25
   1   0   3    7.92    0.30
   1   0   3    7.26    0.26
  -2   0  -3    3.24    0.26
  -2   0  -3    3.00    0.28
  -2   0  -3    3.26    0.27
  -2   0  -3    2.66    0.17
  -2   0  -3    2.98    0.23
   2   0   3    3.04    0.27
   2   0   3    3.07    0.27
   2   0   3    3.51    0.26
   2   0   3    3.37    0.29
  -3   0  -3    0.70    0.22
  -3   0  -3    0.59    0.24
   3   0   3    0.57    0.20
   3   0   3    0.15    0.20
   3   0   3    0.49    0.21
  -4   0  -3   -0.08    0.25
   4   0   3   -0.22    0.23
   4  -1  -3    5.60    0.43
   4  -1  -3    4.92    0.42
  -4   1   3    5.06    0.48
  -4   1   3    5.37    0.52
   3  -1  -3   11.43    0.49
   3  -1  -3   11.27    0.52
   3  -1  -3   12.55    0.54
   3  -1  -3   11.68    0.37
  -3   1   3   11.81    0.58
   2  -1  -3    0.20    0.15
   2  -1  -3   -0.10    0.16
   2  -1  -3    0.06    0.16
  -2   1   3    0.38    0.21
  -2   1   3    0.19    0.17
  -2   1   3    0.22    0.14
   1  -1  -3    1.43    0.20
   1  -1  -3    1.63    0.19
   1  -1  -3    1.38    0.18
  -1   1   3    1.66    0.19
  -1   1   3    1.53    0.20
  -1   1   3    1.50    0.19
   0  -1  -3    8.40    0.32
   0  -1  -3    7.69    0.32
   0  -1  -3    8.26    0.29
   0  -1  -3    8.20    0.29
   0   1   3    8.12    0.28
   0   1   3    7.74    0.32
   0   1   3    8.06    0.30
  -1  -1  -3    4.18    0.21
  -1  -1  -3    4.07    0.21
  -1  -1  -3    4.26    0.24
  -1  -1  -3    4.04    0.22
  -1  -1  -3    3.62    0.23
   1   1   3    4.52    0.25
   1   1   3    4.01    0.22
   1   1   3    4.04    0.24
  -2  -1  -3   -0.15    0.13
  -2  -1  -3    0.17    0.14
  -2  -1  -3   -0.02    0.16
  -2  -1  -3   -0.05    0.09
  -2  -1  -3    0.01    0.16
   2   1   3   -0.10    0.15
   2   1   3    0.04    0.14
   2   1   3   -0.09    0.16
  -3  -1  -3    0.04    0.23
  -3  -1  -3   -0.11    0.21
   3   1   3    0.22    0.19
   3   1   3    0.02    0.18
  -4  -1  -3    3.00    0.41
   4   1   3    3.77    0.39
   4  -2  -3    0.09    0.21
   4  -2  -3    0.03    0.26
  -4   2   3    0.34    0.27
  -4   2   3    0.01    0.25
   3  -2  -3    0.21    0.21
   3  -2  -3    0.53    0.25
   3  -2  -3    0.23    0.13
   3  -2  -3    0.60    0.22
  -3   2   3    0.86    0.30
   2  -2  -3    1.50    0.22
   2  -2  -3    0.93    0.17
   2  -2  -3    0.79    0.23
  -2   2   3    1.02    0.22
  -2   2   3    1.09    0.20
   1  -2  -3    3.77    0.25
   1  -2  -3    3.96    0.28
   1  -2  -3    3.92    0.29
  -1   2   3    3.64    0.24
  -1   2   3    3.79    0.28
  -1   2   3    4.01    0.29
   0  -2  -3    4.62    0.27
   0  -2  -3    4.37    0.26
   0  -2  -3    4.73    0.24
   0  -2  -3    4.58    0.22
   0   2   3    4.74    0.25
   0   2   3    4.80    0.21
   0   2   3    4.63    0.26
  -1  -2  -3    1.30    0.19
  -1  -2  -3    1.33    0.17
  -1  -2  -3    1.60    0.19
   1   2   3    1.43    0.17
   1   2   3    1.43    0.16
   1   2   3    1.64    0.18
  -2  -2  -3    2.33    0.22
  -2  -2  -3    2.14    0.25
  -2  -2  -3    2.49    0.24
  -2  -2  -3    2.46    0.19
  -2  -2  -3    2.39    0.23
   2   2   3    2.29    0.22
   2   2   3    1.90    0.25
  -3  -2  -3    0.47    0.21
  -3  -2  -3    0.51    0.11
  -3  -2  -3    0.45    0.25
  -3  -2  -3    0.51    0.12
   3   2   3    0.47    0.18
   3   2   3    0.45    0.17
  -4  -2  -3    0.01    0.27
   4   2   3   -0.01    0.20
   4  -3  -3    0.56    0.28
   4  -3  -3    0.68    0.33
  -4   3   3    1.09    0.28
  -4   3   3    0.74    0.33
   3  -3  -3   10.60    0.55
   3  -3  -3   11.21    0.57
   3  -3  -3   11.62    0.40
  -3   3   3   12.25    0.60
   2  -3  -3   27.73    0.81
   2  -3  -3   27.17    0.79
   2  -3  -3   28.20    0.71
  -2   3   3   26.22    0.79
  -2   3   3   25.64    0.80
   1  -3  -3    0.19    0.17
   1  -3  -3    0.18    0.15
   1  -3  -3    0.28    0.18
  -1   3   3    0.52    0.17
  -1   3   3    0.26    0.16
   0  -3  -3    2.52    0.22
   0  -3  -3    2.20    0.16
   0  -3  -3    2.51    0.21
   0   3   3    2.41    0.22
   0   3   3    2.52    0.23
   0   3   3    2.40    0.15
  -1  -3  -3    1.68    0.20
  -1  -3  -3    1.28    0.17
   1   3   3    1.91    0.20
   1   3   3    1.55    0.21
   1   3   3    1.75    0.16
  -2  -3  -3    1.58    0.18
  -2  -3  -3    1.31    0.15
  -2  -3  -3    1.18    0.21
  -2  -3  -3    1.12    0.17
   2   3   3    0.92    0.13
   2   3   3    1.19    0.17
  -3  -3  -3   -0.14    0.18
  -3  -3  -3    0.16    0.13
  -3  -3  -3   -0.01    0.23
  -3  -3  -3    0.00    0.11
   3   3   3    0.26    0.18
   3   3   3   -0.02    0.16
  -4  -3  -3    0.21    0.28
   4   3   3   -0.01    0.19
   4  -4  -3    1.62    0.30
   4  -4  -3    1.43    0.34
  -4   4   3    2.05    0.42
  -4   4   3    2.07    0.31
   3  -4  -3    0.80    0.25
   3  -4  -3    0.62    0.25
   3  -4  -3    0.72    0.15
  -3   4   3    0.54    0.27
   2  -4  -3    1.56    0.25
   2  -4  -3    1.74    0.20
   2  -4  -3    1.21    0.25
  -2   4   3    1.55    0.27
  -2   4   3    1.22    0.23
   1  -4  -3    0.83    0.20
   1  -4  -3    0.81    0.21
  -1   4   3    0.99    0.22
  -1   4   3    1.07    0.21
   0  -4  -3    2.37    0.16
   0  -4  -3    2.29    0.23
   0  -4  -3    2.71    0.21
   0   4   3    2.33    0.16
   0   4   3    2.46    0.22
   0   4   3    2.58    0.24
  -1  -4  -3    0.21    0.11
  -1  -4  -3    0.36    0.15
  -1  -4  -3    0.04    0.10
   1   4   3    0.28    0.12
   1   4   3    0.12    0.14
   1   4   3    0.18    0.12
  -2  -4  -3    1.88    0.27
  -2  -4  -3    1.71    0.17
  -2  -4  -3    1.46    0.19
  -2  -4  -3    1.37    0.19
   2   4   3    1.56    0.17
  -3  -4  -3    0.53    0.26
  -3  -4  -3    0.71    0.18
   3   4   3    0.29    0.13
   3   4   3    0.68    0.16
  -4  -4  -3   -0.01    0.27
   4   4   3    0.09    0.17
   4  -5  -3    1.42    0.30
   4  -5  -3    1.29    0.34
  -4   5   3    1.60    0.28
  -4   5   3    1.33    0.36
   3  -5  -3    1.75    0.34
   3  -5  -3    1.75    0.23
  -3   5   3    2.13    0.36
   2  -5  -3   18.36    0.66
   2  -5  -3   17.99    0.57
   2  -5  -3   17.61    0.65
  -2   5   3   17.19    0.67
  -2   5   3   17.40    0.65
   1  -5  -3   40.32    1.03
   1  -5  -3   39.96    1.03
  -1   5   3   41.05    0.98
  -1   5   3   39.22    1.04
  -1   5   3   41.52    1.04
   0  -5  -3    1.62    0.20
   0  -5  -3    1.37    0.18
   0  -5  -3    1.18    0.15
   0   5   3    1.11    0.14
   0   5   3    1.55    0.20
   0   5   3    1.69    0.21
  -1  -5  -3    0.46    0.13
  -1  -5  -3    0.44    0.11
  -1  -5  -3    0.39    0.14
   1   5   3    0.53    0.13
   1   5   3    0.64    0.15
   1   5   3    0.48    0.11
  -2  -5  -3    0.55    0.18
  -2  -5  -3    0.52    0.11
   2   5   3    0.41    0.13
   2   5   3    0.25    0.11
  -3  -5  -3    0.42    0.15
  -3  -5  -3    0.68    0.26
   3   5   3    0.47    0.15
   3   5   3    0.47    0.14
  -4  -5  -3    0.14    0.29
   4   5   3   -0.02    0.13
   4  -6  -3    0.34    0.25
   4  -6  -3    0.66    0.32
  -4   6   3    0.49    0.34
  -4   6   3   -0.12    0.23
   3  -6  -3    3.82    0.44
   3  -6  -3    4.05    0.29
  -3   6   3    3.76    0.44
   2  -6  -3    1.54    0.22
   2  -6  -3    1.70    0.30
   2  -6  -3    1.39    0.26
  -2   6   3    1.56    0.27
  -2   6   3    1.28    0.30
   1  -6  -3    1.50    0.23
   1  -6  -3    1.56    0.23
  -1   6   3    1.71    0.14
  -1   6   3    1.38    0.24
  -1   6   3    1.56    0.27
   0  -6  -3    1.15    0.20
   0  -6  -3    0.79    0.12
   0  -6  -3    1.17    0.18
   0   6   3    1.24    0.20
   0   6   3    1.10    0.14
   0   6   3    1.10    0.18
  -1  -6  -3    0.60    0.13
  -1  -6  -3    0.57    0.11
  -1  -6  -3    0.69    0.15
   1   6   3    0.77    0.14
   1   6   3    0.63    0.15
  -2  -6  -3    0.08    0.09
  -2  -6  -3    0.03    0.09
  -2  -6  -3    0.29    0.18
   2   6   3   -0.18    0.10
   2   6   3    0.10    0.10
  -3  -6  -3    0.21    0.28
  -3  -6  -3    0.61    0.13
   3   6   3    0.39    0.11
   3   6   3    0.37    0.12
  -4  -6  -3    0.57    0.31
   4  -7  -3    0.89    0.34
  -4   7   3    0.49    0.23
  -4   7   3    0.32    0.34
   3  -7  -3    3.13    0.29
   3  -7  -3    2.54    0.37
  -3   7   3    2.72    0.39
   2  -7  -3    3.29    0.39
  -2   7   3    2.91    0.35
  -2   7   3    2.88    0.37
   1  -7  -3   14.35    0.54
   1  -7  -3   13.90    0.55
  -1   7   3   13.73    0.55
  -1   7   3   13.50    0.37
  -1   7   3   13.15    0.56
   0  -7  -3   29.60    0.75
   0  -7  -3   30.78    0.80
   0  -7  -3   29.87    0.78
   0   7   3   30.46    0.80
   0   7   3   29.86    0.75
   0   7   3   30.25    0.81
  -1  -7  -3    1.40    0.17
  -1  -7  -3    1.22    0.19
  -1  -7  -3    1.52    0.16
   1   7   3    1.47    0.20
  -2  -7  -3    0.36    0.09
  -2  -7  -3    0.13    0.18
  -2  -7  -3    0.39    0.09
  -3  -7  -3   -0.21    0.25
   4  -8  -3    0.73    0.36
  -4   8   3    0.13    0.22
  -4   8   3    0.63    0.42
   3  -8  -3    0.11    0.16
   3  -8  -3    0.25    0.30
  -3   8   3   -0.07    0.16
  -3   8   3   -0.11    0.29
   2  -8  -3    6.14    0.47
  -2   8   3    6.63    0.49
   1  -8  -3    1.25    0.23
   1  -8  -3    1.22    0.25
  -1   8   3    1.56    0.30
  -1   8   3    1.81    0.26
   0  -8  -3    1.64    0.20
   0  -8  -3    1.82    0.22
   0  -8  -3    1.06    0.14
   0   8   3    1.42    0.23
   0   8   3    1.46    0.21
   0   8   3    1.02    0.13
  -1  -8  -3    0.26    0.12
  -1  -8  -3    0.10    0.14
  -1  -8  -3    0.30    0.13
   1   8   3   -0.01    0.06
   1   8   3    0.31    0.16
  -2  -8  -3    0.13    0.22
  -3  -8  -3   -0.23    0.25
   3  -9  -3    0.38    0.30
  -3   9   3    0.31    0.17
  -3   9   3    0.17    0.33
   2  -9  -3    3.59    0.41
  -2   9   3    3.91    0.47
   1  -9  -3    3.01    0.36
  -1   9   3    2.80    0.33
  -1   9   3    3.01    0.33
   0  -9  -3    6.18    0.38
   0  -9  -3    5.87    0.23
   0  -9  -3    6.41    0.34
   0   9   3    6.35    0.39
   0   9   3    6.09    0.36
  -1  -9  -3   12.69    0.45
  -1  -9  -3   13.24    0.43
  -1  -9  -3   12.76    0.40
   1   9   3   13.67    0.45
  -2  -9  -3    1.23    0.24
  -3  -9  -3    0.54    0.26
   3 -10  -3    0.38    0.33
  -3  10   3    0.41    0.34
   2 -10  -3    0.40    0.26
  -2  10   3    0.07    0.32
   1 -10  -3    8.90    0.53
  -1  10   3    8.74    0.52
  -1  10   3    9.28    0.50
   0 -10  -3    0.54    0.11
   0 -10  -3    0.81    0.22
   0  10   3    0.71    0.21
   0  10   3    0.83    0.24
  -1 -10  -3    0.15    0.12
  -1 -10  -3    0.19    0.17
  -1 -10  -3    0.10    0.15
   1  10   3    0.12    0.18
  -2 -10  -3    0.17    0.21
  -3 -10  -3   -0.19    0.21
  -3 -10  -3    0.37    0.25
   3 -11  -3    0.68    0.35
  -3  11   3    1.65    0.41
   2 -11  -3    0.17    0.27
  -2  11   3    0.11    0.28
   1 -11  -3    3.33    0.39
  -1  11   3    2.43    0.32
  -1  11   3    2.64    0.35
   0 -11  -3    1.48    0.26
   0  11   3    2.02    0.30
   0  11   3    1.46    0.25
  -1 -11  -3    1.69    0.21
  -1 -11  -3    1.58    0.21
   1  11   3    1.57    0.21
  -2 -11  -3    4.79    0.34
  -3 -11  -3    0.69    0.28
  -3 -11  -3    0.48    0.24
   3 -12  -3    2.33    0.40
  -3  12   3    2.65    0.52
   2 -12  -3    0.21    0.28
  -2  12   3   -0.02    0.30
   1 -12  -3    0.91    0.30
  -1  12   3    0.63    0.24
  -1  12   3    0.86    0.33
   0 -12  -3    9.06    0.47
   0  12   3    7.75    0.47
   0  12   3    8.91    0.46
  -1 -12  -3    0.11    0.16
   1  12   3    0.66    0.18
  -2 -12  -3   -0.41    0.19
   2 -13  -3    1.95    0.41
  -2  13   3    1.53    0.39
   1 -13  -3    0.05    0.28
  -1  13   3    0.74    0.35
   0 -13  -3    1.83    0.28
   0  13   3    1.41    0.31
  -1 -13  -3    0.57    0.17
   1  13   3    0.82    0.19
  -2 -13  -3    0.04    0.22
   2 -14  -3    2.80    0.41
  -2  14   3    3.35    0.47
   1 -14  -3   -0.14    0.30
  -1  14   3    0.18    0.32
   0  14   3    1.63    0.32
   1  14   3    4.68    0.31
  -1  15   3    1.25    0.36
   0  15   3    0.12    0.27
  -1 -15   4    0.25    0.33
   0  15  -4    0.52    0.25
   0 -15   4    0.09    0.33
  -1  15  -4    0.91    0.31
   1 -15   4    1.18    0.37
  -2 -14   4    0.34    0.32
   1  14  -4    0.20    0.18
  -1 -14   4   -0.17    0.30
   0  14  -4    1.43    0.31
   0 -14   4    0.54    0.31
  -1  14  -4    2.38    0.40
   1 -14   4    2.83    0.38
   1 -14   4    3.54    0.44
  -2  14  -4   -0.29    0.35
   2 -14   4    0.03    0.28
   2 -14   4    0.03    0.28
  -2 -13   4    0.59    0.32
  -2 -13   4    0.32    0.25
   1  13  -4    0.33    0.17
  -1 -13   4    0.02    0.33
   0  13  -4    0.21    0.27
   0 -13   4   -0.21    0.31
   0 -13   4    0.13    0.21
  -1  13  -4    0.27    0.29
   1 -13   4    0.51    0.29
   1 -13   4    0.32    0.27
  -2  13  -4    0.57    0.36
   2 -13   4    0.90    0.29
   2 -13   4    0.28    0.30
  -2 -12   4    0.75    0.31
   1  12  -4    1.41    0.19
  -1 -12   4    0.89    0.31
   0  12  -4    0.59    0.26
   0  12  -4    0.05    0.20
   0 -12   4    0.12    0.20
   0 -12   4   -0.04    0.25
   0 -12   4   -0.08    0.10
  -1  12  -4    1.28    0.31
  -1  12  -4    1.14    0.29
   1 -12   4    1.41    0.29
   1 -12   4    1.73    0.32
  -2  12  -4    2.79    0.42
   2 -12   4    2.30    0.38
   2 -12   4    2.08    0.32
  -3  12  -4    0.65    0.39
   3 -12   4   -0.32    0.31
  -3 -11   4    0.62    0.26
  -3 -11   4    0.89    0.33
  -2 -11   4    0.64    0.28
   1  11  -4    1.60    0.22
   1  11  -4    1.09    0.17
  -1 -11   4    1.54    0.34
  -1 -11   4    1.33    0.19
   0  11  -4    0.52    0.22
   0  11  -4    0.51    0.22
   0 -11   4    0.78    0.21
   0 -11   4    0.28    0.12
   0 -11   4    0.41    0.30
  -1  11  -4    0.39    0.29
  -1  11  -4    0.42    0.21
   1 -11   4    0.38    0.22
   1 -11   4    0.01    0.25
  -2  11  -4    0.25    0.12
  -2  11  -4    0.81    0.32
   2 -11   4    0.24    0.29
   2 -11   4    0.42    0.24
  -3  11  -4    1.04    0.41
   3 -11   4    0.59    0.34
  -3 -10   4    1.35    0.32
  -2 -10   4    2.12    0.32
   1  10  -4    0.79    0.14
   1  10  -4    0.84    0.17
  -1 -10   4    1.07    0.19
  -1 -10   4    0.79    0.28
  -1 -10   4    0.84    0.15
   0  10  -4    0.97    0.23
   0  10  -4    0.60    0.19
   0 -10   4    0.45    0.12
   0 -10   4    0.58    0.20
   0 -10   4    0.64    0.25
  -1  10  -4    0.30    0.21
  -1  10  -4    0.48    0.25
   1 -10   4    0.28    0.10
   1 -10   4    0.52    0.24
   1 -10   4    0.34    0.22
  -2  10  -4    0.99    0.15
  -2  10  -4    1.00    0.31
   2 -10   4    0.97    0.28
   2 -10   4    1.28    0.25
  -3  10  -4    1.33    0.37
   3 -10   4    2.10    0.38
  -3  -9   4   -0.02    0.26
  -2  -9   4    2.22    0.27
  -2  -9   4    1.87    0.30
   1   9  -4    0.98    0.17
  -1  -9   4    1.19    0.17
  -1  -9   4    1.33    0.17
  -1  -9   4    1.51    0.32
   0   9  -4    2.88    0.32
   0   9  -4    3.03    0.28
   0  -9   4    3.27    0.29
   0  -9   4    2.85    0.36
   0  -9   4    2.86    0.20
   0  -9   4    3.16    0.29
  -1   9  -4    0.65    0.23
  -1   9  -4    1.42    0.27
   1  -9   4    0.86    0.22
   1  -9   4    0.78    0.12
   1  -9   4    0.76    0.25
  -2   9  -4    0.26    0.15
  -2   9  -4    0.06    0.28
   2  -9   4    0.39    0.23
   2  -9   4    0.24    0.25
  -3   9  -4    0.49    0.18
  -3   9  -4    0.66    0.33
   3  -9   4    0.22    0.30
   3  -9   4    0.56    0.20
  -3  -8   4   -0.22    0.24
  -2  -8   4    5.87    0.33
  -2  -8   4    5.18    0.43
   1   8  -4    6.59    0.29
  -1  -8   4    6.49    0.27
  -1  -8   4    6.89    0.41
  -1  -8   4    6.41    0.29
   0   8  -4    0.57    0.17
   0   8  -4    0.63    0.20
   0  -8   4    0.82    0.19
   0  -8   4    0.90    0.22
   0  -8   4    0.43    0.17
   0  -8   4    0.64    0.13
  -1   8  -4   -0.09    0.19
  -1   8  -4    0.14    0.12
  -1   8  -4    0.04    0.21
   1  -8   4    0.00    0.10
   1  -8   4   -0.18    0.19
   1  -8   4    0.21    0.22
  -2   8  -4    0.34    0.26
  -2   8  -4    0.41    0.15
   2  -8   4    0.43    0.24
   2  -8   4    0.68    0.23
  -3   8  -4    0.64    0.33
  -3   8  -4    0.16    0.18
   3  -8   4    0.56    0.29
   3  -8   4    0.29    0.18
  -4   8  -4    0.44    0.24
  -4   8  -4    0.22    0.35
   4  -8   4   -0.13    0.25
   4  -8   4    0.45    0.32
  -4  -7   4    0.20    0.32
  -3  -7   4    0.06    0.24
  -2  -7   4    0.43    0.16
  -2  -7   4    0.26    0.11
  -2  -7   4    0.27    0.09
  -2  -7   4    0.41    0.25
   1   7  -4    5.58    0.26
  -1  -7   4    5.94    0.26
  -1  -7   4    5.90    0.38
  -1  -7   4    5.98    0.27
   0   7  -4    3.26    0.27
   0   7  -4    3.48    0.30
   0  -7   4    3.01    0.29
   0  -7   4    2.96    0.27
   0  -7   4    2.69    0.20
   0  -7   4    3.18    0.34
  -1   7  -4    5.35    0.36
  -1   7  -4    5.70    0.24
  -1   7  -4    5.02    0.37
   1  -7   4    5.88    0.35
   1  -7   4    5.14    0.36
   1  -7   4    5.13    0.38
   1  -7   4    5.70    0.24
  -2   7  -4    0.63    0.27
  -2   7  -4    1.11    0.18
   2  -7   4    1.36    0.22
   2  -7   4    0.84    0.26
   2  -7   4    1.48    0.21
  -3   7  -4    0.74    0.33
  -3   7  -4    0.31    0.22
   3  -7   4    0.54    0.25
   3  -7   4    0.52    0.29
   3  -7   4    0.81    0.16
  -4   7  -4    0.02    0.24
  -4   7  -4    0.36    0.36
   4  -7   4    0.42    0.30
   4  -7   4    0.52    0.31
  -4  -6   4    0.33    0.30
  -3  -6   4    0.13    0.13
  -3  -6   4    0.04    0.21
  -3  -6   4    0.19    0.12
   2   6  -4    0.55    0.12
   2   6  -4    0.56    0.09
  -2  -6   4    0.51    0.15
  -2  -6   4    0.61    0.21
  -2  -6   4    0.36    0.12
  -2  -6   4    0.50    0.12
   1   6  -4   17.50    0.46
  -1  -6   4   18.10    0.48
  -1  -6   4   17.51    0.62
  -1  -6   4   17.14    0.47
   0   6  -4   21.34    0.59
   0   6  -4   20.79    0.61
   0  -6   4   21.08    0.68
   0  -6   4   21.27    0.58
   0  -6   4   21.41    0.59
   0  -6   4   21.71    0.61
  -1   6  -4    0.26    0.17
  -1   6  -4    0.10    0.12
  -1   6  -4   -0.28    0.17
   1  -6   4    0.02    0.10
   1  -6   4    0.32    0.18
   1  -6   4    0.27    0.18
   1  -6   4    0.08    0.17
  -2   6  -4    0.56    0.15
  -2   6  -4    0.23    0.19
  -2   6  -4    0.67    0.25
   2  -6   4    0.53    0.22
   2  -6   4    0.48    0.18
   2  -6   4    0.43    0.23
   2  -6   4    0.48    0.15
  -3   6  -4    0.39    0.21
  -3   6  -4    0.84    0.33
   3  -6   4    0.88    0.29
   3  -6   4    0.12    0.23
   3  -6   4    0.48    0.11
  -4   6  -4    0.04    0.37
  -4   6  -4    0.15    0.26
   4  -6   4   -0.23    0.27
   4  -6   4   -0.03    0.23
   4   5  -4    0.03    0.16
   3   5  -4    0.21    0.11
   3   5  -4    0.16    0.14
  -3  -5   4   -0.33    0.23
  -3  -5   4    0.07    0.15
   2   5  -4    0.07    0.08
   2   5  -4   -0.02    0.12
  -2  -5   4    0.06    0.12
  -2  -5   4    0.14    0.13
  -2  -5   4   -0.01    0.18
  -2  -5   4   -0.01    0.11
   1   5  -4    1.63    0.17
   1   5  -4    1.48    0.19
   1   5  -4    1.31    0.23
  -1  -5   4    1.57    0.20
  -1  -5   4    1.44    0.19
  -1  -5   4    1.85    0.24
   0   5  -4   20.79    0.60
   0   5  -4   21.41    0.65
   0   5  -4   22.20    0.59
   0  -5   4   21.78    0.61
   0  -5   4   21.06    0.66
   0  -5   4   22.20    0.58
   0  -5   4   21.53    0.58
  -1   5  -4    4.57    0.34
  -1   5  -4    5.43    0.30
  -1   5  -4    4.70    0.31
  -1   5  -4    5.38    0.26
   1  -5   4    4.86    0.31
   1  -5   4    4.99    0.32
   1  -5   4    5.10    0.24
   1  -5   4    5.16    0.34
  -2   5  -4    3.95    0.33
  -2   5  -4    3.68    0.27
  -2   5  -4    3.46    0.42
   2  -5   4    4.08    0.26
   2  -5   4    3.09    0.34
   2  -5   4    3.77    0.35
   2  -5   4    4.02    0.29
  -3   5  -4    0.39    0.32
  -3   5  -4    1.27    0.25
   3  -5   4    0.41    0.27
   3  -5   4    1.15    0.26
  -4   5  -4    0.97    0.39
  -4   5  -4    0.68    0.25
   4  -5   4    0.40    0.29
   4  -5   4    0.62    0.25
   4   4  -4    0.16    0.19
   3   4  -4    0.18    0.16
   3   4  -4    0.05    0.06
  -3  -4   4   -0.03    0.15
  -3  -4   4    0.06    0.19
   2   4  -4    0.89    0.16
   2   4  -4    1.09    0.20
   2   4  -4    0.48    0.09
  -2  -4   4    1.28    0.18
  -2  -4   4    0.72    0.14
  -2  -4   4    0.96    0.21
   1   4  -4    3.57    0.32
   1   4  -4    3.41    0.20
   1   4  -4    3.28    0.23
  -1  -4   4    3.54    0.18
  -1  -4   4    3.33    0.28
  -1  -4   4    3.66    0.24
  -1  -4   4    3.34    0.21
   0   4  -4   28.54    0.71
   0   4  -4   28.04    0.69
   0   4  -4   29.36    0.76
   0  -4   4   27.62    0.72
   0  -4   4   28.48    0.72
   0  -4   4   26.68    0.69
   0  -4   4   28.18    0.76
  -1   4  -4   34.51    0.89
  -1   4  -4   34.72    0.91
  -1   4  -4   34.98    0.88
  -1   4  -4   35.16    0.87
   1  -4   4   34.55    0.88
   1  -4   4   35.34    0.88
   1  -4   4   35.87    0.92
   1  -4   4   35.34    0.89
  -2   4  -4   -0.28    0.16
  -2   4  -4    0.19    0.22
  -2   4  -4    0.28    0.16
   2  -4   4    0.18    0.20
   2  -4   4   -0.04    0.12
   2  -4   4   -0.02    0.18
   2  -4   4    0.05    0.15
   2  -4   4    0.26    0.15
  -3   4  -4    0.55    0.21
  -3   4  -4    0.38    0.29
   3  -4   4    0.68    0.23
   3  -4   4    0.80    0.26
   3  -4   4    0.13    0.25
  -4   4  -4   -0.12    0.31
  -4   4  -4    0.60    0.27
   4  -4   4    0.03    0.27
   4  -4   4   -0.09    0.23
   4   3  -4    0.15    0.23
   3   3  -4    0.24    0.16
   3   3  -4    0.70    0.22
  -3  -3   4    0.30    0.19
  -3  -3   4    0.40    0.20
   2   3  -4    0.09    0.11
   2   3  -4   -0.20    0.16
   2   3  -4    0.07    0.14
  -2  -3   4    0.05    0.14
  -2  -3   4    0.09    0.16
  -2  -3   4    0.15    0.13
   1   3  -4   -0.17    0.10
   1   3  -4   -0.22    0.12
   1   3  -4    0.06    0.18
  -1  -3   4   -0.11    0.12
  -1  -3   4   -0.06    0.08
  -1  -3   4   -0.16    0.14
  -1  -3   4   -0.04    0.14
   0   3  -4    8.47    0.31
   0   3  -4    8.53    0.33
   0   3  -4    8.49    0.34
   0   3  -4    8.92    0.31
   0  -3   4    8.13    0.34
   0  -3   4    8.53    0.35
   0  -3   4    7.90    0.32
   0  -3   4    8.70    0.31
  -1   3  -4   22.02    0.65
  -1   3  -4   21.86    0.59
  -1   3  -4   21.78    0.60
  -1   3  -4   21.94    0.61
   1  -3   4   21.25    0.55
   1  -3   4   21.20    0.61
   1  -3   4   21.19    0.60
   1  -3   4   22.33    0.66
   1  -3   4   21.00    0.58
  -2   3  -4    3.69    0.19
  -2   3  -4    3.99    0.29
  -2   3  -4    4.31    0.36
  -2   3  -4    4.12    0.26
   2  -3   4    3.89    0.31
   2  -3   4    3.80    0.26
   2  -3   4    4.11    0.21
   2  -3   4    4.02    0.29
   2  -3   4    3.68    0.34
  -3   3  -4    1.29    0.25
  -3   3  -4    0.59    0.32
   3  -3   4    1.04    0.24
   3  -3   4    0.86    0.25
   3  -3   4    1.08    0.30
  -4   3  -4   -0.20    0.35
  -4   3  -4    0.02    0.28
   4  -3   4   -0.14    0.24
   4  -3   4    0.20    0.26
   4   2  -4    2.06    0.28
   3   2  -4    1.03    0.24
   3   2  -4    0.81    0.18
   3   2  -4    0.79    0.17
   3   2  -4    0.77    0.20
  -3  -2   4    0.61    0.22
  -3  -2   4    0.87    0.19
   2   2  -4    0.48    0.14
   2   2  -4    0.62    0.16
   2   2  -4    0.80    0.20
   2   2  -4    0.60    0.17
  -2  -2   4    0.57    0.16
  -2  -2   4    0.65    0.16
  -2  -2   4    0.69    0.17
   1   2  -4    5.37    0.19
   1   2  -4    4.83    0.26
   1   2  -4    5.75    0.32
   1   2  -4    5.27    0.26
  -1  -2   4    5.17    0.27
  -1  -2   4    6.11    0.30
   0   2  -4    6.07    0.26
   0   2  -4    5.63    0.28
   0   2  -4    5.70    0.25
   0   2  -4    5.83    0.31
   0  -2   4    5.48    0.30
   0  -2   4    5.93    0.27
   0  -2   4    5.70    0.26
   0  -2   4    6.07    0.28
  -1   2  -4   20.93    0.59
  -1   2  -4   20.89    0.56
  -1   2  -4   21.37    0.59
  -1   2  -4   20.38    0.61
   1  -2   4   20.06    0.56
   1  -2   4   20.43    0.59
   1  -2   4   20.80    0.52
   1  -2   4   21.21    0.58
   1  -2   4   21.45    0.62
  -2   2  -4   20.23    0.67
  -2   2  -4   19.98    0.51
  -2   2  -4   21.48    0.63
  -2   2  -4   19.93    0.63
   2  -2   4   20.53    0.62
   2  -2   4   21.53    0.64
   2  -2   4   20.77    0.52
   2  -2   4   22.20    0.68
   2  -2   4   20.05    0.59
  -3   2  -4   -0.08    0.23
  -3   2  -4    0.11    0.20
   3  -2   4    0.09    0.25
   3  -2   4   -0.13    0.23
   3  -2   4    0.26    0.22
  -4   2  -4    0.83    0.28
  -4   2  -4    0.53    0.33
   4  -2   4    0.50    0.27
   4  -2   4    0.17    0.29
   4   1  -4    2.46    0.32
   4   1  -4    1.89    0.29
   3   1  -4    1.07    0.21
   3   1  -4    1.12    0.24
   3   1  -4    1.04    0.18
   3   1  -4    1.11    0.21
  -3  -1   4    1.43    0.26
  -3  -1   4    1.22    0.21
   2   1  -4    0.95    0.19
   2   1  -4    0.76    0.17
   2   1  -4    0.64    0.15
   2   1  -4    0.81    0.18
  -2  -1   4    0.85    0.19
  -2  -1   4    0.94    0.18
  -2  -1   4    0.78    0.16
   1   1  -4    0.23    0.13
   1   1  -4    0.07    0.16
   1   1  -4    0.02    0.07
   1   1  -4   -0.03    0.11
  -1  -1   4    0.09    0.15
  -1  -1   4   -0.12    0.15
  -1  -1   4   -0.26    0.17
   0   1  -4    0.01    0.15
   0   1  -4   -0.09    0.13
   0   1  -4   -0.06    0.05
   0   1  -4   -0.08    0.12
   0   1  -4   -0.25    0.19
   0  -1   4    0.10    0.15
   0  -1   4   -0.14    0.13
   0  -1   4    0.03    0.14
   0  -1   4   -0.21    0.13
  -1   1  -4    3.65    0.19
  -1   1  -4    3.23    0.23
  -1   1  -4    3.47    0.25
  -1   1  -4    3.67    0.25
  -1   1  -4    3.50    0.29
   1  -1   4    3.85    0.29
   1  -1   4    3.62    0.21
   1  -1   4    3.14    0.23
   1  -1   4    3.48    0.24
   1  -1   4    3.37    0.23
  -2   1  -4    3.89    0.37
  -2   1  -4    4.36    0.30
  -2   1  -4    4.18    0.21
  -2   1  -4    4.69    0.30
   2  -1   4    4.53    0.30
   2  -1   4    4.20    0.30
   2  -1   4    3.91    0.28
   2  -1   4    4.30    0.34
  -3   1  -4    2.19    0.31
  -3   1  -4    2.19    0.31
   3  -1   4    1.68    0.27
   3  -1   4    1.56    0.27
   3  -1   4    1.71    0.26
  -4   1  -4    0.09    0.25
  -4   1  -4    0.68    0.28
   4  -1   4    0.22    0.26
   4  -1   4    0.20    0.22
   4   0  -4    0.29    0.27
   4   0  -4   -0.24    0.23
  -4   0   4    0.23    0.28
   3   0  -4    8.73    0.35
   3   0  -4    8.62    0.44
   3   0  -4    8.66    0.45
   3   0  -4    7.73    0.39
  -3   0   4    8.35    0.36
  -3   0   4    8.84    0.50
   2   0  -4    6.52    0.29
   2   0  -4    6.98    0.33
   2   0  -4    6.64    0.35
   2   0  -4    6.18    0.36
  -2   0   4    6.14    0.36
  -2   0   4    6.47    0.33
  -2   0   4    6.04    0.37
   1   0  -4    5.11    0.31
   1   0  -4    3.93    0.27
   1   0  -4    4.81    0.29
  -1   0   4    3.55    0.27
  -1   0   4    3.88    0.26
  -1   0   4    4.35    0.28
   0   0  -4   11.29    0.36
   0   0  -4   10.92    0.39
   0   0  -4   10.74    0.36
   0   0   4   11.26    0.39
   0   0   4   10.40    0.37
   0   0   4   11.37    0.39
   0   0   4   11.19    0.36
  -1   0  -4    3.64    0.23
  -1   0  -4    3.31    0.22
  -1   0  -4    3.60    0.25
  -1   0  -4    3.73    0.27
  -1   0  -4    3.63    0.20
   1   0   4    3.37    0.26
   1   0   4    3.64    0.23
   1   0   4    3.31    0.26
   1   0   4    3.65    0.24
  -2   0  -4    5.97    0.30
  -2   0  -4    6.09    0.35
  -2   0  -4    6.06    0.26
  -2   0  -4    5.72    0.34
  -2   0  -4    5.95    0.31
   2   0   4    5.58    0.33
   2   0   4    5.95    0.32
   2   0   4    5.72    0.30
   2   0   4    5.73    0.31
  -3   0  -4    8.33    0.46
  -3   0  -4    8.09    0.44
   3   0   4    7.43    0.42
   3   0   4    7.49    0.45
   3   0   4    7.50    0.42
  -4   0  -4    0.20    0.26
   4   0   4    0.26    0.23
   4  -1  -4    1.33    0.31
   4  -1  -4    0.35    0.25
  -4   1   4    0.74    0.29
   3  -1  -4    4.28    0.27
   3  -1  -4    4.31    0.34
   3  -1  -4    4.35    0.38
   3  -1  -4    4.64    0.40
  -3   1   4    4.16    0.29
  -3   1   4    4.07    0.45
   2  -1  -4    5.78    0.31
   2  -1  -4    5.64    0.35
   2  -1  -4    5.20    0.33
  -2   1   4    5.48    0.30
  -2   1   4    6.48    0.38
  -2   1   4    6.13    0.40
   1  -1  -4    5.57    0.34
   1  -1  -4    5.76    0.30
   1  -1  -4    4.55    0.28
  -1   1   4    5.41    0.32
  -1   1   4    5.23    0.27
  -1   1   4    5.33    0.30
   0  -1  -4    0.10    0.13
   0  -1  -4   -0.02    0.12
   0  -1  -4    0.12    0.15
   0  -1  -4    0.25    0.14
   0   1   4    0.08    0.11
   0   1   4    0.09    0.14
   0   1   4    0.12    0.14
   0   1   4    0.05    0.14
  -1  -1  -4    0.41    0.14
  -1  -1  -4    0.09    0.13
  -1  -1  -4   -0.02    0.12
  -1  -1  -4    0.04    0.13
  -1  -1  -4    0.23    0.12
   1   1   4   -0.02    0.16
   1   1   4    0.24    0.12
   1   1   4    0.04    0.13
  -2  -1  -4    0.10    0.14
  -2  -1  -4    0.16    0.19
  -2  -1  -4    0.24    0.13
  -2  -1  -4    0.08    0.16
  -2  -1  -4    0.14    0.11
   2   1   4    0.17    0.14
   2   1   4    0.01    0.17
   2   1   4    0.15    0.17
  -3  -1  -4    0.93    0.27
  -3  -1  -4    1.33    0.26
   3   1   4    0.85    0.21
   3   1   4    1.20    0.23
  -4  -1  -4    1.22    0.33
   4   1   4    0.68    0.24
   4  -2  -4    0.18    0.31
   4  -2  -4    0.09    0.25
  -4   2   4    0.10    0.32
   3  -2  -4   -0.13    0.16
   3  -2  -4    0.06    0.13
   3  -2  -4    0.45    0.22
   3  -2  -4   -0.10    0.22
  -3   2   4    0.23    0.25
   2  -2  -4   23.70    0.73
   2  -2  -4   24.58    0.67
   2  -2  -4   25.05    0.74
  -2   2   4   23.31    0.68
  -2   2   4   22.94    0.75
  -2   2   4   24.84    0.75
   1  -2  -4   19.51    0.60
   1  -2  -4   20.19    0.58
   1  -2  -4   21.91    0.61
  -1   2   4   19.65    0.60
  -1   2   4   19.41    0.61
  -1   2   4   20.81    0.60
   0  -2  -4    6.03    0.28
   0  -2  -4    6.59    0.31
   0  -2  -4    6.10    0.26
   0  -2  -4    6.11    0.31
   0   2   4    6.12    0.25
   0   2   4    6.41    0.30
   0   2   4    6.44    0.30
  -1  -2  -4    3.77    0.24
  -1  -2  -4    3.34    0.26
  -1  -2  -4    3.56    0.27
  -1  -2  -4    3.54    0.21
   1   2   4    3.85    0.23
   1   2   4    3.30    0.24
   1   2   4    3.61    0.26
  -2  -2  -4    0.24    0.14
  -2  -2  -4    0.52    0.18
  -2  -2  -4    0.33    0.17
  -2  -2  -4    0.19    0.14
  -2  -2  -4    0.43    0.13
   2   2   4    0.20    0.16
   2   2   4    0.61    0.17
   2   2   4    0.22    0.14
  -3  -2  -4    1.01    0.23
  -3  -2  -4    0.86    0.13
  -3  -2  -4    1.08    0.29
   3   2   4    0.77    0.21
   3   2   4    0.83    0.19
  -4  -2  -4    2.54    0.38
   4   2   4    2.56    0.35
   4  -3  -4    0.33    0.30
   4  -3  -4   -0.07    0.25
  -4   3   4    0.12    0.34
   3  -3  -4    1.37    0.21
   3  -3  -4    1.55    0.32
   3  -3  -4    1.58    0.28
  -3   3   4    1.40    0.32
   2  -3  -4    6.66    0.40
   2  -3  -4    6.53    0.33
   2  -3  -4    6.28    0.40
  -2   3   4    7.50    0.43
  -2   3   4    6.34    0.40
   1  -3  -4   25.04    0.70
   1  -3  -4   25.34    0.71
   1  -3  -4   25.28    0.73
  -1   3   4   24.87    0.72
  -1   3   4   24.35    0.71
  -1   3   4   24.62    0.68
   0  -3  -4    8.62    0.33
   0  -3  -4    8.56    0.36
   0  -3  -4    8.28    0.30
   0  -3  -4    8.93    0.37
   0   3   4    8.40    0.35
   0   3   4    8.61    0.30
   0   3   4    8.59    0.35
  -1  -3  -4    0.04    0.11
  -1  -3  -4    0.03    0.13
   1   3   4   -0.08    0.13
   1   3   4   -0.08    0.12
   1   3   4    0.15    0.14
  -2  -3  -4    0.09    0.13
  -2  -3  -4    0.09    0.14
  -2  -3  -4    0.32    0.15
  -2  -3  -4   -0.11    0.16
  -2  -3  -4    0.03    0.16
   2   3   4   -0.16    0.15
   2   3   4    0.08    0.13
   2   3   4    0.04    0.16
  -3  -3  -4    0.30    0.25
  -3  -3  -4    0.25    0.19
  -3  -3  -4   -0.02    0.13
   3   3   4    0.11    0.16
   3   3   4   -0.04    0.18
  -4  -3  -4    0.19    0.31
   4   3   4   -0.15    0.19
   4  -4  -4    0.34    0.30
   4  -4  -4    0.10    0.26
  -4   4   4    0.07    0.36
   3  -4  -4    0.04    0.17
   3  -4  -4    0.11    0.25
   3  -4  -4    0.11    0.26
  -3   4   4   -0.43    0.26
   2  -4  -4    0.14    0.18
   2  -4  -4   -0.19    0.18
   2  -4  -4    0.07    0.15
  -2   4   4    0.14    0.19
  -2   4   4   -0.12    0.21
   1  -4  -4   38.45    1.01
   1  -4  -4   38.44    0.98
   1  -4  -4   37.95    0.99
  -1   4   4   38.86    1.00
  -1   4   4   38.32    1.00
  -1   4   4   37.98    0.96
   0  -4  -4   36.79    0.87
   0  -4  -4   35.37    0.89
   0  -4  -4   36.27    0.89
   0   4   4   36.22    0.89
   0   4   4   34.67    0.88
   0   4   4   35.07    0.89
  -1  -4  -4    3.27    0.22
  -1  -4  -4    3.42    0.26
  -1  -4  -4    3.37    0.25
   1   4   4    3.29    0.23
   1   4   4    3.43    0.23
   1   4   4    3.58    0.26
  -2  -4  -4    0.58    0.14
  -2  -4  -4    0.61    0.19
  -2  -4  -4    0.58    0.16
   2   4   4    0.70    0.16
   2   4   4    0.47    0.14
   2   4   4    0.57    0.18
  -3  -4  -4    0.19    0.15
  -3  -4  -4    0.46    0.26
  -3  -4  -4    0.13    0.19
   3   4   4    0.07    0.16
   3   4   4    0.06    0.16
  -4  -4  -4    0.02    0.30
   4   4   4   -0.15    0.18
   4  -5  -4   -0.07    0.26
   4  -5  -4   -0.25    0.29
  -4   5   4   -0.31    0.30
  -4   5   4    0.58    0.25
   3  -5  -4    0.38    0.17
   3  -5  -4    0.16    0.26
  -3   5   4    0.34    0.28
   2  -5  -4    4.17    0.31
   2  -5  -4    4.64    0.40
   2  -5  -4    3.96    0.36
  -2   5   4    5.04    0.43
  -2   5   4    3.90    0.36
   1  -5  -4    5.56    0.35
   1  -5  -4    5.05    0.37
   1  -5  -4    5.56    0.34
  -1   5   4    5.52    0.24
  -1   5   4    4.88    0.36
  -1   5   4    4.84    0.37
   0  -5  -4   22.47    0.64
   0  -5  -4   22.52    0.62
   0  -5  -4   22.15    0.60
   0   5   4   21.80    0.59
   0   5   4   22.92    0.64
   0   5   4   22.25    0.64
  -1  -5  -4    1.13    0.14
  -1  -5  -4    1.24    0.19
  -1  -5  -4    1.25    0.18
   1   5   4    1.27    0.17
   1   5   4    1.30    0.16
   1   5   4    0.98    0.16
  -2  -5  -4    0.18    0.12
  -2  -5  -4    0.25    0.18
   2   5   4    0.01    0.06
   2   5   4   -0.19    0.12
  -3  -5  -4    0.26    0.26
  -3  -5  -4    0.03    0.16
   3   5   4    0.12    0.15
   3   5   4   -0.10    0.11
  -4  -5  -4   -0.45    0.29
   4   5   4   -0.03    0.15
   4  -6  -4   -0.36    0.29
  -4   6   4    0.06    0.22
  -4   6   4   -0.64    0.31
   3  -6  -4    0.31    0.17
   3  -6  -4   -0.39    0.24
  -3   6   4   -0.04    0.28
   2  -6  -4    0.31    0.24
   2  -6  -4    0.11    0.17
   2  -6  -4    0.03    0.20
  -2   6   4    0.00    0.19
  -2   6   4    0.32    0.26
   1  -6  -4    0.15    0.18
   1  -6  -4   -0.08    0.21
  -1   6   4   -0.04    0.19
  -1   6   4    0.28    0.19
  -1   6   4   -0.08    0.11
   0  -6  -4   19.18    0.57
   0  -6  -4   18.31    0.58
   0  -6  -4   19.57    0.54
   0   6   4   19.86    0.59
   0   6   4   19.20    0.53
   0   6   4   20.72    0.61
  -1  -6  -4   23.28    0.60
  -1  -6  -4   24.03    0.64
  -1  -6  -4   23.07    0.67
   1   6   4   23.31    0.68
   1   6   4   23.59    0.60
   1   6   4   23.91    0.63
  -2  -6  -4    0.42    0.13
  -2  -6  -4    0.76    0.14
  -2  -6  -4    0.77    0.21
   2   6   4    0.30    0.13
   2   6   4    0.61    0.14
  -3  -6  -4    0.38    0.27
   3   6   4    0.21    0.13
  -4  -6  -4    0.09    0.29
   4  -7  -4    0.08    0.33
  -4   7   4    0.22    0.36
  -4   7   4    0.55    0.22
   3  -7  -4    0.37    0.31
   3  -7  -4    0.19    0.17
  -3   7   4   -0.28    0.31
   2  -7  -4    0.59    0.20
   2  -7  -4    1.03    0.30
  -2   7   4    1.34    0.31
   1  -7  -4    7.06    0.40
   1  -7  -4    6.70    0.42
  -1   7   4    7.14    0.42
  -1   7   4    6.13    0.44
  -1   7   4    6.58    0.25
   0  -7  -4    1.70    0.23
   0  -7  -4    1.05    0.16
   0  -7  -4    1.40    0.22
   0   7   4    1.54    0.23
   0   7   4    1.59    0.21
   0   7   4    1.31    0.16
  -1  -7  -4    6.86    0.31
  -1  -7  -4    7.02    0.33
  -1  -7  -4    7.32    0.34
   1   7   4    6.97    0.34
   1   7   4    7.52    0.30
   1   7   4    7.04    0.33
  -2  -7  -4    0.27    0.13
  -2  -7  -4    0.41    0.19
  -2  -7  -4    0.21    0.11
   2   7   4    0.19    0.11
   2   7   4    0.33    0.13
  -3  -7  -4    0.37    0.25
   4  -8  -4    1.12    0.38
  -4   8   4    1.08    0.25
  -4   8   4    1.77    0.42
   3  -8  -4   -0.06    0.29
   3  -8  -4    0.21    0.17
  -3   8   4    0.26    0.32
   2  -8  -4   -0.01    0.27
   2  -8  -4    0.39    0.21
  -2   8   4    0.02    0.14
  -2   8   4    0.03    0.28
   1  -8  -4    0.35    0.21
  -1   8   4    0.12    0.21
  -1   8   4    0.28    0.20
  -1   8   4    0.14    0.09
   0  -8  -4    0.20    0.16
   0  -8  -4    0.22    0.16
   0  -8  -4    0.30    0.13
   0   8   4    0.38    0.20
   0   8   4    0.31    0.12
   0   8   4    0.56    0.20
  -1  -8  -4    6.19    0.28
  -1  -8  -4    6.42    0.32
  -1  -8  -4    6.13    0.31
   1   8   4    6.03    0.31
   1   8   4    6.43    0.29
   1   8   4    6.10    0.33
  -2  -8  -4    8.36    0.29
  -2  -8  -4    8.71    0.44
  -2  -8  -4    8.06    0.27
   2   8   4    8.48    0.27
   2   8   4    8.24    0.30
  -3  -8  -4    0.26    0.26
   3  -9  -4    0.20    0.31
  -3   9   4    0.09    0.17
  -3   9   4    0.26    0.34
   2  -9  -4    0.27    0.32
  -2   9   4    0.43    0.13
  -2   9   4    0.67    0.30
   1  -9  -4    1.53    0.29
  -1   9   4    1.52    0.28
  -1   9   4    1.24    0.32
  -1   9   4    1.07    0.12
   0  -9  -4    3.83    0.21
   0  -9  -4    4.25    0.35
   0   9   4    4.84    0.37
   0   9   4    4.56    0.22
   0   9   4    4.26    0.38
  -1  -9  -4    0.29    0.13
  -1  -9  -4    0.41    0.17
  -1  -9  -4    0.15    0.15
   1   9   4    0.47    0.14
   1   9   4    0.42    0.18
  -2  -9  -4    2.18    0.17
  -2  -9  -4    2.14    0.15
  -2  -9  -4    2.74    0.31
  -3  -9  -4    0.00    0.24
   3 -10  -4    2.08    0.40
  -3  10   4    2.50    0.44
   2 -10  -4    0.78    0.30
  -2  10   4    0.26    0.35
  -2  10   4    0.71    0.12
   1 -10  -4    0.33    0.31
  -1  10   4    0.45    0.26
  -1  10   4    0.13    0.26
   0 -10  -4    0.12    0.22
   0 -10  -4    0.45    0.12
   0  10   4    0.25    0.21
   0  10   4    0.13    0.23
  -1 -10  -4    0.26    0.17
  -1 -10  -4    0.40    0.16
   1  10   4    0.67    0.20
   1  10   4    0.16    0.10
  -2 -10  -4    2.73    0.30
  -3 -10  -4    3.00    0.39
   3 -11  -4    0.93    0.36
  -3  11   4    0.66    0.39
   2 -11  -4   -0.05    0.29
  -2  11   4    0.32    0.33
   1 -11  -4    0.88    0.29
  -1  11   4    0.84    0.29
  -1  11   4    0.57    0.31
   0 -11  -4    0.97    0.13
   0 -11  -4    1.03    0.27
   0  11   4    1.35    0.29
   0  11   4    0.64    0.23
  -1 -11  -4    1.75    0.24
  -1 -11  -4    2.11    0.27
   1  11   4    2.27    0.26
  -2 -11  -4    0.09    0.20
   3 -12  -4    0.33    0.34
  -3  12   4    0.56    0.36
   2 -12  -4    3.36    0.45
  -2  12   4    3.93    0.49
   1 -12  -4    1.80    0.31
  -1  12   4    1.14    0.31
  -1  12   4    1.15    0.31
   0 -12  -4    0.19    0.10
   0 -12  -4    0.36    0.23
   0  12   4   -0.08    0.24
  -1 -12  -4    0.34    0.17
   1  12   4    0.37    0.21
  -2 -12  -4    0.16    0.23
   2 -13  -4    0.45    0.31
  -2  13   4    0.15    0.32
   1 -13  -4    0.20    0.30
  -1  13   4    0.28    0.29
   0 -13  -4    1.11    0.30
   0  13   4    0.68    0.28
  -1 -13  -4    0.34    0.18
   1  13   4    0.29    0.21
  -2 -13  -4    0.84    0.26
   2 -14  -4    0.61    0.34
  -2  14   4    0.21    0.37
   1 -14  -4    2.21    0.37
  -1  14   4    2.57    0.43
   0  14   4    0.97    0.29
   1  14   4    0.11    0.19
  -1  15   4    0.88    0.37
   0  15   4    0.47    0.32
   1  15  -5    2.10    0.28
  -1 -15   5    1.97    0.41
   0  15  -5    0.18    0.24
   0 -15   5   -0.39    0.36
  -1  15  -5   -0.06    0.33
   1 -15   5    0.10    0.33
   1  14  -5    1.13    0.21
  -1 -14   5    0.95    0.39
   0  14  -5    0.58    0.28
   0 -14   5    0.71    0.31
  -1  14  -5    0.08    0.27
   1 -14   5    0.15    0.25
   1 -14   5    0.16    0.32
  -2  14  -5    4.18    0.51
   2 -14   5    3.74    0.47
   2 -14   5    3.30    0.46
  -2 -13   5    0.31    0.35
   1  13  -5    0.12    0.17
  -1 -13   5    0.32    0.35
   0  13  -5    3.31    0.42
   0 -13   5    3.14    0.45
   0 -13   5    2.83    0.35
  -1  13  -5    0.45    0.27
   1 -13   5   -0.11    0.24
   1 -13   5    0.13    0.30
  -2  13  -5    0.05    0.34
   2 -13   5    0.39    0.29
   2 -13   5    0.51    0.34
  -2 -12   5   -0.19    0.28
   1  12  -5    0.24    0.18
  -1 -12   5    0.16    0.16
  -1 -12   5    0.42    0.29
   0  12  -5    1.43    0.28
   0 -12   5    1.29    0.25
   0 -12   5    1.41    0.33
   0 -12   5    1.18    0.16
  -1  12  -5    1.26    0.29
  -1  12  -5    0.99    0.24
   1 -12   5    1.75    0.32
   1 -12   5    1.31    0.32
  -2  12  -5    0.74    0.33
   2 -12   5    1.20    0.29
   2 -12   5    0.24    0.27
  -3  12  -5    4.41    0.55
   3 -12   5    2.57    0.41
  -3 -11   5    0.12    0.32
  -2 -11   5    1.12    0.35
   1  11  -5    0.71    0.19
   1  11  -5    0.22    0.08
  -1 -11   5    0.50    0.18
  -1 -11   5    0.72    0.29
  -1 -11   5    0.35    0.16
   0  11  -5    0.04    0.17
   0  11  -5    0.30    0.23
   0 -11   5    0.02    0.12
   0 -11   5    0.18    0.29
   0 -11   5   -0.13    0.20
  -1  11  -5    3.64    0.40
  -1  11  -5    3.84    0.42
   1 -11   5    3.90    0.40
   1 -11   5    3.46    0.39
   1 -11   5    3.43    0.20
  -2  11  -5   -0.04    0.13
  -2  11  -5   -0.10    0.29
   2 -11   5    0.09    0.27
   2 -11   5    0.52    0.27
  -3  11  -5    0.59    0.40
   3 -11   5    0.29    0.29
  -3 -10   5    0.22    0.31
  -2 -10   5    1.38    0.36
   1  10  -5    1.09    0.16
   1  10  -5    1.87    0.22
  -1 -10   5    1.46    0.19
  -1 -10   5    2.14    0.33
   0  10  -5    0.11    0.22
   0  10  -5    0.03    0.19
   0 -10   5    0.47    0.25
   0 -10   5    0.06    0.12
   0 -10   5    0.34    0.21
  -1  10  -5    0.82    0.29
  -1  10  -5    0.94    0.25
   1 -10   5    1.06    0.17
   1 -10   5    0.89    0.25
   1 -10   5    1.14    0.27
  -2  10  -5    2.69    0.23
  -2  10  -5    2.93    0.40
   2 -10   5    3.31    0.38
   2 -10   5    2.65    0.35
  -3  10  -5    0.71    0.36
   3 -10   5    1.17    0.33
  -3  -9   5    0.03    0.26
  -2  -9   5    0.18    0.11
  -2  -9   5   -0.10    0.16
  -2  -9   5    0.01    0.11
  -2  -9   5    0.05    0.25
   1   9  -5    1.64    0.23
   1   9  -5    1.65    0.20
  -1  -9   5    1.54    0.19
  -1  -9   5    1.75    0.20
  -1  -9   5    1.24    0.27
   0   9  -5    1.39    0.20
   0   9  -5    1.58    0.25
   0  -9   5    1.92    0.31
   0  -9   5    1.68    0.19
   0  -9   5    1.94    0.25
  -1   9  -5    0.28    0.25
  -1   9  -5    0.03    0.23
   1  -9   5    0.03    0.12
   1  -9   5   -0.02    0.21
   1  -9   5    0.12    0.25
  -2   9  -5    4.24    0.44
  -2   9  -5    3.75    0.27
   2  -9   5    4.06    0.25
   2  -9   5    3.61    0.39
   2  -9   5    4.05    0.42
  -3   9  -5   -0.22    0.17
  -3   9  -5    0.40    0.34
   3  -9   5   -0.23    0.28
  -3  -8   5    0.19    0.27
   2   8  -5    1.06    0.14
   2   8  -5    0.91    0.13
  -2  -8   5    1.02    0.14
  -2  -8   5    0.83    0.29
  -2  -8   5    1.03    0.14
  -2  -8   5    0.93    0.18
   1   8  -5    3.70    0.25
   1   8  -5    3.99    0.23
  -1  -8   5    3.27    0.26
  -1  -8   5    3.74    0.25
  -1  -8   5    3.60    0.36
   0   8  -5    5.67    0.34
   0   8  -5    5.39    0.32
   0  -8   5    5.74    0.40
   0  -8   5    6.32    0.28
   0  -8   5    6.08    0.36
   0  -8   5    6.23    0.35
  -1   8  -5    0.46    0.14
  -1   8  -5    0.77    0.24
  -1   8  -5    0.35    0.22
   1  -8   5    0.69    0.24
   1  -8   5    0.41    0.13
   1  -8   5    0.48    0.21
  -2   8  -5    0.11    0.15
  -2   8  -5   -0.09    0.26
   2  -8   5    0.21    0.24
   2  -8   5    0.12    0.14
   2  -8   5    0.51    0.22
  -3   8  -5    4.12    0.54
  -3   8  -5    3.80    0.34
   3  -8   5    4.15    0.28
   3  -8   5    4.36    0.40
   3  -8   5    4.10    0.46
  -3  -7   5    0.36    0.12
  -3  -7   5    0.37    0.24
   2   7  -5   -0.01    0.10
   2   7  -5    0.08    0.13
  -2  -7   5   -0.03    0.13
  -2  -7   5    0.09    0.21
  -2  -7   5   -0.08    0.12
  -2  -7   5    0.05    0.13
   1   7  -5    0.34    0.13
  -1  -7   5    0.64    0.15
  -1  -7   5   -0.28    0.21
  -1  -7   5    0.20    0.15
   0   7  -5    2.59    0.26
   0   7  -5    2.13    0.29
   0  -7   5    2.88    0.21
   0  -7   5    2.65    0.26
   0  -7   5    2.82    0.35
   0  -7   5    2.65    0.30
  -1   7  -5    3.14    0.22
  -1   7  -5    2.69    0.33
  -1   7  -5    3.02    0.32
   1  -7   5    2.56    0.20
   1  -7   5    2.49    0.33
   1  -7   5    3.40    0.33
   1  -7   5    3.10    0.33
  -2   7  -5    0.21    0.26
  -2   7  -5    0.14    0.16
   2  -7   5    0.11    0.19
   2  -7   5   -0.28    0.22
   2  -7   5    0.02    0.15
  -3   7  -5    2.84    0.42
  -3   7  -5    3.21    0.34
   3  -7   5    2.50    0.30
   3  -7   5    2.40    0.36
   3  -7   5    2.61    0.23
  -4   7  -5    0.44    0.37
  -4   7  -5    0.35    0.26
   4  -7   5   -0.12    0.31
   4  -7   5   -0.16    0.24
   3   6  -5    0.70    0.11
   3   6  -5    0.99    0.15
  -3  -6   5    1.09    0.31
   2   6  -5    0.81    0.12
   2   6  -5    1.05    0.16
  -2  -6   5    0.91    0.15
  -2  -6   5    0.71    0.15
  -2  -6   5    0.89    0.15
  -2  -6   5    0.96    0.25
   1   6  -5    4.34    0.24
   1   6  -5    4.50    0.33
  -1  -6   5    3.97    0.26
  -1  -6   5    4.11    0.34
  -1  -6   5    4.07    0.26
   0   6  -5   11.56    0.44
   0   6  -5   12.56    0.43
   0   6  -5   12.87    0.50
   0  -6   5   12.38    0.50
   0  -6   5   12.78    0.45
   0  -6   5   12.59    0.40
   0  -6   5   11.69    0.43
  -1   6  -5    9.83    0.42
  -1   6  -5    9.79    0.35
  -1   6  -5    9.72    0.43
  -1   6  -5    9.45    0.45
   1  -6   5    9.59    0.43
   1  -6   5    9.37    0.44
   1  -6   5   10.45    0.35
   1  -6   5    9.84    0.45
  -2   6  -5    0.61    0.26
  -2   6  -5    1.02    0.17
   2  -6   5    0.96    0.22
   2  -6   5    0.96    0.25
   2  -6   5    0.90    0.18
  -3   6  -5    0.03    0.21
  -3   6  -5    0.32    0.30
   3  -6   5    0.16    0.11
   3  -6   5    0.38    0.23
   3  -6   5    0.01    0.25
  -4   6  -5    3.38    0.41
  -4   6  -5    2.89    0.44
   4  -6   5    3.39    0.46
   4  -6   5    2.46    0.35
   4   5  -5    0.25    0.17
   3   5  -5    0.03    0.10
   3   5  -5   -0.20    0.16
  -3  -5   5    0.29    0.17
  -3  -5   5   -0.01    0.21
   2   5  -5    0.43    0.10
   2   5  -5    0.69    0.17
   2   5  -5    0.84    0.21
  -2  -5   5    0.86    0.15
  -2  -5   5    0.37    0.15
  -2  -5   5    0.61    0.14
  -2  -5   5    0.55    0.22
   1   5  -5    0.16    0.11
   1   5  -5    0.33    0.15
   1   5  -5    0.00    0.16
  -1  -5   5    0.16    0.09
  -1  -5   5    0.34    0.13
  -1  -5   5    0.10    0.13
  -1  -5   5    0.31    0.19
   0   5  -5    1.80    0.24
   0   5  -5    1.72    0.21
   0   5  -5    1.24    0.19
   0  -5   5    1.91    0.21
   0  -5   5    1.66    0.17
   0  -5   5    1.54    0.20
   0  -5   5    1.94    0.28
  -1   5  -5    2.25    0.23
  -1   5  -5    1.99    0.23
  -1   5  -5    2.19    0.27
  -1   5  -5    2.29    0.27
   1  -5   5    2.19    0.28
   1  -5   5    2.01    0.27
   1  -5   5    2.43    0.21
   1  -5   5    2.52    0.31
  -2   5  -5    1.68    0.24
  -2   5  -5    1.89    0.31
   2  -5   5    1.69    0.20
   2  -5   5    1.47    0.26
   2  -5   5    1.42    0.27
   2  -5   5    1.89    0.25
   2  -5   5    1.54    0.24
  -3   5  -5    0.03    0.21
  -3   5  -5    0.55    0.30
   3  -5   5    0.17    0.23
   3  -5   5    0.22    0.30
  -4   5  -5    1.62    0.32
  -4   5  -5    1.35    0.36
   4  -5   5    0.87    0.32
   4  -5   5    1.40    0.31
   4   4  -5    0.48    0.21
   3   4  -5    0.21    0.15
   3   4  -5   -0.12    0.20
  -3  -4   5   -0.30    0.18
  -3  -4   5    0.04    0.18
   2   4  -5    2.03    0.26
   2   4  -5    1.73    0.24
   2   4  -5    1.73    0.19
  -2  -4   5    1.79    0.21
  -2  -4   5    1.81    0.27
   1   4  -5    1.79    0.19
   1   4  -5    1.86    0.21
   1   4  -5    1.90    0.26
  -1  -4   5    1.85    0.14
  -1  -4   5    1.85    0.24
  -1  -4   5    2.12    0.24
  -1  -4   5    1.50    0.22
   0   4  -5   12.06    0.41
   0   4  -5   12.15    0.44
   0   4  -5   12.69    0.42
   0   4  -5   13.25    0.49
   0  -4   5   12.96    0.45
   0  -4   5   13.04    0.48
   0  -4   5   12.47    0.46
   0  -4   5   12.54    0.42
  -1   4  -5   15.15    0.48
  -1   4  -5   15.34    0.52
  -1   4  -5   15.88    0.56
  -1   4  -5   15.29    0.49
   1  -4   5   15.01    0.47
   1  -4   5   15.50    0.55
   1  -4   5   14.87    0.51
   1  -4   5   15.81    0.52
  -2   4  -5    5.58    0.37
  -2   4  -5    5.42    0.41
  -2   4  -5    5.03    0.25
  -2   4  -5    6.14    0.33
   2  -4   5    5.27    0.41
   2  -4   5    5.02    0.30
   2  -4   5    5.47    0.33
   2  -4   5    5.42    0.37
   2  -4   5    5.58    0.28
  -3   4  -5    0.43    0.30
  -3   4  -5    0.75    0.22
   3  -4   5    0.77    0.21
   3  -4   5    0.43    0.24
  -4   4  -5   -0.15    0.27
  -4   4  -5    0.13    0.32
   4  -4   5    0.47    0.28
   4  -4   5    0.48    0.31
   4   3  -5   -0.03    0.22
   3   3  -5    0.32    0.17
   3   3  -5    0.50    0.19
   3   3  -5    0.27    0.22
  -3  -3   5    0.30    0.21
  -3  -3   5    0.70    0.22
   2   3  -5    0.37    0.17
   2   3  -5    0.09    0.13
   2   3  -5    0.17    0.16
  -2  -3   5    0.09    0.19
  -2  -3   5   -0.17    0.16
  -2  -3   5    0.18    0.14
   1   3  -5    1.08    0.16
   1   3  -5    1.36    0.22
   1   3  -5    1.25    0.20
  -1  -3   5    1.23    0.19
  -1  -3   5    1.28    0.23
  -1  -3   5    1.27    0.19
   0   3  -5    1.67    0.21
   0   3  -5    1.78    0.25
   0   3  -5    2.04    0.24
   0   3  -5    1.98    0.22
   0  -3   5    2.19    0.24
   0  -3   5    2.01    0.23
   0  -3   5    2.46    0.26
   0  -3   5    1.60    0.22
  -1   3  -5    1.51    0.20
  -1   3  -5    1.70    0.22
  -1   3  -5    1.84    0.24
  -1   3  -5    1.93    0.24
   1  -3   5    1.84    0.25
   1  -3   5    1.93    0.22
   1  -3   5    1.39    0.19
   1  -3   5    1.77    0.22
   1  -3   5    1.78    0.19
  -2   3  -5    0.46    0.27
  -2   3  -5    0.50    0.18
  -2   3  -5    0.38    0.17
  -2   3  -5    0.31    0.11
   2  -3   5    0.09    0.18
   2  -3   5    0.44    0.17
   2  -3   5    0.43    0.14
   2  -3   5    0.28    0.13
   2  -3   5    0.04    0.21
  -3   3  -5    0.41    0.21
  -3   3  -5    0.26    0.27
   3  -3   5    0.34    0.19
   3  -3   5    0.53    0.28
   3  -3   5    0.49    0.25
  -4   3  -5    0.50    0.32
  -4   3  -5    0.19    0.27
   4  -3   5    0.42    0.27
   4  -3   5   -0.05    0.30
   4   2  -5   -0.20    0.25
   4   2  -5    0.07    0.21
   3   2  -5    2.02    0.27
   3   2  -5    2.27    0.31
   3   2  -5    1.33    0.22
   3   2  -5    1.76    0.24
  -3  -2   5    1.69    0.25
  -3  -2   5    1.67    0.25
   2   2  -5   -0.07    0.17
   2   2  -5   -0.06    0.13
   2   2  -5    0.19    0.12
   2   2  -5    0.18    0.18
  -2  -2   5    0.27    0.17
  -2  -2   5    0.15    0.15
  -2  -2   5    0.15    0.19
   1   2  -5    1.70    0.12
   1   2  -5    1.70    0.21
   1   2  -5    1.85    0.25
   1   2  -5    2.07    0.30
  -1  -2   5    2.09    0.23
  -1  -2   5    1.79    0.24
  -1  -2   5    1.86    0.25
   0   2  -5    2.32    0.22
   0   2  -5    2.01    0.24
   0   2  -5    2.18    0.24
   0   2  -5    2.29    0.25
   0  -2   5    2.39    0.26
   0  -2   5    2.32    0.21
   0  -2   5    2.19    0.30
   0  -2   5    2.28    0.23
  -1   2  -5   13.87    0.45
  -1   2  -5   14.39    0.50
  -1   2  -5   13.65    0.46
  -1   2  -5   13.85    0.46
   1  -2   5   13.71    0.45
   1  -2   5   12.57    0.38
   1  -2   5   13.49    0.50
   1  -2   5   13.22    0.46
   1  -2   5   13.75    0.46
  -2   2  -5    3.42    0.27
  -2   2  -5    2.24    0.26
  -2   2  -5    2.99    0.33
  -2   2  -5    2.67    0.21
   2  -2   5    3.16    0.26
   2  -2   5    2.59    0.21
   2  -2   5    2.92    0.32
   2  -2   5    3.38    0.36
   2  -2   5    2.88    0.25
  -3   2  -5    2.10    0.32
  -3   2  -5    1.71    0.31
   3  -2   5    1.38    0.27
   3  -2   5    1.25    0.26
   3  -2   5    1.83    0.26
  -4   2  -5    0.57    0.30
  -4   2  -5    0.59    0.30
   4  -2   5    0.24    0.26
   4  -2   5    0.51    0.24
   4   1  -5   -0.04    0.22
   4   1  -5    0.26    0.27
   3   1  -5    0.07    0.17
   3   1  -5    0.05    0.17
   3   1  -5    0.23    0.17
   3   1  -5    0.33    0.24
  -3  -1   5   -0.11    0.18
  -3  -1   5    0.11    0.22
   2   1  -5    0.95    0.20
   2   1  -5    1.02    0.15
   2   1  -5    1.37    0.20
   2   1  -5    1.28    0.21
  -2  -1   5    1.01    0.18
  -2  -1   5    0.91    0.21
  -2  -1   5    1.14    0.20
   1   1  -5    0.28    0.15
   1   1  -5    0.36    0.16
   1   1  -5    0.45    0.21
  -1  -1   5    0.14    0.14
  -1  -1   5    0.21    0.16
  -1  -1   5    0.20    0.16
   0   1  -5    0.22    0.14
   0   1  -5    0.51    0.16
   0   1  -5    0.54    0.18
   0   1  -5    0.33    0.06
   0   1  -5    0.58    0.14
   0  -1   5    0.38    0.15
   0  -1   5    0.58    0.16
   0  -1   5    0.45    0.14
   0  -1   5    0.59    0.16
  -1   1  -5    3.08    0.24
  -1   1  -5    2.37    0.24
  -1   1  -5    2.88    0.19
  -1   1  -5    2.80    0.30
  -1   1  -5    3.05    0.25
   1  -1   5    2.85    0.26
   1  -1   5    3.17    0.22
   1  -1   5    2.64    0.23
   1  -1   5    2.97    0.29
  -2   1  -5    0.21    0.17
  -2   1  -5    0.17    0.20
  -2   1  -5    0.23    0.17
  -2   1  -5    0.35    0.13
   2  -1   5    0.21    0.16
   2  -1   5    0.50    0.14
   2  -1   5    0.34    0.19
   2  -1   5    0.23    0.19
  -3   1  -5    0.18    0.22
  -3   1  -5    0.36    0.25
   3  -1   5   -0.07    0.19
   3  -1   5   -0.15    0.20
   3  -1   5    0.13    0.21
  -4   1  -5   -0.08    0.30
   4  -1   5    0.08    0.22
   4   0  -5    0.92    0.30
   4   0  -5    0.60    0.27
   3   0  -5    0.86    0.23
   3   0  -5    0.60    0.28
   3   0  -5    0.72    0.18
   3   0  -5    0.49    0.22
  -3   0   5    0.62    0.24
  -3   0   5    0.18    0.20
   2   0  -5    6.18    0.34
   2   0  -5    5.73    0.36
   2   0  -5    6.02    0.28
   2   0  -5    6.36    0.34
  -2   0   5    6.37    0.36
  -2   0   5    6.38    0.36
  -2   0   5    6.03    0.38
   1   0  -5    0.49    0.17
   1   0  -5    0.16    0.15
   1   0  -5    0.18    0.17
  -1   0   5    0.33    0.19
  -1   0   5    0.18    0.15
  -1   0   5    0.33    0.15
   0   0  -5    0.26    0.15
   0   0  -5   -0.11    0.12
   0   0  -5    0.06    0.13
   0   0   5    0.12    0.13
   0   0   5    0.03    0.14
   0   0   5    0.04    0.16
   0   0   5   -0.01    0.14
  -1   0  -5   -0.03    0.14
  -1   0  -5    0.18    0.14
  -1   0  -5    0.11    0.12
  -1   0  -5   -0.04    0.14
  -1   0  -5   -0.08    0.19
   1   0   5   -0.02    0.13
   1   0   5   -0.01    0.14
   1   0   5    0.02    0.16
   1   0   5   -0.01    0.13
  -2   0  -5    5.39    0.30
  -2   0  -5    5.24    0.33
  -2   0  -5    5.13    0.28
  -2   0  -5    4.85    0.33
  -2   0  -5    5.38    0.37
   2   0   5    5.33    0.33
   2   0   5    5.82    0.39
   2   0   5    5.43    0.33
  -3   0  -5    0.36    0.24
  -3   0  -5   -0.40    0.24
   3   0   5    0.08    0.19
   3   0   5    0.11    0.21
  -4   0  -5    0.43    0.30
   4   0   5    0.36    0.23
   4  -1  -5    0.24    0.24
   4  -1  -5   -0.30    0.21
  -4   1   5   -0.18    0.30
   3  -1  -5    0.29    0.20
   3  -1  -5    0.72    0.24
   3  -1  -5    0.32    0.17
   3  -1  -5    0.35    0.28
  -3   1   5    0.35    0.28
  -3   1   5    0.91    0.22
   2  -1  -5    0.65    0.20
   2  -1  -5    0.78    0.20
   2  -1  -5    0.79    0.22
  -2   1   5    0.73    0.18
  -2   1   5    0.32    0.22
  -2   1   5    0.71    0.19
   1  -1  -5    2.06    0.28
   1  -1  -5    1.97    0.25
   1  -1  -5    2.15    0.25
  -1   1   5    2.01    0.27
  -1   1   5    2.04    0.23
  -1   1   5    2.09    0.26
  -1   1   5    2.33    0.26
   0  -1  -5    0.27    0.17
   0  -1  -5    0.49    0.17
   0  -1  -5    0.37    0.14
   0  -1  -5    0.55    0.16
   0   1   5    0.76    0.17
   0   1   5    0.42    0.15
   0   1   5    0.54    0.13
   0   1   5    0.73    0.20
  -1  -1  -5    0.12    0.14
  -1  -1  -5    0.19    0.17
  -1  -1  -5   -0.02    0.12
  -1  -1  -5   -0.15    0.13
  -1  -1  -5    0.15    0.14
   1   1   5   -0.06    0.15
   1   1   5    0.04    0.13
   1   1   5   -0.23    0.13
  -2  -1  -5    1.22    0.18
  -2  -1  -5    1.67    0.22
  -2  -1  -5    1.18    0.17
  -2  -1  -5    0.97    0.19
  -2  -1  -5    1.24    0.20
   2   1   5    1.26    0.22
   2   1   5    1.32    0.21
   2   1   5    1.35    0.19
  -3  -1  -5    0.03    0.23
  -3  -1  -5    0.04    0.11
  -3  -1  -5    0.29    0.23
   3   1   5    0.21    0.20
   3   1   5    0.15    0.21
  -4  -1  -5   -0.40    0.27
   4   1   5    0.31    0.22
   4  -2  -5    1.03    0.33
   4  -2  -5    0.60    0.27
  -4   2   5    1.55    0.38
   3  -2  -5    1.60    0.29
   3  -2  -5    1.61    0.25
   3  -2  -5    1.49    0.31
   3  -2  -5    1.40    0.23
  -3   2   5    1.98    0.35
   2  -2  -5    5.94    0.36
   2  -2  -5    5.20    0.33
   2  -2  -5    4.82    0.38
  -2   2   5    4.60    0.39
  -2   2   5    4.66    0.35
  -2   2   5    5.38    0.36
   1  -2  -5   14.61    0.51
   1  -2  -5   14.72    0.51
   1  -2  -5   13.65    0.52
  -1   2   5   14.11    0.51
  -1   2   5   14.48    0.52
  -1   2   5   13.98    0.46
  -1   2   5   13.86    0.51
   0  -2  -5    2.87    0.27
   0  -2  -5    3.02    0.24
   0  -2  -5    2.95    0.23
   0  -2  -5    3.13    0.29
   0   2   5    3.16    0.27
   0   2   5    2.94    0.28
   0   2   5    3.05    0.21
  -1  -2  -5    2.73    0.28
  -1  -2  -5    2.47    0.23
  -1  -2  -5    2.37    0.24
  -1  -2  -5    2.22    0.24
   1   2   5    2.24    0.27
   1   2   5    2.25    0.27
   1   2   5    2.48    0.23
  -2  -2  -5    0.48    0.16
  -2  -2  -5    0.18    0.13
  -2  -2  -5    0.47    0.20
  -2  -2  -5    0.39    0.14
  -2  -2  -5    0.23    0.19
   2   2   5    0.32    0.17
   2   2   5    0.15    0.15
   2   2   5    0.29    0.18
  -3  -2  -5    1.16    0.26
  -3  -2  -5    1.54    0.28
  -3  -2  -5    1.26    0.17
   3   2   5    1.25    0.22
   3   2   5    1.08    0.22
  -4  -2  -5    0.14    0.28
   4   2   5   -0.05    0.20
   4  -3  -5   -0.05    0.32
   4  -3  -5    0.25    0.25
  -4   3   5   -0.18    0.34
   3  -3  -5    1.01    0.28
   3  -3  -5    0.70    0.19
   3  -3  -5    0.25    0.27
  -3   3   5    0.41    0.32
   2  -3  -5    2.02    0.23
   2  -3  -5    1.95    0.29
   2  -3  -5    2.18    0.29
  -2   3   5    1.62    0.26
  -2   3   5    1.76    0.28
   1  -3  -5    1.95    0.27
   1  -3  -5    2.35    0.27
   1  -3  -5    2.25    0.27
  -1   3   5    1.99    0.26
  -1   3   5    2.20    0.30
  -1   3   5    2.58    0.23
   0  -3  -5    1.57    0.19
   0  -3  -5    1.93    0.22
   0  -3  -5    1.87    0.24
   0  -3  -5    1.72    0.26
   0   3   5    1.64    0.23
   0   3   5    1.95    0.22
   0   3   5    1.51    0.19
  -1  -3  -5    0.12    0.16
   1   3   5    0.27    0.15
   1   3   5    0.49    0.17
  -2  -3  -5    0.17    0.16
  -2  -3  -5    0.00    0.14
  -2  -3  -5   -0.13    0.14
  -2  -3  -5   -0.03    0.17
  -2  -3  -5    0.30    0.20
   2   3   5   -0.09    0.15
   2   3   5    0.16    0.16
  -3  -3  -5    1.02    0.27
  -3  -3  -5    0.30    0.21
  -3  -3  -5    0.35    0.16
   3   3   5    0.75    0.21
   3   3   5    0.45    0.20
  -4  -3  -5    0.24    0.29
   4   3   5   -0.06    0.21
   4  -4  -5    0.54    0.24
   4  -4  -5    0.49    0.34
  -4   4   5   -0.14    0.30
   3  -4  -5    1.13    0.21
   3  -4  -5    1.41    0.33
   3  -4  -5    1.03    0.28
  -3   4   5    1.26    0.34
   2  -4  -5    5.10    0.41
   2  -4  -5    6.40    0.36
   2  -4  -5    6.78    0.41
  -2   4   5    5.27    0.41
  -2   4   5    6.00    0.44
   1  -4  -5   18.40    0.61
   1  -4  -5   18.14    0.60
   1  -4  -5   18.86    0.64
  -1   4   5   17.87    0.63
  -1   4   5   17.76    0.54
  -1   4   5   17.66    0.61
   0  -4  -5   11.57    0.41
   0  -4  -5   11.65    0.45
   0  -4  -5   11.59    0.40
   0  -4  -5   12.56    0.48
   0   4   5   11.84    0.38
   0   4   5   11.73    0.46
   0   4   5   11.55    0.45
  -1  -4  -5    2.21    0.25
  -1  -4  -5    1.90    0.26
  -1  -4  -5    2.07    0.22
  -1  -4  -5    2.24    0.25
   1   4   5    1.84    0.24
   1   4   5    1.95    0.24
   1   4   5    2.33    0.22
  -2  -4  -5    2.91    0.31
  -2  -4  -5    2.09    0.24
  -2  -4  -5    1.99    0.22
  -2  -4  -5    1.56    0.20
   2   4   5    1.98    0.23
   2   4   5    2.73    0.27
  -3  -4  -5    0.29    0.16
  -3  -4  -5    0.06    0.25
  -3  -4  -5    0.18    0.19
   3   4   5    0.14    0.17
   3   4   5   -0.02    0.16
  -4  -4  -5    0.39    0.30
   4   4   5    0.16    0.19
   4  -5  -5    1.95    0.33
   4  -5  -5    2.16    0.38
  -4   5   5    1.94    0.43
   3  -5  -5    0.27    0.18
   3  -5  -5   -0.17    0.28
  -3   5   5    0.15    0.30
   2  -5  -5    2.66    0.29
   2  -5  -5    2.97    0.37
   2  -5  -5    2.73    0.35
  -2   5   5    2.91    0.36
  -2   5   5    2.80    0.34
   1  -5  -5    3.99    0.34
   1  -5  -5    3.40    0.30
   1  -5  -5    4.01    0.37
  -1   5   5    3.48    0.35
  -1   5   5    3.93    0.24
  -1   5   5    4.10    0.38
   0  -5  -5    1.26    0.20
   0  -5  -5    1.35    0.21
   0  -5  -5    1.50    0.20
   0   5   5    1.29    0.23
   0   5   5    1.46    0.18
   0   5   5    1.30    0.19
  -1  -5  -5    0.15    0.12
  -1  -5  -5    0.44    0.16
  -1  -5  -5    0.27    0.16
   1   5   5    0.29    0.16
   1   5   5    0.32    0.16
   1   5   5   -0.14    0.14
  -2  -5  -5    0.36    0.16
  -2  -5  -5   -0.04    0.13
  -2  -5  -5    0.77    0.22
   2   5   5   -0.05    0.15
   2   5   5    0.19    0.14
  -3  -5  -5   -0.01    0.14
  -3  -5  -5    0.16    0.25
   3   5   5    0.13    0.17
  -4  -5  -5    0.02    0.29
   4   5   5    0.46    0.18
   4  -6  -5    2.08    0.40
  -4   6   5    2.86    0.45
   3  -6  -5    0.29    0.20
   3  -6  -5    0.35    0.31
  -3   6   5    0.56    0.33
   2  -6  -5    0.74    0.20
   2  -6  -5    0.92    0.27
  -2   6   5    0.72    0.29
   1  -6  -5   11.82    0.50
   1  -6  -5   11.87    0.50
   1  -6  -5   12.27    0.53
  -1   6   5   11.80    0.51
  -1   6   5   11.60    0.53
  -1   6   5   12.37    0.40
   0  -6  -5   13.18    0.48
   0  -6  -5   13.69    0.51
   0  -6  -5   13.15    0.42
   0   6   5   12.49    0.49
   0   6   5   13.54    0.52
   0   6   5   12.94    0.41
  -1  -6  -5    3.94    0.28
  -1  -6  -5    3.21    0.26
  -1  -6  -5    3.59    0.23
   1   6   5    3.95    0.25
   1   6   5    3.31    0.26
   1   6   5    3.28    0.28
  -2  -6  -5    1.11    0.22
  -2  -6  -5    0.82    0.17
  -2  -6  -5    0.94    0.16
   2   6   5    0.87    0.16
   2   6   5    0.97    0.19
  -3  -6  -5    1.25    0.22
  -3  -6  -5    1.89    0.32
   3   6   5    1.17    0.18
   4  -7  -5   -0.46    0.29
  -4   7   5    0.30    0.34
   3  -7  -5    4.22    0.35
   3  -7  -5    4.59    0.49
  -3   7   5    4.43    0.52
   2  -7  -5   -0.02    0.20
   2  -7  -5    0.26    0.28
  -2   7   5    0.30    0.25
  -2   7   5    0.49    0.16
   1  -7  -5    4.43    0.34
   1  -7  -5    4.23    0.40
  -1   7   5    3.92    0.36
  -1   7   5    4.50    0.39
  -1   7   5    4.06    0.21
   0  -7  -5    1.37    0.19
   0  -7  -5    1.79    0.23
   0  -7  -5    1.52    0.24
   0   7   5    1.72    0.26
   0   7   5    1.28    0.17
   0   7   5    1.56    0.24
  -1  -7  -5    0.63    0.18
  -1  -7  -5    0.08    0.11
  -1  -7  -5    0.21    0.15
   1   7   5    0.07    0.17
   1   7   5    0.26    0.16
   1   7   5    0.39    0.16
  -2  -7  -5   -0.16    0.22
  -2  -7  -5    0.04    0.14
  -2  -7  -5   -0.09    0.12
   2   7   5    0.12    0.12
   2   7   5    0.05    0.14
  -3  -7  -5    0.23    0.26
   3   7   5   -0.07    0.12
   4  -8  -5    0.42    0.37
  -4   8   5    0.70    0.26
  -4   8   5    0.92    0.39
   3  -8  -5    2.99    0.42
  -3   8   5    2.95    0.45
   2  -8  -5    0.44    0.28
  -2   8   5    0.63    0.31
  -2   8   5    0.41    0.16
   1  -8  -5    0.20    0.23
  -1   8   5    0.51    0.22
  -1   8   5    0.24    0.11
  -1   8   5    0.61    0.25
   0  -8  -5    7.51    0.38
   0  -8  -5    7.54    0.44
   0  -8  -5    7.67    0.31
   0   8   5    7.56    0.29
   0   8   5    7.55    0.38
   0   8   5    7.99    0.44
  -1  -8  -5    3.96    0.29
  -1  -8  -5    3.44    0.26
  -1  -8  -5    3.78    0.28
   1   8   5    3.57    0.26
   1   8   5    3.75    0.31
   1   8   5    3.55    0.26
  -2  -8  -5    1.10    0.23
  -2  -8  -5    1.04    0.18
  -2  -8  -5    1.19    0.16
   2   8   5    0.69    0.15
   2   8   5    1.27    0.19
  -3  -8  -5    0.18    0.25
   3  -9  -5   -0.18    0.31
  -3   9   5   -0.27    0.34
   2  -9  -5    4.05    0.49
  -2   9   5    3.71    0.24
  -2   9   5    4.05    0.52
   1  -9  -5    0.47    0.24
  -1   9   5    0.53    0.29
  -1   9   5    0.79    0.24
  -1   9   5    0.55    0.10
   0  -9  -5    1.78    0.20
   0  -9  -5    2.44    0.31
   0   9   5    2.14    0.29
   0   9   5    2.05    0.18
   0   9   5    2.45    0.29
  -1  -9  -5    0.13    0.18
  -1  -9  -5    0.46    0.17
   1   9   5   -0.05    0.19
   1   9   5    0.00    0.16
   1   9   5    0.01    0.15
  -2  -9  -5   -0.18    0.22
   2   9   5   -0.11    0.12
   2   9   5    0.18    0.15
  -3  -9  -5    0.00    0.26
   3 -10  -5    0.33    0.34
  -3  10   5    0.54    0.38
   2 -10  -5    2.17    0.39
  -2  10   5    2.44    0.41
   1 -10  -5    1.64    0.31
  -1  10   5    1.19    0.13
  -1  10   5    1.20    0.34
  -1  10   5    1.38    0.28
   0 -10  -5    0.17    0.13
   0 -10  -5    0.12    0.20
   0  10   5    0.04    0.12
   0  10   5    0.14    0.22
   0  10   5    0.19    0.25
  -1 -10  -5    2.59    0.25
  -1 -10  -5    2.87    0.30
   1  10   5    2.52    0.24
   1  10   5    2.87    0.33
  -2 -10  -5    1.42    0.26
   2  10   5    1.19    0.16
  -3 -10  -5    0.58    0.29
   3 -11  -5    0.04    0.32
  -3  11   5    0.28    0.37
   2 -11  -5    0.49    0.34
  -2  11   5    0.21    0.30
   1 -11  -5    3.83    0.44
  -1  11   5    3.55    0.42
  -1  11   5    3.59    0.42
   0 -11  -5    0.61    0.14
   0 -11  -5    0.57    0.25
   0  11   5    0.48    0.22
   0  11   5    0.54    0.29
  -1 -11  -5    0.70    0.21
  -1 -11  -5    0.52    0.18
   1  11   5    0.82    0.25
  -2 -11  -5    0.08    0.23
   3 -12  -5    3.32    0.47
  -3  12   5    4.41    0.59
   2 -12  -5    0.93    0.34
  -2  12   5    0.56    0.34
   1 -12  -5    1.76    0.34
  -1  12   5    0.94    0.29
  -1  12   5    1.23    0.32
   0 -12  -5    0.79    0.13
   0 -12  -5    1.03    0.28
   0  12   5    1.40    0.31
  -1 -12  -5   -0.07    0.17
   1  12   5   -0.02    0.21
  -2 -12  -5    0.83    0.23
   2 -13  -5    0.22    0.36
  -2  13   5    0.16    0.34
   1 -13  -5    0.38    0.31
  -1  13   5   -0.21    0.28
   0  13   5    1.86    0.33
   1  13   5    0.81    0.24
  -2 -13  -5    0.16    0.21
   2 -14  -5    3.60    0.46
  -2  14   5    5.07    0.57
  -1  14   5    0.00    0.35
   0  14   5    0.56    0.29
   1  14   5    0.42    0.21
  -1  15   5    0.27    0.32
   0  15   5    0.08    0.28
   0  15  -6    0.03    0.26
   0 -15   6    1.13    0.40
  -1  15  -6    0.77    0.35
   1 -15   6    0.20    0.30
   1  14  -6    0.28    0.19
  -1 -14   6    0.27    0.37
   0  14  -6    2.81    0.39
   0 -14   6    3.21    0.43
  -1  14  -6    0.15    0.33
   1 -14   6   -0.16    0.27
  -2 -13   6    0.69    0.41
   1  13  -6   -0.13    0.18
  -1 -13   6   -0.03    0.29
   0  13  -6    0.41    0.26
   0 -13   6    0.95    0.36
  -1  13  -6    1.52    0.36
   1 -13   6    0.78    0.28
   1 -13   6    0.76    0.30
  -2  13  -6    1.34    0.37
   2 -13   6    1.39    0.36
   2 -13   6    1.57    0.33
  -2 -12   6    0.30    0.31
   1  12  -6    1.26    0.22
  -1 -12   6    0.85    0.33
   0  12  -6    0.54    0.24
   0 -12   6   -0.36    0.24
   0 -12   6   -0.24    0.22
  -1  12  -6    5.14    0.46
  -1  12  -6    4.55    0.44
   1 -12   6    4.89    0.48
   1 -12   6    4.91    0.49
  -2  12  -6    0.02    0.31
   2 -12   6   -0.36    0.25
   2 -12   6    0.70    0.30
  -3 -11   6    0.01    0.32
  -2 -11   6    0.05    0.33
   1  11  -6    0.49    0.20
  -1 -11   6    0.60    0.17
  -1 -11   6    0.41    0.20
  -1 -11   6    0.61    0.29
   0  11  -6    0.14    0.20
   0  11  -6    0.26    0.23
   0 -11   6   -0.27    0.28
   0 -11   6    0.23    0.22
   0 -11   6    0.24    0.14
  -1  11  -6    0.79    0.28
  -1  11  -6    0.62    0.23
   1 -11   6    0.78    0.14
   1 -11   6    0.76    0.31
   1 -11   6    0.65    0.26
  -2  11  -6    0.90    0.32
   2 -11   6    0.96    0.29
   2 -11   6    0.76    0.31
  -3  11  -6    1.71    0.42
   3 -11   6    1.63    0.39
  -3 -10   6    1.27    0.36
   2  10  -6   -0.03    0.11
  -2 -10   6    0.02    0.27
  -2 -10   6    0.13    0.17
   1  10  -6    0.26    0.21
   1  10  -6    0.31    0.15
  -1 -10   6    0.33    0.17
  -1 -10   6    0.46    0.29
  -1 -10   6    0.34    0.17
   0  10  -6    2.82    0.34
   0  10  -6    2.38    0.31
   0 -10   6    2.53    0.30
   0 -10   6    2.56    0.37
   0 -10   6    2.60    0.24
  -1  10  -6    0.31    0.26
  -1  10  -6    0.11    0.24
   1 -10   6    0.31    0.23
   1 -10   6    0.17    0.27
   1 -10   6    0.02    0.13
  -2  10  -6    4.75    0.29
  -2  10  -6    4.51    0.55
   2 -10   6    4.81    0.47
   2 -10   6    5.23    0.42
  -3  10  -6    0.77    0.37
   3 -10   6    0.84    0.34
   3 -10   6    0.55    0.25
  -3  -9   6    0.35    0.31
   2   9  -6   -0.01    0.15
   2   9  -6    0.09    0.11
  -2  -9   6   -0.16    0.29
  -2  -9   6   -0.37    0.15
  -2  -9   6    0.11    0.14
  -2  -9   6    0.02    0.14
   1   9  -6    0.18    0.17
   1   9  -6    0.27    0.15
  -1  -9   6    0.16    0.17
  -1  -9   6   -0.05    0.24
  -1  -9   6    0.16    0.15
   0   9  -6    0.80    0.24
   0   9  -6    1.00    0.22
   0  -9   6    1.03    0.21
   0  -9   6    1.16    0.28
   0  -9   6    0.73    0.16
  -1   9  -6    0.85    0.27
  -1   9  -6    0.82    0.26
   1  -9   6    0.93    0.27
   1  -9   6    0.34    0.14
   1  -9   6    0.74    0.24
  -2   9  -6    0.50    0.18
  -2   9  -6    0.39    0.30
   2  -9   6    0.65    0.27
   2  -9   6    0.35    0.16
   2  -9   6    0.64    0.24
  -3   9  -6    0.41    0.35
  -3   9  -6    0.85    0.23
   3  -9   6    1.30    0.28
   3  -9   6    1.25    0.38
  -3  -8   6    0.12    0.30
   2   8  -6    2.75    0.19
   2   8  -6    2.74    0.26
  -2  -8   6    2.45    0.23
  -2  -8   6    2.77    0.36
  -2  -8   6    3.20    0.26
  -2  -8   6    2.94    0.25
   1   8  -6    0.36    0.15
  -1  -8   6    0.03    0.17
  -1  -8   6    0.11    0.17
  -1  -8   6    0.31    0.23
  -1  -8   6    0.10    0.17
   0   8  -6    1.39    0.25
   0   8  -6    1.09    0.21
   0  -8   6    0.89    0.16
   0  -8   6    1.04    0.22
   0  -8   6    1.26    0.26
  -1   8  -6    3.33    0.34
  -1   8  -6    4.00    0.26
  -1   8  -6    3.95    0.44
   1  -8   6    3.88    0.41
   1  -8   6    4.31    0.40
   1  -8   6    3.73    0.24
  -2   8  -6    0.33    0.18
  -2   8  -6   -0.27    0.26
   2  -8   6    0.17    0.26
   2  -8   6    0.34    0.24
   2  -8   6    0.68    0.18
  -3   8  -6    2.95    0.33
  -3   8  -6    3.07    0.44
   3  -8   6    3.04    0.34
   3  -8   6    2.51    0.37
   3   7  -6    0.08    0.13
  -3  -7   6    0.01    0.29
   2   7  -6    0.17    0.16
   2   7  -6    0.08    0.10
  -2  -7   6   -0.27    0.22
  -2  -7   6    0.21    0.15
  -2  -7   6    0.17    0.15
  -2  -7   6    0.16    0.14
   1   7  -6    0.00    0.14
  -1  -7   6   -0.38    0.15
  -1  -7   6    0.07    0.14
  -1  -7   6   -0.09    0.24
   0   7  -6    0.30    0.20
   0   7  -6    0.19    0.18
   0   7  -6    0.40    0.18
   0  -7   6   -0.07    0.17
   0  -7   6    0.08    0.19
   0  -7   6    0.26    0.14
   0  -7   6    0.21    0.21
  -1   7  -6    1.32    0.29
  -1   7  -6    1.39    0.22
  -1   7  -6    1.46    0.24
  -1   7  -6    0.88    0.22
   1  -7   6    1.42    0.25
   1  -7   6    1.42    0.18
   1  -7   6    1.16    0.24
  -2   7  -6   -0.09    0.16
  -2   7  -6    0.25    0.29
   2  -7   6    0.38    0.20
   2  -7   6    0.24    0.24
   2  -7   6    0.26    0.16
  -3   7  -6    0.18    0.32
  -3   7  -6    0.17    0.21
   3  -7   6    0.63    0.24
   3  -7   6   -0.26    0.26
   3  -7   6    0.41    0.16
   3   6  -6    4.83    0.32
  -3  -6   6    4.23    0.45
   2   6  -6    0.14    0.11
   2   6  -6    0.07    0.18
  -2  -6   6   -0.04    0.13
  -2  -6   6    0.11    0.17
  -2  -6   6    0.24    0.15
  -2  -6   6    0.64    0.24
   1   6  -6    6.41    0.29
   1   6  -6    6.07    0.37
   1   6  -6    5.51    0.36
  -1  -6   6    5.77    0.21
  -1  -6   6    5.58    0.38
  -1  -6   6    6.05    0.32
  -1  -6   6    6.19    0.34
   0   6  -6    0.20    0.17
   0   6  -6    0.51    0.19
   0   6  -6    0.02    0.19
   0  -6   6    0.15    0.16
   0  -6   6   -0.11    0.14
   0  -6   6    0.04    0.18
   0  -6   6   -0.12    0.18
  -1   6  -6    2.29    0.26
  -1   6  -6    2.25    0.22
  -1   6  -6    2.46    0.28
  -1   6  -6    2.37    0.28
   1  -6   6    1.78    0.24
   1  -6   6    2.25    0.21
   1  -6   6    2.46    0.32
   1  -6   6    2.26    0.32
  -2   6  -6    3.35    0.29
  -2   6  -6    3.07    0.43
   2  -6   6    3.17    0.34
   2  -6   6    2.65    0.35
   2  -6   6    3.05    0.27
   2  -6   6    3.21    0.31
  -3   6  -6    0.15    0.32
  -3   6  -6    0.50    0.22
   3  -6   6    0.33    0.14
   3  -6   6   -0.05    0.21
   3  -6   6    0.21    0.26
  -4   6  -6    0.96    0.31
  -4   6  -6    0.69    0.38
   4  -6   6    1.11    0.34
   4  -6   6    0.57    0.29
   4   5  -6   -0.10    0.18
   3   5  -6    0.30    0.20
  -3  -5   6    0.59    0.24
  -3  -5   6    0.34    0.20
   2   5  -6    0.32    0.13
   2   5  -6    0.16    0.17
   2   5  -6    0.50    0.17
  -2  -5   6    0.12    0.27
  -2  -5   6    0.49    0.17
  -2  -5   6    0.38    0.18
   1   5  -6    0.33    0.17
   1   5  -6    0.32    0.14
   1   5  -6    0.31    0.19
  -1  -5   6    0.31    0.15
  -1  -5   6    0.41    0.07
  -1  -5   6    0.15    0.15
  -1  -5   6    0.17    0.19
   0   5  -6    0.83    0.20
   0   5  -6    0.78    0.20
   0   5  -6    0.85    0.19
   0  -5   6    0.56    0.18
   0  -5   6    0.51    0.17
   0  -5   6    0.74    0.16
   0  -5   6    0.48    0.19
  -1   5  -6    0.04    0.20
  -1   5  -6    0.01    0.17
  -1   5  -6   -0.05    0.16
  -1   5  -6   -0.19    0.14
   1  -5   6    0.00    0.12
   1  -5   6    0.13    0.19
   1  -5   6    0.00    0.19
   1  -5   6    0.20    0.21
  -2   5  -6    0.67    0.15
  -2   5  -6    0.86    0.20
  -2   5  -6    0.95    0.27
   2  -5   6    0.60    0.17
   2  -5   6    0.36    0.18
   2  -5   6    0.28    0.22
   2  -5   6    0.57    0.20
   2  -5   6    0.31    0.23
  -3   5  -6    0.24    0.31
  -3   5  -6    0.14    0.23
   3  -5   6    0.13    0.25
   3  -5   6    0.18    0.12
   3  -5   6   -0.03    0.21
  -4   5  -6    0.27    0.34
  -4   5  -6   -0.16    0.28
   4  -5   6   -0.04    0.27
   4  -5   6    0.36    0.29
   4   4  -6    0.35    0.23
   3   4  -6    2.78    0.25
   3   4  -6    2.03    0.29
   3   4  -6    2.64    0.33
  -3  -4   6    2.26    0.29
  -3  -4   6    2.42    0.35
   2   4  -6   14.23    0.46
   2   4  -6   15.28    0.57
   2   4  -6   15.06    0.53
  -2  -4   6   14.89    0.51
  -2  -4   6   14.60    0.59
  -2  -4   6   15.22    0.51
   1   4  -6   -0.06    0.16
   1   4  -6    0.22    0.14
   1   4  -6    0.00    0.17
  -1  -4   6    0.16    0.14
  -1  -4   6    0.25    0.16
  -1  -4   6    0.18    0.20
   0   4  -6   10.10    0.41
   0   4  -6   10.90    0.44
   0   4  -6   10.42    0.42
   0   4  -6   10.12    0.42
   0  -4   6   10.82    0.43
   0  -4   6   10.46    0.38
   0  -4   6   10.70    0.49
   0  -4   6   10.12    0.41
  -1   4  -6    1.10    0.18
  -1   4  -6    1.10    0.20
  -1   4  -6    1.14    0.19
  -1   4  -6    0.95    0.22
   1  -4   6    0.91    0.22
   1  -4   6    1.31    0.21
   1  -4   6    1.11    0.14
   1  -4   6    1.11    0.20
   1  -4   6    0.85    0.15
  -2   4  -6    2.10    0.21
  -2   4  -6    2.11    0.26
  -2   4  -6    2.10    0.31
   2  -4   6    2.17    0.26
   2  -4   6    2.65    0.36
   2  -4   6    2.25    0.24
   2  -4   6    1.53    0.28
   2  -4   6    2.17    0.23
  -3   4  -6    1.08    0.33
  -3   4  -6    1.52    0.27
   3  -4   6    1.15    0.25
   3  -4   6    1.18    0.28
  -4   4  -6   -0.17    0.27
  -4   4  -6    0.27    0.32
   4  -4   6   -0.09    0.28
   4  -4   6   -0.28    0.21
   4   3  -6    0.13    0.24
   3   3  -6   -0.05    0.20
   3   3  -6    0.04    0.14
   3   3  -6    0.32    0.18
  -3  -3   6    0.10    0.22
  -3  -3   6    0.43    0.24
   2   3  -6    0.45    0.18
   2   3  -6    0.73    0.19
   2   3  -6    0.92    0.17
  -2  -3   6    0.63    0.20
  -2  -3   6    0.85    0.20
  -2  -3   6    0.84    0.18
   1   3  -6    1.62    0.22
   1   3  -6    2.20    0.26
   1   3  -6    1.72    0.24
  -1  -3   6    2.06    0.27
  -1  -3   6    1.71    0.25
  -1  -3   6    1.73    0.21
   0   3  -6    1.80    0.21
   0   3  -6    1.21    0.22
   0   3  -6    1.76    0.23
   0   3  -6    1.42    0.21
   0  -3   6    1.43    0.22
   0  -3   6    1.45    0.18
   0  -3   6    1.34    0.22
   0  -3   6    1.96    0.25
  -1   3  -6    1.94    0.22
  -1   3  -6    1.62    0.23
  -1   3  -6    1.95    0.22
  -1   3  -6    2.07    0.26
   1  -3   6    2.01    0.23
   1  -3   6    1.87    0.21
   1  -3   6    1.84    0.25
   1  -3   6    2.12    0.26
   1  -3   6    1.75    0.17
  -2   3  -6    0.10    0.16
  -2   3  -6    0.13    0.13
  -2   3  -6    0.14    0.23
   2  -3   6    0.15    0.22
   2  -3   6    0.09    0.15
   2  -3   6    0.54    0.19
   2  -3   6   -0.01    0.14
   2  -3   6   -0.25    0.17
  -3   3  -6    0.42    0.23
  -3   3  -6    0.28    0.28
   3  -3   6    0.01    0.22
   3  -3   6    0.04    0.21
   3  -3   6    0.13    0.24
  -4   3  -6    0.34    0.32
  -4   3  -6    0.25    0.27
   4  -3   6   -0.29    0.24
   4  -3   6   -0.33    0.24
   4   2  -6   -0.02    0.20
   4   2  -6   -0.09    0.26
   3   2  -6    0.64    0.20
   3   2  -6    0.91    0.22
   3   2  -6    0.78    0.18
   3   2  -6    0.99    0.27
  -3  -2   6    0.71    0.26
  -3  -2   6    1.12    0.24
   2   2  -6    2.91    0.22
   2   2  -6    2.86    0.32
   2   2  -6    3.69    0.31
   2   2  -6    3.25    0.27
  -2  -2   6    3.38    0.33
  -2  -2   6    2.76    0.29
  -2  -2   6    2.87    0.29
   1   2  -6   53.57    1.33
   1   2  -6   52.66    1.15
   1   2  -6   52.25    1.28
   1   2  -6   54.99    1.24
  -1  -2   6   55.01    1.27
  -1  -2   6   54.11    1.36
  -1  -2   6   55.21    1.26
  -1  -2   6   55.20    1.38
   0   2  -6    0.22    0.16
   0   2  -6    0.17    0.16
   0   2  -6    0.47    0.22
   0   2  -6    0.20    0.18
   0  -2   6    0.21    0.15
   0  -2   6    0.40    0.16
   0  -2   6    0.10    0.18
   0  -2   6    0.10    0.19
  -1   2  -6    5.10    0.32
  -1   2  -6    5.46    0.31
  -1   2  -6    4.93    0.30
  -1   2  -6    4.85    0.39
   1  -2   6    5.08    0.32
   1  -2   6    4.47    0.22
   1  -2   6    4.94    0.32
   1  -2   6    5.45    0.36
   1  -2   6    4.93    0.26
  -2   2  -6    1.68    0.26
  -2   2  -6    2.12    0.23
  -2   2  -6    2.02    0.30
   2  -2   6    2.26    0.26
   2  -2   6    2.12    0.25
   2  -2   6    1.97    0.23
   2  -2   6    1.93    0.25
   2  -2   6    1.95    0.29
  -3   2  -6    1.35    0.27
  -3   2  -6    1.86    0.35
   3  -2   6    0.78    0.23
   3  -2   6    1.30    0.26
   3  -2   6    0.89    0.30
  -4   2  -6    0.55    0.37
  -4   2  -6    0.56    0.28
   4  -2   6    0.53    0.28
   4   1  -6    0.42    0.23
   4   1  -6    0.19    0.26
   3   1  -6    0.01    0.19
   3   1  -6    0.10    0.19
   3   1  -6    0.10    0.16
   3   1  -6    0.44    0.22
  -3  -1   6    0.61    0.23
  -3  -1   6    0.38    0.27
   2   1  -6    0.10    0.15
   2   1  -6   -0.01    0.19
   2   1  -6   -0.18    0.11
   2   1  -6   -0.11    0.17
  -2  -1   6    0.34    0.17
  -2  -1   6    0.00    0.19
  -2  -1   6    0.09    0.20
   1   1  -6    4.03    0.33
   1   1  -6    3.69    0.27
   1   1  -6    3.81    0.30
  -1  -1   6    3.59    0.34
  -1  -1   6    3.78    0.28
  -1  -1   6    3.11    0.29
   0   1  -6    4.79    0.33
   0   1  -6    5.79    0.31
   0   1  -6    5.58    0.17
   0   1  -6    5.58    0.30
   0   1  -6    5.53    0.34
   0  -1   6    5.75    0.32
   0  -1   6    5.25    0.32
   0  -1   6    5.61    0.29
   0  -1   6    5.00    0.33
  -1   1  -6    1.01    0.18
  -1   1  -6    0.90    0.19
  -1   1  -6    0.79    0.21
  -1   1  -6    0.97    0.14
  -1   1  -6    0.47    0.17
   1  -1   6    0.96    0.18
   1  -1   6    0.77    0.19
   1  -1   6    1.00    0.17
   1  -1   6    0.56    0.20
  -2   1  -6    0.77    0.19
  -2   1  -6    0.69    0.22
  -2   1  -6    1.22    0.23
  -2   1  -6    0.70    0.22
   2  -1   6    0.77    0.23
   2  -1   6    1.02    0.22
   2  -1   6    0.90    0.20
   2  -1   6    1.24    0.18
  -3   1  -6    0.00    0.09
  -3   1  -6    0.31    0.30
  -3   1  -6    0.47    0.23
   3  -1   6    0.02    0.20
   3  -1   6    0.07    0.22
  -4   1  -6    0.79    0.32
   4  -1   6   -0.10    0.27
   4   0  -6    0.99    0.30
   4   0  -6    0.47    0.23
   3   0  -6    0.55    0.21
   3   0  -6    0.80    0.22
   3   0  -6    0.52    0.19
   3   0  -6    1.09    0.30
  -3   0   6    0.91    0.22
  -3   0   6    0.61    0.26
   2   0  -6    2.78    0.32
   2   0  -6    2.72    0.32
   2   0  -6    3.14    0.23
   2   0  -6    2.63    0.29
  -2   0   6    2.09    0.28
  -2   0   6    2.73    0.32
  -2   0   6    2.90    0.31
   1   0  -6    0.47    0.18
   1   0  -6    0.50    0.19
   1   0  -6    0.74    0.19
  -1   0   6    0.57    0.19
  -1   0   6    0.53    0.21
  -1   0   6    0.40    0.20
  -1   0   6    0.31    0.16
   0   0  -6   99.63    2.11
   0   0  -6   97.77    2.15
   0   0  -6   99.67    2.24
   0   0  -6   97.20    2.33
   0   0   6   99.26    2.25
   0   0   6   96.34    2.12
   0   0   6   99.76    2.12
   0   0   6  101.41    2.34
  -1   0  -6    1.41    0.19
  -1   0  -6    1.46    0.18
  -1   0  -6    1.26    0.18
  -1   0  -6    1.32    0.18
  -1   0  -6    1.22    0.23
   1   0   6    1.08    0.22
   1   0   6    1.17    0.21
   1   0   6    1.33    0.20
   1   0   6    1.28    0.20
  -2   0  -6    0.64    0.22
  -2   0  -6    0.61    0.20
  -2   0  -6    0.51    0.16
  -2   0  -6    0.75    0.17
  -2   0  -6    1.02    0.22
   2   0   6    0.94    0.24
   2   0   6    0.62    0.18
   2   0   6    0.81    0.21
  -3   0  -6    1.65    0.28
  -3   0  -6    1.62    0.30
  -3   0  -6    1.46    0.19
   3   0   6    1.37    0.24
   3   0   6    1.57    0.27
  -4   0  -6    0.54    0.29
   4   0   6    0.43    0.26
   4  -1  -6   -0.19    0.24
   4  -1  -6   -0.20    0.31
  -4   1   6   -0.24    0.28
   3  -1  -6    0.45    0.20
   3  -1  -6    1.04    0.27
   3  -1  -6    0.49    0.21
   3  -1  -6    0.17    0.19
  -3   1   6    0.74    0.23
  -3   1   6    0.31    0.25
   2  -1  -6    1.09    0.24
   2  -1  -6    0.82    0.22
   2  -1  -6    0.44    0.18
  -2   1   6    0.82    0.21
  -2   1   6    0.71    0.23
  -2   1   6    0.61    0.20
   1  -1  -6    0.22    0.16
   1  -1  -6    0.40    0.19
   1  -1  -6    0.17    0.16
  -1   1   6    0.29    0.18
  -1   1   6    0.30    0.19
  -1   1   6    0.20    0.16
  -1   1   6    0.58    0.18
   0  -1  -6    6.18    0.35
   0  -1  -6    5.45    0.35
   0  -1  -6    6.24    0.30
   0   1   6    5.66    0.31
   0   1   6    5.14    0.34
   0   1   6    5.11    0.34
  -1  -1  -6    2.52    0.21
  -1  -1  -6    2.59    0.27
  -1  -1  -6    2.32    0.23
  -1  -1  -6    2.59    0.26
  -1  -1  -6    2.46    0.28
   1   1   6    3.10    0.25
   1   1   6    3.09    0.26
   1   1   6    2.83    0.29
   1   1   6    2.75    0.24
  -2  -1  -6    0.08    0.18
  -2  -1  -6    0.05    0.14
  -2  -1  -6    0.18    0.18
  -2  -1  -6    0.46    0.18
  -2  -1  -6    0.05    0.14
   2   1   6    0.17    0.17
   2   1   6    0.30    0.18
  -3  -1  -6    0.72    0.14
  -3  -1  -6    0.22    0.27
  -3  -1  -6    0.35    0.23
   3   1   6    0.15    0.23
   3   1   6    0.38    0.21
  -4  -1  -6   -0.22    0.28
   4   1   6    0.01    0.25
   4  -2  -6    1.08    0.27
   4  -2  -6    0.16    0.33
  -4   2   6    0.89    0.34
   3  -2  -6    1.34    0.24
   3  -2  -6    1.40    0.24
   3  -2  -6    1.19    0.26
   3  -2  -6    1.18    0.31
  -3   2   6    1.74    0.33
   2  -2  -6    0.49    0.22
   2  -2  -6    0.76    0.20
   2  -2  -6    0.90    0.22
  -2   2   6    0.54    0.19
  -2   2   6    0.64    0.22
  -2   2   6    0.71    0.21
   1  -2  -6    9.36    0.42
   1  -2  -6   10.59    0.48
   1  -2  -6   10.17    0.46
  -1   2   6   10.43    0.41
  -1   2   6    9.89    0.46
  -1   2   6   10.25    0.44
  -1   2   6    9.78    0.44
   0  -2  -6    0.71    0.16
   0  -2  -6    0.75    0.20
   0  -2  -6    0.36    0.17
   0  -2  -6    0.83    0.20
   0   2   6    0.54    0.19
   0   2   6    0.74    0.19
   0   2   6    0.70    0.20
   0   2   6    0.55    0.15
  -1  -2  -6   47.55    1.14
  -1  -2  -6   47.91    1.24
  -1  -2  -6   48.65    1.13
  -1  -2  -6   49.11    1.22
   1   2   6   49.45    1.25
   1   2   6   48.90    1.15
   1   2   6   48.11    1.15
  -2  -2  -6    2.92    0.29
  -2  -2  -6    3.45    0.31
  -2  -2  -6    2.93    0.25
  -2  -2  -6    2.71    0.26
  -2  -2  -6    2.65    0.25
   2   2   6    2.85    0.32
   2   2   6    2.94    0.28
  -3  -2  -6    0.03    0.22
  -3  -2  -6    0.40    0.15
  -3  -2  -6    0.19    0.23
   3   2   6    0.01    0.22
   3   2   6   -0.07    0.21
  -4  -2  -6    0.87    0.33
   4   2   6    0.19    0.25
   4  -3  -6    0.07    0.25
   4  -3  -6   -0.53    0.33
  -4   3   6   -0.46    0.29
   3  -3  -6   -0.24    0.25
   3  -3  -6    0.07    0.19
   3  -3  -6   -0.17    0.21
  -3   3   6    0.52    0.31
   2  -3  -6    0.44    0.19
   2  -3  -6    0.63    0.23
   2  -3  -6    0.59    0.21
  -2   3   6    0.45    0.23
  -2   3   6    0.16    0.20
   1  -3  -6    1.53    0.23
   1  -3  -6    1.92    0.24
   1  -3  -6    1.46    0.24
  -1   3   6    1.61    0.23
  -1   3   6    1.51    0.26
  -1   3   6    2.08    0.27
   0  -3  -6    1.95    0.27
   0  -3  -6    1.96    0.23
   0  -3  -6    1.74    0.25
   0  -3  -6    1.50    0.18
   0   3   6    1.75    0.24
   0   3   6    1.26    0.19
  -1  -3  -6    1.57    0.21
  -1  -3  -6    1.31    0.17
  -1  -3  -6    1.41    0.21
  -1  -3  -6    1.12    0.19
   1   3   6    1.30    0.19
   1   3   6    1.17    0.20
   1   3   6    1.37    0.20
  -2  -3  -6    0.84    0.18
  -2  -3  -6    0.44    0.20
  -2  -3  -6    0.98    0.22
   2   3   6    0.54    0.17
   2   3   6    0.53    0.21
  -3  -3  -6    0.01    0.14
  -3  -3  -6    0.07    0.25
  -3  -3  -6    0.31    0.25
   3   3   6    0.02    0.18
  -4  -3  -6    0.41    0.31
   4   3   6    0.08    0.22
   4  -4  -6    0.30    0.26
   4  -4  -6    0.45    0.31
  -4   4   6   -0.31    0.37
   3  -4  -6    2.70    0.37
   3  -4  -6    2.96    0.32
  -3   4   6    2.97    0.40
   2  -4  -6    1.92    0.27
   2  -4  -6    2.42    0.36
   2  -4  -6    2.48    0.29
  -2   4   6    2.94    0.34
   1  -4  -6    0.06    0.18
   1  -4  -6    0.15    0.16
   1  -4  -6    0.37    0.18
  -1   4   6    0.36    0.15
  -1   4   6    0.21    0.19
  -1   4   6    0.07    0.19
   0  -4  -6   10.68    0.40
   0  -4  -6   10.08    0.40
   0  -4  -6   10.58    0.49
   0  -4  -6   10.37    0.44
   0   4   6   10.20    0.37
   0   4   6   10.61    0.45
   0   4   6   10.38    0.45
  -1  -4  -6    0.19    0.16
  -1  -4  -6    0.78    0.18
  -1  -4  -6    0.52    0.19
  -1  -4  -6    0.41    0.16
   1   4   6    0.23    0.17
   1   4   6    0.13    0.17
   1   4   6    0.72    0.16
  -2  -4  -6   14.58    0.55
  -2  -4  -6   14.16    0.54
  -2  -4  -6   14.24    0.49
   2   4   6   13.88    0.49
   2   4   6   13.59    0.50
  -3  -4  -6    1.86    0.26
  -3  -4  -6    2.23    0.32
  -3  -4  -6    1.71    0.27
   3   4   6    1.59    0.24
  -4  -4  -6   -0.35    0.30
   4   4   6    0.18    0.21
   4  -5  -6    0.46    0.23
   4  -5  -6   -0.09    0.33
  -4   5   6   -0.07    0.34
   3  -5  -6    0.31    0.31
   3  -5  -6    0.60    0.21
  -3   5   6    0.41    0.36
   2  -5  -6    0.42    0.22
   2  -5  -6    0.31    0.20
   2  -5  -6    0.36    0.25
  -2   5   6    0.63    0.27
  -2   5   6    0.88    0.19
   1  -5  -6   -0.09    0.16
   1  -5  -6   -0.02    0.20
   1  -5  -6    0.07    0.20
  -1   5   6   -0.07    0.19
  -1   5   6    0.18    0.22
  -1   5   6    0.01    0.14
   0  -5  -6    0.64    0.22
   0  -5  -6    0.29    0.14
   0  -5  -6    0.65    0.22
   0  -5  -6    0.84    0.17
   0   5   6    0.86    0.20
   0   5   6    0.59    0.19
   0   5   6    0.73    0.14
  -1  -5  -6    0.36    0.21
  -1  -5  -6    0.90    0.19
  -1  -5  -6    0.71    0.15
  -1  -5  -6    1.90    0.26
   1   5   6    0.47    0.17
   1   5   6    0.68    0.19
   1   5   6    1.56    0.23
  -2  -5  -6    0.02    0.16
  -2  -5  -6    0.17    0.18
  -2  -5  -6    0.52    0.23
   2   5   6    0.15    0.16
   2   5   6    0.02    0.14
  -3  -5  -6    0.40    0.27
   3   5   6    0.09    0.19
   4  -6  -6    1.75    0.40
  -4   6   6    1.89    0.42
   3  -6  -6    0.48    0.32
   3  -6  -6    0.42    0.19
  -3   6   6    0.26    0.33
   2  -6  -6    4.70    0.36
   2  -6  -6    4.44    0.44
  -2   6   6    3.48    0.44
  -2   6   6    4.01    0.29
   1  -6  -6    1.36    0.23
   1  -6  -6    1.89    0.29
   1  -6  -6    1.34    0.23
  -1   6   6    1.38    0.21
  -1   6   6    1.17    0.26
  -1   6   6    1.96    0.30
   0  -6  -6    0.20    0.15
   0  -6  -6   -0.04    0.19
   0  -6  -6    0.18    0.15
   0  -6  -6    0.15    0.18
   0   6   6    0.60    0.13
   0   6   6    0.13    0.19
   0   6   6    0.13    0.18
  -1  -6  -6    3.54    0.32
  -1  -6  -6    3.48    0.30
  -1  -6  -6    3.74    0.25
   1   6   6    3.54    0.33
   1   6   6    3.23    0.26
   1   6   6    3.76    0.29
  -2  -6  -6    0.17    0.22
  -2  -6  -6   -0.03    0.17
  -2  -6  -6   -0.24    0.16
   2   6   6   -0.03    0.20
   2   6   6   -0.04    0.15
  -3  -6  -6    4.71    0.42
   3   6   6    4.50    0.32
   4  -7  -6    1.17    0.38
  -4   7   6    1.10    0.40
   3  -7  -6    0.31    0.33
  -3   7   6    0.47    0.33
   2  -7  -6    0.50    0.28
  -2   7   6    0.78    0.33
  -2   7   6    0.77    0.19
   1  -7  -6    1.32    0.28
   1  -7  -6    1.57    0.29
  -1   7   6    1.50    0.18
  -1   7   6    1.18    0.28
  -1   7   6    1.65    0.27
   0  -7  -6    0.44    0.16
   0  -7  -6    0.56    0.15
   0  -7  -6    0.92    0.26
   0   7   6    0.93    0.21
   0   7   6    0.54    0.23
   0   7   6    0.65    0.15
  -1  -7  -6   -0.11    0.18
  -1  -7  -6   -0.08    0.16
  -1  -7  -6    0.14    0.13
   1   7   6    0.07    0.14
   1   7   6    0.17    0.15
   1   7   6    0.12    0.17
  -2  -7  -6    0.84    0.25
  -2  -7  -6    0.51    0.17
   2   7   6    0.23    0.17
   2   7   6    0.23    0.15
  -3  -7  -6    0.10    0.27
   3   7   6    0.00    0.16
   3  -8  -6    4.29    0.57
  -3   8   6    4.73    0.59
   2  -8  -6    0.81    0.31
  -2   8   6    0.42    0.16
  -2   8   6    0.74    0.33
   1  -8  -6    3.77    0.43
  -1   8   6    3.22    0.20
  -1   8   6    3.34    0.39
  -1   8   6    3.82    0.41
   0  -8  -6    0.17    0.20
   0  -8  -6    0.41    0.15
   0   8   6    0.30    0.20
   0   8   6    0.42    0.22
   0   8   6    0.13    0.13
  -1  -8  -6    0.26    0.18
  -1  -8  -6   -0.08    0.18
   1   8   6   -0.08    0.18
   1   8   6    0.04    0.18
   1   8   6    0.23    0.18
  -2  -8  -6    0.92    0.24
  -2  -8  -6    0.80    0.18
   2   8   6    1.04    0.20
  -3  -8  -6    0.12    0.26
   3   8   6    0.15    0.14
   3  -9  -6    0.91    0.36
  -3   9   6    1.11    0.38
   2  -9  -6    0.74    0.32
  -2   9   6    0.69    0.16
  -2   9   6    0.97    0.35
   1  -9  -6   -0.02    0.24
  -1   9   6    0.27    0.11
  -1   9   6    0.59    0.24
  -1   9   6    0.51    0.27
   0  -9  -6    1.44    0.22
   0  -9  -6    2.02    0.30
   0   9   6    1.65    0.26
   0   9   6    1.91    0.20
   0   9   6    1.95    0.31
  -1  -9  -6    0.79    0.20
  -1  -9  -6    0.98    0.20
   1   9   6    0.70    0.19
   1   9   6    0.79    0.22
   1   9   6    0.60    0.17
  -2  -9  -6   -0.14    0.22
   2   9   6    0.06    0.18
  -3  -9  -6    0.43    0.31
   3 -10  -6    0.62    0.34
  -3  10   6    0.27    0.42
   2 -10  -6    7.31    0.58
  -2  10   6    6.86    0.59
   1 -10  -6   -0.01    0.26
  -1  10   6   -0.14    0.28
  -1  10   6   -0.01    0.10
  -1  10   6   -0.08    0.22
   0 -10  -6    1.40    0.29
   0 -10  -6    1.15    0.19
   0  10   6    1.11    0.16
   0  10   6    1.82    0.30
   0  10   6    1.35    0.24
  -1 -10  -6   -0.01    0.18
  -1 -10  -6   -0.14    0.18
   1  10   6    0.04    0.21
   1  10   6   -0.06    0.16
   1  10   6    0.08    0.16
  -2 -10  -6   -0.03    0.20
   2  10   6    0.17    0.17
   3 -11  -6    1.28    0.41
  -3  11   6    0.30    0.38
   2 -11  -6    0.96    0.35
  -2  11   6    1.12    0.38
   1 -11  -6    1.41    0.33
  -1  11   6    1.39    0.38
  -1  11   6    0.79    0.29
   0 -11  -6    0.02    0.23
   0 -11  -6    0.18    0.15
   0  11   6    0.00    0.20
   0  11   6    0.20    0.13
   0  11   6    0.10    0.24
  -1 -11  -6    1.40    0.23
   1  11   6    1.65    0.29
  -2 -11  -6    0.54    0.23
   2  11   6    0.36    0.17
   2 -12  -6    0.44    0.32
  -2  12   6   -0.01    0.32
   1 -12  -6    6.51    0.58
  -1  12   6    7.11    0.56
   0 -12  -6    0.38    0.15
   0 -12  -6    0.17    0.26
   0  12   6   -0.06    0.28
  -1 -12  -6    0.37    0.20
   1  12   6    0.74    0.25
  -2 -12  -6    0.03    0.22
   2 -13  -6    1.32    0.39
  -2  13   6    0.96    0.45
   1 -13  -6    1.15    0.34
  -1  13   6    1.11    0.38
   0  13   6    0.56    0.32
   1  13   6    0.09    0.22
  -1  14   6   -0.26    0.29
   0  14   6    3.66    0.46
   1  14   6   -0.08    0.24
   0 -15   7   -0.10    0.33
  -1 -14   7    0.78    0.40
   0  14  -7    0.13    0.29
   0 -14   7   -0.48    0.35
  -1  14  -7   -0.11    0.34
   1 -14   7   -0.12    0.29
  -2 -13   7    0.69    0.36
   1  13  -7   -0.32    0.20
  -1 -13   7    0.30    0.32
   0  13  -7    1.13    0.32
   0 -13   7    1.59    0.39
  -1  13  -7    0.56    0.30
   1 -13   7    0.00    0.31
   1 -13   7    0.67    0.27
  -2  13  -7    1.81    0.37
   2 -13   7    1.43    0.33
   2 -13   7    0.78    0.33
  -2 -12   7    0.34    0.34
   1  12  -7   -0.07    0.20
  -1 -12   7    0.80    0.33
   0  12  -7    1.95    0.30
   0 -12   7    2.29    0.31
   0 -12   7    1.73    0.39
  -1  12  -7    0.03    0.30
   1 -12   7   -0.31    0.23
   1 -12   7    0.25    0.32
  -2  12  -7    0.51    0.32
   2 -12   7   -0.01    0.28
   2 -12   7    0.27    0.27
   2  11  -7    0.14    0.14
  -2 -11   7   -0.12    0.29
   1  11  -7    1.24    0.23
  -1 -11   7    1.08    0.32
   0  11  -7   -0.10    0.18
   0  11  -7   -0.22    0.26
   0 -11   7   -0.44    0.23
   0 -11   7   -0.51    0.25
   0 -11   7    0.08    0.15
  -1  11  -7    1.12    0.35
  -1  11  -7    1.01    0.26
   1 -11   7    0.95    0.33
   1 -11   7    0.80    0.26
  -2  11  -7    0.78    0.33
   2 -11   7    0.49    0.30
   2 -11   7    0.43    0.30
  -3 -10   7    0.04    0.33
   2  10  -7    0.18    0.19
  -2 -10   7   -0.10    0.27
   1  10  -7    0.57    0.22
   1  10  -7    0.29    0.17
  -1 -10   7    0.57    0.19
  -1 -10   7    0.66    0.30
  -1 -10   7    0.53    0.21
   0  10  -7    0.01    0.25
   0  10  -7   -0.12    0.19
   0 -10   7    0.00    0.20
   0 -10   7   -0.20    0.14
   0 -10   7   -0.13    0.28
  -1  10  -7    1.73    0.35
  -1  10  -7    1.67    0.28
   1 -10   7    2.49    0.35
   1 -10   7    2.31    0.22
   1 -10   7    1.98    0.31
  -2  10  -7    0.02    0.18
  -2  10  -7   -0.16    0.29
   2 -10   7    0.69    0.29
   2 -10   7    0.21    0.24
  -3  10  -7   -0.38    0.32
   3 -10   7    0.08    0.30
   3 -10   7   -0.61    0.22
  -3  -9   7    0.17    0.32
   2   9  -7    2.87    0.28
  -2  -9   7    3.35    0.47
  -2  -9   7    2.06    0.21
   1   9  -7    0.27    0.17
  -1  -9   7    0.43    0.28
  -1  -9   7    0.43    0.19
  -1  -9   7    0.37    0.20
   0   9  -7    1.86    0.30
   0   9  -7    1.74    0.26
   0  -9   7    1.93    0.26
   0  -9   7    2.01    0.32
   0  -9   7    1.92    0.24
  -1   9  -7   -0.20    0.23
  -1   9  -7   -0.07    0.21
  -1   9  -7   -0.11    0.18
   1  -9   7    0.14    0.15
   1  -9   7   -0.54    0.21
   1  -9   7   -0.13    0.25
  -2   9  -7    0.26    0.31
  -2   9  -7    0.45    0.20
   2  -9   7    0.47    0.28
   2  -9   7    0.62    0.29
   2  -9   7    0.55    0.19
  -3   9  -7    0.20    0.22
  -3   9  -7    0.43    0.40
   3  -9   7    0.62    0.25
   3  -9   7    0.11    0.30
   3   8  -7    0.60    0.15
  -3  -8   7    0.17    0.30
   2   8  -7    0.66    0.20
   2   8  -7    0.08    0.06
  -2  -8   7    0.38    0.18
  -2  -8   7    0.70    0.28
  -2  -8   7    0.36    0.15
   1   8  -7    0.18    0.17
  -1  -8   7    0.21    0.25
  -1  -8   7    0.32    0.18
  -1  -8   7    0.18    0.18
   0   8  -7    1.20    0.23
   0   8  -7    0.87    0.25
   0  -8   7    0.85    0.29
   0  -8   7    1.33    0.26
   0  -8   7    1.04    0.17
  -1   8  -7    0.40    0.21
  -1   8  -7    0.11    0.18
  -1   8  -7    0.18    0.24
   1  -8   7   -0.19    0.21
   1  -8   7   -0.02    0.13
   1  -8   7    0.20    0.21
  -2   8  -7    0.94    0.31
  -2   8  -7    1.41    0.24
   2  -8   7    1.20    0.28
   2  -8   7    1.50    0.24
   2  -8   7    1.23    0.30
   2  -8   7    1.08    0.20
  -3   8  -7    0.70    0.24
  -3   8  -7    0.39    0.36
   3  -8   7   -0.06    0.28
   3  -8   7    0.66    0.24
   3   7  -7    2.07    0.28
  -3  -7   7    1.78    0.35
   2   7  -7    0.33    0.20
   2   7  -7    0.54    0.14
  -2  -7   7    0.42    0.31
  -2  -7   7    0.73    0.19
  -2  -7   7    0.08    0.14
   1   7  -7    5.44    0.33
  -1  -7   7    4.70    0.20
  -1  -7   7    4.23    0.40
  -1  -7   7    5.04    0.33
  -1  -7   7    4.77    0.32
   0   7  -7    0.34    0.21
   0   7  -7    0.71    0.18
   0  -7   7    0.66    0.23
   0  -7   7    0.62    0.26
   0  -7   7    0.38    0.16
  -1   7  -7    1.28    0.25
  -1   7  -7    1.70    0.24
  -1   7  -7    1.31    0.28
  -1   7  -7    1.44    0.24
   1  -7   7    1.53    0.30
   1  -7   7    1.34    0.26
   1  -7   7    1.54    0.20
  -2   7  -7    0.28    0.20
  -2   7  -7    0.22    0.27
   2  -7   7    0.29    0.25
   2  -7   7    0.13    0.19
   2  -7   7    0.00    0.16
   2  -7   7   -0.21    0.20
  -3   7  -7    0.37    0.24
  -3   7  -7    0.70    0.33
   3  -7   7    0.96    0.31
   3  -7   7    0.33    0.23
   3   6  -7    0.48    0.20
  -3  -6   7    0.93    0.30
   2   6  -7    1.78    0.26
   2   6  -7    2.04    0.21
  -2  -6   7    2.19    0.33
  -2  -6   7    1.78    0.23
   1   6  -7    1.72    0.25
   1   6  -7    1.28    0.19
  -1  -6   7    1.36    0.12
  -1  -6   7    1.60    0.22
  -1  -6   7    2.36    0.34
  -1  -6   7    1.99    0.27
  -1  -6   7    1.57    0.23
   0   6  -7    0.58    0.17
   0   6  -7   -0.12    0.17
   0   6  -7    0.14    0.21
   0  -6   7    0.49    0.19
   0  -6   7    0.26    0.17
   0  -6   7    0.54    0.16
   0  -6   7    0.48    0.21
  -1   6  -7    1.25    0.23
  -1   6  -7    1.57    0.21
  -1   6  -7    1.10    0.25
  -1   6  -7    1.11    0.22
   1  -6   7    0.96    0.23
   1  -6   7    1.32    0.21
   1  -6   7    1.01    0.22
  -2   6  -7   -0.10    0.14
  -2   6  -7   -0.19    0.26
  -2   6  -7    0.19    0.20
   2  -6   7    0.02    0.21
   2  -6   7    0.22    0.19
   2  -6   7   -0.03    0.24
   2  -6   7    0.15    0.17
  -3   6  -7    0.94    0.26
  -3   6  -7    0.90    0.34
   3  -6   7    0.24    0.28
   3  -6   7    0.50    0.22
   4   5  -7    0.55    0.23
   3   5  -7    2.86    0.34
  -3  -5   7    2.42    0.35
   2   5  -7    4.98    0.39
   2   5  -7    5.18    0.31
  -2  -5   7    5.64    0.46
  -2  -5   7    5.34    0.36
   1   5  -7    0.48    0.15
   1   5  -7    0.88    0.25
   1   5  -7    0.79    0.22
  -1  -5   7    0.44    0.23
  -1  -5   7    0.71    0.18
  -1  -5   7    0.66    0.20
  -1  -5   7    0.65    0.18
   0   5  -7    6.63    0.34
   0   5  -7    7.01    0.38
   0   5  -7    5.96    0.40
   0  -5   7    6.78    0.38
   0  -5   7    6.78    0.37
   0  -5   7    7.05    0.44
   0  -5   7    7.20    0.34
  -1   5  -7    0.90    0.22
  -1   5  -7    0.70    0.21
  -1   5  -7    0.81    0.18
  -1   5  -7    0.78    0.22
   1  -5   7    0.80    0.23
   1  -5   7    0.61    0.22
   1  -5   7    0.87    0.22
   1  -5   7    0.96    0.17
   1  -5   7    0.61    0.13
  -2   5  -7    1.04    0.18
  -2   5  -7    0.77    0.29
  -2   5  -7    0.82    0.23
   2  -5   7    0.79    0.21
   2  -5   7    0.69    0.18
   2  -5   7    0.70    0.20
   2  -5   7    0.94    0.26
  -3   5  -7    0.10    0.30
  -3   5  -7    0.08    0.22
   3  -5   7    0.06    0.26
   3  -5   7    0.11    0.14
   3  -5   7   -0.04    0.21
  -4   5  -7    0.79    0.39
   4   4  -7    0.06    0.23
   3   4  -7    2.45    0.29
  -3  -4   7    2.28    0.30
  -3  -4   7    2.54    0.35
   2   4  -7    0.69    0.23
   2   4  -7    1.11    0.25
   2   4  -7    0.70    0.17
  -2  -4   7    1.06    0.21
  -2  -4   7    0.57    0.25
   1   4  -7    8.94    0.44
   1   4  -7    8.84    0.42
   1   4  -7    8.84    0.37
  -1  -4   7    8.54    0.46
  -1  -4   7    8.78    0.41
  -1  -4   7    8.89    0.39
  -1  -4   7    8.96    0.39
   0   4  -7    4.01    0.29
   0   4  -7    3.88    0.29
   0   4  -7    4.26    0.33
   0   4  -7    4.21    0.35
   0  -4   7    4.15    0.34
   0  -4   7    4.05    0.32
   0  -4   7    3.30    0.30
   0  -4   7    3.97    0.28
  -1   4  -7    0.70    0.19
  -1   4  -7    0.52    0.21
  -1   4  -7    0.77    0.21
  -1   4  -7    0.42    0.16
   1  -4   7    0.75    0.13
   1  -4   7    0.68    0.17
   1  -4   7    0.51    0.22
   1  -4   7    0.66    0.20
   1  -4   7    0.84    0.24
  -2   4  -7    0.35    0.27
  -2   4  -7    0.35    0.21
  -2   4  -7    0.29    0.15
   2  -4   7    0.77    0.26
   2  -4   7    0.58    0.18
   2  -4   7    0.54    0.18
   2  -4   7   -0.20    0.21
  -3   4  -7    0.16    0.30
  -3   4  -7    0.55    0.27
   3  -4   7    0.72    0.24
   3  -4   7    0.32    0.26
  -4   4  -7    0.42    0.40
  -4   4  -7    0.37    0.30
   4  -4   7    0.30    0.27
   4  -4   7    0.31    0.29
   4   3  -7    0.20    0.26
   3   3  -7    0.15    0.26
   3   3  -7    0.31    0.18
  -3  -3   7    0.41    0.26
  -3  -3   7    0.07    0.20
   2   3  -7    9.75    0.49
   2   3  -7    9.47    0.40
   2   3  -7    9.03    0.48
  -2  -3   7    9.26    0.48
  -2  -3   7    9.79    0.46
   1   3  -7   14.57    0.55
   1   3  -7   15.11    0.49
   1   3  -7   14.72    0.55
  -1  -3   7   14.98    0.52
  -1  -3   7   13.98    0.57
  -1  -3   7   14.22    0.50
  -1  -3   7   15.40    0.52
   0   3  -7    1.82    0.23
   0   3  -7    1.76    0.23
   0   3  -7    2.05    0.27
   0   3  -7    1.92    0.23
   0  -3   7    1.62    0.22
   0  -3   7    2.31    0.29
   0  -3   7    1.77    0.22
   0  -3   7    1.70    0.22
  -1   3  -7    4.69    0.33
  -1   3  -7    4.82    0.29
  -1   3  -7    5.01    0.38
  -1   3  -7    4.57    0.33
   1  -3   7    4.76    0.33
   1  -3   7    4.02    0.34
   1  -3   7    4.58    0.27
   1  -3   7    4.71    0.33
   1  -3   7    4.50    0.22
  -2   3  -7    0.65    0.17
  -2   3  -7    0.81    0.26
  -2   3  -7    0.95    0.22
   2  -3   7    1.21    0.23
   2  -3   7    0.75    0.17
   2  -3   7    1.04    0.20
   2  -3   7    0.68    0.24
  -3   3  -7    0.08    0.25
  -3   3  -7    0.34    0.30
   3  -3   7    0.61    0.26
   3  -3   7    0.09    0.21
  -4   3  -7   -0.25    0.33
  -4   3  -7    0.09    0.27
   4  -3   7   -0.17    0.26
   4  -3   7    0.09    0.24
   4   2  -7    0.20    0.29
   4   2  -7    0.14    0.20
   3   2  -7    1.16    0.22
   3   2  -7    0.46    0.28
   3   2  -7    0.87    0.18
   3   2  -7    0.38    0.24
  -3  -2   7    0.92    0.28
  -3  -2   7    0.73    0.26
   2   2  -7    7.76    0.38
   2   2  -7    7.82    0.30
   2   2  -7    7.40    0.43
   2   2  -7    7.22    0.45
  -2  -2   7    7.72    0.41
  -2  -2   7    8.32    0.44
   1   2  -7    0.05    0.18
   1   2  -7    0.31    0.21
   1   2  -7    0.32    0.15
  -1  -2   7    0.17    0.21
  -1  -2   7    0.24    0.18
  -1  -2   7    0.03    0.17
  -1  -2   7    0.29    0.19
   0   2  -7   26.17    0.75
   0   2  -7   26.93    0.79
   0   2  -7   23.86    0.73
   0   2  -7   27.13    0.73
   0  -2   7   26.35    0.79
   0  -2   7   27.46    0.75
   0  -2   7   26.58    0.74
   0  -2   7   25.64    0.75
  -1   2  -7    4.48    0.30
  -1   2  -7    3.67    0.36
  -1   2  -7    4.44    0.30
  -1   2  -7    4.10    0.32
   1  -2   7    4.53    0.35
   1  -2   7    3.73    0.31
   1  -2   7    4.44    0.26
   1  -2   7    4.23    0.31
  -2   2  -7    0.39    0.15
  -2   2  -7    0.38    0.20
  -2   2  -7    0.63    0.27
   2  -2   7    0.63    0.23
   2  -2   7    0.36    0.17
   2  -2   7    0.61    0.23
   2  -2   7    0.38    0.17
  -3   2  -7    0.21    0.27
  -3   2  -7    0.48    0.26
   3  -2   7    0.28    0.23
   3  -2   7    0.06    0.25
   3  -2   7    0.09    0.20
  -4   2  -7   -0.14    0.28
   4  -2   7    0.71    0.31
   4   1  -7    0.06    0.21
   4   1  -7    0.26    0.29
   3   1  -7    0.24    0.19
   3   1  -7    0.40    0.28
   3   1  -7    0.39    0.17
   3   1  -7    0.25    0.20
  -3  -1   7    0.68    0.27
  -3  -1   7    0.54    0.22
   2   1  -7    0.33    0.13
   2   1  -7    0.58    0.23
   2   1  -7    0.39    0.16
   2   1  -7    0.18    0.21
  -2  -1   7    0.42    0.19
  -2  -1   7    0.37    0.19
   1   1  -7   18.52    0.65
   1   1  -7   20.35    0.61
   1   1  -7   20.76    0.67
  -1  -1   7   20.47    0.62
  -1  -1   7   19.53    0.66
  -1  -1   7   19.87    0.63
  -1  -1   7   19.83    0.61
   0   1  -7   25.13    0.56
   0   1  -7   24.87    0.69
   0   1  -7   25.64    0.75
   0   1  -7   24.49    0.72
   0  -1   7   24.83    0.76
   0  -1   7   24.89    0.72
   0  -1   7   25.40    0.72
   0  -1   7   25.08    0.72
  -1   1  -7    2.40    0.26
  -1   1  -7    2.52    0.21
  -1   1  -7    2.85    0.27
  -1   1  -7    2.70    0.29
  -1   1  -7    2.62    0.33
   1  -1   7    2.53    0.30
   1  -1   7    2.78    0.25
   1  -1   7    2.66    0.28
   1  -1   7    2.09    0.28
  -2   1  -7    1.34    0.27
  -2   1  -7    1.31    0.21
  -2   1  -7    1.13    0.23
   2  -1   7    1.29    0.26
   2  -1   7    0.92    0.21
   2  -1   7    1.54    0.20
  -3   1  -7    0.25    0.26
  -3   1  -7    0.52    0.14
  -3   1  -7    0.93    0.28
   3  -1   7    0.61    0.25
   3  -1   7   -0.24    0.21
  -4   1  -7    0.39    0.30
   4  -1   7    0.18    0.28
   4   0  -7    0.29    0.21
   4   0  -7   -0.48    0.28
   3   0  -7   -0.07    0.20
   3   0  -7    0.10    0.19
   3   0  -7    0.02    0.21
   3   0  -7   -0.49    0.21
  -3   0   7    0.46    0.23
  -3   0   7   -0.04    0.23
   2   0  -7    2.82    0.33
   2   0  -7    3.40    0.36
   2   0  -7    3.17    0.30
  -2   0   7    3.10    0.36
  -2   0   7    2.99    0.37
   1   0  -7   18.82    0.65
   1   0  -7   20.36    0.61
   1   0  -7   18.95    0.64
  -1   0   7   18.74    0.64
  -1   0   7   18.35    0.65
  -1   0   7   19.02    0.62
  -1   0   7   19.61    0.61
   0   0  -7    0.47    0.19
   0   0  -7    1.15    0.22
   0   0  -7    0.57    0.17
   0   0   7    0.40    0.20
   0   0   7    0.75    0.21
   0   0   7    0.75    0.20
  -1   0  -7   20.42    0.64
  -1   0  -7   19.99    0.54
  -1   0  -7   18.97    0.64
  -1   0  -7   19.94    0.63
  -1   0  -7   20.32    0.62
   1   0   7   21.59    0.64
   1   0   7   20.84    0.65
   1   0   7   20.36    0.63
   1   0   7   20.68    0.67
  -2   0  -7    0.99    0.20
  -2   0  -7    1.00    0.18
  -2   0  -7    0.72    0.24
  -2   0  -7    1.23    0.23
   2   0   7    1.01    0.23
   2   0   7    1.29    0.24
  -3   0  -7    0.33    0.27
  -3   0  -7    0.48    0.30
  -3   0  -7    0.28    0.15
   3   0   7    0.77    0.26
   3   0   7    0.34    0.24
  -4   0  -7   -0.33    0.27
   4   0   7    0.19    0.23
   4  -1  -7    0.07    0.21
   4  -1  -7   -0.15    0.26
   3  -1  -7    0.01    0.19
   3  -1  -7    0.47    0.20
   3  -1  -7    0.23    0.18
   3  -1  -7    0.18    0.26
  -3   1   7    0.44    0.27
  -3   1   7    0.27    0.24
   2  -1  -7    2.16    0.27
   2  -1  -7    2.15    0.28
   2  -1  -7    2.05    0.32
  -2   1   7    2.30    0.30
  -2   1   7    1.71    0.24
   1  -1  -7    1.33    0.26
   1  -1  -7    1.21    0.21
   1  -1  -7    1.17    0.24
  -1   1   7    1.94    0.24
  -1   1   7    1.51    0.25
  -1   1   7    1.02    0.21
  -1   1   7    1.37    0.23
   0  -1  -7   20.94    0.64
   0  -1  -7   20.68    0.67
   0  -1  -7   21.60    0.68
   0  -1  -7   21.20    0.61
   0   1   7   20.91    0.64
   0   1   7   20.90    0.62
   0   1   7   20.83    0.64
   0   1   7   21.19    0.70
  -1  -1  -7   19.08    0.62
  -1  -1  -7   20.77    0.65
  -1  -1  -7   19.65    0.54
  -1  -1  -7   19.88    0.63
  -1  -1  -7   19.11    0.59
   1   1   7   18.91    0.63
   1   1   7   20.13    0.64
   1   1   7   19.22    0.62
   1   1   7   19.57    0.61
  -2  -1  -7    1.53    0.26
  -2  -1  -7    1.36    0.25
  -2  -1  -7    1.32    0.19
  -2  -1  -7    1.84    0.26
   2   1   7    1.31    0.26
   2   1   7    1.81    0.26
  -3  -1  -7    0.54    0.18
  -3  -1  -7    0.46    0.29
  -3  -1  -7   -0.29    0.25
   3   1   7    0.46    0.20
   3   1   7    0.59    0.25
  -4  -1  -7    0.12    0.32
   4   1   7   -0.22    0.23
   4  -2  -7    0.22    0.29
   4  -2  -7    0.53    0.24
  -4   2   7    0.32    0.31
   3  -2  -7    0.23    0.20
   3  -2  -7    0.04    0.27
   3  -2  -7    0.04    0.22
  -3   2   7   -0.07    0.31
  -3   2   7    0.33    0.21
   2  -2  -7   -0.09    0.18
   2  -2  -7   -0.25    0.20
   2  -2  -7   -0.07    0.20
  -2   2   7    0.27    0.22
  -2   2   7   -0.03    0.20
   1  -2  -7    6.14    0.36
   1  -2  -7    5.66    0.39
   1  -2  -7    5.30    0.36
  -1   2   7    5.95    0.39
  -1   2   7    5.72    0.41
  -1   2   7    5.95    0.31
  -1   2   7    5.34    0.37
   0  -2  -7   21.67    0.64
   0  -2  -7   21.51    0.70
   0  -2  -7   20.94    0.64
   0  -2  -7   21.47    0.69
   0   2   7   21.95    0.65
   0   2   7   20.94    0.70
   0   2   7   21.12    0.64
   0   2   7   22.03    0.67
  -1  -2  -7    1.12    0.23
  -1  -2  -7    1.11    0.18
  -1  -2  -7    0.96    0.22
  -1  -2  -7    1.48    0.22
   1   2   7    1.02    0.20
   1   2   7    1.29    0.23
   1   2   7    0.95    0.18
  -2  -2  -7    7.10    0.37
  -2  -2  -7    7.82    0.43
  -2  -2  -7    7.18    0.41
   2   2   7    7.48    0.45
   2   2   7    7.18    0.39
  -3  -2  -7    0.55    0.26
  -3  -2  -7    0.24    0.25
   3   2   7    0.15    0.22
  -4  -2  -7    0.18    0.33
   4   2   7    0.06    0.24
   4  -3  -7   -0.15    0.23
   4  -3  -7   -0.42    0.28
  -4   3   7    0.59    0.38
   3  -3  -7    0.07    0.27
   3  -3  -7   -0.29    0.25
   3  -3  -7   -0.06    0.20
  -3   3   7    0.40    0.31
   2  -3  -7    0.23    0.24
   2  -3  -7    0.22    0.20
   2  -3  -7    0.63    0.21
  -2   3   7    0.68    0.27
   1  -3  -7    5.69    0.35
   1  -3  -7    5.74    0.38
   1  -3  -7    6.02    0.42
  -1   3   7    5.98    0.41
  -1   3   7    5.97    0.39
  -1   3   7    6.30    0.32
  -1   3   7    6.26    0.39
   0  -3  -7    2.03    0.28
   0  -3  -7    1.79    0.22
   0  -3  -7    2.13    0.25
   0  -3  -7    2.29    0.30
   0   3   7    1.60    0.24
   0   3   7    1.70    0.21
   0   3   7    2.26    0.25
  -1  -3  -7    9.48    0.39
  -1  -3  -7    9.76    0.44
  -1  -3  -7    9.36    0.46
  -1  -3  -7    9.40    0.42
   1   3   7   10.46    0.44
   1   3   7   10.24    0.44
   1   3   7    9.62    0.42
  -2  -3  -7    8.83    0.45
  -2  -3  -7    8.28    0.42
  -2  -3  -7    8.28    0.43
   2   3   7    8.01    0.43
   2   3   7    8.35    0.43
  -3  -3  -7    2.18    0.32
  -3  -3  -7    1.47    0.27
   3   3   7    1.41    0.26
   4  -4  -7    0.42    0.33
   4  -4  -7   -0.15    0.24
  -4   4   7   -0.12    0.34
   3  -4  -7    0.99    0.36
   3  -4  -7    0.56    0.22
  -3   4   7    0.17    0.37
   2  -4  -7    0.41    0.26
   2  -4  -7    0.67    0.22
   2  -4  -7    1.27    0.26
  -2   4   7    0.56    0.19
  -2   4   7    1.25    0.30
   1  -4  -7    0.45    0.20
   1  -4  -7    0.18    0.19
   1  -4  -7    0.31    0.22
  -1   4   7    0.46    0.17
  -1   4   7    0.17    0.21
  -1   4   7    0.42    0.22
   0  -4  -7    2.89    0.26
   0  -4  -7    2.65    0.34
   0  -4  -7    2.82    0.26
   0  -4  -7    3.28    0.35
   0   4   7    2.75    0.36
   0   4   7    3.07    0.22
  -1  -4  -7    7.41    0.42
  -1  -4  -7    7.04    0.42
  -1  -4  -7    7.14    0.37
  -1  -4  -7    6.88    0.34
   1   4   7    7.48    0.39
   1   4   7    7.19    0.40
   1   4   7    6.95    0.34
  -2  -4  -7    1.27    0.22
  -2  -4  -7    0.90    0.24
   2   4   7    0.74    0.22
   2   4   7    1.28    0.22
  -3  -4  -7    2.34    0.34
   3   4   7    1.99    0.26
   4  -5  -7    0.49    0.28
   4  -5  -7    0.74    0.39
  -4   5   7    0.96    0.37
   3  -5  -7    0.26    0.20
   3  -5  -7    0.19    0.29
  -3   5   7    0.43    0.32
   2  -5  -7    0.15    0.27
   2  -5  -7    0.54    0.23
  -2   5   7    0.67    0.19
  -2   5   7    0.22    0.27
   1  -5  -7    0.41    0.24
   1  -5  -7    0.43    0.20
   1  -5  -7    0.42    0.19
  -1   5   7    0.76    0.24
  -1   5   7    0.18    0.17
  -1   5   7    0.42    0.21
   0  -5  -7    7.43    0.43
   0  -5  -7    6.98    0.35
   0  -5  -7    7.73    0.38
   0  -5  -7    6.50    0.41
   0   5   7    7.02    0.41
   0   5   7    7.38    0.31
   0   5   7    7.15    0.43
  -1  -5  -7    1.27    0.24
  -1  -5  -7    1.26    0.23
  -1  -5  -7    1.71    0.24
  -1  -5  -7    1.75    0.24
   1   5   7    1.67    0.22
   1   5   7    1.26    0.24
   1   5   7    1.79    0.23
  -2  -5  -7    3.15    0.34
  -2  -5  -7    3.01    0.31
  -2  -5  -7    2.81    0.32
   2   5   7    2.66    0.29
   2   5   7    3.25    0.29
  -3  -5  -7    3.02    0.39
   3   5   7    3.00    0.34
   4  -6  -7    1.09    0.37
  -4   6   7    0.48    0.38
   3  -6  -7    1.19    0.39
  -3   6   7   -0.06    0.32
   2  -6  -7    0.44    0.28
  -2   6   7    0.00    0.17
  -2   6   7   -0.34    0.26
   1  -6  -7    1.40    0.30
   1  -6  -7    1.66    0.29
  -1   6   7    1.25    0.19
  -1   6   7    0.80    0.24
  -1   6   7    1.56    0.29
   0  -6  -7    1.26    0.22
   0  -6  -7    1.88    0.25
   0  -6  -7    1.22    0.28
   0  -6  -7    1.16    0.25
   0   6   7    1.48    0.22
   0   6   7    1.80    0.21
   0   6   7    1.23    0.24
  -1  -6  -7    0.46    0.21
  -1  -6  -7    0.64    0.22
   1   6   7    0.38    0.20
   1   6   7    0.77    0.21
   1   6   7    0.56    0.17
  -2  -6  -7    1.61    0.24
  -2  -6  -7    1.80    0.28
   2   6   7    1.62    0.23
   2   6   7    2.50    0.34
  -3  -6  -7    0.44    0.30
   3   6   7    0.46    0.20
   3  -7  -7    0.27    0.33
  -3   7   7    1.14    0.39
   2  -7  -7    0.00    0.28
  -2   7   7    0.29    0.31
  -2   7   7    0.03    0.16
   1  -7  -7    1.42    0.31
  -1   7   7    1.70    0.31
  -1   7   7    1.70    0.19
  -1   7   7    1.74    0.29
   0  -7  -7    0.78    0.23
   0  -7  -7    0.83    0.19
   0   7   7    0.48    0.15
   0   7   7    0.67    0.24
   0   7   7    0.58    0.22
  -1  -7  -7    4.52    0.37
  -1  -7  -7    4.51    0.35
   1   7   7    4.39    0.36
   1   7   7    5.04    0.33
   1   7   7    4.51    0.35
  -2  -7  -7    1.25    0.29
  -2  -7  -7    1.10    0.24
   2   7   7    0.89    0.21
   2   7   7    0.87    0.22
  -3  -7  -7    1.14    0.32
   3   7   7    0.64    0.21
   3  -8  -7    0.59    0.36
  -3   8   7    0.69    0.38
   2  -8  -7    2.12    0.38
  -2   8   7    1.64    0.24
  -2   8   7    2.09    0.41
   1  -8  -7   -0.31    0.23
  -1   8   7    0.15    0.12
  -1   8   7   -0.03    0.24
  -1   8   7    0.15    0.26
   0  -8  -7    1.28    0.27
   0  -8  -7    0.75    0.19
   0   8   7    0.75    0.21
   0   8   7    1.35    0.30
   0   8   7    0.88    0.17
  -1  -8  -7    1.57    0.26
  -1  -8  -7    1.94    0.26
   1   8   7    1.94    0.27
   1   8   7    1.87    0.30
  -2  -8  -7    0.12    0.25
   2   8   7   -0.16    0.19
  -3  -8  -7    0.52    0.30
   3   8   7    0.28    0.17
   3  -9  -7    0.72    0.36
  -3   9   7    0.16    0.36
   2  -9  -7    1.11    0.34
  -2   9   7    0.61    0.17
  -2   9   7    0.41    0.34
   1  -9  -7   -0.35    0.25
  -1   9   7   -0.01    0.12
  -1   9   7   -0.07    0.23
  -1   9   7   -0.10    0.31
   0  -9  -7    2.20    0.26
   0  -9  -7    3.06    0.42
   0   9   7    2.46    0.32
   0   9   7    2.17    0.23
   0   9   7    2.38    0.30
  -1  -9  -7    0.52    0.21
  -1  -9  -7    0.25    0.22
   1   9   7    0.97    0.28
   1   9   7    0.86    0.21
  -2  -9  -7    2.46    0.31
   2   9   7    2.39    0.28
  -3  -9  -7    0.94    0.34
   3 -10  -7    0.40    0.34
  -3  10   7   -0.13    0.37
   2 -10  -7   -0.06    0.30
  -2  10   7    0.20    0.34
   1 -10  -7    2.95    0.38
  -1  10   7    2.61    0.21
  -1  10   7    2.97    0.39
  -1  10   7    3.58    0.45
   0 -10  -7    0.25    0.25
   0 -10  -7    0.41    0.19
   0  10   7    0.28    0.25
   0  10   7    0.02    0.12
   0  10   7    0.43    0.22
  -1 -10  -7    0.53    0.21
  -1 -10  -7    0.49    0.21
   1  10   7    0.43    0.25
  -2 -10  -7    1.74    0.30
   2  10   7    1.34    0.25
   3 -11  -7    2.16    0.42
  -3  11   7    1.50    0.43
   2 -11  -7    0.65    0.34
  -2  11   7    0.49    0.34
   1 -11  -7    1.33    0.34
  -1  11   7    0.48    0.32
   0 -11  -7    0.17    0.17
   0 -11  -7   -0.44    0.23
   0  11   7   -0.08    0.24
  -1 -11  -7    1.69    0.25
   1  11   7    2.12    0.31
  -2 -11  -7    0.55    0.25
   2  11   7    0.28    0.21
   2 -12  -7   -0.07    0.32
  -2  12   7   -0.02    0.34
   1 -12  -7    0.31    0.30
  -1  12   7    0.19    0.31
   0 -12  -7    2.50    0.25
   0 -12  -7    3.37    0.39
   0  12   7    2.88    0.38
  -1 -12  -7   -0.10    0.22
   1  12   7    0.13    0.26
  -2 -12  -7    0.05    0.23
   2 -13  -7    1.70    0.40
  -2  13   7    1.56    0.39
   1 -13  -7    0.24    0.34
  -1  13   7    0.51    0.38
   0  13   7    0.75    0.32
   1  13   7    0.48    0.28
  -1  14   7    0.16    0.31
   0  14   7   -0.32    0.31
  -1 -14   8    1.00    0.39
   0  14  -8    0.34    0.29
   0 -14   8    0.08    0.39
  -1  14  -8    0.21    0.32
   1 -14   8    0.29    0.35
  -1 -13   8   -0.51    0.36
   0  13  -8    0.38    0.28
   0 -13   8    0.09    0.31
  -1  13  -8    0.92    0.31
   1 -13   8    0.89    0.31
   1 -13   8    1.00    0.33
  -2 -12   8    0.01    0.38
  -1 -12   8    1.46    0.41
   0  12  -8    2.07    0.33
   0 -12   8    2.15    0.38
   0 -12   8    1.73    0.31
  -1  12  -8    0.37    0.29
   1 -12   8    0.36    0.26
   1 -12   8    0.00    0.26
  -2  12  -8   -0.20    0.32
   2 -12   8   -0.19    0.30
   2 -12   8   -0.25    0.28
   2  11  -8   -0.04    0.18
  -2 -11   8    0.31    0.37
  -1 -11   8    0.31    0.33
   0  11  -8    0.74    0.29
   0 -11   8    0.82    0.24
   0 -11   8    0.50    0.17
   0 -11   8    1.00    0.31
  -1  11  -8    1.06    0.30
   1 -11   8    1.03    0.31
   1 -11   8    1.89    0.37
  -2  11  -8    1.60    0.38
   2 -11   8    1.32    0.36
   2 -11   8    1.00    0.33
   2  10  -8   -0.01    0.20
  -2 -10   8   -0.13    0.28
  -1 -10   8    1.33    0.33
  -1 -10   8    1.42    0.25
   0  10  -8    0.81    0.27
   0  10  -8    1.17    0.24
   0 -10   8    0.72    0.18
   0 -10   8    0.81    0.27
   0 -10   8    0.86    0.33
  -1  10  -8    3.90    0.45
   1 -10   8    4.85    0.50
   1 -10   8    4.45    0.28
   1 -10   8    4.22    0.41
  -2  10  -8    0.07    0.20
  -2  10  -8   -0.31    0.30
   2 -10   8    0.33    0.28
   2 -10   8    0.06    0.27
  -3  10  -8   -0.23    0.35
   3 -10   8    0.37    0.34
   3 -10   8   -0.08    0.23
  -3  -9   8    0.02    0.32
   2   9  -8    2.13    0.27
  -2  -9   8    1.79    0.35
   1   9  -8    0.40    0.19
  -1  -9   8    0.13    0.20
  -1  -9   8    0.23    0.32
   0   9  -8   -0.08    0.25
   0   9  -8    0.11    0.19
   0  -9   8   -0.01    0.17
   0  -9   8    0.31    0.26
   0  -9   8   -0.23    0.23
  -1   9  -8    2.15    0.32
  -1   9  -8    1.99    0.27
   1  -9   8    1.62    0.24
   1  -9   8    1.60    0.33
   1  -9   8    1.97    0.33
  -2   9  -8    0.99    0.33
  -2   9  -8    1.10    0.23
   2  -9   8    1.41    0.30
   2  -9   8    1.20    0.32
   2  -9   8    1.38    0.23
  -3   9  -8    0.67    0.45
  -3   9  -8    0.89    0.28
   3  -9   8    0.93    0.34
   3  -9   8    1.40    0.29
   3   8  -8    0.18    0.19
  -3  -8   8    0.22    0.33
   2   8  -8    0.04    0.22
  -2  -8   8    0.08    0.18
  -2  -8   8    0.25    0.29
  -2  -8   8    0.17    0.14
   1   8  -8   -0.02    0.15
  -1  -8   8    0.06    0.26
  -1  -8   8   -0.21    0.18
  -1  -8   8    0.12    0.10
   0   8  -8    2.02    0.28
   0   8  -8    1.56    0.27
   0  -8   8    2.28    0.33
   0  -8   8    2.22    0.29
   0  -8   8    2.07    0.25
  -1   8  -8    0.38    0.29
  -1   8  -8    0.47    0.23
  -1   8  -8    0.44    0.21
   1  -8   8    0.20    0.29
   1  -8   8    0.31    0.28
   1  -8   8    0.38    0.17
  -2   8  -8    5.40    0.37
  -2   8  -8    6.43    0.54
   2  -8   8    5.32    0.48
   2  -8   8    5.33    0.46
   2  -8   8    5.97    0.37
  -3   8  -8    0.14    0.36
  -3   8  -8    0.03    0.22
   3  -8   8   -0.35    0.21
   3  -8   8   -0.01    0.29
   3   7  -8    0.44    0.20
  -3  -7   8    0.14    0.27
   2   7  -8    0.17    0.22
   2   7  -8    0.17    0.15
  -2  -7   8    0.20    0.28
  -2  -7   8   -0.06    0.20
   1   7  -8    4.33    0.40
   1   7  -8    4.09    0.29
  -1  -7   8    3.63    0.35
  -1  -7   8    4.28    0.46
   0   7  -8    0.23    0.24
   0   7  -8    0.17    0.18
   0  -7   8    0.24    0.23
   0  -7   8    0.01    0.20
   0  -7   8    0.05    0.16
  -1   7  -8    0.23    0.19
  -1   7  -8    0.13    0.22
  -1   7  -8    0.24    0.25
   1  -7   8    0.49    0.23
   1  -7   8    0.51    0.14
   1  -7   8    0.14    0.16
   1  -7   8    0.25    0.23
  -2   7  -8    1.89    0.37
  -2   7  -8    1.61    0.26
   2  -7   8    1.67    0.27
   2  -7   8    1.41    0.23
   2  -7   8    1.55    0.32
  -3   7  -8    0.78    0.37
  -3   7  -8    1.05    0.27
   3  -7   8    0.43    0.23
   3  -7   8    1.08    0.32
   3   6  -8    0.25    0.23
  -3  -6   8    0.53    0.32
   2   6  -8    0.38    0.16
   2   6  -8    0.44    0.21
  -2  -6   8    0.41    0.21
  -2  -6   8    0.51    0.27
   1   6  -8    0.40    0.15
   1   6  -8    0.44    0.19
  -1  -6   8    0.26    0.20
  -1  -6   8    0.23    0.18
  -1  -6   8    0.18    0.23
   0   6  -8    0.46    0.22
   0   6  -8   -0.03    0.19
   0  -6   8   -0.05    0.19
   0  -6   8   -0.05    0.16
   0  -6   8   -0.06    0.24
  -1   6  -8    2.40    0.32
  -1   6  -8    2.67    0.34
  -1   6  -8    2.16    0.29
  -1   6  -8    2.66    0.32
   1  -6   8    2.28    0.32
   1  -6   8    2.15    0.21
   1  -6   8    2.07    0.29
   1  -6   8    2.32    0.25
  -2   6  -8    0.25    0.19
  -2   6  -8    0.35    0.23
  -2   6  -8    0.61    0.31
   2  -6   8    0.31    0.25
   2  -6   8   -0.13    0.22
   2  -6   8    0.21    0.15
  -3   6  -8    4.85    0.41
  -3   6  -8    5.01    0.54
   3  -6   8    5.05    0.55
   3  -6   8    4.70    0.38
   3   5  -8    0.79    0.27
  -3  -5   8    0.56    0.31
   2   5  -8    0.11    0.16
   2   5  -8    0.14    0.20
  -2  -5   8   -0.04    0.23
  -2  -5   8    0.29    0.19
   1   5  -8    0.19    0.22
   1   5  -8    0.11    0.13
  -1  -5   8    0.34    0.23
  -1  -5   8    0.30    0.20
  -1  -5   8    0.13    0.19
   0   5  -8    6.11    0.34
   0   5  -8    5.57    0.39
   0   5  -8    6.10    0.38
   0  -5   8    6.00    0.40
   0  -5   8    5.83    0.37
   0  -5   8    6.25    0.34
   0  -5   8    5.40    0.42
  -1   5  -8   -0.06    0.18
  -1   5  -8    0.01    0.20
  -1   5  -8   -0.04    0.21
  -1   5  -8    0.09    0.17
   1  -5   8    0.04    0.14
   1  -5   8    0.14    0.21
   1  -5   8    0.23    0.11
   1  -5   8    0.03    0.20
  -2   5  -8    0.12    0.26
  -2   5  -8    0.70    0.19
  -2   5  -8    0.48    0.21
   2  -5   8    0.44    0.18
   2  -5   8    0.29    0.24
   2  -5   8    0.23    0.21
  -3   5  -8    0.52    0.35
  -3   5  -8    0.65    0.25
   3  -5   8    0.41    0.29
   3  -5   8    0.58    0.23
   4   4  -8    0.28    0.25
   3   4  -8   -0.03    0.24
  -3  -4   8    0.02    0.23
  -3  -4   8    0.56    0.28
   2   4  -8    1.14    0.19
   2   4  -8    0.85    0.26
  -2  -4   8    1.19    0.31
  -2  -4   8    1.38    0.25
   1   4  -8    0.49    0.21
   1   4  -8    0.73    0.24
   1   4  -8    0.71    0.17
  -1  -4   8    0.19    0.26
  -1  -4   8    0.65    0.19
  -1  -4   8    0.76    0.19
  -1  -4   8    0.97    0.20
   0   4  -8    0.78    0.18
   0   4  -8    0.69    0.20
   0   4  -8    0.76    0.21
   0   4  -8    1.02    0.22
   0  -4   8    0.86    0.18
   0  -4   8    0.69    0.20
   0  -4   8    1.32    0.25
   0  -4   8    1.00    0.21
  -1   4  -8   -0.15    0.21
  -1   4  -8   -0.10    0.19
  -1   4  -8    0.07    0.17
  -1   4  -8   -0.20    0.16
   1  -4   8   -0.07    0.18
   1  -4   8    0.03    0.11
   1  -4   8    0.15    0.21
   1  -4   8    0.05    0.14
   1  -4   8   -0.18    0.16
  -2   4  -8    1.70    0.26
  -2   4  -8    1.95    0.26
  -2   4  -8    1.58    0.31
   2  -4   8    1.64    0.25
   2  -4   8    1.86    0.27
   2  -4   8    2.22    0.31
  -3   4  -8    0.02    0.25
  -3   4  -8    0.43    0.32
   3  -4   8    0.27    0.22
   3  -4   8    0.30    0.24
   4   3  -8    0.58    0.30
   3   3  -8    0.15    0.27
  -3  -3   8   -0.21    0.22
  -3  -3   8    0.39    0.26
   2   3  -8    0.43    0.24
   2   3  -8    0.45    0.19
  -2  -3   8    0.16    0.19
  -2  -3   8    0.71    0.25
   1   3  -8    0.48    0.24
   1   3  -8   -0.01    0.16
   1   3  -8    0.10    0.19
  -1  -3   8    0.20    0.21
  -1  -3   8    0.36    0.18
  -1  -3   8   -0.10    0.16
  -1  -3   8    0.05    0.21
   0   3  -8    0.56    0.19
   0   3  -8    0.40    0.20
   0   3  -8    0.69    0.23
   0   3  -8    0.47    0.20
   0  -3   8    0.59    0.24
   0  -3   8    0.73    0.19
   0  -3   8    0.22    0.18
   0  -3   8    0.47    0.17
  -1   3  -8    4.28    0.33
  -1   3  -8    4.78    0.35
  -1   3  -8    4.24    0.37
  -1   3  -8    5.06    0.32
   1  -3   8    4.35    0.35
   1  -3   8    4.96    0.30
   1  -3   8    4.73    0.39
   1  -3   8    4.33    0.35
  -2   3  -8    0.41    0.19
  -2   3  -8    0.19    0.25
  -2   3  -8    0.95    0.25
   2  -3   8    0.41    0.24
   2  -3   8    0.30    0.24
   2  -3   8    0.42    0.20
   2  -3   8    0.39    0.17
  -3   3  -8    0.24    0.30
  -3   3  -8    0.26    0.25
   3  -3   8   -0.12    0.24
   3  -3   8    0.40    0.21
   4   2  -8   -0.09    0.30
   3   2  -8    0.71    0.18
   3   2  -8    0.80    0.22
   3   2  -8    0.97    0.32
  -3  -2   8    1.23    0.28
  -3  -2   8    1.27    0.30
   2   2  -8    0.14    0.18
   2   2  -8   -0.36    0.22
   2   2  -8    0.20    0.12
   2   2  -8   -0.09    0.23
  -2  -2   8    0.13    0.23
  -2  -2   8    0.44    0.21
   1   2  -8    3.11    0.33
   1   2  -8    2.60    0.33
   1   2  -8    2.76    0.28
  -1  -2   8    2.96    0.29
  -1  -2   8    2.93    0.31
  -1  -2   8    2.24    0.27
  -1  -2   8    2.86    0.32
   0   2  -8    0.41    0.21
   0   2  -8    0.41    0.18
   0   2  -8    0.20    0.18
   0   2  -8    0.44    0.20
   0  -2   8    0.60    0.20
   0  -2   8    0.46    0.23
   0  -2   8    0.59    0.19
   0  -2   8    0.21    0.16
  -1   2  -8    1.63    0.23
  -1   2  -8    1.73    0.27
  -1   2  -8    1.78    0.25
  -1   2  -8    2.43    0.30
   1  -2   8    2.23    0.30
   1  -2   8    1.75    0.26
   1  -2   8    2.17    0.24
   1  -2   8    2.01    0.26
  -2   2  -8    0.16    0.22
  -2   2  -8    0.45    0.26
  -2   2  -8    0.18    0.17
   2  -2   8    0.10    0.21
   2  -2   8    0.17    0.18
   2  -2   8    0.05    0.21
  -3   2  -8    1.08    0.36
  -3   2  -8    1.58    0.29
   3  -2   8    1.30    0.28
   4   1  -8   -0.27    0.25
   4   1  -8    0.53    0.22
   3   1  -8    0.71    0.20
   3   1  -8    0.47    0.31
   3   1  -8    0.52    0.19
  -3  -1   8    1.64    0.32
  -3  -1   8    0.59    0.29
   2   1  -8   -0.02    0.12
   2   1  -8    0.07    0.17
   2   1  -8    0.05    0.22
   2   1  -8    0.05    0.23
  -2  -1   8   -0.13    0.22
  -2  -1   8   -0.03    0.20
   1   1  -8    0.92    0.22
   1   1  -8    0.72    0.20
   1   1  -8    0.84    0.23
  -1  -1   8    0.90    0.24
  -1  -1   8    0.86    0.23
  -1  -1   8    0.69    0.21
  -1  -1   8    0.66    0.18
   0   1  -8    0.82    0.20
   0   1  -8    0.57    0.18
   0   1  -8    0.90    0.24
   0   1  -8    0.61    0.08
   0  -1   8    0.50    0.20
   0  -1   8    0.55    0.20
   0  -1   8    0.61    0.21
   0  -1   8    0.79    0.18
  -1   1  -8    0.28    0.22
  -1   1  -8    0.23    0.12
  -1   1  -8    0.23    0.17
  -1   1  -8    0.43    0.21
  -1   1  -8    0.22    0.19
   1  -1   8    0.47    0.16
   1  -1   8    0.28    0.20
   1  -1   8    0.05    0.17
   1  -1   8    0.30    0.20
  -2   1  -8    2.42    0.34
  -2   1  -8    2.06    0.26
  -2   1  -8    2.49    0.31
   2  -1   8    1.97    0.28
   2  -1   8    1.93    0.26
   2  -1   8    1.82    0.28
  -3   1  -8    1.16    0.29
  -3   1  -8    1.24    0.36
   3  -1   8    1.01    0.26
   3  -1   8    0.89    0.27
  -4   1  -8    0.23    0.32
   4   0  -8    0.19    0.34
   4   0  -8    0.03    0.20
   3   0  -8    0.14    0.17
   3   0  -8    0.24    0.29
   3   0  -8    0.04    0.18
  -3   0   8    0.04    0.22
  -3   0   8    0.21    0.28
   2   0  -8    2.62    0.34
   2   0  -8    1.63    0.24
   2   0  -8    1.89    0.29
  -2   0   8    1.29    0.29
  -2   0   8    2.10    0.31
   1   0  -8    0.31    0.22
   1   0  -8    0.76    0.20
   1   0  -8    0.63    0.21
  -1   0   8    0.43    0.20
  -1   0   8    0.67    0.21
  -1   0   8    0.59    0.18
   0   0  -8    2.21    0.27
   0   0  -8    2.44    0.27
   0   0  -8    1.76    0.26
   0   0  -8    2.14    0.31
   0   0   8    2.06    0.25
   0   0   8    2.46    0.34
   0   0   8    2.49    0.30
   0   0   8    1.75    0.23
  -1   0  -8    0.07    0.21
  -1   0  -8    0.23    0.12
  -1   0  -8    0.36    0.17
  -1   0  -8    0.15    0.16
  -1   0  -8    0.23    0.19
   1   0   8    0.17    0.17
   1   0   8    0.22    0.19
   1   0   8    0.04    0.15
   1   0   8    0.27    0.17
  -2   0  -8    2.29    0.32
  -2   0  -8    1.82    0.25
  -2   0  -8    1.50    0.20
  -2   0  -8    1.66    0.30
   2   0   8    1.82    0.30
   2   0   8    1.71    0.25
  -3   0  -8    0.08    0.26
  -3   0  -8    0.36    0.27
   3   0   8    0.34    0.23
   4  -1  -8    0.97    0.38
   4  -1  -8    0.19    0.21
   3  -1  -8    0.06    0.25
   3  -1  -8    0.29    0.20
   3  -1  -8    0.41    0.32
  -3   1   8   -0.26    0.24
  -3   1   8    0.12    0.27
   2  -1  -8    2.67    0.32
   2  -1  -8    2.93    0.36
   2  -1  -8    2.19    0.32
  -2   1   8    2.81    0.33
  -2   1   8    2.90    0.34
   1  -1  -8    0.09    0.17
   1  -1  -8   -0.13    0.18
   1  -1  -8    0.03    0.21
  -1   1   8    0.00    0.21
  -1   1   8    0.14    0.19
  -1   1   8   -0.02    0.16
  -1   1   8    0.43    0.22
   0  -1  -8    0.84    0.19
   0  -1  -8    0.52    0.21
   0  -1  -8    0.47    0.22
   0  -1  -8    0.77    0.18
   0   1   8    0.76    0.17
   0   1   8    0.63    0.21
   0   1   8    0.34    0.19
   0   1   8    0.86    0.23
  -1  -1  -8    0.48    0.20
  -1  -1  -8    0.53    0.13
  -1  -1  -8    0.46    0.21
  -1  -1  -8    0.28    0.16
  -1  -1  -8    0.33    0.18
   1   1   8    0.30    0.19
   1   1   8    0.20    0.17
   1   1   8    0.18    0.16
   1   1   8    0.35    0.20
  -2  -1  -8    0.04    0.22
  -2  -1  -8    0.40    0.21
  -2  -1  -8    0.13    0.22
   2   1   8    0.10    0.21
   2   1   8    0.26    0.21
  -3  -1  -8    0.83    0.29
  -3  -1  -8    0.69    0.26
   3   1   8    0.78    0.23
   4  -2  -8    0.36    0.24
   4  -2  -8    0.37    0.33
  -4   2   8    0.74    0.36
   3  -2  -8    0.35    0.24
   3  -2  -8   -0.13    0.31
  -3   2   8    0.29    0.24
  -3   2   8    0.51    0.30
   2  -2  -8    0.68    0.24
   2  -2  -8    0.55    0.22
   2  -2  -8   -0.20    0.22
  -2   2   8    0.06    0.24
  -2   2   8   -0.02    0.24
   1  -2  -8    1.47    0.27
   1  -2  -8    1.56    0.23
   1  -2  -8    1.58    0.24
  -1   2   8    1.99    0.30
  -1   2   8    1.50    0.26
  -1   2   8    1.22    0.26
  -1   2   8    1.41    0.20
   0  -2  -8    0.81    0.22
   0  -2  -8    0.85    0.19
   0  -2  -8    0.84    0.24
   0  -2  -8    0.83    0.18
   0   2   8    1.16    0.23
   0   2   8    0.90    0.18
   0   2   8    1.18    0.22
   0   2   8    1.04    0.23
  -1  -2  -8    1.19    0.24
  -1  -2  -8    1.20    0.20
  -1  -2  -8    1.04    0.22
   1   2   8    0.79    0.21
   1   2   8    1.53    0.25
   1   2   8    1.45    0.23
  -2  -2  -8    0.00    0.21
  -2  -2  -8    0.42    0.19
  -2  -2  -8    0.24    0.23
   2   2   8    0.14    0.18
   2   2   8   -0.02    0.18
  -3  -2  -8    0.67    0.29
  -3  -2  -8    1.38    0.33
   3   2   8    0.90    0.24
   4  -3  -8    0.22    0.24
   4  -3  -8   -0.21    0.33
  -4   3   8    0.93    0.37
   3  -3  -8    0.21    0.30
  -3   3   8    0.71    0.32
   2  -3  -8    0.14    0.26
   2  -3  -8    0.24    0.21
   2  -3  -8    0.14    0.22
  -2   3   8    0.00    0.20
  -2   3   8   -0.12    0.24
   1  -3  -8    6.10    0.39
   1  -3  -8    6.19    0.46
   1  -3  -8    6.05    0.37
  -1   3   8    5.72    0.39
  -1   3   8    6.20    0.44
  -1   3   8    5.42    0.31
  -1   3   8    5.11    0.41
   0  -3  -8    0.14    0.21
   0  -3  -8    0.43    0.20
   0  -3  -8    0.51    0.18
   0  -3  -8    0.29    0.17
   0   3   8    0.20    0.15
   0   3   8    0.63    0.21
   0   3   8    0.46    0.19
  -1  -3  -8    0.19    0.19
  -1  -3  -8    0.23    0.21
  -1  -3  -8   -0.03    0.18
   1   3   8    0.04    0.21
   1   3   8   -0.05    0.15
   1   3   8   -0.07    0.17
  -2  -3  -8    0.24    0.19
  -2  -3  -8    0.38    0.24
  -2  -3  -8    0.24    0.24
   2   3   8    0.36    0.22
   2   3   8    0.30    0.19
  -3  -3  -8    0.00    0.26
  -3  -3  -8   -0.04    0.28
   3   3   8    0.08    0.21
   4  -4  -8    1.56    0.29
   4  -4  -8    1.73    0.42
  -4   4   8    1.43    0.43
   3  -4  -8    1.29    0.38
  -3   4   8    0.43    0.37
   2  -4  -8    1.55    0.34
  -2   4   8    1.39    0.33
   1  -4  -8    0.02    0.23
   1  -4  -8   -0.18    0.20
   1  -4  -8    0.08    0.18
  -1   4   8    0.19    0.22
  -1   4   8    0.08    0.18
  -1   4   8   -0.06    0.18
   0  -4  -8    0.54    0.17
   0  -4  -8    0.56    0.22
   0  -4  -8    0.64    0.24
   0  -4  -8    0.39    0.18
   0   4   8    0.37    0.19
   0   4   8    0.20    0.19
   0   4   8    0.34    0.15
  -1  -4  -8    0.95    0.22
  -1  -4  -8    0.96    0.22
  -1  -4  -8    1.37    0.26
   1   4   8    1.37    0.25
   1   4   8    1.00    0.22
  -2  -4  -8    0.41    0.20
  -2  -4  -8   -0.09    0.23
   2   4   8    0.37    0.19
   2   4   8    0.38    0.21
  -3  -4  -8    0.12    0.30
   3   4   8    0.21    0.21
   4  -5  -8    0.42    0.36
  -4   5   8    1.12    0.45
   3  -5  -8    0.80    0.33
  -3   5   8    0.69    0.37
   2  -5  -8    0.55    0.29
  -2   5   8    0.42    0.28
   1  -5  -8    0.43    0.25
  -1   5   8   -0.05    0.16
  -1   5   8   -0.16    0.21
  -1   5   8   -0.25    0.19
   0  -5  -8    6.48    0.34
   0  -5  -8    6.55    0.48
   0   5   8    7.26    0.42
   0   5   8    6.39    0.32
  -1  -5  -8    0.15    0.22
  -1  -5  -8    0.31    0.20
   1   5   8    0.52    0.23
   1   5   8    0.36    0.19
  -2  -5  -8   -0.01    0.24
  -2  -5  -8    0.00    0.25
   2   5   8    0.05    0.20
   2   5   8   -0.23    0.18
  -3  -5  -8    0.15    0.29
   3   5   8   -0.06    0.20
   3  -6  -8    3.96    0.53
  -3   6   8    4.49    0.53
   2  -6  -8    1.01    0.33
  -2   6   8    0.54    0.21
  -2   6   8    0.73    0.32
   1  -6  -8    2.72    0.35
  -1   6   8    2.51    0.34
  -1   6   8    2.52    0.26
  -1   6   8    2.82    0.37
   0  -6  -8    0.39    0.19
   0  -6  -8   -0.32    0.21
   0   6   8    0.17    0.20
   0   6   8    0.03    0.20
   0   6   8    0.00    0.15
  -1  -6  -8    0.22    0.23
  -1  -6  -8    0.22    0.20
   1   6   8   -0.01    0.19
   1   6   8    0.20    0.19
  -2  -6  -8    0.33    0.23
  -2  -6  -8    0.63    0.26
   2   6   8    0.60    0.20
   2   6   8    0.49    0.24
  -3  -6  -8    0.08    0.27
   3   6   8   -0.12    0.21
   3  -7  -8    2.02    0.41
  -3   7   8    2.52    0.44
   2  -7  -8    1.36    0.34
  -2   7   8    1.57    0.22
  -2   7   8    2.05    0.40
   1  -7  -8    0.50    0.28
  -1   7   8    0.46    0.26
  -1   7   8    0.12    0.26
   0  -7  -8    0.60    0.20
   0  -7  -8    0.31    0.24
   0   7   8    0.37    0.16
   0   7   8    0.00    0.22
   0   7   8    0.47    0.27
  -1  -7  -8    4.40    0.37
  -1  -7  -8    4.10    0.40
   1   7   8    3.95    0.39
   1   7   8    4.69    0.37
  -2  -7  -8    0.11    0.24
  -2  -7  -8    0.28    0.21
   2   7   8    0.12    0.21
  -3  -7  -8   -0.34    0.30
   3   7   8   -0.28    0.20
   3  -8  -8    0.46    0.34
  -3   8   8   -0.01    0.36
   2  -8  -8    4.70    0.52
  -2   8   8    5.24    0.57
   1  -8  -8    1.33    0.33
  -1   8   8    1.24    0.20
  -1   8   8    1.30    0.27
  -1   8   8    1.26    0.32
   0  -8  -8    3.31    0.41
   0  -8  -8    4.37    0.34
   0   8   8    3.88    0.35
   0   8   8    4.07    0.47
   0   8   8    4.22    0.28
  -1  -8  -8    0.33    0.23
  -1  -8  -8   -0.10    0.23
   1   8   8   -0.12    0.18
   1   8   8    0.32    0.23
  -2  -8  -8   -0.28    0.24
   2   8   8   -0.02    0.21
  -3  -8  -8    0.04    0.28
   3   8   8    0.17    0.18
   3  -9  -8    1.60    0.44
  -3   9   8    0.79    0.40
   2  -9  -8    1.56    0.39
  -2   9   8    2.19    0.44
   1  -9  -8    1.28    0.36
  -1   9   8    1.62    0.35
  -1   9   8    1.47    0.21
   0  -9  -8    0.23    0.23
   0  -9  -8    0.50    0.20
   0   9   8    0.28    0.20
   0   9   8    0.43    0.16
   0   9   8    0.37    0.27
  -1  -9  -8    0.63    0.25
  -1  -9  -8    0.34    0.26
   1   9   8    0.31    0.25
  -2  -9  -8    2.19    0.31
   2   9   8    2.02    0.30
   3 -10  -8   -0.02    0.36
  -3  10   8   -0.11    0.37
   2 -10  -8   -0.22    0.30
  -2  10   8   -0.14    0.34
   1 -10  -8    5.00    0.51
  -1  10   8    3.81    0.52
  -1  10   8    3.77    0.26
   0 -10  -8    0.46    0.31
   0 -10  -8    1.56    0.24
   0  10   8    1.00    0.17
   0  10   8    0.83    0.26
   0  10   8    1.10    0.30
  -1 -10  -8    3.09    0.35
   1  10   8    2.93    0.40
  -2 -10  -8    0.29    0.26
   2  10   8   -0.11    0.22
   2 -11  -8    2.10    0.41
  -2  11   8    2.08    0.44
   1 -11  -8    1.38    0.34
  -1  11   8    1.20    0.37
   0 -11  -8    0.49    0.20
   0 -11  -8    0.72    0.30
   0  11   8    0.58    0.29
  -1 -11  -8    0.60    0.23
   1  11   8    0.58    0.28
  -2 -11  -8    0.57    0.27
   2  11   8    0.28    0.22
   2 -12  -8   -0.13    0.33
  -2  12   8    0.06    0.40
   1 -12  -8    0.14    0.31
  -1  12   8    0.08    0.29
   0 -12  -8    2.29    0.27
   0  12   8    2.90    0.41
  -1 -12  -8    0.84    0.25
   1  12   8    0.70    0.31
   1 -13  -8    0.86    0.34
  -1  13   8    0.74    0.40
   0  13   8    0.64    0.33
   1  13   8    0.63    0.28
   0 -14   9   -0.34    0.37
  -1 -13   9    0.00    0.37
   0  13  -9   -0.19    0.28
   0 -13   9    0.22    0.31
  -1  13  -9    0.69    0.32
   1 -13   9    0.03    0.34
   1 -13   9    0.13    0.30
  -2 -12   9    1.65    0.41
  -1 -12   9    0.25    0.32
   0  12  -9    0.52    0.26
   0 -12   9    0.96    0.35
  -1  12  -9   -0.17    0.27
   1 -12   9   -0.11    0.29
   1 -12   9    0.23    0.34
  -2  12  -9    0.67    0.34
   2 -12   9    1.31    0.36
   2 -12   9    0.70    0.34
   2  11  -9    6.48    0.42
  -2 -11   9    6.20    0.65
  -1 -11   9    1.33    0.40
   0  11  -9   -0.48    0.26
   0 -11   9   -0.41    0.27
   0 -11   9    0.20    0.25
  -1  11  -9    0.20    0.29
   1 -11   9    0.32    0.26
   1 -11   9   -0.27    0.26
  -2  11  -9    0.21    0.33
   2 -11   9    0.21    0.31
   2 -11   9   -0.37    0.27
   2 -11   9    0.53    0.21
  -2 -10   9    0.60    0.35
  -1 -10   9    4.58    0.39
  -1 -10   9    4.92    0.50
   0  10  -9    0.27    0.29
   0  10  -9    0.09    0.18
   0 -10   9    0.27    0.30
   0 -10   9    0.12    0.27
  -1  10  -9    0.19    0.28
   1 -10   9    0.43    0.27
   1 -10   9   -0.17    0.25
  -2  10  -9    0.31    0.23
  -2  10  -9    0.67    0.34
   2 -10   9    0.34    0.20
   2 -10   9    0.05    0.29
   2 -10   9   -0.25    0.27
  -3  -9   9    0.41    0.37
   2   9  -9    2.17    0.29
  -2  -9   9    1.49    0.40
   1   9  -9   13.37    0.61
  -1  -9   9   11.65    0.66
  -1  -9   9   13.48    0.56
   0   9  -9    1.77    0.33
   0   9  -9    1.62    0.26
   0  -9   9    1.89    0.31
   0  -9   9    2.25    0.38
  -1   9  -9    0.06    0.27
  -1   9  -9    0.20    0.22
   1  -9   9    0.40    0.31
   1  -9   9    0.14    0.25
  -2   9  -9   -0.06    0.30
  -2   9  -9    0.32    0.21
   2  -9   9   -0.10    0.17
   2  -9   9   -0.15    0.25
   2  -9   9   -0.32    0.25
  -3   9  -9    0.39    0.26
  -3   9  -9   -0.17    0.37
   3  -9   9    0.02    0.22
   3  -9   9   -0.09    0.32
   3   8  -9   -0.23    0.22
  -3  -8   9    0.81    0.35
   2   8  -9    0.45    0.25
  -2  -8   9    0.35    0.30
   1   8  -9    1.42    0.22
   1   8  -9    1.44    0.30
  -1  -8   9    1.33    0.26
  -1  -8   9    1.45    0.36
   0   8  -9    8.73    0.49
   0   8  -9    9.35    0.45
   0  -8   9    8.71    0.50
   0  -8   9    9.48    0.65
  -1   8  -9    0.18    0.21
  -1   8  -9    0.43    0.28
   1  -8   9    0.09    0.25
   1  -8   9   -0.21    0.28
   1  -8   9    0.13    0.14
  -2   8  -9    0.05    0.25
  -2   8  -9    0.24    0.36
   2  -8   9   -0.15    0.26
   2  -8   9    0.32    0.27
   2  -8   9   -0.15    0.17
  -3   8  -9    0.14    0.36
  -3   8  -9    0.34    0.27
   3  -8   9    0.49    0.33
   3  -8   9    0.26    0.22
   3   7  -9    0.28    0.24
  -3  -7   9    0.01    0.33
   2   7  -9    0.54    0.24
  -2  -7   9    0.05    0.22
  -2  -7   9    0.46    0.31
   1   7  -9    0.98    0.20
   1   7  -9    0.73    0.26
  -1  -7   9    0.97    0.30
  -1  -7   9    0.76    0.24
   0   7  -9   17.52    0.61
   0   7  -9   18.82    0.70
   0  -7   9   16.94    0.60
   0  -7   9   18.75    0.66
   0  -7   9   19.54    0.75
  -1   7  -9    5.05    0.38
  -1   7  -9    4.50    0.46
   1  -7   9    4.49    0.43
   1  -7   9    4.72    0.25
   1  -7   9    4.45    0.47
  -2   7  -9    0.01    0.21
  -2   7  -9    0.08    0.33
   2  -7   9    0.14    0.26
   2  -7   9    0.07    0.25
   2  -7   9    0.03    0.17
  -3   7  -9    0.06    0.26
  -3   7  -9    0.23    0.35
   3  -7   9    0.01    0.21
   3  -7   9    0.34    0.30
   3   6  -9    0.29    0.28
  -3  -6   9    0.59    0.35
   2   6  -9    1.15    0.27
   2   6  -9    0.53    0.17
  -2  -6   9    0.78    0.29
  -2  -6   9    0.89    0.24
   1   6  -9    0.39    0.17
   1   6  -9    0.79    0.29
  -1  -6   9    1.00    0.30
  -1  -6   9    0.79    0.25
   0   6  -9    1.76    0.28
   0   6  -9    2.05    0.29
   0  -6   9    2.50    0.34
   0  -6   9    2.10    0.28
   0  -6   9    2.38    0.33
  -1   6  -9    9.58    0.56
  -1   6  -9    9.98    0.47
   1  -6   9    9.99    0.34
   1  -6   9   10.70    0.53
   1  -6   9   10.94    0.54
  -2   6  -9    0.14    0.20
  -2   6  -9    0.18    0.28
  -2   6  -9   -0.01    0.23
   2  -6   9   -0.07    0.23
   2  -6   9    0.43    0.18
   2  -6   9    0.19    0.25
  -3   6  -9    0.21    0.34
  -3   6  -9    0.27    0.27
   3  -6   9    0.21    0.29
   3  -6   9   -0.02    0.20
   3   5  -9    0.09    0.27
  -3  -5   9    0.47    0.28
   2   5  -9    0.05    0.15
   2   5  -9   -0.05    0.23
  -2  -5   9    0.05    0.21
  -2  -5   9   -0.03    0.29
   1   5  -9    0.08    0.18
   1   5  -9    0.07    0.21
  -1  -5   9    0.17    0.24
  -1  -5   9    0.15    0.19
   0   5  -9   -0.14    0.20
   0   5  -9    0.01    0.20
   0  -5   9   -0.09    0.21
   0  -5   9   -0.02    0.23
   0  -5   9    0.17    0.19
  -1   5  -9   19.65    0.73
  -1   5  -9   18.27    0.68
  -1   5  -9   19.51    0.65
   1  -5   9   19.71    0.70
   1  -5   9   20.25    0.69
   1  -5   9   18.57    0.50
  -2   5  -9    7.96    0.47
  -2   5  -9    7.40    0.53
  -2   5  -9    6.56    0.39
   2  -5   9    7.18    0.45
   2  -5   9    7.14    0.36
   2  -5   9    6.73    0.49
  -3   5  -9   -0.13    0.36
  -3   5  -9   -0.03    0.25
   3  -5   9    0.26    0.27
   3  -5   9    0.07    0.23
   3   4  -9    1.70    0.33
  -3  -4   9    1.73    0.34
   2   4  -9    0.27    0.24
   2   4  -9    0.84    0.19
  -2  -4   9    0.64    0.27
  -2  -4   9    0.54    0.21
   1   4  -9    3.63    0.32
   1   4  -9    3.28    0.38
  -1  -4   9    3.43    0.46
  -1  -4   9    2.78    0.34
   0   4  -9    0.88    0.20
   0   4  -9    0.81    0.24
   0   4  -9    0.97    0.24
   0  -4   9    0.67    0.21
   0  -4   9    0.94    0.20
   0  -4   9    0.88    0.26
  -1   4  -9    2.26    0.32
  -1   4  -9    2.49    0.34
  -1   4  -9    2.28    0.29
   1  -4   9    2.17    0.31
   1  -4   9    2.24    0.32
  -2   4  -9    7.32    0.41
  -2   4  -9    7.91    0.44
  -2   4  -9    8.96    0.57
   2  -4   9    7.51    0.36
   2  -4   9    7.63    0.49
   2  -4   9    8.57    0.46
  -3   4  -9   -0.14    0.29
  -3   4  -9   -0.75    0.27
   3  -4   9    0.06    0.26
   3  -4   9    0.37    0.21
   3   3  -9    0.04    0.31
  -3  -3   9   -0.15    0.25
  -3  -3   9    0.33    0.26
   2   3  -9    0.76    0.30
   2   3  -9    0.70    0.19
  -2  -3   9    0.97    0.27
  -2  -3   9    0.89    0.29
   1   3  -9   -0.13    0.16
   1   3  -9    0.12    0.21
  -1  -3   9    0.15    0.24
  -1  -3   9    0.02    0.20
   0   3  -9    0.55    0.19
   0   3  -9    0.96    0.26
   0   3  -9    0.93    0.21
   0   3  -9    0.96    0.23
   0  -3   9    1.20    0.23
   0  -3   9    0.87    0.26
   0  -3   9    0.89    0.19
   0  -3   9    0.80    0.21
  -1   3  -9    0.43    0.24
  -1   3  -9    0.48    0.20
  -1   3  -9    0.51    0.22
   1  -3   9    0.43    0.20
   1  -3   9    0.72    0.23
   1  -3   9    0.40    0.23
  -2   3  -9   12.17    0.51
  -2   3  -9   14.76    0.60
  -2   3  -9   13.25    0.66
   2  -3   9   13.14    0.60
   2  -3   9   13.35    0.54
  -3   3  -9    7.36    0.47
  -3   3  -9    7.09    0.57
   3  -3   9    7.44    0.55
   4   2  -9    1.83    0.39
   3   2  -9    1.01    0.32
   3   2  -9    0.54    0.18
  -3  -2   9    1.22    0.31
  -3  -2   9    0.51    0.25
   2   2  -9    4.50    0.23
   2   2  -9    4.49    0.45
   2   2  -9    4.63    0.36
  -2  -2   9    4.63    0.46
  -2  -2   9    4.45    0.44
   1   2  -9    0.00    0.16
   1   2  -9    0.20    0.24
  -1  -2   9    0.25    0.21
  -1  -2   9    0.69    0.23
   0   2  -9    6.42    0.41
   0   2  -9    6.09    0.36
   0   2  -9    6.86    0.38
   0  -2   9    6.22    0.34
   0  -2   9    6.41    0.41
   0  -2   9    6.51    0.41
   0  -2   9    6.58    0.42
  -1   2  -9    0.59    0.21
  -1   2  -9    0.74    0.25
  -1   2  -9    0.94    0.24
   1  -2   9    0.49    0.22
   1  -2   9    0.51    0.20
   1  -2   9    1.34    0.25
  -2   2  -9    3.73    0.42
  -2   2  -9    2.98    0.40
  -2   2  -9    1.68    0.26
   2  -2   9    2.51    0.31
   2  -2   9    2.27    0.30
  -3   2  -9    4.46    0.44
  -3   2  -9    3.74    0.49
   3  -2   9    4.88    0.46
   4   1  -9    4.34    0.53
   4   1  -9    4.18    0.38
   3   1  -9   -0.39    0.29
   3   1  -9    0.02    0.15
  -3  -1   9    0.30    0.26
  -3  -1   9    0.56    0.29
   2   1  -9    0.22    0.19
   2   1  -9    0.13    0.12
   2   1  -9    0.07    0.28
  -2  -1   9    0.42    0.25
  -2  -1   9    0.18    0.26
   1   1  -9    1.87    0.28
   1   1  -9    1.41    0.21
   1   1  -9    1.34    0.26
  -1  -1   9    1.60    0.27
  -1  -1   9    0.62    0.25
   0   1  -9    1.05    0.25
   0   1  -9    1.23    0.23
   0   1  -9    1.51    0.22
   0   1  -9    1.33    0.12
   0   1  -9    1.55    0.28
   0  -1   9    1.09    0.26
   0  -1   9    1.06    0.24
   0  -1   9    1.46    0.25
   0  -1   9    0.93    0.19
  -1   1  -9    0.89    0.28
  -1   1  -9    1.42    0.24
  -1   1  -9    1.47    0.25
  -1   1  -9    1.04    0.15
   1  -1   9    0.94    0.22
   1  -1   9    0.97    0.27
   1  -1   9    1.07    0.22
  -2   1  -9    1.04    0.27
  -2   1  -9    1.17    0.30
  -2   1  -9    0.82    0.26
   2  -1   9    0.90    0.28
   2  -1   9    0.96    0.25
   2  -1   9    1.35    0.22
  -3   1  -9    7.32    0.49
  -3   1  -9    6.60    0.57
   3  -1   9    5.81    0.46
   4   0  -9    1.65    0.28
   4   0  -9    2.43    0.43
   3   0  -9    2.50    0.28
   3   0  -9    2.72    0.42
   3   0  -9    2.63    0.33
  -3   0   9    3.29    0.41
  -3   0   9    3.62    0.41
   2   0  -9    0.67    0.26
   2   0  -9    1.13    0.27
  -2   0   9    0.79    0.31
  -2   0   9    1.09    0.30
   1   0  -9    7.75    0.40
   1   0  -9    6.06    0.46
   1   0  -9    6.50    0.42
  -1   0   9    6.22    0.42
  -1   0   9    6.68    0.44
  -1   0   9    6.25    0.38
  -1   0   9    6.37    0.35
   0   0  -9    0.24    0.17
   0   0  -9    0.05    0.21
   0   0  -9    0.39    0.23
   0   0  -9    0.20    0.19
   0   0   9    0.17    0.19
   0   0   9    0.06    0.16
   0   0   9   -0.06    0.18
   0   0   9    0.14    0.19
  -1   0  -9    7.10    0.29
  -1   0  -9    7.06    0.40
  -1   0  -9    7.44    0.42
  -1   0  -9    7.64    0.47
   1   0   9    7.17    0.43
   1   0   9    7.85    0.45
   1   0   9    7.41    0.43
  -2   0  -9    0.21    0.19
  -2   0  -9    0.25    0.29
  -2   0  -9    0.28    0.25
   2   0   9    0.59    0.22
   2   0   9    0.73    0.27
  -3   0  -9    2.08    0.34
  -3   0  -9    2.09    0.34
   3   0   9    1.84    0.32
   4  -1  -9    4.43    0.60
   4  -1  -9    2.73    0.37
   3  -1  -9    9.33    0.43
   3  -1  -9    9.62    0.52
   3  -1  -9   10.76    0.68
  -3   1   9    9.43    0.56
  -3   1   9    9.71    0.62
   2  -1  -9    0.11    0.25
   2  -1  -9    0.20    0.19
  -2   1   9   -0.14    0.24
  -2   1   9   -0.01    0.24
   1  -1  -9    0.69    0.20
   1  -1  -9    1.32    0.27
   1  -1  -9    0.95    0.25
  -1   1   9    1.22    0.28
  -1   1   9    1.65    0.26
  -1   1   9    0.99    0.25
   0  -1  -9    1.01    0.20
   0  -1  -9    0.95    0.22
   0  -1  -9    1.11    0.22
   0  -1  -9    1.01    0.26
   0   1   9    1.16    0.24
   0   1   9    0.69    0.19
   0   1   9    1.12    0.27
   0   1   9    1.09    0.24
  -1  -1  -9    1.09    0.17
  -1  -1  -9    1.29    0.26
  -1  -1  -9    1.15    0.23
  -1  -1  -9    1.07    0.24
   1   1   9    1.26    0.25
   1   1   9    1.05    0.22
   1   1   9    0.65    0.22
  -2  -1  -9    0.61    0.22
  -2  -1  -9    0.09    0.27
  -2  -1  -9    0.52    0.23
   2   1   9    0.37    0.21
   2   1   9    0.27    0.25
  -3  -1  -9    1.29    0.31
  -3  -1  -9    1.46    0.35
   3   1   9    1.30    0.29
   4  -2  -9    0.00    0.21
   4  -2  -9    0.27    0.34
   3  -2  -9    4.68    0.52
  -3   2   9    4.19    0.56
  -3   2   9    5.71    0.47
   2  -2  -9    3.87    0.43
   2  -2  -9    3.72    0.37
  -2   2   9    3.74    0.45
  -2   2   9    4.03    0.46
   1  -2  -9    0.95    0.27
   1  -2  -9    1.17    0.23
  -1   2   9    1.19    0.21
  -1   2   9    1.19    0.26
  -1   2   9    1.15    0.26
  -1   2   9    0.97    0.23
   0  -2  -9    5.82    0.38
   0  -2  -9    5.88    0.36
   0  -2  -9    6.10    0.40
   0  -2  -9    6.49    0.44
   0   2   9    5.30    0.41
   0   2   9    5.54    0.32
   0   2   9    5.35    0.40
   0   2   9    6.07    0.41
  -1  -2  -9    0.71    0.14
  -1  -2  -9    0.82    0.24
  -1  -2  -9    0.87    0.24
  -1  -2  -9    0.78    0.22
   1   2   9    0.76    0.22
   1   2   9    0.91    0.23
  -2  -2  -9    4.64    0.41
  -2  -2  -9    3.98    0.35
  -2  -2  -9    3.50    0.39
   2   2   9    4.02    0.41
   2   2   9    3.85    0.37
  -3  -2  -9    0.20    0.26
  -3  -2  -9    0.34    0.28
   3   2   9    0.37    0.24
   4  -3  -9    0.02    0.39
   4  -3  -9   -0.05    0.23
  -4   3   9    0.14    0.32
   3  -3  -9    4.31    0.51
  -3   3   9    3.80    0.53
   2  -3  -9   20.63    0.80
  -2   3   9   19.51    0.79
  -2   3   9   18.87    0.76
   1  -3  -9    0.19    0.24
   1  -3  -9   -0.02    0.17
  -1   3   9   -0.01    0.20
  -1   3   9    0.06    0.19
  -1   3   9   -0.04    0.22
  -1   3   9   -0.20    0.20
   0  -3  -9    0.88    0.22
   0  -3  -9    0.86    0.26
   0   3   9    0.97    0.18
   0   3   9    1.38    0.26
   0   3   9    1.19    0.24
  -1  -3  -9   -0.04    0.21
  -1  -3  -9    0.07    0.24
  -1  -3  -9    0.23    0.23
   1   3   9    0.27    0.21
   1   3   9    0.08    0.19
  -2  -3  -9    0.12    0.23
  -2  -3  -9    0.25    0.22
  -2  -3  -9    0.20    0.20
   2   3   9   -0.06    0.21
   2   3   9    0.34    0.21
  -3  -3  -9   -0.12    0.26
   3   3   9    0.32    0.24
   3  -4  -9    0.06    0.31
  -3   4   9   -0.10    0.32
   2  -4  -9    9.72    0.60
  -2   4   9    9.61    0.59
   1  -4  -9    4.13    0.43
  -1   4   9    4.65    0.45
  -1   4   9    3.62    0.32
  -1   4   9    3.66    0.41
   0  -4  -9    0.51    0.25
   0  -4  -9    0.53    0.21
   0   4   9    0.33    0.22
   0   4   9    0.57    0.22
   0   4   9    0.37    0.16
  -1  -4  -9    2.73    0.36
  -1  -4  -9    2.70    0.34
   1   4   9    3.16    0.40
   1   4   9    3.22    0.34
  -2  -4  -9    0.30    0.24
  -2  -4  -9    1.02    0.26
   2   4   9    1.00    0.25
   2   4   9    0.54    0.22
  -3  -4  -9    1.79    0.32
   3   4   9    1.40    0.29
   3  -5  -9   -0.31    0.32
  -3   5   9   -0.19    0.32
   2  -5  -9    5.04    0.56
  -2   5   9    5.11    0.55
   1  -5  -9   24.18    0.84
  -1   5   9   23.16    0.72
  -1   5   9   23.16    0.84
   0  -5  -9    0.20    0.20
   0  -5  -9   -0.22    0.25
   0   5   9   -0.09    0.16
   0   5   9   -0.04    0.19
   0   5   9   -0.11    0.20
  -1  -5  -9    0.31    0.25
  -1  -5  -9    0.38    0.23
   1   5   9    0.71    0.27
   1   5   9   -0.02    0.19
  -2  -5  -9    0.22    0.25
  -2  -5  -9    0.23    0.24
   2   5   9   -0.14    0.22
   2   5   9    0.07    0.22
  -3  -5  -9   -0.55    0.26
   3   5   9   -0.09    0.21
   3  -6  -9    0.61    0.35
  -3   6   9    0.15    0.37
   2  -6  -9    0.33    0.31
  -2   6   9    0.55    0.33
   1  -6  -9   11.03    0.63
  -1   6   9   10.02    0.43
  -1   6   9   10.41    0.59
   0  -6  -9    3.30    0.34
   0  -6  -9    2.79    0.35
   0   6   9    2.24    0.27
   0   6   9    3.12    0.39
   0   6   9    3.23    0.33
  -1  -6  -9    0.41    0.27
  -1  -6  -9    0.32    0.24
   1   6   9    0.25    0.24
   1   6   9    0.43    0.19
  -2  -6  -9    1.21    0.30
  -2  -6  -9    0.96    0.26
   2   6   9    1.15    0.28
  -3  -6  -9    0.22    0.29
   3   6   9    0.14    0.25
   3  -7  -9   -0.07    0.33
  -3   7   9    0.51    0.38
   2  -7  -9   -0.07    0.32
  -2   7   9   -0.26    0.31
   1  -7  -9    2.85    0.40
  -1   7   9    2.74    0.26
  -1   7   9    2.72    0.38
   0  -7  -9   20.92    0.78
   0  -7  -9   20.19    0.67
   0   7   9   19.62    0.78
  -1  -7  -9    0.66    0.27
  -1  -7  -9    0.49    0.27
   1   7   9    0.37    0.22
   1   7   9    0.54    0.25
  -2  -7  -9    0.32    0.27
   2   7   9   -0.11    0.20
  -3  -7  -9    0.26    0.29
   3   7   9   -0.37    0.20
   3  -8  -9    0.51    0.38
  -3   8   9    0.46    0.35
   2  -8  -9    0.47    0.34
  -2   8   9    0.01    0.31
   1  -8  -9    0.90    0.37
  -1   8   9    0.74    0.37
  -1   8   9    0.77    0.17
   0  -8  -9    8.84    0.55
   0  -8  -9    7.96    0.45
   0   8   9    8.04    0.56
  -1  -8  -9    1.90    0.31
  -1  -8  -9    1.84    0.31
   1   8   9    2.03    0.33
  -2  -8  -9    0.11    0.25
   2   8   9    0.31    0.25
   3  -9  -9    0.25    0.35
  -3   9   9   -0.14    0.36
   2  -9  -9    0.14    0.32
  -2   9   9   -0.31    0.37
   1  -9  -9   -0.04    0.28
  -1   9   9   -0.08    0.28
  -1   9   9    0.01    0.14
   0  -9  -9    1.78    0.34
   0  -9  -9    2.14    0.31
   0   9   9    2.55    0.40
   0   9   9    1.81    0.29
  -1  -9  -9    9.87    0.51
  -1  -9  -9   11.01    0.59
   1   9   9   10.85    0.57
  -2  -9  -9    0.82    0.28
   2   9   9    0.95    0.27
   2 -10  -9    0.22    0.33
  -2  10   9    0.78    0.40
   1 -10  -9    0.56    0.31
  -1  10   9   -0.08    0.29
   0 -10  -9    0.12    0.31
   0 -10  -9    0.70    0.24
   0  10   9    0.36    0.32
  -1 -10  -9    3.73    0.37
   1  10   9    3.63    0.42
  -2 -10  -9    1.20    0.33
   2  10   9    0.71    0.29
   2 -11  -9    0.77    0.37
  -2  11   9    0.48    0.37
   1 -11  -9   -0.02    0.34
  -1  11   9    0.16    0.31
   0 -11  -9   -0.12    0.24
   0 -11  -9    0.09    0.22
   0  11   9    0.19    0.28
  -1 -11  -9    0.66    0.27
   1  11   9    0.83    0.28
   2 -12  -9    0.75    0.37
  -2  12   9    0.81    0.41
   1 -12  -9    0.31    0.30
  -1  12   9   -0.15    0.36
   0  12   9    0.42    0.29
  -1 -12  -9   -0.02    0.26
   1  12   9    0.40    0.26
  -1  13   9    0.46    0.32
   0  13   9    0.36    0.35
   0  13 -10    0.72    0.31
   0 -13  10   -0.11    0.33
   1  12 -10    0.04    0.31
  -1 -12  10   -0.21    0.32
   0  12 -10    1.82    0.34
   0 -12  10    1.08    0.37
  -1  12 -10   -0.47    0.28
   1 -12  10    0.04    0.32
   1 -12  10   -0.34    0.30
   2  11 -10    0.06    0.25
  -2 -11  10    0.04    0.37
   1  11 -10    2.78    0.39
  -1 -11  10    2.91    0.48
   0  11 -10    0.37    0.30
   0 -11  10    0.48    0.32
   0 -11  10    0.33    0.37
  -1  11 -10    0.57    0.33
   1 -11  10   -0.06    0.33
   1 -11  10    0.17    0.27
  -2  11 -10    1.31    0.35
   2 -11  10    1.44    0.36
   2 -11  10    1.34    0.34
   2  10 -10    5.64    0.44
  -2 -10  10    4.57    0.58
   1  10 -10    6.94    0.52
  -1 -10  10    5.83    0.60
   0  10 -10    1.32    0.34
   0 -10  10    1.33    0.37
   0 -10  10    1.26    0.31
  -1  10 -10    2.51    0.40
   1 -10  10    2.32    0.23
   1 -10  10    2.51    0.40
   1 -10  10    3.23    0.39
  -2  10 -10    0.50    0.31
  -2  10 -10    0.28    0.24
   2 -10  10   -0.07    0.28
   2 -10  10    0.22    0.30
   2 -10  10    0.20    0.19
   2   9 -10    1.78    0.31
  -2  -9  10    2.06    0.45
   1   9 -10    0.27    0.29
  -1  -9  10    0.28    0.25
  -1  -9  10    0.18    0.31
   0   9 -10    7.51    0.52
   0   9 -10    7.13    0.44
   0  -9  10    7.26    0.55
   0  -9  10    7.90    0.53
  -1   9 -10    0.95    0.31
  -1   9 -10    0.89    0.24
   1  -9  10    0.86    0.31
   1  -9  10    1.14    0.34
   1  -9  10    0.86    0.15
  -2   9 -10    0.20    0.24
  -2   9 -10    0.60    0.32
   2  -9  10    0.43    0.29
   2  -9  10    0.05    0.17
   2  -9  10   -0.17    0.28
   3   8 -10   -0.07    0.24
  -3  -8  10    0.10    0.30
   2   8 -10    4.61    0.42
  -2  -8  10    4.59    0.53
   1   8 -10    9.31    0.48
   1   8 -10   10.34    0.55
  -1  -8  10   10.31    0.53
  -1  -8  10    8.70    0.58
   0   8 -10    8.14    0.47
   0   8 -10    8.92    0.56
   0  -8  10    8.72    0.49
   0  -8  10    9.26    0.59
  -1   8 -10    3.20    0.39
  -1   8 -10    1.67    0.27
   1  -8  10    1.91    0.20
   1  -8  10    3.14    0.40
   1  -8  10    3.10    0.43
  -2   8 -10    1.58    0.29
  -2   8 -10    2.04    0.39
   2  -8  10    1.88    0.35
   2  -8  10    1.62    0.31
   2  -8  10    1.37    0.21
  -3   8 -10    1.18    0.37
   3   7 -10    0.80    0.28
  -3  -7  10    0.51    0.37
   2   7 -10    0.52    0.26
  -2  -7  10    0.07    0.22
  -2  -7  10   -0.35    0.31
   1   7 -10    3.83    0.34
   1   7 -10    3.85    0.49
  -1  -7  10    3.68    0.39
  -1  -7  10    3.72    0.46
   0   7 -10    1.72    0.31
   0   7 -10    1.47    0.25
   0  -7  10    2.18    0.33
   0  -7  10    1.66    0.33
  -1   7 -10   11.44    0.60
  -1   7 -10   10.86    0.49
   1  -7  10   10.53    0.60
   1  -7  10   10.72    0.36
   1  -7  10   11.11    0.61
  -2   7 -10    1.10    0.25
  -2   7 -10    1.50    0.37
   2  -7  10    1.90    0.39
   2  -7  10    1.50    0.21
   2  -7  10    1.68    0.29
  -3   7 -10    0.28    0.33
  -3   7 -10   -0.45    0.28
   3  -7  10    0.67    0.33
   3  -7  10    0.75    0.25
   3   6 -10   -0.16    0.29
  -3  -6  10    0.65    0.34
   2   6 -10    0.21    0.26
  -2  -6  10   -0.24    0.23
  -2  -6  10    0.13    0.32
   1   6 -10    5.50    0.38
   1   6 -10    5.58    0.45
  -1  -6  10    4.87    0.48
  -1  -6  10    5.62    0.41
   0   6 -10   18.07    0.71
   0   6 -10   17.76    0.65
   0  -6  10   17.56    0.74
   0  -6  10   18.18    0.68
  -1   6 -10    7.31    0.52
  -1   6 -10    8.79    0.47
   1  -6  10    8.43    0.53
   1  -6  10    7.97    0.49
  -2   6 -10    3.51    0.44
  -2   6 -10    2.93    0.39
   2  -6  10    3.63    0.29
   2  -6  10    3.28    0.44
   2  -6  10    3.25    0.43
  -3   6 -10    0.09    0.25
  -3   6 -10   -0.26    0.31
   3  -6  10    0.81    0.38
   3  -6  10    0.23    0.22
   3   5 -10    0.13    0.28
  -3  -5  10    0.11    0.30
   2   5 -10    0.86    0.30
   2   5 -10    0.91    0.21
  -2  -5  10    0.40    0.27
  -2  -5  10    1.37    0.29
   1   5 -10    0.15    0.25
   1   5 -10    0.15    0.17
  -1  -5  10   -0.37    0.24
  -1  -5  10    0.06    0.23
   0   5 -10    6.49    0.40
   0   5 -10    5.72    0.44
   0  -5  10    6.17    0.45
   0  -5  10    5.38    0.47
  -1   5 -10    4.42    0.46
  -1   5 -10    3.86    0.37
   1  -5  10    3.81    0.44
   1  -5  10    4.19    0.42
  -2   5 -10   10.24    0.51
  -2   5 -10    9.56    0.63
   2  -5  10   10.34    0.54
   2  -5  10   10.06    0.58
  -3   5 -10    1.03    0.32
  -3   5 -10    0.84    0.38
   3  -5  10    0.70    0.31
   3   4 -10    0.08    0.29
  -3  -4  10    0.23    0.27
   2   4 -10    0.00    0.18
   2   4 -10    0.38    0.28
  -2  -4  10    0.20    0.26
  -2  -4  10    0.36    0.22
   1   4 -10    0.86    0.23
   1   4 -10    0.93    0.30
  -1  -4  10    1.26    0.27
  -1  -4  10    0.91    0.26
   0   4 -10    3.84    0.39
   0   4 -10    3.79    0.33
   0   4 -10    3.60    0.36
   0  -4  10    2.98    0.38
   0  -4  10    3.77    0.39
  -1   4 -10   20.84    0.76
  -1   4 -10   21.59    0.74
   1  -4  10   21.16    0.78
   1  -4  10   20.95    0.76
  -2   4 -10    6.83    0.57
  -2   4 -10    6.48    0.45
  -2   4 -10    5.02    0.38
   2  -4  10    6.05    0.43
   2  -4  10    5.72    0.48
  -3   4 -10    3.39    0.42
  -3   4 -10    3.04    0.44
   3  -4  10    3.29    0.45
   3   3 -10    0.75    0.35
  -3  -3  10    0.30    0.30
  -3  -3  10   -0.12    0.26
   2   3 -10    0.79    0.26
   2   3 -10    0.88    0.23
  -2  -3  10    0.57    0.30
  -2  -3  10    0.84    0.27
   1   3 -10    1.49    0.24
   1   3 -10    1.30    0.29
  -1  -3  10    1.41    0.28
  -1  -3  10    1.41    0.26
   0   3 -10    0.12    0.18
   0   3 -10   -0.02    0.22
   0  -3  10    0.32    0.23
   0  -3  10    0.24    0.22
  -1   3 -10    5.42    0.39
  -1   3 -10    5.94    0.47
   1  -3  10    4.92    0.44
   1  -3  10    4.79    0.41
  -2   3 -10    5.19    0.38
  -2   3 -10    5.65    0.50
  -2   3 -10    6.01    0.43
   2  -3  10    5.80    0.41
   2  -3  10    5.15    0.48
  -3   3 -10    6.48    0.58
  -3   3 -10    6.25    0.52
   3  -3  10    5.57    0.50
   3   2 -10    0.26    0.16
   3   2 -10    0.60    0.30
  -3  -2  10    0.49    0.26
  -3  -2  10   -0.03    0.30
   2   2 -10    0.96    0.25
   2   2 -10    0.90    0.12
   2   2 -10    1.18    0.30
  -2  -2  10    0.76    0.28
  -2  -2  10    0.96    0.27
   1   2 -10    1.40    0.24
   1   2 -10    1.57    0.29
  -1  -2  10    1.63    0.29
  -1  -2  10    1.60    0.29
   0   2 -10    2.48    0.33
   0   2 -10    2.24    0.27
   0   2 -10    2.17    0.28
   0  -2  10    2.02    0.29
   0  -2  10    2.11    0.30
  -1   2 -10    2.10    0.33
  -1   2 -10    2.13    0.32
   1  -2  10    1.79    0.28
   1  -2  10    1.82    0.32
  -2   2 -10   17.04    0.77
  -2   2 -10   18.15    0.68
  -2   2 -10   16.42    0.63
   2  -2  10   18.06    0.66
   2  -2  10   16.09    0.67
  -3   2 -10    2.76    0.41
  -3   2 -10    2.93    0.42
   3  -2  10    2.64    0.36
   3   1 -10    1.88    0.40
   3   1 -10    1.52    0.20
  -3  -1  10    1.73    0.36
  -3  -1  10    1.77    0.35
   2   1 -10    0.11    0.11
   2   1 -10    0.13    0.20
   2   1 -10    0.15    0.25
  -2  -1  10   -0.01    0.28
  -2  -1  10    0.46    0.28
   1   1 -10    2.24    0.31
   1   1 -10    1.93    0.31
  -1  -1  10    2.13    0.32
  -1  -1  10    2.10    0.31
   0   1 -10    2.25    0.31
   0   1 -10    2.52    0.14
   0   1 -10    2.30    0.29
   0   1 -10    2.36    0.31
   0  -1  10    2.12    0.31
   0  -1  10    3.07    0.38
  -1   1 -10   -0.01    0.23
  -1   1 -10    0.11    0.12
  -1   1 -10    0.26    0.24
   1  -1  10   -0.01    0.22
   1  -1  10    0.26    0.23
   1  -1  10    0.26    0.22
  -2   1 -10    3.59    0.40
  -2   1 -10    3.72    0.43
  -2   1 -10    3.08    0.42
   2  -1  10    3.73    0.44
   2  -1  10    3.47    0.38
  -3   1 -10    3.88    0.46
  -3   1 -10    4.20    0.54
   3  -1  10    3.76    0.43
   3   0 -10    7.98    0.59
   3   0 -10    8.00    0.39
  -3   0  10    8.53    0.55
  -3   0  10    8.11    0.57
   2   0 -10    1.05    0.24
   2   0 -10    1.12    0.32
  -2   0  10    1.25    0.33
  -2   0  10    1.88    0.33
   1   0 -10    2.49    0.35
   1   0 -10    2.10    0.29
  -1   0  10    1.61    0.30
  -1   0  10    2.31    0.33
   0   0 -10    2.97    0.39
   0   0 -10    2.42    0.33
   0   0 -10    2.71    0.29
   0   0  10    2.94    0.34
   0   0  10    3.11    0.36
   0   0  10    2.68    0.38
  -1   0 -10    2.28    0.33
  -1   0 -10    2.20    0.20
  -1   0 -10    2.92    0.38
   1   0  10    2.48    0.34
   1   0  10    2.07    0.31
   1   0  10    2.15    0.32
  -2   0 -10    0.30    0.26
  -2   0 -10    1.17    0.33
  -2   0 -10    0.92    0.29
   2   0  10    0.67    0.23
   2   0  10    0.79    0.29
  -3   0 -10    8.94    0.62
  -3   0 -10    9.75    0.55
   3   0  10    8.54    0.55
   3  -1 -10    4.79    0.34
   3  -1 -10    4.71    0.53
  -3   1  10    4.00    0.52
  -3   1  10    5.10    0.50
   2  -1 -10    3.53    0.46
   2  -1 -10    3.85    0.39
  -2   1  10    3.89    0.52
  -2   1  10    4.54    0.49
   1  -1 -10    0.09    0.25
   1  -1 -10    0.21    0.19
  -1   1  10    0.29    0.27
  -1   1  10    0.18    0.25
   0  -1 -10    2.88    0.33
   0  -1 -10    2.80    0.33
   0   1  10    2.61    0.34
   0   1  10    2.52    0.32
   0   1  10    2.40    0.33
  -1  -1 -10    1.02    0.26
  -1  -1 -10    0.74    0.18
   1   1  10    1.25    0.25
   1   1  10    1.32    0.26
   1   1  10    0.82    0.25
  -2  -1 -10   -0.23    0.26
  -2  -1 -10   -0.02    0.27
   2   1  10    0.37    0.23
   2   1  10   -0.18    0.24
  -3  -1 -10    1.65    0.35
  -3  -1 -10    1.83    0.34
   3   1  10    0.75    0.25
   3  -2 -10    6.63    0.64
  -3   2  10    7.07    0.53
  -3   2  10    6.19    0.58
   2  -2 -10   13.34    0.69
  -2   2  10   15.73    0.72
  -2   2  10   15.55    0.68
   1  -2 -10    3.18    0.44
  -1   2  10    3.46    0.41
  -1   2  10    3.37    0.39
   0  -2 -10    3.67    0.43
   0  -2 -10    1.93    0.27
   0   2  10    2.24    0.29
   0   2  10    2.24    0.32
   0   2  10    2.60    0.35
  -1  -2 -10    1.87    0.28
  -1  -2 -10    1.79    0.23
  -1  -2 -10    1.53    0.29
   1   2  10    1.29    0.27
   1   2  10    1.34    0.26
  -2  -2 -10    2.46    0.34
  -2  -2 -10    1.24    0.29
   2   2  10    0.96    0.30
   2   2  10    1.53    0.30
  -3  -2 -10    0.22    0.31
   3   2  10    0.42    0.27
   3  -3 -10    7.67    0.64
  -3   3  10    7.80    0.62
   2  -3 -10    4.65    0.51
  -2   3  10    5.30    0.51
  -2   3  10    5.63    0.53
   1  -3 -10    7.52    0.53
  -1   3  10    5.96    0.47
  -1   3  10    6.72    0.49
   0  -3 -10    0.22    0.24
   0  -3 -10    0.44    0.25
   0   3  10    0.02    0.21
   0   3  10    0.20    0.23
  -1  -3 -10    0.89    0.27
  -1  -3 -10    1.02    0.27
   1   3  10    1.55    0.30
   1   3  10    0.98    0.25
  -2  -3 -10    0.24    0.27
   2   3  10    0.31    0.23
   2   3  10    0.06    0.25
  -3  -3 -10   -0.27    0.29
   3   3  10    0.28    0.26
   3  -4 -10    2.00    0.39
  -3   4  10    2.76    0.43
   2  -4 -10    8.33    0.62
  -2   4  10    9.34    0.61
   1  -4 -10   21.33    0.83
  -1   4  10   20.87    0.81
   0  -4 -10    5.35    0.49
   0  -4 -10    5.67    0.40
   0   4  10    5.92    0.45
   0   4  10    6.34    0.42
  -1  -4 -10    1.11    0.27
  -1  -4 -10    0.93    0.26
   1   4  10    0.67    0.26
   1   4  10    0.76    0.27
  -2  -4 -10    0.53    0.28
  -2  -4 -10    0.51    0.26
   2   4  10    0.54    0.27
  -3  -4 -10    0.57    0.32
   3   4  10    0.46    0.26
   3  -5 -10    1.13    0.37
  -3   5  10    1.26    0.39
   2  -5 -10   13.69    0.74
  -2   5  10   12.96    0.73
   1  -5 -10    2.76    0.40
  -1   5  10    2.02    0.37
   0  -5 -10    8.03    0.54
   0  -5 -10    7.50    0.44
   0   5  10    7.56    0.46
   0   5  10    7.88    0.50
  -1  -5 -10    0.24    0.24
  -1  -5 -10   -0.07    0.23
   1   5  10   -0.41    0.21
   1   5  10   -0.27    0.24
  -2  -5 -10    0.41    0.24
  -2  -5 -10    0.25    0.28
   2   5  10    0.72    0.27
  -3  -5 -10   -0.20    0.30
   3   5  10    0.22    0.22
   3  -6 -10    1.77    0.43
  -3   6  10    1.58    0.42
   2  -6 -10    3.25    0.45
  -2   6  10    3.08    0.45
   1  -6 -10   10.26    0.62
  -1   6  10    9.16    0.59
   0  -6 -10   18.41    0.79
   0  -6 -10   17.99    0.67
   0   6  10   17.74    0.73
   0   6  10   19.97    0.69
  -1  -6 -10    6.54    0.53
  -1  -6 -10    6.30    0.46
   1   6  10    6.47    0.47
   1   6  10    5.00    0.47
  -2  -6 -10   -0.05    0.24
  -2  -6 -10    0.06    0.32
   2   6  10    0.16    0.25
  -3  -6 -10    0.03    0.31
   3   6  10   -0.11    0.21
   3  -7 -10    0.74    0.37
  -3   7  10    0.30    0.42
   2  -7 -10    0.55    0.34
  -2   7  10    1.18    0.36
   1  -7 -10   12.21    0.66
  -1   7  10   12.28    0.67
   0  -7 -10   -0.13    0.21
   0  -7 -10    0.98    0.31
   0   7  10    0.66    0.27
   0   7  10   -0.05    0.29
  -1  -7 -10    4.58    0.40
  -1  -7 -10    4.76    0.45
   1   7  10    4.72    0.37
   1   7  10    4.63    0.41
  -2  -7 -10    0.12    0.28
   2   7  10    0.14    0.23
   3  -8 -10   -0.09    0.35
  -3   8  10    0.17    0.39
   2  -8 -10    2.79    0.46
  -2   8  10    2.73    0.44
   1  -8 -10    1.76    0.38
  -1   8  10    1.86    0.37
   0  -8 -10    8.82    0.59
   0  -8 -10    8.16    0.46
   0   8  10    7.94    0.46
   0   8  10    7.84    0.52
  -1  -8 -10   10.99    0.54
  -1  -8 -10   10.99    0.61
   1   8  10   12.53    0.61
  -2  -8 -10    4.10    0.43
   2   8  10    3.73    0.40
   2  -9 -10    0.42    0.34
  -2   9  10    0.32    0.40
   1  -9 -10    1.32    0.37
  -1   9  10    0.45    0.32
   0  -9 -10    8.74    0.47
   0  -9 -10    8.91    0.59
   0   9  10    9.97    0.61
  -1  -9 -10    0.36    0.24
   1   9  10    0.31    0.30
  -2  -9 -10    2.49    0.39
   2   9  10    1.81    0.33
   2 -10 -10   -0.19    0.32
  -2  10  10    0.20    0.36
   1 -10 -10    2.50    0.41
  -1  10  10    2.24    0.42
   0 -10 -10    0.45    0.25
   0 -10 -10    0.74    0.35
   0  10  10    0.24    0.34
  -1 -10 -10    4.88    0.43
   1  10  10    4.80    0.50
   2 -11 -10    1.18    0.39
  -2  11  10    1.89    0.46
   1 -11 -10    0.35    0.34
  -1  11  10    0.38    0.32
   0 -11 -10    0.23    0.24
   0  11  10    0.43    0.29
  -1 -11 -10    3.68    0.39
   1  11  10    4.63    0.56
   1 -12 -10   -0.49    0.29
  -1  12  10   -0.25    0.36
   0  12  10    1.61    0.38
   1  12 -11   -0.28    0.32
  -1 -12  11   -0.09    0.42
   0  12 -11    0.22    0.27
   0 -12  11   -0.14    0.37
  -1  12 -11   -0.15    0.36
   1 -12  11   -0.46    0.29
   1 -12  11   -0.07    0.28
   1  11 -11    0.17    0.27
  -1 -11  11   -0.53    0.33
   0  11 -11    0.00    0.27
   0 -11  11    0.29    0.25
   0 -11  11   -0.27    0.36
  -1  11 -11    0.40    0.32
   1 -11  11   -0.12    0.32
   1 -11  11    0.20    0.37
   2  10 -11    0.04    0.27
  -2 -10  11    0.26    0.38
   1  10 -11    0.18    0.29
  -1 -10  11    0.10    0.33
   0  10 -11    0.64    0.33
   0 -10  11    0.03    0.25
   0 -10  11    0.03    0.31
  -1  10 -11   -0.03    0.29
   1 -10  11    0.01    0.28
   1 -10  11   -0.23    0.33
  -2  10 -11    0.15    0.34
  -2  10 -11   -0.05    0.25
   2 -10  11    0.40    0.33
   2 -10  11   -0.11    0.31
   2   9 -11    2.25    0.33
  -2  -9  11    2.43    0.42
   1   9 -11    0.09    0.29
  -1  -9  11    0.73    0.30
  -1  -9  11   -0.07    0.33
   0   9 -11   -0.02    0.30
   0  -9  11    0.26    0.36
   0  -9  11   -0.10    0.24
  -1   9 -11    0.18    0.29
   1  -9  11   -0.09    0.28
   1  -9  11   -0.11    0.27
  -2   9 -11   -0.04    0.33
  -2   9 -11    0.31    0.25
   2  -9  11    0.19    0.31
   2  -9  11    0.27    0.28
   2   8 -11    2.02    0.36
  -2  -8  11    1.52    0.42
   1   8 -11   -0.08    0.31
  -1  -8  11    0.19    0.31
  -1  -8  11   -0.20    0.26
   0   8 -11    0.80    0.24
   0   8 -11    0.83    0.34
   0  -8  11    0.66    0.30
   0  -8  11    0.50    0.26
  -1   8 -11    0.26    0.30
  -1   8 -11    0.04    0.22
   1  -8  11    0.11    0.12
   1  -8  11   -0.42    0.27
   1  -8  11    0.20    0.26
  -2   8 -11    0.87    0.24
  -2   8 -11    0.08    0.34
   2  -8  11    0.33    0.18
   2  -8  11    0.10    0.30
   2  -8  11    0.22    0.25
   3   7 -11    0.35    0.30
  -3  -7  11    0.62    0.36
   2   7 -11    3.51    0.46
  -2  -7  11    2.49    0.41
   1   7 -11    6.95    0.51
   1   7 -11    6.46    0.39
  -1  -7  11    6.88    0.46
  -1  -7  11    6.94    0.55
   0   7 -11    0.90    0.29
   0   7 -11    0.69    0.23
   0  -7  11    0.49    0.25
   0  -7  11    1.17    0.31
  -1   7 -11   -0.08    0.30
  -1   7 -11    0.29    0.25
   1  -7  11   -0.09    0.28
   1  -7  11    0.30    0.28
  -2   7 -11    0.35    0.35
  -2   7 -11   -0.26    0.25
   2  -7  11    0.23    0.28
   2  -7  11   -0.02    0.15
   2  -7  11    0.34    0.28
   3   6 -11    0.16    0.31
  -3  -6  11    0.56    0.34
   2   6 -11   -0.13    0.28
  -2  -6  11   -0.10    0.26
  -2  -6  11   -0.11    0.28
   1   6 -11    4.69    0.39
   1   6 -11    5.77    0.54
  -1  -6  11    4.90    0.42
  -1  -6  11    4.83    0.51
   0   6 -11    0.15    0.20
   0   6 -11    0.02    0.25
   0  -6  11   -0.07    0.28
   0  -6  11   -0.16    0.28
  -1   6 -11    1.13    0.30
  -1   6 -11    1.24    0.37
   1  -6  11    1.63    0.32
   1  -6  11    1.49    0.29
  -2   6 -11   -0.24    0.31
  -2   6 -11    0.51    0.29
   2  -6  11    0.19    0.26
   2  -6  11    0.60    0.31
  -3   6 -11    0.10    0.29
  -3   6 -11    0.70    0.38
   3  -6  11    0.37    0.32
   3   5 -11    1.28    0.33
  -3  -5  11    0.51    0.31
   2   5 -11    1.93    0.32
  -2  -5  11    2.12    0.35
  -2  -5  11    1.50    0.33
   1   5 -11    4.09    0.35
   1   5 -11    3.22    0.39
  -1  -5  11    3.00    0.42
  -1  -5  11    4.26    0.43
   0   5 -11   12.00    0.55
   0   5 -11   12.76    0.60
   0  -5  11   13.23    0.59
   0  -5  11   12.66    0.61
  -1   5 -11    0.86    0.28
  -1   5 -11    1.10    0.32
   1  -5  11    0.45    0.24
   1  -5  11   -0.09    0.24
  -2   5 -11    0.23    0.26
  -2   5 -11    0.32    0.32
   2  -5  11    0.51    0.26
   2  -5  11    0.20    0.29
  -3   5 -11    0.28    0.28
  -3   5 -11    0.70    0.38
   3  -5  11    0.17    0.30
   3   4 -11    0.67    0.34
  -3  -4  11    0.58    0.33
   2   4 -11   -0.07    0.29
   2   4 -11   -0.04    0.16
  -2  -4  11    0.48    0.29
  -2  -4  11    0.07    0.25
   1   4 -11    0.24    0.29
   1   4 -11   -0.08    0.21
  -1  -4  11   -0.04    0.28
  -1  -4  11   -0.07    0.24
   0   4 -11    8.99    0.50
   0  -4  11    9.94    0.54
   0  -4  11    9.37    0.55
  -1   4 -11   -0.01    0.24
  -1   4 -11    0.40    0.30
   1  -4  11    0.10    0.25
   1  -4  11    0.02    0.25
  -2   4 -11    0.76    0.31
  -2   4 -11    1.53    0.36
   2  -4  11    0.95    0.30
   2  -4  11    0.99    0.31
  -3   4 -11    1.08    0.38
  -3   4 -11    0.01    0.29
   3  -4  11    0.83    0.31
   3   3 -11    0.67    0.31
  -3  -3  11    0.59    0.34
   2   3 -11    1.74    0.33
   2   3 -11    1.33    0.23
  -2  -3  11    1.49    0.34
  -2  -3  11    2.24    0.36
   1   3 -11    4.02    0.47
   1   3 -11    3.86    0.35
  -1  -3  11    3.28    0.43
  -1  -3  11    4.39    0.42
   0   3 -11    4.38    0.41
   0  -3  11    3.88    0.41
   0  -3  11    4.98    0.44
  -1   3 -11   14.55    0.62
  -1   3 -11   13.01    0.65
   1  -3  11   14.19    0.61
   1  -3  11   14.53    0.66
  -2   3 -11   -0.48    0.28
  -2   3 -11    0.33    0.31
   2  -3  11    0.13    0.22
   2  -3  11    0.00    0.27
  -3   3 -11   -0.19    0.28
  -3   3 -11   -0.06    0.31
   3  -3  11   -0.32    0.28
   3   2 -11    4.55    0.57
  -3  -2  11    4.64    0.49
  -3  -2  11    4.05    0.52
   2   2 -11    0.49    0.24
   2   2 -11    0.34    0.29
  -2  -2  11    0.23    0.29
  -2  -2  11    0.24    0.31
   1   2 -11   -0.08    0.19
   1   2 -11   -0.07    0.24
  -1  -2  11   -0.39    0.30
  -1  -2  11    0.12    0.27
   0   2 -11    0.32    0.28
   0   2 -11    0.35    0.23
   0  -2  11    0.81    0.30
   0  -2  11    0.53    0.26
  -1   2 -11   10.02    0.57
  -1   2 -11   11.45    0.55
   1  -2  11    9.88    0.55
   1  -2  11   10.73    0.54
  -2   2 -11   -0.33    0.26
  -2   2 -11    0.21    0.30
   2  -2  11    0.33    0.26
   2  -2  11   -0.02    0.24
  -3   2 -11    0.47    0.30
  -3   2 -11    0.28    0.32
   3  -2  11   -0.12    0.30
   3   1 -11    6.05    0.57
   3   1 -11    5.71    0.31
  -3  -1  11    5.58    0.53
  -3  -1  11    6.11    0.52
   2   1 -11    1.51    0.27
   2   1 -11    1.63    0.33
   2   1 -11    1.28    0.17
  -2  -1  11    1.20    0.35
  -2  -1  11    1.23    0.34
   1   1 -11    3.74    0.44
   1   1 -11    2.87    0.33
  -1  -1  11    3.39    0.40
  -1  -1  11    3.34    0.42
   0   1 -11    4.98    0.40
   0   1 -11    5.58    0.49
   0   1 -11    5.03    0.20
   0  -1  11    4.99    0.44
   0  -1  11    4.69    0.42
  -1   1 -11    3.77    0.40
  -1   1 -11    3.11    0.24
  -1   1 -11    3.48    0.43
   1  -1  11    3.62    0.39
   1  -1  11    3.53    0.42
  -2   1 -11    7.89    0.57
  -2   1 -11    8.05    0.50
   2  -1  11    6.92    0.48
   2  -1  11    8.32    0.51
  -3   1 -11    0.40    0.32
  -3   1 -11    0.23    0.31
   3  -1  11   -0.06    0.29
   3   0 -11    0.24    0.34
   3   0 -11   -0.17    0.16
  -3   0  11    0.16    0.38
  -3   0  11    0.57    0.33
   2   0 -11    8.08    0.57
  -2   0  11    8.63    0.53
  -2   0  11    8.55    0.57
   1   0 -11    0.73    0.30
  -1   0  11    0.41    0.27
  -1   0  11    0.73    0.29
   0   0 -11    0.15    0.27
   0   0 -11    0.21    0.23
   0   0  11    0.07    0.23
   0   0  11    0.14    0.24
  -1   0 -11    0.27    0.25
  -1   0 -11    0.34    0.15
   1   0  11    0.30    0.28
   1   0  11    0.12    0.24
  -2   0 -11    7.61    0.48
  -2   0 -11    7.15    0.53
   2   0  11    6.50    0.46
  -3   0 -11    0.12    0.31
  -3   0 -11   -0.54    0.28
   3   0  11    0.46    0.30
   3  -1 -11   -0.05    0.32
   3  -1 -11    0.10    0.20
  -3   1  11    0.65    0.33
  -3   1  11    0.13    0.32
   2  -1 -11    9.44    0.61
  -2   1  11    9.14    0.61
  -2   1  11   10.39    0.63
   1  -1 -11    4.63    0.47
  -1   1  11    3.89    0.47
  -1   1  11    4.99    0.46
   0  -1 -11    5.14    0.47
   0  -1 -11    5.02    0.40
   0   1  11    4.85    0.45
   0   1  11    4.97    0.48
  -1  -1 -11    3.36    0.27
  -1  -1 -11    3.49    0.40
  -1  -1 -11    4.02    0.44
   1   1  11    3.91    0.44
   1   1  11    2.98    0.43
  -2  -1 -11    2.01    0.34
  -2  -1 -11    1.82    0.33
   2   1  11    1.27    0.27
  -3  -1 -11    3.67    0.46
   3   1  11    2.22    0.35
   3  -2 -11    1.53    0.38
  -3   2  11    0.87    0.34
  -3   2  11    0.51    0.39
   2  -2 -11    0.25    0.36
  -2   2  11    0.46    0.32
  -2   2  11   -0.31    0.28
   1  -2 -11   11.37    0.64
  -1   2  11   11.22    0.60
  -1   2  11   10.96    0.60
   0  -2 -11    0.12    0.25
   0  -2 -11   -0.03    0.28
   0   2  11   -0.11    0.26
   0   2  11    0.18    0.23
  -1  -2 -11   -0.40    0.24
  -1  -2 -11    0.07    0.25
  -1  -2 -11    0.18    0.15
   1   2  11   -0.12    0.21
   1   2  11    0.28    0.24
  -2  -2 -11   -0.01    0.26
   2   2  11    0.19    0.22
   2   2  11    0.48    0.25
  -3  -2 -11    3.08    0.44
   3   2  11    2.13    0.34
   3  -3 -11   -0.25    0.32
  -3   3  11    0.12    0.34
   2  -3 -11    0.66    0.35
  -2   3  11    0.29    0.32
  -2   3  11    0.08    0.30
   1  -3 -11   13.84    0.70
  -1   3  11   13.64    0.69
  -1   3  11   13.51    0.69
   0  -3 -11    7.45    0.47
   0  -3 -11    8.20    0.54
   0   3  11    7.68    0.52
  -1  -3 -11    3.42    0.40
  -1  -3 -11    3.20    0.44
   1   3  11    3.83    0.41
   1   3  11    3.92    0.40
  -2  -3 -11    1.93    0.33
  -2  -3 -11    2.22    0.34
   2   3  11    1.40    0.30
  -3  -3 -11    0.60    0.31
   3   3  11    0.47    0.29
   3  -4 -11    0.84    0.39
  -3   4  11    0.37    0.35
   2  -4 -11    1.18    0.37
  -2   4  11    1.89    0.40
   1  -4 -11    0.28    0.32
  -1   4  11    0.44    0.28
   0  -4 -11    8.31    0.49
   0  -4 -11    9.15    0.59
   0   4  11    9.20    0.58
  -1  -4 -11    0.50    0.31
  -1  -4 -11    0.08    0.28
   1   4  11    0.55    0.26
   1   4  11    0.18    0.26
  -2  -4 -11    0.03    0.30
  -2  -4 -11   -0.10    0.27
   2   4  11   -0.25    0.23
  -3  -4 -11    0.08    0.31
   3   4  11   -0.11    0.27
   3  -5 -11    0.22    0.36
  -3   5  11    0.39    0.37
   2  -5 -11    0.07    0.35
  -2   5  11    0.81    0.34
   1  -5 -11    0.85    0.34
  -1   5  11    0.93    0.38
   0  -5 -11    9.68    0.60
   0  -5 -11   10.24    0.52
   0   5  11   10.64    0.58
  -1  -5 -11    8.04    0.56
  -1  -5 -11    7.79    0.51
   1   5  11    8.83    0.55
   1   5  11    8.06    0.50
  -2  -5 -11    1.38    0.31
  -2  -5 -11    1.77    0.34
   2   5  11    1.45    0.31
   3  -6 -11    1.31    0.46
  -3   6  11    0.66    0.42
   2  -6 -11    0.23    0.36
  -2   6  11   -0.47    0.35
   1  -6 -11    1.63    0.43
  -1   6  11    1.91    0.38
   0  -6 -11   -0.02    0.26
   0  -6 -11    0.04    0.27
   0   6  11   -0.08    0.25
  -1  -6 -11    4.80    0.42
  -1  -6 -11    3.94    0.47
   1   6  11    4.27    0.47
   1   6  11    4.17    0.40
  -2  -6 -11    0.78    0.31
   2   6  11    0.62    0.30
   3  -7 -11    0.05    0.38
  -3   7  11    0.32    0.40
   2  -7 -11    0.49    0.34
  -2   7  11   -0.04    0.34
   1  -7 -11    0.19    0.32
  -1   7  11    0.52    0.34
   0  -7 -11    0.55    0.27
   0  -7 -11    0.96    0.32
   0   7  11    0.50    0.33
  -1  -7 -11    4.27    0.51
  -1  -7 -11    4.80    0.44
   1   7  11    4.97    0.48
  -2  -7 -11    5.71    0.47
   2   7  11    5.05    0.49
   2  -8 -11    0.61    0.36
  -2   8  11    0.64    0.38
   1  -8 -11    0.40    0.34
  -1   8  11   -0.35    0.30
   0  -8 -11    0.88    0.37
   0  -8 -11    0.85    0.29
   0   8  11    1.20    0.33
  -1  -8 -11   -0.08    0.27
  -1  -8 -11    0.12    0.29
   1   8  11    0.45    0.25
  -2  -8 -11    1.25    0.36
   2   8  11    1.39    0.33
   2  -9 -11    0.63    0.39
  -2   9  11   -0.08    0.34
   1  -9 -11   -0.08    0.32
  -1   9  11   -0.17    0.32
   0  -9 -11    0.74    0.31
   0  -9 -11    0.88    0.28
   0   9  11    1.06    0.38
  -1  -9 -11    0.37    0.27
   1   9  11   -0.39    0.28
   2 -10 -11    0.42    0.37
  -2  10  11    0.33    0.37
   1 -10 -11    0.20    0.33
  -1  10  11    0.30    0.34
   0 -10 -11   -0.05    0.24
   0 -10 -11   -0.10    0.28
   0  10  11    0.33    0.29
  -1 -10 -11    0.16    0.28
   1  10  11    0.37    0.30
   1 -11 -11   -0.11    0.33
  -1  11  11   -0.47    0.30
   0 -11 -11    0.10    0.23
   0  11  11   -0.12    0.33
   1  11 -12    0.93    0.36
  -1 -11  12    1.22    0.43
   0  11 -12   -0.10    0.33
   0 -11  12    0.39    0.42
  -1  11 -12   -0.08    0.33
   1 -11  12    0.41    0.31
   1 -11  12    0.18    0.35
   1  10 -12   -0.35    0.32
  -1 -10  12    0.00    0.39
   0  10 -12    0.99    0.32
   0 -10  12    1.49    0.37
   0 -10  12    1.34    0.30
  -1  10 -12    0.51    0.31
   1 -10  12   -0.32    0.28
   1 -10  12   -0.11    0.34
   2   9 -12    2.37    0.36
  -2  -9  12    2.14    0.48
   1   9 -12    0.37    0.33
  -1  -9  12   -0.26    0.36
   0   9 -12    1.68    0.38
   0  -9  12    0.93    0.30
   0  -9  12    1.87    0.39
  -1   9 -12    0.36    0.31
   1  -9  12   -0.03    0.29
   1  -9  12   -0.42    0.27
  -2   9 -12    0.68    0.29
  -2   9 -12    1.28    0.38
   2  -9  12   -0.19    0.31
   2  -9  12    1.05    0.31
   2   8 -12    1.34    0.36
  -2  -8  12    1.26    0.42
   1   8 -12   -0.01    0.31
  -1  -8  12   -0.34    0.27
  -1  -8  12    0.38    0.32
   0   8 -12    0.01    0.32
   0  -8  12    0.57    0.29
   0  -8  12    0.42    0.30
  -1   8 -12    2.52    0.39
  -1   8 -12    2.80    0.38
   1  -8  12    1.58    0.42
   1  -8  12    1.75    0.34
  -2   8 -12    0.20    0.34
  -2   8 -12   -0.22    0.27
   2  -8  12    0.69    0.29
   2  -8  12   -0.12    0.30
   2   7 -12    0.00    0.30
  -2  -7  12    0.38    0.32
   1   7 -12    3.32    0.44
  -1  -7  12    3.81    0.43
  -1  -7  12    4.83    0.61
   0   7 -12    0.13    0.27
   0  -7  12    0.57    0.29
   0  -7  12    0.11    0.35
  -1   7 -12    1.95    0.41
  -1   7 -12    2.16    0.32
   1  -7  12    2.82    0.41
   1  -7  12    2.23    0.36
  -2   7 -12   -0.32    0.25
  -2   7 -12   -0.10    0.31
   2  -7  12    0.33    0.32
   2  -7  12   -0.20    0.24
   2   6 -12    0.16    0.31
  -2  -6  12    0.28    0.30
   1   6 -12    2.50    0.37
   1   6 -12    2.50    0.31
  -1  -6  12    2.49    0.37
  -1  -6  12    2.40    0.42
   0   6 -12   -0.09    0.30
   0  -6  12   -0.05    0.25
   0  -6  12    0.14    0.25
  -1   6 -12    0.48    0.31
  -1   6 -12    0.18    0.25
   1  -6  12    0.28    0.30
   1  -6  12    0.48    0.29
  -2   6 -12    1.96    0.34
  -2   6 -12    1.88    0.39
   2  -6  12    1.93    0.41
   2  -6  12    1.56    0.33
   3   5 -12    0.53    0.34
  -3  -5  12    1.09    0.39
   2   5 -12    0.59    0.33
  -2  -5  12    0.45    0.32
  -2  -5  12    1.01    0.35
   1   5 -12   -0.30    0.26
   1   5 -12    0.31    0.21
  -1  -5  12    0.38    0.31
  -1  -5  12    0.12    0.27
   0  -5  12    3.40    0.44
   0  -5  12    4.42    0.49
  -1   5 -12    0.01    0.27
  -1   5 -12    0.98    0.32
   1  -5  12    0.24    0.27
   1  -5  12   -0.03    0.27
  -2   5 -12    1.59    0.31
  -2   5 -12    2.00    0.39
   2  -5  12    3.26    0.43
   2  -5  12    2.10    0.37
   3   4 -12    0.87    0.35
  -3  -4  12    0.35    0.29
   2   4 -12    0.27    0.28
  -2  -4  12    0.31    0.31
  -2  -4  12    0.01    0.26
   1   4 -12    0.82    0.26
   1   4 -12    0.84    0.31
  -1  -4  12    0.95    0.33
  -1  -4  12    0.43    0.32
   0  -4  12    4.12    0.47
   0  -4  12    2.85    0.37
  -1   4 -12    0.30    0.30
  -1   4 -12    0.01    0.24
   1  -4  12   -0.37    0.24
   1  -4  12    0.05    0.27
  -2   4 -12    1.06    0.35
  -2   4 -12    0.30    0.30
   2  -4  12    0.18    0.29
   2  -4  12    0.40    0.24
   3   3 -12    0.04    0.37
  -3  -3  12    0.49    0.34
   2   3 -12    0.74    0.35
  -2  -3  12    0.44    0.29
  -2  -3  12    0.78    0.31
   1   3 -12    1.19    0.33
  -1  -3  12    0.16    0.26
  -1  -3  12    0.10    0.30
   0   3 -12    0.19    0.29
   0   3 -12    0.06    0.27
   0  -3  12    0.16    0.26
   0  -3  12    0.00    0.29
  -1   3 -12    2.88    0.39
  -1   3 -12    2.65    0.38
   1  -3  12    2.57    0.38
   1  -3  12    2.20    0.34
  -2   3 -12    0.07    0.28
  -2   3 -12    0.18    0.32
   2  -3  12    0.19    0.25
   2  -3  12    0.19    0.26
  -3   3 -12    1.77    0.44
  -3   3 -12    0.99    0.33
   3  -3  12    1.68    0.40
   3   2 -12   -0.23    0.32
  -3  -2  12    0.44    0.34
   2   2 -12    0.14    0.23
   2   2 -12   -0.01    0.28
  -2  -2  12    0.32    0.28
  -2  -2  12    0.07    0.26
   1   2 -12   -0.33    0.28
  -1  -2  12   -0.03    0.26
  -1  -2  12    0.07    0.29
   0   2 -12    0.54    0.26
   0   2 -12    0.36    0.28
   0  -2  12    1.03    0.29
   0  -2  12    0.75    0.28
  -1   2 -12    2.62    0.37
  -1   2 -12    1.75    0.32
   1  -2  12    2.29    0.32
   1  -2  12    2.06    0.33
  -2   2 -12   -0.27    0.26
  -2   2 -12    0.48    0.36
   2  -2  12    0.38    0.27
   2  -2  12    0.12    0.24
  -3   2 -12   -0.16    0.31
  -3   2 -12   -0.02    0.30
   3  -2  12    0.73    0.30
   3   1 -12    0.92    0.37
  -3  -1  12    0.66    0.36
  -3  -1  12    1.80    0.34
   2   1 -12    0.10    0.09
   2   1 -12   -0.02    0.30
  -2  -1  12    0.33    0.28
  -2  -1  12    0.10    0.27
   1   1 -12    0.84    0.32
  -1  -1  12    0.96    0.34
  -1  -1  12    0.56    0.29
   0   1 -12    0.09    0.28
   0   1 -12    0.61    0.27
   0   1 -12    0.50    0.10
   0  -1  12    0.88    0.28
   0  -1  12    0.79    0.28
  -1   1 -12    0.22    0.26
  -1   1 -12    0.13    0.13
   1  -1  12    0.43    0.26
   1  -1  12    0.06    0.24
  -2   1 -12    0.62    0.30
  -2   1 -12    0.83    0.33
   2  -1  12    0.89    0.28
   2  -1  12    1.71    0.30
  -3   1 -12    0.09    0.40
  -3   1 -12    0.01    0.30
   3  -1  12    0.17    0.27
   3   0 -12    0.39    0.41
  -3   0  12   -0.12    0.31
  -3   0  12   -0.04    0.32
   2   0 -12    1.19    0.35
   2   0 -12    0.85    0.14
  -2   0  12    1.34    0.33
  -2   0  12    1.67    0.36
   1   0 -12    0.04    0.30
  -1   0  12    0.11    0.26
  -1   0  12    0.54    0.28
   0   0 -12    0.33    0.27
   0   0 -12    0.61    0.12
   0   0 -12    0.27    0.26
   0   0  12    0.40    0.26
   0   0  12    0.52    0.28
  -1   0 -12    0.35    0.14
  -1   0 -12   -0.27    0.25
   1   0  12   -0.10    0.23
   1   0  12    0.20    0.26
  -2   0 -12    0.56    0.31
  -2   0 -12    0.63    0.30
   2   0  12    0.13    0.25
  -3   0 -12   -0.11    0.31
   3   0  12   -0.15    0.24
   3  -1 -12    0.05    0.34
  -3   1  12    0.38    0.41
  -3   1  12    0.19    0.32
   2  -1 -12    1.97    0.41
  -2   1  12    2.71    0.41
  -2   1  12    2.05    0.42
   1  -1 -12    0.09    0.28
  -1   1  12    0.01    0.25
  -1   1  12    0.00    0.27
   0  -1 -12    0.91    0.32
   0  -1 -12    0.94    0.27
   0   1  12    0.81    0.29
   0   1  12    0.64    0.28
  -1  -1 -12    0.22    0.28
  -1  -1 -12    0.43    0.15
  -1  -1 -12    0.29    0.28
   1   1  12    0.37    0.25
   1   1  12    0.50    0.27
  -2  -1 -12    0.18    0.28
  -2  -1 -12    0.03    0.30
   2   1  12   -0.43    0.23
  -3  -1 -12   -0.06    0.32
   3   1  12    0.12    0.29
   3  -2 -12    0.40    0.19
   3  -2 -12    0.78    0.37
  -3   2  12    0.42    0.33
  -3   2  12    0.57    0.37
   2  -2 -12    0.34    0.38
  -2   2  12    0.12    0.32
  -2   2  12   -0.22    0.30
   1  -2 -12    3.61    0.45
  -1   2  12    3.47    0.46
  -1   2  12    4.04    0.47
   0  -2 -12    0.53    0.29
   0  -2 -12    0.19    0.26
   0   2  12    1.01    0.30
   0   2  12    0.48    0.30
  -1  -2 -12    0.56    0.19
  -1  -2 -12    0.81    0.29
  -1  -2 -12    0.48    0.30
   1   2  12    0.56    0.28
  -2  -2 -12   -0.36    0.29
   2   2  12    0.13    0.25
   3  -3 -12    1.37    0.41
  -3   3  12    1.88    0.44
   2  -3 -12    0.52    0.34
  -2   3  12    0.05    0.32
  -2   3  12    0.86    0.31
   1  -3 -12    4.26    0.51
  -1   3  12    4.61    0.48
  -1   3  12    3.84    0.48
   0  -3 -12    0.26    0.29
   0  -3 -12   -0.33    0.25
   0   3  12    0.03    0.27
  -1  -3 -12    0.63    0.28
  -1  -3 -12    0.45    0.31
   1   3  12    0.70    0.28
  -2  -3 -12   -0.24    0.28
  -2  -3 -12   -0.09    0.30
   2   3  12    0.11    0.25
   3  -4 -12    2.27    0.44
  -3   4  12    1.43    0.44
   2  -4 -12    0.60    0.34
  -2   4  12    0.03    0.34
   1  -4 -12    0.22    0.33
  -1   4  12    0.48    0.34
   0  -4 -12    4.97    0.53
   0  -4 -12    4.39    0.42
   0   4  12    5.48    0.48
  -1  -4 -12    0.54    0.33
  -1  -4 -12   -0.19    0.26
   1   4  12    0.06    0.27
  -2  -4 -12    0.92    0.32
  -2  -4 -12    0.80    0.31
   2   4  12    0.55    0.30
   3  -5 -12   -0.09    0.37
  -3   5  12   -0.51    0.34
   2  -5 -12    2.33    0.46
  -2   5  12    3.20    0.47
   1  -5 -12    0.49    0.38
  -1   5  12    1.15    0.35
   0  -5 -12    3.38    0.40
   0  -5 -12    3.28    0.43
   0   5  12    4.24    0.45
  -1  -5 -12    0.04    0.30
  -1  -5 -12    0.37    0.28
   1   5  12    0.42    0.31
  -2  -5 -12    0.48    0.31
   2   5  12    0.38    0.30
   2  -6 -12    2.90    0.48
  -2   6  12    2.77    0.47
   1  -6 -12    0.87    0.34
  -1   6  12    0.51    0.32
   0  -6 -12   -0.24    0.28
   0  -6 -12    0.70    0.28
   0   6  12   -0.07    0.27
  -1  -6 -12    2.83    0.39
  -1  -6 -12    2.88    0.42
   1   6  12    2.18    0.34
  -2  -6 -12   -0.47    0.31
   2   6  12    0.27    0.29
   2  -7 -12    0.61    0.40
  -2   7  12    0.81    0.41
   1  -7 -12    2.24    0.44
  -1   7  12    1.70    0.41
   0  -7 -12    0.92    0.31
   0  -7 -12    1.05    0.35
   0   7  12    1.10    0.33
  -1  -7 -12    1.71    0.34
  -1  -7 -12    2.05    0.34
   1   7  12    1.62    0.33
  -2  -7 -12    0.32    0.32
   2   7  12    0.03    0.28
   2  -8 -12    1.03    0.40
  -2   8  12    0.33    0.38
   1  -8 -12    1.74    0.41
  -1   8  12    2.67    0.44
   0  -8 -12    0.27    0.31
   0  -8 -12   -0.04    0.27
   0   8  12    0.18    0.31
  -1  -8 -12    0.24    0.29
   1   8  12    0.36    0.30
   2  -9 -12    0.88    0.43
  -2   9  12    1.14    0.47
   1  -9 -12    0.05    0.33
  -1   9  12   -0.11    0.34
   0  -9 -12    1.39    0.31
   0  -9 -12    0.47    0.31
   0   9  12    0.37    0.36
  -1  -9 -12    1.23    0.30
   1   9  12    1.42    0.37
   1 -10 -12    0.11    0.36
  -1  10  12    0.24    0.33
   0 -10 -12    1.40    0.29
   0  10  12    1.24    0.37
   1  10 -13    0.36    0.34
  -1 -10  13   -0.17    0.34
   0  10 -13   -0.15    0.32
   0 -10  13   -0.36    0.29
   0 -10  13    0.10    0.31
   1   9 -13    0.00    0.34
  -1  -9  13   -0.39    0.30
   0   9 -13    0.43    0.33
   0  -9  13    0.92    0.31
   0  -9  13    0.06    0.33
  -1   9 -13   -0.11    0.31
   1  -9  13   -0.01    0.30
   1  -9  13   -0.03    0.31
   2   8 -13    0.78    0.34
  -2  -8  13    0.64    0.35
   1   8 -13    0.05    0.30
  -1  -8  13   -0.30    0.32
  -1  -8  13   -0.39    0.26
   0   8 -13   -0.40    0.32
   0  -8  13    0.11    0.31
   0  -8  13    0.02    0.27
  -1   8 -13   -0.03    0.29
  -1   8 -13    0.01    0.32
   1  -8  13   -0.13    0.30
   1  -8  13   -0.21    0.29
   2   7 -13    0.29    0.33
  -2  -7  13    0.42    0.37
   1   7 -13    0.83    0.35
  -1  -7  13    0.09    0.30
  -1  -7  13   -0.08    0.31
   0  -7  13    0.28    0.33
   0  -7  13    0.32    0.29
  -1   7 -13    0.11    0.29
  -1   7 -13   -0.20    0.30
   1  -7  13    0.35    0.30
   1  -7  13   -0.17    0.30
  -2   7 -13   -0.08    0.30
  -2   7 -13    0.10    0.33
   2  -7  13   -0.19    0.36
   2  -7  13   -0.15    0.26
   2   6 -13    4.47    0.56
  -2  -6  13    3.68    0.51
   1   6 -13    0.41    0.35
  -1  -6  13    1.37    0.36
  -1  -6  13    0.92    0.31
   0  -6  13    0.56    0.30
   0  -6  13    0.71    0.30
  -1   6 -13    0.34    0.27
  -1   6 -13   -0.09    0.31
   1  -6  13    0.04    0.26
   1  -6  13   -0.29    0.27
  -2   6 -13    0.17    0.28
  -2   6 -13    0.52    0.35
   2  -6  13    0.33    0.33
   2  -6  13    0.17    0.28
   2   5 -13    1.71    0.39
  -2  -5  13    1.49    0.34
  -2  -5  13    1.18    0.36
   1   5 -13   -0.31    0.28
  -1  -5  13   -0.13    0.27
  -1  -5  13    0.10    0.29
   0   5 -13    0.59    0.33
   0  -5  13    0.41    0.34
   0  -5  13    0.17    0.28
  -1   5 -13   -0.41    0.30
  -1   5 -13    0.07    0.28
   1  -5  13   -0.04    0.27
   1  -5  13    0.06    0.28
  -2   5 -13    0.10    0.30
  -2   5 -13    0.67    0.35
   2  -5  13   -0.07    0.27
   2  -5  13    0.44    0.29
   2   4 -13    0.10    0.30
  -2  -4  13   -0.48    0.33
  -2  -4  13   -0.30    0.29
   1   4 -13    5.57    0.56
  -1  -4  13    4.26    0.54
  -1  -4  13    4.53    0.49
   0   4 -13    1.46    0.36
   0  -4  13    1.55    0.35
   0  -4  13    2.14    0.36
  -1   4 -13    0.16    0.27
  -1   4 -13    0.34    0.30
   1  -4  13    0.27    0.28
   1  -4  13   -0.02    0.29
  -2   4 -13   -0.37    0.31
  -2   4 -13   -0.39    0.33
   2  -4  13   -0.30    0.27
   2  -4  13    0.12    0.25
  -3  -3  13    0.45    0.30
   2   3 -13    1.34    0.41
  -2  -3  13    1.38    0.36
  -2  -3  13    1.08    0.32
   1   3 -13    1.10    0.33
  -1  -3  13    1.29    0.33
  -1  -3  13    0.76    0.34
   0   3 -13   -0.11    0.27
   0   3 -13   -0.01    0.27
   0  -3  13    0.00    0.30
   0  -3  13    0.28    0.26
  -1   3 -13    0.45    0.32
  -1   3 -13    0.89    0.29
   1  -3  13    1.09    0.30
   1  -3  13    1.28    0.35
  -2   3 -13   -0.04    0.32
  -2   3 -13    0.17    0.29
   2  -3  13    0.07    0.27
   2  -3  13    0.28    0.27
   3   2 -13    1.08    0.39
  -3  -2  13    1.53    0.40
   2   2 -13    2.92    0.42
  -2  -2  13    4.03    0.51
  -2  -2  13    2.47    0.38
   1   2 -13   -0.52    0.26
  -1  -2  13   -0.71    0.23
  -1  -2  13   -0.55    0.28
   0   2 -13    4.45    0.53
   0   2 -13    4.43    0.44
   0  -2  13    4.38    0.51
   0  -2  13    4.71    0.49
  -1   2 -13    0.98    0.31
  -1   2 -13    2.36    0.37
   1  -2  13    1.93    0.32
   1  -2  13    1.48    0.33
  -2   2 -13   -0.40    0.29
  -2   2 -13   -0.37    0.31
   2  -2  13   -0.12    0.26
   2  -2  13    0.11    0.25
   3   1 -13    0.12    0.36
  -3  -1  13    0.67    0.34
   2   1 -13   -0.23    0.31
  -2  -1  13    0.18    0.30
  -2  -1  13    0.06    0.29
   1   1 -13    1.29    0.35
  -1  -1  13    1.76    0.39
  -1  -1  13    1.28    0.34
   0   1 -13    0.91    0.28
   0   1 -13    0.55    0.32
   0  -1  13    1.49    0.32
   0  -1  13    1.16    0.32
  -1   1 -13    1.02    0.30
   1  -1  13    0.47    0.30
   1  -1  13    0.61    0.29
  -2   1 -13    0.99    0.32
  -2   1 -13    1.38    0.37
   2  -1  13    0.82    0.31
   2  -1  13    1.13    0.29
   3   0 -13   -0.15    0.36
  -3   0  13    0.54    0.35
  -3   0  13    0.17    0.32
   2   0 -13    1.04    0.37
  -2   0  13    1.00    0.36
  -2   0  13    0.76    0.35
   1   0 -13    5.67    0.57
  -1   0  13    4.81    0.49
  -1   0  13    4.70    0.55
   0   0 -13    0.05    0.11
   0   0 -13    0.09    0.27
   0   0 -13   -0.16    0.28
   0   0  13    0.08    0.31
   0   0  13    0.03    0.28
  -1   0 -13    4.14    0.43
  -1   0 -13    2.69    0.41
   1   0  13    3.80    0.45
   1   0  13    3.59    0.45
  -2   0 -13    1.51    0.35
  -2   0 -13    1.08    0.34
   2   0  13    1.33    0.32
   3  -1 -13   -0.14    0.39
  -3   1  13   -0.32    0.27
  -3   1  13    0.32    0.35
   2  -1 -13    0.94    0.37
  -2   1  13    0.64    0.34
  -2   1  13    0.94    0.35
   1  -1 -13    0.49    0.33
  -1   1  13    0.88    0.31
  -1   1  13    0.44    0.33
   0  -1 -13    0.41    0.30
   0  -1 -13    0.69    0.33
   0   1  13    1.37    0.33
   0   1  13    0.75    0.32
  -1  -1 -13    1.08    0.32
  -1  -1 -13    0.47    0.31
   1   1  13    0.58    0.28
   1   1  13    0.66    0.30
  -2  -1 -13    1.09    0.33
   2   1  13    0.54    0.32
   3  -2 -13   -0.47    0.35
  -3   2  13    0.53    0.40
  -3   2  13    0.22    0.33
   2  -2 -13    0.47    0.35
  -2   2  13    0.31    0.35
  -2   2  13    0.68    0.33
   1  -2 -13    1.09    0.37
  -1   2  13    1.46    0.35
  -1   2  13    2.04    0.38
   0  -2 -13    6.15    0.57
   0  -2 -13    5.44    0.46
   0   2  13    5.41    0.58
   0   2  13    5.75    0.54
  -1  -2 -13    0.46    0.30
  -1  -2 -13   -0.20    0.31
   1   2  13   -0.07    0.25
  -2  -2 -13    1.97    0.36
  -2  -2 -13    1.98    0.37
   2   2  13    1.96    0.36
   3  -3 -13   -0.83    0.40
  -3   3  13   -0.02    0.36
   2  -3 -13    0.06    0.33
  -2   3  13    0.14    0.34
  -2   3  13    0.45    0.35
   1  -3 -13    1.21    0.36
  -1   3  13    0.88    0.34
  -1   3  13    1.69    0.39
   0  -3 -13    0.42    0.32
   0  -3 -13   -0.25    0.26
   0   3  13    0.13    0.29
  -1  -3 -13    0.77    0.30
  -1  -3 -13    0.68    0.32
   1   3  13    0.20    0.28
  -2  -3 -13    0.68    0.32
  -2  -3 -13    0.89    0.37
   2   3  13    0.51    0.27
   2  -4 -13    0.76    0.37
  -2   4  13    0.53    0.35
   1  -4 -13   -0.02    0.33
  -1   4  13    0.32    0.33
   0  -4 -13    0.95    0.35
   0  -4 -13    1.10    0.29
   0   4  13    1.08    0.33
  -1  -4 -13    4.78    0.53
  -1  -4 -13    5.02    0.45
   1   4  13    4.20    0.51
  -2  -4 -13   -0.31    0.30
   2   4  13   -0.23    0.26
   2  -5 -13   -0.47    0.33
  -2   5  13    0.18    0.37
   1  -5 -13    0.27    0.34
  -1   5  13    0.55    0.36
   0  -5 -13    0.45    0.28
   0  -5 -13    0.57    0.34
   0   5  13    0.43    0.30
  -1  -5 -13   -0.11    0.27
  -1  -5 -13    0.02    0.28
   1   5  13    0.08    0.27
  -2  -5 -13    0.29    0.32
   2   5  13    0.66    0.34
   2  -6 -13    0.57    0.41
  -2   6  13    0.33    0.37
   1  -6 -13   -0.10    0.30
  -1   6  13   -0.12    0.30
   0  -6 -13    0.34    0.28
   0  -6 -13    0.72    0.34
   0   6  13   -0.01    0.29
  -1  -6 -13    0.28    0.32
  -1  -6 -13    0.54    0.31
   1   6  13    0.12    0.32
   2  -7 -13    0.50    0.39
  -2   7  13   -0.37    0.40
   1  -7 -13   -0.43    0.32
  -1   7  13   -0.20    0.33
   0  -7 -13    0.36    0.31
   0  -7 -13    0.12    0.33
   0   7  13    0.06    0.31
  -1  -7 -13   -0.25    0.28
  -1  -7 -13   -0.11    0.33
   1   7  13   -0.15    0.26
   1  -8 -13    0.62    0.37
  -1   8  13   -0.48    0.33
   0  -8 -13   -0.42    0.28
   0  -8 -13    0.27    0.35
   0   8  13   -0.54    0.30
  -1  -8 -13    0.31    0.30
   1   8  13    0.13    0.33
   1  -9 -13    0.36    0.37
  -1   9  13    1.06    0.39
   0  -9 -13    0.30    0.37
   0  -9 -13    0.03    0.28
   0   9  13   -0.51    0.29
   0  -9  14    0.29    0.30
   0  -9  14   -0.12    0.35
   1   8 -14   -0.09    0.29
  -1  -8  14    0.19    0.36
   0  -8  14   -0.17    0.29
   0  -8  14   -0.46    0.27
  -1   8 -14    0.52    0.35
   1  -8  14    0.12    0.31
   1  -8  14    0.08    0.28
   1   7 -14    0.32    0.31
  -1  -7  14   -0.09    0.31
  -1  -7  14    0.41    0.34
   0  -7  14   -0.04    0.29
   0  -7  14   -0.06    0.32
  -1   7 -14   -0.04    0.32
  -1   7 -14    0.09    0.25
   1  -7  14   -0.09    0.29
   1  -7  14    0.49    0.34
   2   6 -14    0.44    0.33
  -2  -6  14    0.17    0.31
   1   6 -14    0.26    0.33
  -1  -6  14    0.39    0.31
  -1  -6  14    0.34    0.31
   0   6 -14   -0.02    0.37
   0  -6  14    0.54    0.35
   0  -6  14    0.14    0.29
  -1   6 -14    0.08    0.27
  -1   6 -14    0.24    0.32
   1  -6  14    0.04    0.31
   1  -6  14    0.37    0.28
   2   5 -14   -0.39    0.30
  -2  -5  14   -0.11    0.31
   1   5 -14    0.62    0.34
  -1  -5  14    0.29    0.32
  -1  -5  14    0.18    0.32
   0   5 -14    0.07    0.31
   0  -5  14    0.16    0.32
   0  -5  14   -0.16    0.28
  -1   5 -14   -0.34    0.26
  -1   5 -14   -0.05    0.32
   1  -5  14   -0.11    0.30
   1  -5  14    0.19    0.30
  -2   5 -14    0.35    0.32
  -2   5 -14    0.21    0.35
   2  -5  14   -0.14    0.29
   2  -5  14    0.66    0.29
   2   4 -14    0.48    0.33
  -2  -4  14    0.00    0.32
  -2  -4  14    0.77    0.33
   1   4 -14    0.45    0.34
  -1  -4  14    0.91    0.33
  -1  -4  14    0.37    0.31
   0   4 -14    0.29    0.31
   0  -4  14    0.07    0.31
   0  -4  14    0.60    0.31
  -1   4 -14    0.32    0.31
  -1   4 -14   -0.10    0.32
   1  -4  14   -0.04    0.28
   1  -4  14   -0.16    0.26
  -2   4 -14   -0.12    0.30
  -2   4 -14    0.61    0.37
   2  -4  14    0.54    0.29
   2  -4  14    0.40    0.31
   2   3 -14    0.04    0.37
  -2  -3  14    0.71    0.38
  -2  -3  14    0.36    0.31
   1   3 -14    0.15    0.33
  -1  -3  14    0.04    0.33
  -1  -3  14    0.38    0.29
   0   3 -14    0.62    0.34
   0  -3  14    0.41    0.30
   0  -3  14    0.42    0.30
  -1   3 -14    0.48    0.29
   1  -3  14    0.26    0.26
   1  -3  14    0.26    0.28
  -2   3 -14   -0.11    0.29
  -2   3 -14   -0.15    0.38
   2  -3  14    0.25    0.28
   2  -3  14   -0.56    0.26
   2   2 -14    0.24    0.34
  -2  -2  14    0.50    0.32
  -2  -2  14    0.72    0.34
   1   2 -14    1.01    0.37
  -1  -2  14    0.39    0.34
  -1  -2  14    0.96    0.39
   0   2 -14    0.82    0.35
   0   2 -14    0.55    0.32
   0  -2  14    0.88    0.31
   0  -2  14    0.13    0.28
  -1   2 -14    0.21    0.31
   1  -2  14    0.36    0.28
   1  -2  14   -0.08    0.29
  -2   2 -14    0.46    0.33
  -2   2 -14   -0.01    0.31
   2  -2  14    0.07    0.28
   2  -2  14    0.12    0.25
   2   1 -14   -0.35    0.33
  -2  -1  14    0.46    0.33
  -2  -1  14    0.17    0.30
   1   1 -14    0.37    0.34
  -1  -1  14    0.63    0.34
  -1  -1  14    0.71    0.33
   0   1 -14    0.41    0.29
   0   1 -14    0.44    0.31
   0  -1  14    0.56    0.31
   0  -1  14    0.59    0.31
  -1   1 -14   -0.25    0.35
  -1   1 -14    0.09    0.30
   1  -1  14    0.19    0.31
   1  -1  14    0.43    0.31
  -2   1 -14   -0.09    0.31
  -2   1 -14    0.21    0.32
   2  -1  14    0.21    0.29
   2   0 -14    0.24    0.40
  -2   0  14    0.47    0.35
  -2   0  14    0.81    0.35
   1   0 -14    0.45    0.34
  -1   0  14    0.20    0.32
  -1   0  14    0.32    0.35
   0   0 -14    0.42    0.28
   0   0 -14    0.33    0.33
   0   0  14   -0.02    0.29
   0   0  14    0.87    0.32
  -1   0 -14    0.34    0.30
  -1   0 -14    0.12    0.30
   1   0  14   -0.21    0.30
   1   0  14    0.07    0.28
  -2   0 -14    0.34    0.35
   2   0  14    0.34    0.28
   2  -1 -14   -0.10    0.37
  -2   1  14    0.50    0.35
  -2   1  14    0.16    0.33
   1  -1 -14    0.39    0.33
  -1   1  14    0.11    0.32
  -1   1  14    0.14    0.29
   0  -1 -14    0.41    0.34
   0  -1 -14    0.16    0.27
   0   1  14   -0.41    0.31
   0   1  14    0.31    0.30
  -1  -1 -14    0.82    0.33
  -1  -1 -14    0.73    0.31
   1   1  14    0.59    0.30
   1   1  14    0.28    0.27
  -2  -1 -14   -0.13    0.32
  -2  -1 -14   -0.27    0.30
   2   1  14    0.31    0.29
   2  -2 -14   -0.20    0.34
  -2   2  14   -0.04    0.33
  -2   2  14    0.09    0.29
   1  -2 -14    0.21    0.34
  -1   2  14    0.32    0.30
  -1   2  14    0.96    0.34
   0  -2 -14    0.65    0.31
   0  -2 -14    0.15    0.33
   0   2  14    0.45    0.34
   0   2  14    0.47    0.32
  -1  -2 -14    0.54    0.30
  -1  -2 -14   -0.13    0.29
   1   2  14    0.55    0.30
  -2  -2 -14    0.30    0.32
  -2  -2 -14    0.02    0.28
   2   2  14   -0.10    0.32
   2  -3 -14    0.74    0.37
  -2   3  14    0.14    0.34
   1  -3 -14    0.37    0.34
  -1   3  14    0.34    0.33
  -1   3  14   -0.15    0.28
   0  -3 -14    0.27    0.35
   0  -3 -14    0.24    0.29
   0   3  14    0.60    0.31
  -1  -3 -14   -0.33    0.27
  -1  -3 -14   -0.19    0.30
   1   3  14   -0.32    0.28
  -2  -3 -14    0.04    0.33
   2   3  14    0.82    0.30
   2  -4 -14   -0.13    0.35
  -2   4  14    0.02    0.36
   1  -4 -14   -0.07    0.34
  -1   4  14    0.22    0.32
   0  -4 -14   -0.63    0.31
   0  -4 -14    0.04    0.28
   0   4  14    0.34    0.33
  -1  -4 -14    0.75    0.33
  -1  -4 -14    0.51    0.32
   1   4  14    0.42    0.37
   2  -5 -14    0.26    0.37
  -2   5  14    0.05    0.35
   1  -5 -14   -0.15    0.33
  -1   5  14    0.09    0.34
   0  -5 -14    0.11    0.27
   0  -5 -14   -0.18    0.32
   0   5  14    0.45    0.31
  -1  -5 -14    0.36    0.32
  -1  -5 -14    0.40    0.33
   1   5  14    1.08    0.34
  -2   6  14   -0.42    0.35
   1  -6 -14   -0.33    0.32
  -1   6  14   -0.13    0.37
   0  -6 -14    0.14    0.32
   0  -6 -14   -0.01    0.28
   0   6  14   -0.01    0.30
  -1  -6 -14    0.16    0.30
  -1  -6 -14    0.27    0.33
   1   6  14   -0.21    0.34
   1  -7 -14   -0.47    0.34
  -1   7  14   -0.30    0.32
   0  -7 -14   -0.38    0.32
   0  -7 -14    0.41    0.31
   0   7  14    0.01    0.32
   0  -8 -14   -0.17    0.26
   0  -8 -14    0.23    0.38
   0   8  14   -0.39    0.32
   0   7 -15    2.34    0.44
   0  -7  15    2.27    0.40
   0  -7  15    3.00    0.47
   1   6 -15    0.88    0.38
  -1  -6  15   -0.09    0.31
  -1  -6  15   -0.02    0.32
   0   6 -15    0.10    0.32
   0  -6  15    0.04    0.35
   0  -6  15   -0.45    0.31
  -1   6 -15    0.82    0.33
  -1   6 -15    0.70    0.35
   1  -6  15    0.36    0.31
   1  -6  15    1.04    0.33
   1   5 -15    0.05    0.34
  -1  -5  15    0.98    0.36
  -1  -5  15    0.89    0.34
   0   5 -15    0.26    0.33
   0  -5  15    0.48    0.36
   0  -5  15   -0.13    0.30
  -1   5 -15    3.07    0.45
  -1   5 -15    2.35    0.42
   1  -5  15    2.86    0.42
   1  -5  15    2.43    0.42
   1   4 -15    0.60    0.37
  -1  -4  15    0.01    0.33
  -1  -4  15   -0.23    0.33
   0   4 -15    0.02    0.33
   0  -4  15    0.25    0.30
   0  -4  15    0.14    0.31
  -1   4 -15    0.13    0.30
   1  -4  15    0.38    0.32
   1  -4  15    0.55    0.34
   2   3 -15    0.27    0.35
  -2  -3  15   -0.61    0.34
  -2  -3  15    0.07    0.32
   1   3 -15    0.22    0.34
  -1  -3  15   -0.04    0.32
  -1  -3  15   -0.06    0.31
   0   3 -15    0.50    0.35
   0  -3  15    0.30    0.30
   0  -3  15    0.60    0.33
  -1   3 -15    0.43    0.31
   1  -3  15    0.11    0.31
   1  -3  15    0.21    0.28
   2   2 -15   -0.77    0.31
  -2  -2  15    0.12    0.33
  -2  -2  15    0.41    0.33
   1   2 -15    0.11    0.35
  -1  -2  15    0.12    0.32
  -1  -2  15    0.34    0.31
   0   2 -15   -0.08    0.31
   0  -2  15   -0.05    0.30
   0  -2  15    0.45    0.29
  -1   2 -15   -0.13    0.31
  -1   2 -15    0.34    0.39
   1  -2  15    0.21    0.27
   1  -2  15   -0.17    0.31
   2   1 -15    0.54    0.39
  -2  -1  15    0.28    0.35
  -2  -1  15    0.35    0.34
   1   1 -15    0.34    0.36
  -1  -1  15    0.02    0.35
  -1  -1  15   -0.16    0.29
   0   1 -15    0.50    0.32
   0   1 -15    0.15    0.32
   0  -1  15    0.50    0.32
   0  -1  15   -0.17    0.30
  -1   1 -15    0.46    0.32
  -1   1 -15    0.26    0.31
   1  -1  15    0.42    0.31
   1  -1  15    0.52    0.29
   2   0 -15    0.56    0.37
  -2   0  15    0.95    0.39
  -2   0  15    0.20    0.38
   1   0 -15    0.12    0.40
  -1   0  15   -0.06    0.30
  -1   0  15    0.20    0.32
   0   0 -15    0.05    0.27
   0   0 -15    0.45    0.36
   0   0  15    0.03    0.35
   0   0  15    0.52    0.32
  -1   0 -15   -0.06    0.36
  -1   0 -15    0.07    0.31
   1   0  15    0.02    0.30
   1   0  15   -0.01    0.26
   2  -1 -15   -0.18    0.37
  -2   1  15    0.23    0.35
  -2   1  15    0.24    0.37
   1  -1 -15    0.17    0.35
  -1   1  15    0.35    0.32
  -1   1  15    0.66    0.36
   0  -1 -15    0.16    0.30
   0  -1 -15    0.01    0.38
   0   1  15   -0.41    0.30
   0   1  15   -0.33    0.33
  -1  -1 -15    0.24    0.33
  -1  -1 -15    0.02    0.32
   1   1  15   -0.20    0.29
   2  -2 -15   -0.03    0.40
  -2   2  15   -0.37    0.33
  -2   2  15    0.02    0.31
   1  -2 -15   -0.48    0.31
  -1   2  15    0.05    0.31
  -1   2  15   -0.13    0.31
   0  -2 -15    0.15    0.29
   0  -2 -15    0.19    0.33
   0   2  15    0.09    0.34
   0   2  15    0.58    0.34
  -1  -2 -15    0.27    0.32
  -1  -2 -15   -0.06    0.32
   1   2  15    0.04    0.30
   2  -3 -15    2.12    0.46
  -2   3  15    2.55    0.47
   1  -3 -15   -0.11    0.32
  -1   3  15    0.62    0.35
   0  -3 -15    0.19    0.34
   0  -3 -15    0.22    0.29
   0   3  15    0.21    0.31
  -1  -3 -15    0.24    0.34
  -1  -3 -15   -0.39    0.31
   1   3  15    0.92    0.36
   1  -4 -15   -0.75    0.34
  -1   4  15   -0.18    0.32
   0  -4 -15   -0.76    0.30
   0  -4 -15    0.29    0.30
   0   4  15    0.09    0.34
  -1  -4 -15    0.27    0.33
  -1  -4 -15   -0.10    0.32
   1   4  15    0.32    0.31
   1  -5 -15    3.25    0.50
  -1   5  15    4.39    0.57
   0  -5 -15   -0.45    0.38
   0  -5 -15   -0.07    0.31
   0   5  15    0.00    0.31
   1  -6 -15    0.71    0.41
  -1   6  15    0.30    0.37
   0  -6 -15   -0.55    0.30
   0  -6 -15    0.28    0.29
   0   6  15    0.24    0.32
   0   4 -16    0.50    0.37
   0  -4  16    0.38    0.32
   0  -4  16    1.03    0.36
   1   3 -16    0.59    0.38
  -1  -3  16    0.56    0.37
  -1  -3  16    1.59    0.44
   0   3 -16   -0.13    0.33
   0  -3  16    0.54    0.37
   0  -3  16   -0.40    0.30
   1   2 -16    0.44    0.42
  -1  -2  16    0.62    0.35
  -1  -2  16    0.46    0.35
   0   2 -16    0.21    0.35
   0  -2  16    0.47    0.37
   0  -2  16    0.14    0.30
   1   1 -16    1.66    0.43
  -1  -1  16    1.25    0.38
  -1  -1  16    0.76    0.35
   0   1 -16    1.24    0.40
   0  -1  16    2.24    0.43
   0  -1  16    1.18    0.39
   1  -1  16    0.24    0.31
   1   0 -16    0.28    0.36
  -1   0  16   -0.58    0.34
  -1   0  16    0.77    0.35
   0   0 -16    0.04    0.33
   0   0 -16   -0.12    0.38
   0   0  16    0.76    0.35
   0   0  16    0.76    0.38
   1  -1 -16    0.77    0.39
  -1   1  16    0.03    0.36
  -1   1  16    0.93    0.42
   0  -1 -16    1.17    0.36
   0  -1 -16    2.50    0.48
   0   1  16    1.31    0.38
   0   1  16    0.69    0.35
   1  -2 -16    1.03    0.42
  -1   2  16    2.12    0.43
  -1   2  16    0.24    0.38
   0  -2 -16    0.07    0.35
   0  -2 -16    0.55    0.35
   0   2  16   -0.32    0.32
  -1   3  16    0.11    0.37
   0  -3 -16   -0.10    0.37
   0  -3 -16    0.37    0.34
   0   3  16    0.32    0.35
   0   0   0    0.00    0.00
;
_shelx_hkl_checksum              87400
_shelx_res_file
;
TITL Rillema16 in P-1
CELL 0.71073 3.9059 13.4927 13.7666 92.2123 93.1627 93.0161
ZERR 2 0.0008 0.0025 0.0029 0.007 0.0068 0.0067
LATT 1
SFAC C H N O
UNIT 32 32 4 8
L.S. 10
PLAN  20
SIZE 0.131 0.083 0.055
TEMP -173.15
REM Solution 1 R1 0.178 Rweak 0.008, Alpha = 0.1137 in P-1
REM Formula: C16 N2 O4
BOND $H
ACTA 50
fmap 2
REM <HKL>D:/frames/guest/Rillema16/Rillema16.hkl</HKL>
WGHT    0.062300    0.352000
FVAR       0.15007
N1    3    0.644264   -0.082690    0.092128    11.00000    0.02523    0.01716 =
         0.02694    0.00056    0.00062    0.00706
O1    4    0.122660    0.216477    0.240909    11.00000    0.04303    0.02421 =
         0.03013   -0.00269   -0.00053    0.01449
O2    4    0.266573    0.124178    0.367749    11.00000    0.03059    0.02677 =
         0.02349   -0.00262    0.00259    0.00936
C1    1    0.505162   -0.002461    0.054240    11.00000    0.01649    0.01901 =
         0.02782   -0.00167   -0.00081    0.00067
C2    1    0.379837    0.072758    0.111690    11.00000    0.02154    0.01715 =
         0.02931    0.00052   -0.00144    0.00373
AFIX  43
H2    2    0.287769    0.129103    0.082739    11.00000   -1.20000
AFIX   0
C3    1    0.390856    0.064539    0.211560    11.00000    0.01846    0.02020 =
         0.03011   -0.00153   -0.00014    0.00338
C4    1    0.535301   -0.018074    0.251206    11.00000    0.02480    0.02617 =
         0.02462    0.00080    0.00205    0.00550
AFIX  43
H4    2    0.549637   -0.025533    0.319624    11.00000   -1.20000
AFIX   0
C5    1    0.657287   -0.088941    0.188901    11.00000    0.02420    0.01926 =
         0.03053    0.00383    0.00161    0.00931
AFIX  43
H5    2    0.755767   -0.145165    0.216298    11.00000   -1.20000
AFIX   0
C6    1    0.246031    0.143913    0.273188    11.00000    0.02013    0.02503 =
         0.02584   -0.00227   -0.00153    0.00352
C7    1    0.130776    0.197934    0.433623    11.00000    0.02902    0.02623 =
         0.02550   -0.00718    0.00216    0.00888
AFIX  23
H7A   2   -0.115747    0.205651    0.416670    11.00000   -1.20000
H7B   2    0.256169    0.263134    0.429043    11.00000   -1.20000
AFIX   0
C8    1    0.178799    0.160783    0.535009    11.00000    0.03184    0.03592 =
         0.02936   -0.00323    0.00499    0.00720
AFIX 137
H8A   2    0.053549    0.096266    0.538488    11.00000   -1.50000
H8B   2    0.090402    0.208391    0.581670    11.00000   -1.50000
H8C   2    0.423685    0.153526    0.550823    11.00000   -1.50000
AFIX   0
N1'   3    0.653117    0.418720    0.406384    11.00000    0.02238    0.01875 =
         0.02644   -0.00220    0.00114    0.00448
O1'   4    0.123278    0.717387    0.263470    11.00000    0.04284    0.02486 =
         0.02590   -0.00067    0.00333    0.01686
O2'   4    0.248371    0.622049    0.134103    11.00000    0.03274    0.02417 =
         0.02059   -0.00229   -0.00054    0.01048
C1'   1    0.509975    0.498298    0.445867    11.00000    0.01949    0.01571 =
         0.02780   -0.00211    0.00206    0.00146
C2'   1    0.382938    0.573643    0.390462    11.00000    0.02203    0.01567 =
         0.02694   -0.00302    0.00471    0.00567
AFIX  43
H2'   2    0.288851    0.629617    0.420874    11.00000   -1.20000
AFIX   0
C3'   1    0.395991    0.565646    0.289939    11.00000    0.01764    0.01769 =
         0.02821   -0.00460    0.00241    0.00147
C4'   1    0.545343    0.484326    0.248727    11.00000    0.02351    0.02401 =
         0.02206   -0.00065    0.00097    0.00526
AFIX  43
H4'   2    0.562343    0.477368    0.180255    11.00000   -1.20000
AFIX   0
C5'   1    0.669077    0.413532    0.309625    11.00000    0.02284    0.01842 =
         0.03120   -0.00667    0.00330    0.00656
AFIX  43
H5'   2    0.771334    0.358002    0.280977    11.00000   -1.20000
AFIX   0
C6'   1    0.244628    0.644016    0.229509    11.00000    0.01937    0.02084 =
         0.02522   -0.00043    0.00028    0.00080
C7'   1    0.095597    0.693526    0.068369    11.00000    0.03518    0.03077 =
         0.03192   -0.00190    0.00610    0.00452
AFIX  23
H7'A  2    0.216694    0.759707    0.078898    11.00000   -1.20000
H7'B  2   -0.149683    0.699919    0.080781    11.00000   -1.20000
AFIX   0
C8'   1    0.131574    0.654322   -0.034215    11.00000    0.04423    0.04735 =
         0.02870   -0.00619    0.00064    0.00989
AFIX 137
H8'A  2    0.036172    0.700741   -0.080163    11.00000   -1.50000
H8'B  2    0.006953    0.589441   -0.044065    11.00000   -1.50000
H8'C  2    0.375020    0.647261   -0.045200    11.00000   -1.50000
AFIX   0
HKLF 4
REM  Rillema16 in P-1
REM R1 =  0.0568 for    1699 Fo > 4sig(Fo)  and  0.1059 for all    2664 data
REM    201 parameters refined using      0 restraints
END
WGHT      0.0610      0.3155
REM Highest difference peak  0.593,  deepest hole -0.261,  1-sigma level  0.055
Q1    1  -0.0532  0.7419  0.0225  11.00000  0.05    0.59
Q2    1   0.4143  0.6216  0.2622  11.00000  0.05    0.21
Q3    1   0.1337  0.6012  0.4157  11.00000  0.05    0.19
Q4    1   0.4765  0.0335  0.2241  11.00000  0.05    0.19
Q5    1   0.8102 -0.1327  0.2010  11.00000  0.05    0.19
Q6    1   0.8710 -0.1764  0.0738  11.00000  0.05    0.18
Q7    1   0.0993  0.2771  0.2819  11.00000  0.05    0.18
Q8    1   0.5676  0.5565  0.2793  11.00000  0.05    0.18
Q9    1   0.8207  0.3804  0.1823  11.00000  0.05    0.18
Q10   1   0.0615  0.6870 -0.1027  11.00000  0.05    0.18
Q11   1   0.1433  0.1773  0.1012  11.00000  0.05    0.17
Q12   1   0.3158  0.5566  0.3395  11.00000  0.05    0.16
Q13   1   0.6678  0.0003  0.3396  11.00000  0.05    0.16
Q14   1   0.7217  0.3825  0.4193  11.00000  0.05    0.16
Q15   1   0.2313  0.2636  0.5985  11.00000  0.05    0.16
Q16   1  -0.2045  0.6630 -0.0591  11.00000  0.05    0.16
Q17   1   0.0564  0.7542  0.1432  11.00000  0.05    0.16
Q18   1  -0.1235  0.8178  0.0253  11.00000  0.05    0.15
Q19   1   0.7876 -0.1054  0.0551  11.00000  0.05    0.15
Q20   1  -0.0484  0.7395 -0.1257  11.00000  0.05    0.15
;
_shelx_res_checksum              16849
_shelxl_version_number           .2013
loop_
_space_group_symop_operation_xyz
'x, y, z'
'-x, -y, -z'
loop_
_atom_site_type_symbol
_atom_site_label
_atom_site_fract_x
_atom_site_fract_y
_atom_site_fract_z
_atom_site_U_iso_or_equiv
_atom_site_adp_type
_atom_site_calc_flag
_atom_site_occupancy
N N1 0.6443(6) -0.08269(16) 0.09213(16) 0.0229(6) Uani d 1
O O1 0.1227(5) 0.21648(14) 0.24091(14) 0.0322(5) Uani d 1
O O2 0.2666(5) 0.12418(13) 0.36775(13) 0.0267(5) Uani d 1
C C1 0.5052(6) -0.00246(18) 0.05424(19) 0.0213(6) Uani d 1
C C2 0.3798(7) 0.0728(2) 0.1117(2) 0.0227(6) Uani d 1
H H2 0.2878 0.1291 0.0827 0.027 Uiso calc 1
C C3 0.3909(7) 0.06454(19) 0.2116(2) 0.0230(7) Uani d 1
C C4 0.5353(7) -0.0181(2) 0.2512(2) 0.0250(7) Uani d 1
H H4 0.5496 -0.0255 0.3196 0.030 Uiso calc 1
C C5 0.6573(7) -0.0889(2) 0.1889(2) 0.0243(7) Uani d 1
H H5 0.7558 -0.1452 0.2163 0.029 Uiso calc 1
C C6 0.2460(7) 0.1439(2) 0.2732(2) 0.0238(7) Uani d 1
C C7 0.1308(7) 0.1979(2) 0.43362(19) 0.0268(7) Uani d 1
H H7A -0.1157 0.2057 0.4167 0.032 Uiso calc 1
H H7B 0.2562 0.2631 0.4290 0.032 Uiso calc 1
C C8 0.1788(8) 0.1608(2) 0.5350(2) 0.0322(8) Uani d 1
H H8A 0.0535 0.0963 0.5385 0.048 Uiso calc 1
H H8B 0.0904 0.2084 0.5817 0.048 Uiso calc 1
H H8C 0.4237 0.1535 0.5508 0.048 Uiso calc 1
N N1' 0.6531(6) 0.41872(16) 0.40638(16) 0.0225(6) Uani d 1
O O1' 0.1233(5) 0.71739(14) 0.26347(13) 0.0307(5) Uani d 1
O O2' 0.2484(5) 0.62205(13) 0.13410(13) 0.0257(5) Uani d 1
C C1' 0.5100(6) 0.49830(18) 0.44587(19) 0.0210(6) Uani d 1
C C2' 0.3829(7) 0.57364(19) 0.39046(19) 0.0214(6) Uani d 1
H H2' 0.2889 0.6296 0.4209 0.026 Uiso calc 1
C C3' 0.3960(7) 0.56565(19) 0.2899(2) 0.0213(6) Uani d 1
C C4' 0.5453(7) 0.4843(2) 0.2487(2) 0.0231(7) Uani d 1
H H4' 0.5623 0.4774 0.1803 0.028 Uiso calc 1
C C5' 0.6691(7) 0.4135(2) 0.3096(2) 0.0241(7) Uani d 1
H H5' 0.7713 0.3580 0.2810 0.029 Uiso calc 1
C C6' 0.2446(7) 0.6440(2) 0.2295(2) 0.0219(6) Uani d 1
C C7' 0.0956(8) 0.6935(2) 0.0684(2) 0.0325(7) Uani d 1
H H7'A 0.2167 0.7597 0.0789 0.039 Uiso calc 1
H H7'B -0.1497 0.6999 0.0808 0.039 Uiso calc 1
C C8' 0.1316(9) 0.6543(2) -0.0342(2) 0.0401(8) Uani d 1
H H8'A 0.0362 0.7007 -0.0802 0.060 Uiso calc 1
H H8'B 0.0070 0.5894 -0.0441 0.060 Uiso calc 1
H H8'C 0.3750 0.6473 -0.0452 0.060 Uiso calc 1
loop_
_atom_site_aniso_label
_atom_site_aniso_U_11
_atom_site_aniso_U_22
_atom_site_aniso_U_33
_atom_site_aniso_U_12
_atom_site_aniso_U_13
_atom_site_aniso_U_23
N1 0.0252(13) 0.0172(12) 0.0269(14) 0.0071(10) 0.0006(10) 0.0006(10)
O1 0.0430(13) 0.0242(11) 0.0301(12) 0.0145(10) -0.0005(10) -0.0027(9)
O2 0.0306(11) 0.0268(11) 0.0235(11) 0.0094(9) 0.0026(8) -0.0026(8)
C1 0.0165(14) 0.0190(15) 0.0278(15) 0.0007(12) -0.0008(12) -0.0017(12)
C2 0.0215(15) 0.0172(14) 0.0293(17) 0.0037(12) -0.0014(12) 0.0005(12)
C3 0.0185(15) 0.0202(15) 0.0301(17) 0.0034(12) -0.0001(12) -0.0015(12)
C4 0.0248(16) 0.0262(16) 0.0246(16) 0.0055(13) 0.0021(13) 0.0008(13)
C5 0.0242(15) 0.0193(15) 0.0305(17) 0.0093(12) 0.0016(12) 0.0038(12)
C6 0.0201(15) 0.0250(16) 0.0258(17) 0.0035(13) -0.0015(12) -0.0023(13)
C7 0.0290(16) 0.0262(15) 0.0255(16) 0.0089(13) 0.0022(12) -0.0072(12)
C8 0.0318(18) 0.0359(18) 0.0294(18) 0.0072(14) 0.0050(13) -0.0032(14)
N1' 0.0224(13) 0.0187(12) 0.0264(14) 0.0045(10) 0.0011(10) -0.0022(10)
O1' 0.0428(13) 0.0249(11) 0.0259(12) 0.0169(10) 0.0033(9) -0.0007(9)
O2' 0.0327(11) 0.0242(11) 0.0206(11) 0.0105(9) -0.0005(8) -0.0023(8)
C1' 0.0195(15) 0.0157(15) 0.0278(15) 0.0015(12) 0.0021(12) -0.0021(12)
C2' 0.0220(15) 0.0157(14) 0.0269(17) 0.0057(12) 0.0047(12) -0.0030(12)
C3' 0.0176(14) 0.0177(14) 0.0282(17) 0.0015(12) 0.0024(12) -0.0046(12)
C4' 0.0235(15) 0.0240(15) 0.0221(15) 0.0053(13) 0.0010(12) -0.0006(13)
C5' 0.0228(15) 0.0184(14) 0.0312(18) 0.0066(12) 0.0033(12) -0.0067(12)
C6' 0.0194(15) 0.0208(15) 0.0252(17) 0.0008(12) 0.0003(12) -0.0004(12)
C7' 0.0352(18) 0.0308(17) 0.0319(18) 0.0045(14) 0.0061(14) -0.0019(14)
C8' 0.044(2) 0.047(2) 0.0287(19) 0.0099(16) 0.0006(15) -0.0062(15)
loop_
_atom_type_symbol
_atom_type_description
_atom_type_scat_dispersion_real
_atom_type_scat_dispersion_imag
_atom_type_scat_source
C C 0.0033 0.0016 'International Tables Vol C Tables 4.2.6.8 and 6.1.1.4'
H H 0.0000 0.0000 'International Tables Vol C Tables 4.2.6.8 and 6.1.1.4'
N N 0.0061 0.0033 'International Tables Vol C Tables 4.2.6.8 and 6.1.1.4'
O O 0.0106 0.0060 'International Tables Vol C Tables 4.2.6.8 and 6.1.1.4'
loop_
_geom_angle_atom_site_label_1
_geom_angle_atom_site_label_2
_geom_angle_atom_site_label_3
_geom_angle_site_symmetry_3
_geom_angle
C5 N1 C1 . 117.6(2)
C6 O2 C7 . 115.9(2)
N1 C1 C1 2_655 116.4(3)
N1 C1 C2 . 122.5(2)
C2 C1 C1 2_655 121.1(3)
C1 C2 H2 . 120.4
C3 C2 C1 . 119.1(2)
C3 C2 H2 . 120.4
C2 C3 C4 . 118.6(2)
C2 C3 C6 . 119.1(2)
C4 C3 C6 . 122.3(3)
C3 C4 H4 . 120.7
C5 C4 C3 . 118.5(3)
C5 C4 H4 . 120.7
N1 C5 C4 . 123.5(2)
N1 C5 H5 . 118.2
C4 C5 H5 . 118.2
O1 C6 O2 . 124.3(3)
O1 C6 C3 . 123.6(3)
O2 C6 C3 . 112.1(2)
O2 C7 H7A . 110.3
O2 C7 H7B . 110.3
O2 C7 C8 . 106.9(2)
H7A C7 H7B . 108.6
C8 C7 H7A . 110.3
C8 C7 H7B . 110.3
C7 C8 H8A . 109.5
C7 C8 H8B . 109.5
C7 C8 H8C . 109.5
H8A C8 H8B . 109.5
H8A C8 H8C . 109.5
H8B C8 H8C . 109.5
C5' N1' C1' . 117.3(2)
C6' O2' C7' . 116.5(2)
N1' C1' C1' 2_666 116.4(3)
N1' C1' C2' . 122.8(2)
C2' C1' C1' 2_666 120.8(3)
C1' C2' H2' . 120.6
C3' C2' C1' . 118.8(2)
C3' C2' H2' . 120.6
C2' C3' C6' . 119.1(2)
C4' C3' C2' . 118.7(2)
C4' C3' C6' . 122.1(2)
C3' C4' H4' . 120.8
C5' C4' C3' . 118.5(3)
C5' C4' H4' . 120.8
N1' C5' C4' . 123.8(3)
N1' C5' H5' . 118.1
C4' C5' H5' . 118.1
O1' C6' O2' . 123.9(2)
O1' C6' C3' . 123.6(2)
O2' C6' C3' . 112.4(2)
O2' C7' H7'A . 110.3
O2' C7' H7'B . 110.3
O2' C7' C8' . 107.2(2)
H7'A C7' H7'B . 108.5
C8' C7' H7'A . 110.3
C8' C7' H7'B . 110.3
C7' C8' H8'A . 109.5
C7' C8' H8'B . 109.5
C7' C8' H8'C . 109.5
H8'A C8' H8'B . 109.5
H8'A C8' H8'C . 109.5
H8'B C8' H8'C . 109.5
loop_
_geom_bond_atom_site_label_1
_geom_bond_atom_site_label_2
_geom_bond_site_symmetry_2
_geom_bond_distance
N1 C1 . 1.347(3)
N1 C5 . 1.336(3)
O1 C6 . 1.203(3)
O2 C6 . 1.338(3)
O2 C7 . 1.460(3)
C1 C1 2_655 1.496(5)
C1 C2 . 1.389(4)
C2 H2 . 0.9500
C2 C3 . 1.382(4)
C3 C4 . 1.392(4)
C3 C6 . 1.494(4)
C4 H4 . 0.9500
C4 C5 . 1.381(4)
C5 H5 . 0.9500
C7 H7A . 0.9900
C7 H7B . 0.9900
C7 C8 . 1.507(4)
C8 H8A . 0.9800
C8 H8B . 0.9800
C8 H8C . 0.9800
N1' C1' . 1.346(3)
N1' C5' . 1.336(3)
O1' C6' . 1.209(3)
O2' C6' . 1.336(3)
O2' C7' . 1.474(3)
C1' C1' 2_666 1.496(5)
C1' C2' . 1.390(4)
C2' H2' . 0.9500
C2' C3' . 1.388(4)
C3' C4' . 1.386(4)
C3' C6' . 1.496(4)
C4' H4' . 0.9500
C4' C5' . 1.384(4)
C5' H5' . 0.9500
C7' H7'A . 0.9900
C7' H7'B . 0.9900
C7' C8' . 1.505(4)
C8' H8'A . 0.9800
C8' H8'B . 0.9800
C8' H8'C . 0.9800
loop_
_geom_hbond_atom_site_label_D
_geom_hbond_atom_site_label_H
_geom_hbond_atom_site_label_A
_geom_hbond_site_symmetry_A
_geom_hbond_distance_DH
_geom_hbond_distance_HA
_geom_hbond_distance_DA
_geom_hbond_angle_DHA
_geom_hbond_publ_flag
C5 H5 O1' 1_645 0.95 2.49 3.421(3) 167 yes
C8 H8B O1' 2_566 0.98 2.52 3.465(3) 161 yes
C5' H5' O1 1_655 0.95 2.47 3.404(3) 167 yes
C8' H8'A O1 2_565 0.98 2.58 3.518(3) 161 yes
C7 H7B N1' . 0.99 2.58 3.565(4) 172 yes

_cod_database_fobs_code 1544244
