#------------------------------------------------------------------------------
#$Date: 2016-10-15 04:44:33 +0300 (Sat, 15 Oct 2016) $
#$Revision: 187345 $
#$URL: file:///home/coder/svn-repositories/cod/cif/1/54/42/1544289.cif $
#------------------------------------------------------------------------------
#
# This file is available in the Crystallography Open Database (COD),
# http://www.crystallography.net/. The original data for this entry
# were provided by IUCr Journals, http://journals.iucr.org/.
#
# The file may be used within the scientific community so long as
# proper attribution is given to the journal article from which the
# data were obtained.
#
data_1544289
loop_
_publ_author_name
'Wang, Zhaodong'
'Yang, Yanshuang'
'Lin, Huanzhu'
_publ_section_title
;
 <i>N</i>,<i>N</i>'-Bis(pyrazin-2-ylmethyl)pyrazine-2,3-dicarboxamide
;
_journal_coeditor_code           SJ4064
_journal_issue                   10
_journal_name_full               IUCrData
_journal_page_first              x161588
_journal_paper_doi               10.1107/S2414314616015881
_journal_volume                  1
_journal_year                    2016
_chemical_formula_iupac          'C16 H14 N8 O2'
_chemical_formula_moiety         'C16 H14 N8 O2'
_chemical_formula_sum            'C16 H14 N8 O2'
_chemical_formula_weight         350.35
_chemical_name_systematic
;
<i>N</i>,<i>N</i>'-Bis(pyrazin-2-ylmethyl)pyrazine-2,3-dicarboxamide
;
_space_group_crystal_system      triclinic
_space_group_IT_number           2
_space_group_name_Hall           '-P 1'
_space_group_name_H-M_alt        'P -1'
_symmetry_space_group_name_Hall  '-P 1'
_symmetry_space_group_name_H-M   'P -1'
_atom_sites_solution_hydrogens   mixed
_audit_creation_method
;
Olex2 1.2-beta
(compiled 2016.02.19 svn.r3266 for OlexSys, GUI svn.r5155)
;
_cell_angle_alpha                116.951(2)
_cell_angle_beta                 97.130(2)
_cell_angle_gamma                102.195(2)
_cell_formula_units_Z            2
_cell_length_a                   9.1166(18)
_cell_length_b                   10.022(2)
_cell_length_c                   10.781(2)
_cell_measurement_reflns_used    2164
_cell_measurement_temperature    296(2)
_cell_measurement_theta_max      26.645
_cell_measurement_theta_min      2.311
_cell_volume                     830.5(3)
_computing_cell_refinement
;
SAINT (Bruker, 2013)
;
_computing_data_collection
;
APEX2 (Bruker, 2013)
;
_computing_data_reduction
;
SAINT (Bruker, 2013)
;
_computing_molecular_graphics
;
<i>OLEX2</i> (Dolomanov <i>et al.</i>,  2009)
;
_computing_publication_material
;
<i>OLEX2</i> (Dolomanov <i>et al.</i>,  2009)
;
_computing_structure_refinement
;
SHELXL2014 (Sheldrick, 2015b)
;
_computing_structure_solution
;
SHELXT (Sheldrick, 2015a)
;
_diffrn_ambient_temperature      296(2)
_diffrn_measured_fraction_theta_full 0.994
_diffrn_measured_fraction_theta_max 0.911
_diffrn_measurement_device_type  'Bruker SMART APEXII CCD area-detector'
_diffrn_measurement_method       '\f and \w scans'
_diffrn_radiation_monochromator  graphite
_diffrn_radiation_type           MoK\a
_diffrn_radiation_wavelength     0.71073
_diffrn_reflns_av_R_equivalents  0.0160
_diffrn_reflns_limit_h_max       11
_diffrn_reflns_limit_h_min       -11
_diffrn_reflns_limit_k_max       11
_diffrn_reflns_limit_k_min       -13
_diffrn_reflns_limit_l_max       13
_diffrn_reflns_limit_l_min       -13
_diffrn_reflns_number            3527
_diffrn_reflns_theta_full        25.242
_diffrn_reflns_theta_max         27.675
_diffrn_reflns_theta_min         2.190
_exptl_absorpt_coefficient_mu    0.100
_exptl_absorpt_correction_type   none
_exptl_crystal_colour            colourless
_exptl_crystal_density_diffrn    1.401
_exptl_crystal_density_method    'not measured'
_exptl_crystal_description       block
_exptl_crystal_F_000             364
_exptl_crystal_size_max          0.22
_exptl_crystal_size_mid          0.20
_exptl_crystal_size_min          0.20
_refine_diff_density_max         0.151
_refine_diff_density_min         -0.173
_refine_ls_extinction_method     none
_refine_ls_goodness_of_fit_ref   1.050
_refine_ls_hydrogen_treatment    constr
_refine_ls_matrix_type           full
_refine_ls_number_parameters     235
_refine_ls_number_reflns         3527
_refine_ls_number_restraints     0
_refine_ls_restrained_S_all      1.050
_refine_ls_R_factor_all          0.0603
_refine_ls_R_factor_gt           0.0405
_refine_ls_shift/su_max          0.000
_refine_ls_shift/su_mean         0.000
_refine_ls_structure_factor_coef Fsqd
_refine_ls_weighting_details
'w=1/[\s^2^(Fo^2^)+(0.0759P)^2^+0.0242P] where P=(Fo^2^+2Fc^2^)/3'
_refine_ls_weighting_scheme      calc
_refine_ls_wR_factor_gt          0.1167
_refine_ls_wR_factor_ref         0.1318
_reflns_number_gt                2595
_reflns_number_total             3527
_reflns_threshold_expression     'I > 2\s(I)'
_cod_data_source_file            sj4064sup1.cif
_cod_data_source_block           I
_cod_database_code               1544289
_shelx_space_group_comment
;
The symmetry employed for this shelxl refinement is uniquely defined
by the following loop, which should always be used as a source of
symmetry information in preference to the above space-group names.
They are only intended as comments.
;
_shelx_hkl_file
;
   1   0   0    6873     128
   2   0   0     101      33
   3   0   0   82795     695
   4   0   0   23946     283
   5   0   0   15384     231
   6   0   0    4259     135
   7   0   0   18908     305
   8   0   0    3511     158
   9   0   0     325     108
 -10   1   0    1645     181
  -9   1   0     761     135
  -8   1   0   47362     719
  -7   1   0    8712     203
  -6   1   0    5933     154
  -5   1   0    6846     171
  -4   1   0   62471    1728
  -3   1   0     116      32
  -2   1   0  213386    2005
  -1   1   0    1550     186
   1   1   0  475773    4002
   2   1   0  336041    2264
   3   1   0    5343     140
   4   1   0    4202     110
   5   1   0    1051      79
   6   1   0    3868     133
   7   1   0   24868     367
   8   1   0   34785     407
   9   1   0     -41     104
 -11   2   0    3367     384
 -10   2   0     466     333
  -9   2   0     -98      98
  -8   2   0    1316     153
  -7   2   0    7802     257
  -6   2   0   41280     534
  -5   2   0   48108     565
  -4   2   0    2709      85
  -3   2   0   44687     473
  -2   2   0    1161     243
  -1   2   0  818040   14801
   0   2   0  342597    2619
   1   2   0    9625     145
   2   2   0  303230    2323
   3   2   0    4345     122
   4   2   0   33364     319
   5   2   0    3915     116
   6   2   0   55779     516
   7   2   0   15051     372
   8   2   0     754      99
   9   2   0     627     205
 -11   3   0      84     131
 -10   3   0    6914     639
  -9   3   0     538     243
  -8   3   0   29647     755
  -7   3   0   58666    1127
  -6   3   0    5723     282
  -5   3   0   12418     196
  -4   3   0    7591     125
  -3   3   0   61892     986
  -2   3   0   58703     609
  -1   3   0    4884      98
   0   3   0      91      32
   1   3   0   23592     260
   2   3   0   60398     550
   3   3   0   24116     291
   4   3   0   31992     396
   5   3   0   39193     453
   6   3   0    3139     175
   7   3   0   23150     518
   8   3   0     141     179
   9   3   0    1651     282
 -11   4   0     245     365
 -10   4   0     825     172
  -9   4   0     -51     128
  -8   4   0    2304     256
  -7   4   0   25755     666
  -6   4   0    3316     218
  -5   4   0    3623     218
  -4   4   0   31207     360
  -3   4   0    9604     168
  -2   4   0   35843     437
  -1   4   0   42232     416
   0   4   0    2658      95
   1   4   0  183068    1465
   2   4   0    2722     141
   3   4   0     436      55
   4   4   0     333      85
   5   4   0   10248     274
   6   4   0     634     114
   7   4   0     102     179
   8   4   0    -115     166
   9   4   0    -154     166
 -11   5   0    1279     206
 -10   5   0    1101     230
  -9   5   0    3380     320
  -8   5   0    2317     269
  -7   5   0   29813     743
  -6   5   0   13518     448
  -5   5   0   18357     512
  -4   5   0    6925     282
  -3   5   0   62957     711
  -2   5   0    3316     126
  -1   5   0    4882     126
   0   5   0    3315     106
   1   5   0   16156     332
   2   5   0    4101     127
   3   5   0      93      67
   4   5   0     299      92
   5   5   0    1795     160
   6   5   0    1099     205
   7   5   0     256     192
   8   5   0     461     230
 -11   6   0     666     218
 -10   6   0   10420     525
  -9   6   0    2023     269
  -8   6   0    6247     371
  -7   6   0      77     128
  -6   6   0    3802     269
  -5   6   0   26280     653
  -4   6   0      51      90
  -3   6   0   13206     261
  -2   6   0    2099     126
  -1   6   0    1463      93
   0   6   0      42      51
   1   6   0   12495     227
   2   6   0   10337     273
   3   6   0     763     120
   4   6   0     830     135
   5   6   0    1196     179
   6   6   0     230     192
   7   6   0     730     256
 -10   7   0     422     192
  -9   7   0   11623     538
  -8   7   0    8602     435
  -7   7   0    2612     282
  -6   7   0    2432     256
  -5   7   0     358     141
  -4   7   0     832     166
  -3   7   0    1575     205
  -2   7   0    8117     282
  -1   7   0   16430     276
   0   7   0    4664     237
   1   7   0     975     126
   2   7   0     318     109
   3   7   0    5014     237
   4   7   0     306     114
   5   7   0      26     154
   6   7   0     179     218
 -10   8   0      64     179
  -9   8   0    1024     243
  -8   8   0     717     205
  -7   8   0    3661     346
  -6   8   0     422     166
  -5   8   0     461     166
  -4   8   0     128     128
  -3   8   0     845     179
  -2   8   0   11175     422
  -1   8   0    8650     272
   0   8   0      37      86
   1   8   0     648     141
   2   8   0     -85      85
   3   8   0     324     114
   4   8   0     -64     179
   5   8   0     691     307
  -9   9   0     346     205
  -8   9   0    -128     141
  -7   9   0    2023     294
  -6   9   0    4801     333
  -5   9   0     768     205
  -4   9   0     -13     102
  -3   9   0    8794     422
  -2   9   0    -115     128
  -1   9   0    1323     166
   0   9   0     850     243
   1   9   0      41     166
   2   9   0    1575     243
   3   9   0      62     117
  -7  10   0     832     230
  -6  10   0     397     154
  -5  10   0     205     166
  -4  10   0    1114     230
  -3  10   0    1114     218
  -2  10   0      51     141
  -1  10   0     691     192
   0  10   0      90     141
   1  10   0     178     128
   2  10   0     225     129
  -5  11   0     154     192
  -4  11   0     102     166
  -3  11   0     883     218
  -2  11   0     486     192
  -1  11   0      51     154
   0  11   0      90     192
   0 -11   1     871     218
   1 -11   1      26     141
   2 -11   1     256     166
   3 -11   1    1651     256
   4 -11   1     205     166
   5 -11   1     166     166
   6 -11   1     448     205
  -3 -10   1     614     243
  -2 -10   1     -51     179
  -1 -10   1     280     126
   0 -10   1     -68      98
   1 -10   1     115     141
   2 -10   1     461     179
   3 -10   1    1741     256
   4 -10   1    3585     333
   5 -10   1     576     192
   6 -10   1    3751     371
   7 -10   1    -115     141
   8 -10   1    1293     269
  -4  -9   1     192     218
  -3  -9   1     -51     192
  -2  -9   1     338     147
  -1  -9   1      48      92
   0  -9   1    4506     224
   1  -9   1    3157     232
   2  -9   1    7237     271
   3  -9   1     666     179
   4  -9   1   10087     448
   5  -9   1     871     192
   6  -9   1    5364     371
   7  -9   1     333     179
   8  -9   1    3265     358
   9  -9   1      26     179
  -5  -8   1    1946     320
  -4  -8   1      38     179
  -3  -8   1    1016     141
  -2  -8   1     569     116
  -1  -8   1    1556     160
   0  -8   1    1076     131
   1  -8   1      12      71
   2  -8   1   31363     530
   3  -8   1     563     154
   4  -8   1    5697     320
   5  -8   1    8358     397
   6  -8   1     333     154
   7  -8   1     256     166
   8  -8   1    3175     333
   9  -8   1     781     218
  10  -8   1     781     230
  -6  -7   1     486     243
  -5  -7   1     -51     179
  -4  -7   1     -24      87
  -3  -7   1      93      95
  -2  -7   1     310      95
  -1  -7   1    2537     124
   0  -7   1    5975     166
   1  -7   1    1162      96
   2  -7   1     258      66
   3  -7   1     614     141
   4  -7   1    2983     230
   5  -7   1    6528     333
   6  -7   1     166     128
   7  -7   1    3546     320
   8  -7   1     307     166
   9  -7   1    3469     346
  10  -7   1      77     166
  -7  -6   1     269     218
  -6  -6   1    4442     410
  -5  -6   1    3277     346
  -4  -6   1    3002     262
  -3  -6   1     183     115
  -2  -6   1    3412     128
  -1  -6   1    2168     102
   0  -6   1    1604      93
   1  -6   1     554      64
   2  -6   1    5764     141
   3  -6   1    1671      96
   4  -6   1    2560     192
   5  -6   1    4071     256
   6  -6   1    6183     320
   7  -6   1   26562     717
   8  -6   1     371     166
   9  -6   1    2778     307
  10  -6   1     448     192
  11  -6   1    1715     294
  -8  -5   1    1805     307
  -7  -5   1    1370     269
  -6  -5   1    1242     243
  -5  -5   1    4639     224
  -4  -5   1     675      80
  -3  -5   1    2026      97
  -2  -5   1    4983     130
  -1  -5   1   11000     187
   0  -5   1   13179     204
   1  -5   1    3663     108
   2  -5   1   59306     555
   3  -5   1   15498     232
   4  -5   1   18882     486
   5  -5   1    5044     256
   6  -5   1   16833     512
   7  -5   1     -90     115
   8  -5   1     499     166
   9  -5   1    2407     294
  10  -5   1      26     154
  11  -5   1       6     142
  -9  -4   1     320     218
  -8  -4   1    1639     282
  -7  -4   1       0     166
  -6  -4   1    1447     135
  -5  -4   1    1252     109
  -4  -4   1    3630     115
  -3  -4   1    1489      79
  -2  -4   1     858      63
  -1  -4   1    5161     112
   0  -4   1   10720     162
   1  -4   1   11582     164
   2  -4   1    8679     133
   3  -4   1    5723     218
   4  -4   1   28316     602
   5  -4   1    4711     230
   6  -4   1     461     128
   7  -4   1   34626     807
   8  -4   1    3098     294
   9  -4   1    -102     128
  10  -4   1    -122     122
  11  -4   1    2585     621
 -10  -3   1     115     192
  -9  -3   1    1498     282
  -8  -3   1     102     179
  -7  -3   1    2740     189
  -6  -3   1    5036     283
  -5  -3   1       9      47
  -4  -3   1    6901     148
  -3  -3   1     479      47
  -2  -3   1   47789     450
  -1  -3   1  293126    2232
   0  -3   1  137039    1081
   1  -3   1    2056      58
   2  -3   1   15515     238
   3  -3   1    4993     192
   4  -3   1     713      38
   5  -3   1    1568     115
   6  -3   1    8858     346
   7  -3   1     -64     102
   8  -3   1    4212     307
   9  -3   1    4928     261
  10  -3   1    -156     192
  11  -3   1    5022     324
  -9  -2   1     128     192
  -8  -2   1    1518     153
  -7  -2   1     380      63
  -6  -2   1     501      83
  -5  -2   1    4446     105
  -4  -2   1   11598     156
  -3  -2   1   52755     417
  -2  -2   1   32088     309
  -1  -2   1  232210    2580
   0  -2   1   19472     189
   1  -2   1  180757    1387
   2  -2   1   10188     858
   3  -2   1    2159      66
   4  -2   1   33269     406
   5  -2   1    5516     151
   6  -2   1   30819     452
   7  -2   1   31119     743
   8  -2   1    1255     153
   9  -2   1     104     120
  10  -2   1     889     173
  11  -2   1      38     179
  -9  -1   1    2233     185
  -8  -1   1    1344     116
  -7  -1   1    3387     139
  -6  -1   1     240      59
  -5  -1   1    5102     130
  -4  -1   1    1314      71
  -3  -1   1  142428    1136
  -2  -1   1     539      34
  -1  -1   1  125817     968
   0  -1   1  126190    1741
   1  -1   1    8714     210
   2  -1   1   30385     343
   3  -1   1     897     122
   4  -1   1   61280     691
   5  -1   1   32480     518
   6  -1   1   12585     233
   7  -1   1   10054     285
   8  -1   1     793     140
   9  -1   1     454     127
  10  -1   1     704     205
 -10   0   1     320     154
  -9   0   1    5648     301
  -8   0   1   20844     348
  -7   0   1   10136     219
  -6   0   1    9549     194
  -5   0   1    4661     145
  -4   0   1     258      52
  -3   0   1   19862     220
  -2   0   1     878      39
  -1   0   1     -38      38
   0   0   1      -9       9
   1   0   1   44033    1158
   2   0   1  223438    2105
   3   0   1   45135     530
   4   0   1    5577     128
   5   0   1    9070     255
   6   0   1    3691     138
   7   0   1     666      93
   8   0   1     125      79
   9   0   1    1024     230
  10   0   1       7     134
 -11   1   1      38     154
 -10   1   1    2445     307
  -9   1   1     128      98
  -8   1   1   10933     467
  -7   1   1   46304     524
  -6   1   1   26682     520
  -5   1   1      88      41
  -4   1   1      22      31
  -3   1   1   12637     184
  -2   1   1  367961    4288
  -1   1   1  210266    1964
   0   1   1   26682     303
   1   1   1  129878    1004
   2   1   1   14866     162
   3   1   1    4340      88
   4   1   1   22982     247
   5   1   1    6591     133
   6   1   1   11822     200
   7   1   1   20317     336
   8   1   1     730     102
   9   1   1    1481     275
 -11   2   1    4391     422
 -10   2   1    2050     197
  -9   2   1     494     123
  -8   2   1   19246     646
  -7   2   1    1508     141
  -6   2   1     617      77
  -5   2   1    6583     211
  -4   2   1   32384     416
  -3   2   1    6521     116
  -2   2   1   87755     915
  -1   2   1   26806     326
   0   2   1  603421    4643
   1   2   1    3600     136
   2   2   1   21707     241
   3   2   1   33288     309
   4   2   1   19450     236
   5   2   1   18950     244
   6   2   1   31517     423
   7   2   1     441      88
   8   2   1    4101     178
   9   2   1     277     126
 -11   3   1    4122     435
 -10   3   1     -75     108
  -9   3   1    1481     307
  -8   3   1   55723    1043
  -7   3   1   20276     563
  -6   3   1    7565     307
  -5   3   1    1549      69
  -4   3   1   28142     344
  -3   3   1   23552     313
  -2   3   1    2018     128
  -1   3   1  203128    2042
   0   3   1   32583     330
   1   3   1     544      47
   2   3   1     281      48
   3   3   1   13843     204
   4   3   1   12244     282
   5   3   1    2074     157
   6   3   1     451     111
   7   3   1    2184     301
   8   3   1     802     137
   9   3   1     730     230
 -11   4   1     520     211
 -10   4   1     331     144
  -9   4   1   22743     509
  -8   4   1    1101     192
  -7   4   1    4622     282
  -6   4   1    4865     256
  -5   4   1    1101     154
  -4   4   1   18388     277
  -3   4   1    2128      98
  -2   4   1   27023     379
  -1   4   1   30256     416
   0   4   1  212721    1685
   1   4   1   17039     227
   2   4   1   16652     230
   3   4   1    2070     141
   4   4   1    4801     200
   5   4   1    4133     269
   6   4   1    2622     191
   7   4   1     259     154
   8   4   1     896     256
 -11   5   1     195     147
 -10   5   1     758     192
  -9   5   1     307     166
  -8   5   1   35944     871
  -7   5   1    1895     230
  -6   5   1     883     166
  -5   5   1     935     141
  -4   5   1   33469     452
  -3   5   1    4404     148
  -2   5   1   57926     701
  -1   5   1     263      90
   0   5   1   24577     310
   1   5   1      83      71
   2   5   1    2204     153
   3   5   1    3882     188
   4   5   1    7019     252
   5   5   1     251     173
   6   5   1     -59      95
   7   5   1     653     243
 -11   6   1     -38     166
 -10   6   1    9754     512
  -9   6   1      38     154
  -8   6   1     141     141
  -7   6   1     422     141
  -6   6   1    2048     230
  -5   6   1     730     154
  -4   6   1     550     141
  -3   6   1    3155     166
  -2   6   1     958     104
  -1   6   1     806     104
   0   6   1      76      96
   1   6   1    3568     205
   2   6   1     -37     147
   3   6   1       0      85
   4   6   1    2213     184
   5   6   1     561     243
   6   6   1    1876     194
 -10   7   1     -38     154
  -9   7   1     141     166
  -8   7   1      64     154
  -7   7   1    2599     282
  -6   7   1    1587     218
  -5   7   1    2381     256
  -4   7   1    1011     179
  -3   7   1    1114     179
  -2   7   1   24055     434
  -1   7   1    3693     211
   0   7   1     791     224
   1   7   1     108     115
   2   7   1    5775     246
   3   7   1    1571     172
   4   7   1     310     120
   5   7   1    3235     384
 -10   8   1    1485     333
  -9   8   1     717     218
  -8   8   1     166     166
  -7   8   1    2176     282
  -6   8   1     550     179
  -5   8   1      64     141
  -4   8   1    4366     320
  -3   8   1    2637     282
  -2   8   1    6260     358
  -1   8   1    4448     243
   0   8   1     320     109
   1   8   1     312     122
   2   8   1     114     104
   3   8   1     214     122
   4   8   1     112     123
  -8   9   1     947     230
  -7   9   1    1293     256
  -6   9   1     486     205
  -5   9   1     256     166
  -4   9   1     358     179
  -3   9   1   13287     525
  -2   9   1     -26     128
  -1   9   1     129     128
   0   9   1    1031     149
   1   9   1      88     113
   2   9   1     212     120
   3   9   1     935     180
  -6  10   1    1306     243
  -5  10   1    3495     358
  -4  10   1     269     179
  -3  10   1    1485     256
  -2  10   1    2816     320
  -1  10   1    1434     243
   0  10   1    2279     294
   1  10   1    2020     217
   1 -12   2    3060     333
   2 -12   2     205     166
   3 -12   2     576     192
   4 -12   2     -64     166
  -2 -11   2     755     243
   0 -11   2      13     128
   1 -11   2     166     141
   2 -11   2     115     166
   3 -11   2    4647     346
   4 -11   2    1203     230
   5 -11   2      77     154
   6 -11   2    1357     269
  -3 -10   2    2048     320
  -2 -10   2    7296     461
  -1 -10   2    1053     157
   0 -10   2    1345     166
   1 -10   2     410     154
   2 -10   2     -70     122
   3 -10   2    9664     448
   4 -10   2    1357     230
   5 -10   2    4698     358
   6 -10   2    1818     269
   7 -10   2    3572     371
   8 -10   2     346     179
  -4  -9   2      38     192
  -3  -9   2     166     192
  -2  -9   2     768     205
  -1  -9   2      67     122
   0  -9   2     703     120
   1  -9   2   28526     755
   2  -9   2    3129     204
   3  -9   2     -53      96
   4  -9   2     -77     128
   5  -9   2     960     205
   6  -9   2    6681     397
   7  -9   2     679     205
   8  -9   2    2023     294
   9  -9   2     141     179
  -6  -8   2     166     243
  -5  -8   2     102     218
  -4  -8   2     218     192
  -3  -8   2    6592     410
  -2  -8   2    1669     151
  -1  -8   2    6296     184
   0  -8   2   31998     428
   1  -8   2      98      69
   2  -8   2   24859     457
   3  -8   2     -73      83
   4  -8   2    1191     192
   5  -8   2   11060     448
   6  -8   2    1242     218
   7  -8   2    7475     410
   8  -8   2    2688     320
   9  -8   2     653     205
  10  -8   2    1408     282
  -7  -7   2    1075     294
  -6  -7   2    2164     320
  -5  -7   2     640     230
  -4  -7   2    2586     307
  -3  -7   2     916     128
  -2  -7   2     686      84
  -1  -7   2     919      88
   0  -7   2   71465     709
   1  -7   2    8281     182
   2  -7   2     871      79
   3  -7   2    5317     202
   4  -7   2    3124     256
   5  -7   2    1319     192
   6  -7   2     947     179
   7  -7   2     679     179
   8  -7   2    8397     448
   9  -7   2    1165     243
  10  -7   2     909     230
  -8  -6   2    1191     294
  -7  -6   2     589     230
  -6  -6   2     -90     166
  -5  -6   2    4967     358
  -4  -6   2    9195     220
  -3  -6   2      91      67
  -2  -6   2     801      76
  -1  -6   2   14738     303
   0  -6   2    6866     158
   1  -6   2    5983     139
   2  -6   2    1965     134
   3  -6   2    5490     125
   4  -6   2     256     115
   5  -6   2    7680     333
   6  -6   2     563     141
   7  -6   2    4314     320
   8  -6   2   28597     807
   9  -6   2    1895     269
  10  -6   2     743     218
  11  -6   2    1690     346
  -8  -5   2      26     205
  -7  -5   2    2996     333
  -6  -5   2     128     166
  -5  -5   2     -46      76
  -4  -5   2       0      46
  -3  -5   2   45612     490
  -2  -5   2   12083     198
  -1  -5   2   15332     223
   0  -5   2   28234     322
   1  -5   2     147      50
   2  -5   2   43996     436
   3  -5   2    1498     166
   4  -5   2  102253    1613
   5  -5   2   15464     461
   6  -5   2   20750     589
   7  -5   2   23835     679
   8  -5   2      26     128
   9  -5   2    5659     384
  10  -5   2      90     166
  11  -5   2    4418     602
  -9  -4   2     666     243
  -8  -4   2     589     218
  -7  -4   2    4289     358
  -6  -4   2      24      76
  -5  -4   2     480      63
  -4  -4   2     635      65
  -3  -4   2   13060     198
  -2  -4   2   88818     772
  -1  -4   2   40066     395
   0  -4   2    5132     105
   1  -4   2   30931     313
   2  -4   2   40719     386
   3  -4   2     655      90
   5  -4   2   18395     499
   6  -4   2    1959     205
   7  -4   2    1895     230
   8  -4   2     422     166
   9  -4   2     807     192
  10  -4   2    1016     346
  11  -4   2    7456     361
 -10  -3   2    -192     192
  -9  -3   2    4378     397
  -8  -3   2      32      95
  -7  -3   2   18086     402
  -6  -3   2    4817     252
  -5  -3   2    3248      94
  -4  -3   2   53480     524
  -3  -3   2    5133     124
  -2  -3   2  132263    1065
  -1  -3   2   63078     540
   0  -3   2   66923    1024
   1  -3   2  241267    1853
   2  -3   2    1295      43
   3  -3   2  141427    1368
   4  -3   2   98872    1351
   5  -3   2     852      76
   6  -3   2     128     102
   7  -3   2    7014     358
   8  -3   2    4366     320
   9  -3   2     -48     114
  10  -3   2     498     294
  11  -3   2    -154     154
  -9  -2   2    1104     153
  -8  -2   2   41177     723
  -7  -2   2    5244     184
  -6  -2   2    1788      82
  -5  -2   2    2929      84
  -4  -2   2   35819     338
  -3  -2   2     880      40
  -2  -2   2    7293     102
  -1  -2   2   52055     433
   0  -2   2    1185      40
   1  -2   2  240679    6505
   2  -2   2   62937     801
   3  -2   2   43035     602
   4  -2   2  107617    1120
   5  -2   2     855      86
   6  -2   2    3754     151
   7  -2   2   21531     614
   8  -2   2      41     104
   9  -2   2    9607     339
  10  -2   2    -128     154
  11  -2   2    4788     435
 -10  -1   2    3290     333
  -9  -1   2    3588     307
  -8  -1   2   11246     312
  -7  -1   2    3518     135
  -6  -1   2    6900     253
  -5  -1   2     159      44
  -4  -1   2   10874     165
  -3  -1   2   71378     609
  -2  -1   2  125131     977
  -1  -1   2   59486     478
   0  -1   2  534022    4082
   1  -1   2    7644     141
   2  -1   2    1045      67
   3  -1   2  159512    1570
   4  -1   2  128055    1321
   5  -1   2   17429     851
   6  -1   2    7545     230
   7  -1   2    5881     184
   8  -1   2     815     237
   9  -1   2      64     154
  10  -1   2     -26     166
 -11   0   2     653     218
 -10   0   2    3354     346
  -9   0   2   15259     576
  -8   0   2    6738     190
  -7   0   2    2008     157
  -6   0   2       2      45
  -5   0   2   38168     446
  -4   0   2   59210     540
  -3   0   2   24791     259
  -2   0   2  784451    6020
  -1   0   2   13461     146
   0   0   2   88368     699
   1   0   2    1539      41
   2   0   2   24283     335
   3   0   2  179424    1965
   4   0   2   41790     561
   5   0   2   29131     368
   6   0   2     491      79
   7   0   2   23023     452
   8   0   2     921     140
   9   0   2     133      98
  10   0   2     401     123
 -11   1   2    1459     269
 -10   1   2      90     166
  -9   1   2    1946     269
  -8   1   2    3111     301
  -7   1   2    1195      93
  -6   1   2   38350     427
  -5   1   2    4258     122
  -4   1   2    2994      85
  -3   1   2   60498     533
  -2   1   2    7903     120
  -1   1   2 1261157   10197
   0   1   2   82362    1040
   1   1   2   63544     696
   2   1   2   69119     520
   3   1   2     665      44
   4   1   2    1161      65
   5   1   2   73631     620
   6   1   2   33273     445
   7   1   2   11649     480
   8   1   2     835     108
   9   1   2     221     122
  10   1   2     -13     120
 -11   2   2    6489     461
 -10   2   2     640     218
  -9   2   2      44      89
  -8   2   2    4799     224
  -7   2   2   15557     570
  -6   2   2   11820     202
  -5   2   2     172      40
  -4   2   2  102520    1568
  -3   2   2  317486    2965
  -2   2   2   21941     299
  -1   2   2   11306     194
   0   2   2   64251     710
   1   2   2   10080     202
   2   2   2   39414     373
   3   2   2     -12      54
   4   2   2    9336     262
   5   2   2    9641     221
   6   2   2   12806     279
   7   2   2    4093     239
   8   2   2     689     112
   9   2   2      77      91
 -11   3   2    1050     269
 -10   3   2    1847     243
  -9   3   2   10443     344
  -8   3   2     115     128
  -7   3   2     544     104
  -6   3   2    3405     205
  -5   3   2    1764     160
  -4   3   2    8915     454
  -3   3   2   45294     563
  -2   3   2    8844     480
  -1   3   2    6192     158
   0   3   2      34      58
   1   3   2     501      90
   2   3   2     218      71
   3   3   2    8160     224
   4   3   2   32240     527
   5   3   2   39156     775
   6   3   2    1800     169
   7   3   2    1519     169
   8   3   2     141     173
   9   3   2     256     205
 -11   4   2     896     282
 -10   4   2    2859     288
  -9   4   2    4068     246
  -8   4   2   31731     716
  -7   4   2    2381     230
  -6   4   2     218     102
  -5   4   2       0      90
  -4   4   2     997      80
  -3   4   2   10429     221
  -2   4   2   56256     723
  -1   4   2   20642     348
   0   4   2   40988     561
   1   4   2    1658     126
   2   4   2    1884     198
   3   4   2    5189     307
   4   4   2   19596     414
   5   4   2    2492     188
   6   4   2     -81     250
   7   4   2       3     154
   8   4   2     249     123
 -11   5   2      13     154
 -10   5   2    3211     255
  -9   5   2    5484     333
  -8   5   2   39094     922
  -7   5   2     141     128
  -6   5   2   13134     435
  -5   5   2   22286     589
  -4   5   2     561     179
  -3   5   2    1627     117
  -2   5   2      55      67
  -1   5   2    9566     249
   0   5   2     356     141
   1   5   2     944     117
   2   5   2     984     120
   3   5   2     832     262
   4   5   2     303     114
   5   5   2     160     104
   6   5   2    1451     333
   7   5   2     130     126
 -11   6   2     218     166
 -10   6   2     627     224
  -9   6   2    1063     218
  -8   6   2      13     141
  -7   6   2     128     128
  -6   6   2   12417     461
  -5   6   2    1063     192
  -4   6   2    8576     371
  -3   6   2     506      92
  -2   6   2   13742     308
  -1   6   2    5184     213
   0   6   2    1677     149
   1   6   2     254      98
   2   6   2    8293     333
   3   6   2     896     262
   4   6   2     729     230
   5   6   2     131     120
   6   6   2     175     126
 -10   7   2    6528     435
  -9   7   2     602     205
  -8   7   2    2343     282
  -7   7   2     256     154
  -6   7   2   10676     461
  -5   7   2     666     179
  -4   7   2    9280     410
  -3   7   2     358     154
  -2   7   2     -75      96
  -1   7   2     -14      71
   0   7   2      18      86
   1   7   2    6127     358
   2   7   2     368     120
   3   7   2     211     113
   4   7   2    2059     467
   5   7   2    -154     154
  -9   8   2    2637     333
  -8   8   2     435     192
  -7   8   2     179     154
  -6   8   2     499     179
  -5   8   2     832     205
  -4   8   2    7910     410
  -3   8   2    1178     218
  -2   8   2    2535     282
  -1   8   2      -4      95
   0   8   2    1334     162
   1   8   2    1526     175
   2   8   2     753     148
   3   8   2     -20     104
   4   8   2     256     179
  -8   9   2     627     230
  -7   9   2     422     192
  -6   9   2    -115     141
  -5   9   2     243     192
  -4   9   2    1613     256
  -3   9   2      38     115
  -2   9   2    2996     333
  -1   9   2     -64     141
   0   9   2      60     104
   1   9   2     191     122
   2   9   2      82     378
  -5  10   2      26     192
  -4  10   2     563     218
  -3  10   2      38     166
  -2  10   2     422     205
   2 -12   3     743     205
   3 -12   3     320     192
   4 -12   3       0     141
   5 -12   3      77     166
  -2 -11   3    1805     307
   1 -11   3     -77     115
   2 -11   3     103     111
   3 -11   3    -105     114
   4 -11   3     218     154
   5 -11   3    1178     243
   6 -11   3    1485     256
   7 -11   3     320     192
  -4 -10   3     832     269
  -3 -10   3    2496     333
  -2 -10   3     -13     192
  -1 -10   3    1447     243
   0 -10   3     287     116
   1 -10   3     867     135
   2 -10   3    1705     166
   3 -10   3     -17      98
   4 -10   3     230     154
   5 -10   3    1536     243
   6 -10   3    3329     346
   7 -10   3     141     166
   8 -10   3    2970     358
  -5  -9   3     -90     192
  -4  -9   3    2458     346
  -3  -9   3     858     243
  -2  -9   3    5326     371
  -1  -9   3      85     113
   0  -9   3    8416     221
   1  -9   3    2006     173
   2  -9   3    3490     200
   3  -9   3     105      95
   4  -9   3    4994     239
   5  -9   3    2919     294
   6  -9   3    2484     294
   7  -9   3    4660     397
   8  -9   3     845     218
   9  -9   3    2855     358
  -6  -8   3     397     243
  -5  -8   3    1165     269
  -4  -8   3     141     179
  -3  -8   3    1498     243
  -2  -8   3    6217     294
  -1  -8   3    3669     165
   0  -8   3    1997     128
   1  -8   3   25715     364
   2  -8   3    3009     288
   3  -8   3    7110     563
   4  -8   3     140     128
   5  -8   3     102     128
   6  -8   3     307     154
   7  -8   3   10279     486
   8  -8   3   13787     576
   9  -8   3    4545     422
  -7  -7   3     -90     205
  -6  -7   3    -141     179
  -5  -7   3    9127     474
  -4  -7   3      86      95
  -3  -7   3    2422     175
  -2  -7   3    1165      94
  -1  -7   3   20858     306
   0  -7   3    2847     115
   1  -7   3    3882     129
   2  -7   3     123      56
   3  -7   3    9099     288
   4  -7   3     108      77
   5  -7   3     179     102
   6  -7   3    4135     294
   7  -7   3   15489     563
   8  -7   3    2765     307
   9  -7   3      77     154
  10  -7   3    4801     448
  -8  -6   3     717     269
  -7  -6   3    3277     371
  -6  -6   3    -154     166
  -5  -6   3      46      87
  -4  -6   3    3240     262
  -3  -6   3    2854     119
  -2  -6   3   12603     219
  -1  -6   3     532      62
   0  -6   3    5346     158
   1  -6   3     521      96
   2  -6   3    3984     108
   3  -6   3   13766     205
   4  -6   3      71      71
   5  -6   3    6235     307
   6  -6   3    3290     282
   7  -6   3   13479     512
   8  -6   3   11393     499
   9  -6   3     320     179
  10  -6   3    1972     307
  -9  -5   3     730     256
  -8  -5   3    -166     166
  -7  -5   3     653     192
  -6  -5   3    3459     250
  -5  -5   3     148      77
  -4  -5   3    2837     160
  -3  -5   3    3015     102
  -2  -5   3   16378     396
  -1  -5   3   50358     495
   0  -5   3   91049     792
   1  -5   3   81133     715
   2  -5   3    2120      74
   3  -5   3      23      30
   4  -5   3      80      58
   5  -5   3     960     154
   6  -5   3   25435     679
   7  -5   3    3085     294
   8  -5   3     499     179
   9  -5   3    -128     141
  10  -5   3     461     205
  11  -5   3     230     307
 -10  -4   3    -179     179
  -9  -4   3     346     218
  -8  -4   3    2966     221
  -7  -4   3   12418     344
  -6  -4   3    2292     176
  -5  -4   3     838     113
  -4  -4   3   22020     284
  -3  -4   3   13601     197
  -2  -4   3    1588      65
  -1  -4   3    1178      57
   0  -4   3  149097    1194
   1  -4   3     121      28
   2  -4   3   20862     313
   3  -4   3   79304     690
   4  -4   3   27791     410
   5  -4   3   22772     576
   6  -4   3    1203     179
   7  -4   3    -115     115
   8  -4   3    3546     320
   9  -4   3     704     218
  10  -4   3     640     205
 -10  -3   3    -179     179
  -9  -3   3     802     144
  -8  -3   3    6981     284
  -7  -3   3    2089     179
  -6  -3   3     142      80
  -5  -3   3     785      58
  -4  -3   3   25872     299
  -3  -3   3     322      33
  -2  -3   3   66528     573
  -1  -3   3   17112     191
   0  -3   3   58215     505
   1  -3   3    2111      62
   2  -3   3   38441     377
   3  -3   3      86      31
   4  -3   3   20240     311
   5  -3   3   29133     418
   6  -3   3    5044     294
   7  -3   3     243     141
   8  -3   3    2804     294
   9  -3   3     704     205
  10  -3   3     192     179
 -10  -2   3     115     141
  -9  -2   3    3932     235
  -8  -2   3   15801     385
  -7  -2   3    5524     262
  -6  -2   3    4911     146
  -5  -2   3    1038     103
  -4  -2   3     940      57
  -3  -2   3    6604      82
  -2  -2   3    1949      86
  -1  -2   3   17237     178
   0  -2   3    1285      65
   1  -2   3   15211     192
   2  -2   3     231      39
   3  -2   3    5752     148
   4  -2   3  156343    1587
   5  -2   3    1222     108
   6  -2   3    8162     256
   7  -2   3    5262     320
   8  -2   3     203     134
   9  -2   3    1011     218
  10  -2   3     461     205
 -11  -1   3     282     166
 -10  -1   3    3162     333
  -9  -1   3     -42      98
  -8  -1   3       6      81
  -7  -1   3    4150     184
  -6  -1   3    1351      86
  -5  -1   3   63356     614
  -4  -1   3   72494     640
  -3  -1   3   67763     583
  -2  -1   3     228      24
  -1  -1   3  268229    2042
   0  -1   3  228920    1906
   1  -1   3   61364     534
   2  -1   3  194658    1530
   3  -1   3    6541     171
   4  -1   3   12130     262
   5  -1   3    2340     138
   6  -1   3    3722     181
   7  -1   3    2136     171
   8  -1   3    6094     384
   9  -1   3    1421     256
  10  -1   3       6     275
 -11   0   3      38     166
 -10   0   3     115     166
  -9   0   3     205     154
  -8   0   3     336      95
  -7   0   3      29      56
  -6   0   3     454      61
  -5   0   3    1090      71
  -4   0   3   92895     794
  -3   0   3    1397     121
  -2   0   3 1261850    9602
  -1   0   3   24321     250
   0   0   3  108766     874
   1   0   3    2649      59
   2   0   3   17527     236
   3   0   3  173751    1429
   4   0   3    7257     166
   5   0   3     792      69
   6   0   3    2455     137
   7   0   3   18746     337
   8   0   3     386      92
   9   0   3     174     107
  10   0   3    2200     211
 -11   1   3     627     218
 -10   1   3    1088     243
  -9   1   3    1536     256
  -8   1   3     390     101
  -7   1   3    3977     135
  -6   1   3   14243     229
  -5   1   3    2896      97
  -4   1   3   74794     666
  -3   1   3   36998     374
  -2   1   3    1926     113
  -1   1   3     349      49
   0   1   3   64445     556
   1   1   3    8630     193
   2   1   3    3164     105
   3   1   3   45425     394
   4   1   3    3298     173
   5   1   3    2176     125
   6   1   3    2413     164
   7   1   3     565      98
   8   1   3    2817     171
   9   1   3    -100     100
 -11   2   3     743     230
 -10   2   3     755     230
  -9   2   3    1972     269
  -8   2   3    8541     288
  -7   2   3    6891     237
  -6   2   3    2255     175
  -5   2   3    7669     265
  -4   2   3     126     138
  -3   2   3   79111     707
  -2   2   3   23100     273
  -1   2   3   11115     165
   0   2   3  127667    1523
   1   2   3    1256      98
   2   2   3    4134     218
   3   2   3    9135     243
   4   2   3   41162     614
   5   2   3   51515     745
   6   2   3   27783     432
   7   2   3    3765     190
   8   2   3    1734     185
   9   2   3    3458     252
 -11   3   3    1229     269
 -10   3   3     -90     179
  -9   3   3    1814     178
  -8   3   3     -73      73
  -7   3   3     817     120
  -6   3   3     477      91
  -5   3   3    6169     268
  -4   3   3    5268     158
  -3   3   3   32029     691
  -2   3   3    4547     149
  -1   3   3   64112    1024
   0   3   3   39149     395
   1   3   3    2819     138
   2   3   3    2597     151
   3   3   3    9781     270
   4   3   3    1214     138
   5   3   3    2441     288
   6   3   3    1923     178
   7   3   3    6692     286
   8   3   3     123     198
 -11   4   3      38     230
 -10   4   3     243     218
  -9   4   3     926     154
  -8   4   3   20232     608
  -7   4   3    1189     141
  -6   4   3   15400     474
  -5   4   3     828      89
  -4   4   3   12969     270
  -3   4   3    1339     134
  -2   4   3   31364     471
  -1   4   3   42189     588
   0   4   3    1607     126
   1   4   3    4914     288
   2   4   3     259      89
   3   4   3   18476     397
   4   4   3     786     129
   5   4   3    1911     178
   6   4   3    1611     314
   7   4   3     -48     294
 -10   5   3    4899     289
  -9   5   3     159     128
  -8   5   3    4482     248
  -7   5   3   12865     474
  -6   5   3       0     115
  -5   5   3    9063     371
  -4   5   3    3273     157
  -3   5   3     501      89
  -2   5   3    2766     158
  -1   5   3   40637     602
   0   5   3     -13      80
   1   5   3     275     134
   2   5   3     233      98
   3   5   3    2675     250
   4   5   3     637     135
   5   5   3    4079     249
   6   5   3     117     123
 -10   6   3    4486     308
  -9   6   3    6666     311
  -8   6   3    1168     512
  -7   6   3   10509     461
  -6   6   3    1024     192
  -5   6   3    2317     256
  -4   6   3    3060     282
  -3   6   3    5585     217
  -2   6   3    2036     163
  -1   6   3    9350     285
   0   6   3    7006     258
   1   6   3    1637     167
   2   6   3     966     173
   3   6   3     247     117
   4   6   3    1157     179
   5   6   3    4996     474
 -10   7   3     -13     166
  -9   7   3     141     211
  -8   7   3    8576     461
  -7   7   3     141     154
  -6   7   3    1050     218
  -5   7   3    5364     333
  -4   7   3     192     115
  -3   7   3   17282     576
  -2   7   3    1385     192
  -1   7   3    1966     416
   0   7   3     354     141
   1   7   3     284     147
   2   7   3     984     288
   3   7   3    1553     301
   4   7   3      51     166
  -9   8   3    1139     230
  -8   8   3     243     179
  -7   8   3     448     192
  -6   8   3    2688     320
  -5   8   3    2522     307
  -4   8   3    2484     294
  -3   8   3    2279     294
  -2   8   3    -128     128
  -1   8   3     400     131
   0   8   3     157     128
   1   8   3     889     154
   2   8   3     213     131
  -7   9   3     128     205
  -6   9   3    1216     256
  -5   9   3    4622     410
  -4   9   3    5095     397
  -3   9   3     346     179
  -2   9   3    2304     307
  -1   9   3     422     192
   0   9   3     521     149
   1   9   3     384     205
   2 -12   4     333     205
   3 -12   4      75     120
   4 -12   4    2727     320
   5 -12   4    1434     256
  -3 -11   4     794     282
  -2 -11   4    2253     320
   1 -11   4     627     218
   2 -11   4      86     101
   3 -11   4     -30     104
   4 -11   4     179     123
   5 -11   4    1818     269
   6 -11   4    1498     269
   7 -11   4    2471     333
  -4 -10   4    -192     192
  -3 -10   4     640     243
  -2 -10   4    6733     448
  -1 -10   4     554     138
   0 -10   4     807     168
   1 -10   4    5609     493
   2 -10   4    3056     218
   3 -10   4    1184     153
   4 -10   4    1991     194
   5 -10   4     179     166
   6 -10   4   12148     538
   7 -10   4     320     154
   8 -10   4     -13     179
  -5  -9   4     282     230
  -4  -9   4     486     218
  -3  -9   4      13     166
  -2  -9   4   20429     457
  -1  -9   4    2590     224
   0  -9   4     729      96
   1  -9   4     164      89
   2  -9   4   10730     781
   3  -9   4    -147     160
   4  -9   4   19780     447
   5  -9   4    2420     269
   6  -9   4     -13     141
   7  -9   4    -102     141
   8  -9   4    2752     333
   9  -9   4      64     166
  -6  -8   4    -141     205
  -5  -8   4     205     218
  -4  -8   4     -92      92
  -3  -8   4    3584     215
  -2  -8   4    1659     158
  -1  -8   4      74      66
   0  -8   4  126443    1142
   1  -8   4      24      60
   2  -8   4    2796     169
   4  -8   4     -80      80
   5  -8   4    4545     307
   6  -8   4     422     166
   7  -8   4    2522     307
   8  -8   4     243     166
   9  -8   4     384     192
  -7  -7   4    -115     205
  -6  -7   4     589     243
  -5  -7   4     886     141
  -4  -7   4    1382     158
  -3  -7   4    1382     140
  -2  -7   4      14      80
  -1  -7   4    6390     165
   0  -7   4   17828     271
   1  -7   4    5036     138
   2  -7   4   28398     353
   3  -7   4   11239     333
   4  -7   4    1002     211
   5  -7   4     679     166
   6  -7   4    4724     320
   7  -7   4   20135     666
   8  -7   4    2983     320
   9  -7   4     973     230
  10  -7   4    1856     307
  -8  -6   4    -192     205
  -7  -6   4    -166     166
  -6  -6   4    4048     231
  -5  -6   4    5397     448
  -4  -6   4    7775     253
  -3  -6   4   15731     698
  -2  -6   4    2859     107
  -1  -6   4   51013     521
   1  -6   4    9958     230
   2  -6   4   41712     714
   3  -6   4    8125     153
   4  -6   4   10242     275
   5  -6   4   10932     422
   6  -6   4    5902     346
   7  -6   4    9485     435
   8  -6   4     102     154
   9  -6   4     909     230
  10  -6   4      13     166
  -9  -5   4    -166     166
  -8  -5   4    1641     184
  -7  -5   4    2071     185
  -6  -5   4     125      98
  -5  -5   4     240      89
  -4  -5   4      89      71
  -3  -5   4   15061     316
  -2  -5   4   11632     250
  -1  -5   4    4768     110
   0  -5   4   13242     194
   1  -5   4   34098     523
   2  -5   4   18707     241
   3  -5   4    2151      94
   4  -5   4   17343     348
   5  -5   4   11316     410
   6  -5   4    1703     218
   7  -5   4    5902     358
   8  -5   4      51     141
   9  -5   4     -13     115
  10  -5   4    1063     256
 -10  -4   4    -205     205
  -9  -4   4     776     544
  -8  -4   4    7451     294
  -7  -4   4     722     129
  -6  -4   4     803     147
  -5  -4   4    2695     198
  -4  -4   4     762      95
  -3  -4   4    5577     103
  -2  -4   4    1411      63
  -1  -4   4   67544     598
   0  -4   4    6681     184
   1  -4   4   13109     184
   2  -4   4   17197     234
   3  -4   4   16296     228
   4  -4   4    1350      76
   5  -4   4   26843     666
   6  -4   4    1152     192
   7  -4   4      26     102
   8  -4   4      38     141
   9  -4   4     602     205
  10  -4   4     986     256
 -10  -3   4     128     410
  -9  -3   4     540     166
  -8  -3   4    2438     194
  -7  -3   4     556     115
  -6  -3   4   11782     298
  -5  -3   4    6180     208
  -4  -3   4   10800     248
  -3  -3   4   56716     695
  -2  -3   4   39295     672
  -1  -3   4   32333     407
   0  -3   4    2602      75
   1  -3   4   62666     568
   2  -3   4    1181      72
   3  -3   4    1548      79
   4  -3   4     160      58
   5  -3   4    1104     250
   6  -3   4      90     115
   7  -3   4    1882     243
   8  -3   4     243     166
   9  -3   4     538     192
  10  -3   4    2752     358
 -11  -2   4     243     179
 -10  -2   4    2560     320
  -9  -2   4     353     126
  -8  -2   4    8410     454
  -7  -2   4      17      67
  -6  -2   4    2135     144
  -5  -2   4   13140     226
  -4  -2   4      31      41
  -3  -2   4   12932     248
  -2  -2   4   15606     262
  -1  -2   4   20784     183
   0  -2   4     556      41
   1  -2   4   33052     365
   2  -2   4   15706     214
   3  -2   4   21656     275
   4  -2   4     632      86
   5  -2   4    7865     230
   6  -2   4    6343     300
   7  -2   4    2240     269
   8  -2   4    1677     256
   9  -2   4     883     230
  10  -2   4     205     205
 -11  -1   4     858     243
 -10  -1   4     115     166
  -9  -1   4    4135     410
  -8  -1   4     184      86
  -7  -1   4    2846     192
  -6  -1   4     618      86
  -5  -1   4    2491      92
  -4  -1   4   38772     391
  -3  -1   4    8196     127
  -2  -1   4    1737      85
  -1  -1   4    1624     102
   0  -1   4    1738      52
   1  -1   4   11292     192
   2  -1   4    5093     113
   3  -1   4   12687     267
   4  -1   4   18669     480
   5  -1   4     748     104
   6  -1   4     236      95
   7  -1   4     473     113
   8  -1   4     246     109
   9  -1   4     373     126
 -11   0   4    2253     320
 -10   0   4    1075     243
  -9   0   4     166     154
  -8   0   4    2554     172
  -7   0   4    5318     627
  -6   0   4     -35      41
  -5   0   4   11286     210
  -4   0   4    1378      70
  -3   0   4    3854      94
  -2   0   4    4592     104
  -1   0   4    4246      95
   0   0   4    5698     110
   1   0   4      79      27
   2   0   4     406      53
   3   0   4   25831     340
   4   0   4     775     134
   5   0   4    1199     108
   6   0   4    1415     122
   7   0   4      -5      71
   8   0   4     486     126
   9   0   4     383     135
 -11   1   4     154     179
 -10   1   4     102     166
  -9   1   4      64     154
  -8   1   4      90     154
  -7   1   4     296      66
  -6   1   4      53      49
  -5   1   4   53153     530
  -4   1   4   83948     745
  -3   1   4    4873     119
  -2   1   4    5072     369
  -1   1   4    9288     150
   0   1   4   16431     206
   1   1   4    1734     109
   2   1   4     307     102
   3   1   4   13762     253
   4   1   4   15919     282
   5   1   4   12326     262
   6   1   4    8804     238
   7   1   4    2313     158
   8   1   4    1917     155
   9   1   4      77     192
 -11   2   4     499     192
 -10   2   4     230     179
  -9   2   4     499     192
  -8   2   4     135      95
  -7   2   4    3839     178
  -6   2   4    4005     136
  -5   2   4    4531     130
  -4   2   4   62639     615
  -3   2   4      85      44
  -2   2   4    1358      81
  -1   2   4   10035     167
   0   2   4    8489     200
   1   2   4    1190     108
   2   2   4     823     101
   3   2   4    1882     148
   4   2   4   17619     388
   5   2   4    7810     273
   6   2   4    2379     493
   7   2   4    7615     787
   8   2   4     275     122
 -11   3   4     218     179
 -10   3   4    1050     230
  -9   3   4    1908     294
  -8   3   4     245     179
  -7   3   4    2823     358
  -6   3   4     425      70
  -5   3   4   22569     326
  -4   3   4    3390     325
  -3   3   4    1544      93
  -2   3   4    2009      96
  -1   3   4   52151    1189
   0   3   4     434      86
   1   3   4     -41      49
   2   3   4   14542     337
   3   3   4    5485     218
   4   3   4    2386     188
   5   3   4    8035     292
   6   3   4    3445     233
   7   3   4    1861     194
 -10   4   4    2432     346
  -9   4   4     365     166
  -8   4   4     231     104
  -7   4   4    1498     294
  -6   4   4    7832     266
  -5   4   4   18451     311
  -4   4   4    6584     179
  -3   4   4    6208     214
  -2   4   4     190      77
  -1   4   4    2213     149
   0   4   4    3053     176
   1   4   4    4066     188
   2   4   4    6361     242
   3   4   4    1803     179
   4   4   4     -42     230
   5   4   4    3811     262
   6   4   4     850     163
 -10   5   4     192     218
  -9   5   4    2599     221
  -8   5   4     555     138
  -7   5   4      11      96
  -6   5   4     -23     166
  -5   5   4    3378     206
  -4   5   4    9128     425
  -3   5   4   19303     396
  -2   5   4    2368     172
  -1   5   4   15618     362
   0   5   4    1121     243
   1   5   4      77      98
   2   5   4     932     144
   3   5   4    4893     258
   4   5   4     613     147
   5   5   4    3416     262
 -10   6   4     260     151
  -9   6   4    1693     203
  -8   6   4    4818     271
  -7   6   4     107     120
  -6   6   4    -143     307
  -5   6   4     336     275
  -4   6   4    2138     256
  -3   6   4   15756     367
  -2   6   4    6679     253
  -1   6   4     704     127
   0   6   4      81     104
   1   6   4      80     115
   2   6   4     600     135
   3   6   4     688     149
   4   6   4    -112     113
  -9   7   4     439     163
  -8   7   4     -59     256
  -7   7   4    -160     307
  -6   7   4     282     179
  -5   7   4     282     166
  -4   7   4     550     192
  -3   7   4    2356     282
  -2   7   4    4212     235
  -1   7   4     215     186
   0   7   4     933     149
   1   7   4    1191     162
   2   7   4     100     122
  -8   8   4    3623     371
  -7   8   4      77     166
  -6   8   4      13     179
  -5   8   4     589     205
  -4   8   4    5364     397
  -3   8   4      38     166
  -2   8   4    1459     256
  -1   8   4     660     205
   0   8   4     775     154
   1   8   4     102     179
   1 -12   5    1178     282
   2 -12   5     397     218
   3 -12   5     100     131
   4 -12   5    2311     235
   5 -12   5    1050     243
   6 -12   5     346     192
  -3 -11   5     653     282
  -2 -11   5     166     218
  -1 -11   5    1728     269
   0 -11   5     115     192
   1 -11   5    1664     256
   2 -11   5    4257     285
   3 -11   5    1622     180
   4 -11   5    2078     209
   5 -11   5    1319     230
   6 -11   5      90     166
   7 -11   5     256     179
  -4 -10   5     307     230
  -3 -10   5     294     205
  -2 -10   5    1978     230
  -1 -10   5    3046     301
   0 -10   5     141     154
   1 -10   5   12302     525
   2 -10   5     173      98
   3 -10   5     -83      83
   4 -10   5   14935     406
   5 -10   5    8101     319
   6 -10   5    1485     256
   7 -10   5    -141     141
   8 -10   5     141     166
  -5  -9   5     -51     218
  -4  -9   5     927     162
  -3  -9   5     224     224
  -2  -9   5    -122     122
  -1  -9   5   29357     992
   0  -9   5     494     108
   1  -9   5    1183     192
   2  -9   5     846     126
   3  -9   5     937     144
   4  -9   5     691     179
   5  -9   5    3659     250
   6  -9   5     -38     141
   7  -9   5    3047     333
   8  -9   5    2112     307
   9  -9   5     999     282
  -6  -8   5    -192     192
  -5  -8   5    1916     193
  -4  -8   5      32     101
  -3  -8   5   15099     385
  -2  -8   5     109     100
  -1  -8   5   15009     350
   0  -8   5   28943     385
   1  -8   5     351      69
   2  -8   5    -106     115
   3  -8   5   37153     605
   4  -8   5    2424     189
   5  -8   5    4500     262
   6  -8   5     128     141
   7  -8   5    3072     333
   8  -8   5     935     218
   9  -8   5      77     166
  -7  -7   5    1549     307
  -6  -7   5    2118     202
  -5  -7   5      -2     115
  -4  -7   5    3524     506
  -3  -7   5    4014     282
  -2  -7   5   75969     967
  -1  -7   5     453     128
   0  -7   5     904      80
   1  -7   5     893      91
   2  -7   5      50      44
   3  -7   5    2270     250
   4  -7   5     426     104
   5  -7   5    1253     153
   6  -7   5     576     179
   7  -7   5   11994     512
   8  -7   5    4519     410
   9  -7   5    2650     346
  -8  -6   5     -97     107
  -7  -6   5      77     294
  -6  -6   5    1538     294
  -5  -6   5     -27      80
  -4  -6   5     463     122
  -3  -6   5   11626     293
  -2  -6   5    1141     117
  -1  -6   5    1032      72
   0  -6   5    9275     174
   1  -6   5    3292     105
   2  -6   5    4101     115
   3  -6   5    2458      92
   4  -6   5     -26      63
   5  -6   5   14561     353
   6  -6   5   51562    1101
   7  -6   5    3277     320
   8  -6   5    2304     294
   9  -6   5     154     166
  -9  -5   5     -69     282
  -8  -5   5    6957     303
  -7  -5   5     564     129
  -6  -5   5     142      95
  -5  -5   5    7660     258
  -4  -5   5   10883     284
  -3  -5   5     715     128
  -2  -5   5   18469     429
  -1  -5   5   17175     229
   0  -5   5   65339     612
   1  -5   5    1668     120
   2  -5   5    4646     133
   3  -5   5     398      70
   4  -5   5   26989     807
   5  -5   5   15899     512
   6  -5   5    2087     243
   7  -5   5    7142     397
   8  -5   5     947     218
   9  -5   5    1805     294
 -10  -4   5    2433     378
  -9  -4   5    2710     226
  -8  -4   5    3974     253
  -7  -4   5    1574     243
  -6  -4   5    3285     199
  -5  -4   5    2603     167
  -4  -4   5   49656     682
  -3  -4   5     299      61
  -2  -4   5     716      90
  -1  -4   5   51721     635
   0  -4   5  133029    1104
   1  -4   5  109194     932
   2  -4   5    2288      91
   3  -4   5    3269     109
   4  -4   5    4007     126
   5  -4   5    4404     282
   6  -4   5    1075     179
   7  -4   5     960     205
   8  -4   5    2714     320
   9  -4   5     371     192
 -10  -3   5    -115     346
  -9  -3   5      -2     114
  -8  -3   5   14389     723
  -7  -3   5    6978     257
  -6  -3   5    6346     230
  -5  -3   5     525      80
  -4  -3   5   46900     637
  -3  -3   5    3722     144
  -2  -3   5   63750    1613
  -1  -3   5   95892     908
   0  -3   5  113506     947
   1  -3   5    1213     102
   2  -3   5    9368     209
   3  -3   5    4444     190
   4  -3   5     183      67
   5  -3   5    2198     141
   6  -3   5     819     179
   7  -3   5     346     154
   8  -3   5     960     230
   9  -3   5     653     218
 -10  -2   5   10714     538
  -9  -2   5    3280     226
  -8  -2   5    2625     189
  -7  -2   5     558     100
  -6  -2   5     -13      63
  -5  -2   5    1443     117
  -4  -2   5    6727     193
  -3  -2   5     362      25
  -2  -2   5    9280     136
  -1  -2   5     738      49
   0  -2   5   66032     517
   1  -2   5    1448      81
   2  -2   5    3760     110
   3  -2   5    9401     181
   4  -2   5   21676     393
   5  -2   5    2119     307
   6  -2   5      73      80
   7  -2   5    8038     422
   8  -2   5     154     166
   9  -2   5     447     132
 -10  -1   5    1946     294
  -9  -1   5    3561     233
  -8  -1   5     655     122
  -7  -1   5    3401     176
  -6  -1   5     -29      61
  -5  -1   5    2724     138
  -4  -1   5    6713     216
  -3  -1   5    3421      91
  -2  -1   5  159870    1296
  -1  -1   5   25923     380
   0  -1   5   15371     212
   1  -1   5    2969      96
   2  -1   5   42717     386
   3  -1   5   13311     233
   4  -1   5     285      66
   5  -1   5    2784     141
   6  -1   5    3470     150
   7  -1   5    1264     124
   8  -1   5     265     117
   9  -1   5     283     129
 -11   0   5    2842     422
 -10   0   5    2868     333
  -9   0   5     845     218
  -8   0   5    2676     172
  -7   0   5    1978     148
  -6   0   5     341      83
  -5   0   5       4      50
  -4   0   5   92666     820
  -3   0   5      42      38
  -2   0   5   65902     611
  -1   0   5    7781     143
   0   0   5    6003     122
   1   0   5   88809    1052
   2   0   5    2198     111
   3   0   5   14497     379
   4   0   5    7212     189
   5   0   5     291      79
   6   0   5     -50      61
   7   0   5     108      81
   8   0   5    2465     209
 -10   1   5     294     179
  -9   1   5      77     166
  -8   1   5   12647     512
  -7   1   5     170      71
  -6   1   5     365      61
  -5   1   5     234      54
  -4   1   5    7701     166
  -3   1   5  177577    1722
  -2   1   5    2741     166
  -1   1   5   16991     232
   0   1   5   11767     178
   1   1   5     -52      52
   2   1   5     230     102
   3   1   5   18780     671
   4   1   5   22648     446
   5   1   5    1822     135
   6   1   5     -87      87
   7   1   5     347     175
   8   1   5     -10      96
 -10   2   5     166     179
  -9   2   5    1088     243
  -8   2   5     832     218
  -7   2   5     198      81
  -6   2   5   11668     224
  -5   2   5   28571     363
  -4   2   5    3304     123
  -3   2   5     809      74
  -2   2   5     173      46
  -1   2   5   22225     386
   0   2   5   20677     383
   1   2   5    1404     126
   2   2   5   15406     346
   3   2   5     119      89
   4   2   5    2090     171
   5   2   5     384     160
   6   2   5    1880     243
   7   2   5     779     243
 -10   3   5       0     179
  -9   3   5    1818     282
  -8   3   5    -128     141
  -7   3   5     617     173
  -6   3   5    7074     204
  -5   3   5      42     112
  -4   3   5    7765     222
  -3   3   5     359      84
  -2   3   5    7038     221
  -1   3   5    3752     486
   0   3   5      26      77
   1   3   5    9404     486
   2   3   5   10793     311
   3   3   5   36900     631
   4   3   5    1114     153
   5   3   5     172     108
   6   3   5    1594     188
 -10   4   5     704     230
  -9   4   5     461     205
  -8   4   5     -95      98
  -7   4   5    2924     378
  -6   4   5    4103     208
  -5   4   5    3116     176
  -4   4   5   16175     391
  -3   4   5    2797     176
  -2   4   5      45      81
  -1   4   5   12908     416
   0   4   5    4162     208
   1   4   5    1867     171
   2   4   5    4365     230
   3   4   5    1825     184
   4   4   5     741     140
   5   4   5    4306     282
 -10   5   5    1050     269
  -9   5   5    2496     333
  -8   5   5    1841     365
  -7   5   5      96     109
  -6   5   5      -9      95
  -5   5   5   10196     326
  -4   5   5     218     179
  -3   5   5    7740     263
  -2   5   5    2544     198
  -1   5   5    1670     166
   0   5   5     -87     301
   1   5   5    1737     176
   2   5   5     772     144
   3   5   5     976     358
   4   5   5    1128     169
  -9   6   5    1008     282
  -8   6   5    1036     186
  -7   6   5     -98     192
  -6   6   5     666     192
  -5   6   5    3226     307
  -4   6   5    3597     320
  -3   6   5       9      95
  -2   6   5   11936     353
  -1   6   5      -1     147
   0   6   5    3367     235
   1   6   5      70     109
   2   6   5     224     127
   3   6   5     550     262
  -9   7   5      90     243
  -8   7   5    1114     243
  -7   7   5     397     192
  -6   7   5    -102     141
  -5   7   5     154     154
  -4   7   5    -141     141
  -3   7   5    8230     448
  -2   7   5     497     140
  -1   7   5    3841     397
   0   7   5    3178     240
   1   7   5     -86     122
  -6   8   5    -128     166
  -5   8   5      51     179
  -4   8   5    1600     269
  -3   8   5    2714     333
  -2   8   5     282     218
  -1   8   5    1037     230
   0   8   5     435     205
   2 -13   6      64     256
  -1 -12   6     218     230
   0 -12   6     102     166
   1 -12   6     -38     166
   2 -12   6      38     192
   3 -12   6     384     218
   4 -12   6     614     151
   5 -12   6     288     166
   6 -12   6      90     166
  -3 -11   6     550     243
  -2 -11   6    -134     134
  -1 -11   6     819     218
   0 -11   6     -38     141
   1 -11   6    4135     384
   2 -11   6     166     179
   3 -11   6    1471     171
   4 -11   6     819     151
   5 -11   6    4225     294
   6 -11   6     115     166
   7 -11   6       0     154
  -4 -10   6     781     269
  -3 -10   6    1561     211
  -2 -10   6     390     126
  -1 -10   6     518     131
   0 -10   6     410     179
   1 -10   6    4391     346
   2 -10   6    1180     179
   3 -10   6       2      92
   4 -10   6    9647     337
   5 -10   6     301     118
   6 -10   6     154     154
   7 -10   6     691     218
   8 -10   6    2573     346
  -5  -9   6     -19     114
  -4  -9   6    4201     257
  -3  -9   6     259     113
  -2  -9   6     288     109
  -1  -9   6    7854     410
   1  -9   6     128     154
   2  -9   6    2610     184
   3  -9   6   30486     563
   4  -9   6     180     101
   5  -9   6   19436     806
   6  -9   6     461     179
   7  -9   6      90     141
   8  -9   6     205     179
  -6  -8   6      86     123
  -5  -8   6     565     140
  -4  -8   6     758     250
  -3  -8   6     598     131
  -2  -8   6    1787     173
  -1  -8   6     262      92
   0  -8   6      37      80
   1  -8   6     470      78
   2  -8   6    4888     301
   3  -8   6   30342     541
   4  -8   6   28056     533
   5  -8   6   20635     466
   6  -8   6    3303     320
   7  -8   6    3265     346
   8  -8   6     192     179
   9  -8   6    -128     179
  -7  -7   6    3908     435
  -6  -7   6     -65      98
  -5  -7   6     921     149
  -4  -7   6    8236     333
  -3  -7   6     141      91
  -2  -7   6    4932     333
  -1  -7   6   10822     277
   0  -7   6    3142     129
   1  -7   6      69      46
   2  -7   6    9795     193
   3  -7   6    5502     211
   4  -7   6   20583     433
   5  -7   6   20354     447
   6  -7   6    4071     346
   7  -7   6    2932     320
   8  -7   6     230     179
   9  -7   6     602     218
  -9  -6   6     704     218
  -8  -6   6     219     123
  -7  -6   6    1101     167
  -6  -6   6     -83      83
  -5  -6   6    5387     235
  -4  -6   6    2663     185
  -3  -6   6    1440     135
  -2  -6   6    3776     166
  -1  -6   6   17110     335
   0  -6   6    6111     143
   1  -6   6   10385     274
   2  -6   6      99      44
   3  -6   6   10392     197
   4  -6   6    1107     131
   5  -6   6    3322     208
   6  -6   6   34114     871
   7  -6   6     397     166
   8  -6   6    4353     397
   9  -6   6     346     192
  -9  -5   6    -173     339
  -8  -5   6     433     135
  -7  -5   6     179     115
  -6  -5   6     205     102
  -5  -5   6    2164     167
  -4  -5   6   32917     546
  -3  -5   6     494      86
  -2  -5   6   10755     261
  -1  -5   6   42091     448
   0  -5   6    1006      67
   1  -5   6      99      37
   2  -5   6    8178     256
   3  -5   6     -12      44
   4  -5   6   25466     457
   5  -5   6    2151     243
   6  -5   6    7411     397
   7  -5   6    2804     320
   8  -5   6    1063     230
   9  -5   6     -13     154
 -10  -4   6    1168     197
  -9  -4   6    2553     226
  -8  -4   6    5587     267
  -7  -4   6     102     100
  -6  -4   6    2482     243
  -5  -4   6     844     115
  -4  -4   6     363     154
  -3  -4   6    1825     154
  -2  -4   6   13019     279
  -1  -4   6      38      31
   0  -4   6      17      35
   1  -4   6    7282     157
   2  -4   6    1507      91
   3  -4   6    3596     151
   4  -4   6    3571     132
   5  -4   6    6515     346
   6  -4   6     794     179
   7  -4   6    5454     371
   8  -4   6     179     166
   9  -4   6       0     166
 -10  -3   6     114     160
  -9  -3   6     114      98
  -8  -3   6    4180     230
  -7  -3   6     -54      77
  -6  -3   6     785     118
  -5  -3   6     803     108
  -4  -3   6     218     141
  -3  -3   6     547     160
  -2  -3   6    2471      64
  -1  -3   6      70      28
   0  -3   6   48320     495
   1  -3   6    4041     118
   2  -3   6    3181     140
   3  -3   6   14149     319
   4  -3   6    1478     126
   5  -3   6     413     141
   6  -3   6     435     166
   7  -3   6     627     192
   8  -3   6    1331     256
   9  -3   6    -102     179
 -10  -2   6    2996     358
  -9  -2   6     475     134
  -8  -2   6    1207     179
  -7  -2   6     133      86
  -6  -2   6    9789     273
  -5  -2   6    1309     122
  -4  -2   6    4339     162
  -3  -2   6    3851      90
  -2  -2   6    3514     122
  -1  -2   6   39826     418
   0  -2   6     276      38
   1  -2   6   15316     199
   2  -2   6   71956     610
   3  -2   6    9828     172
   4  -2   6     -26     115
   5  -2   6    2411     171
   6  -2   6    5091     184
   7  -2   6      26     205
   8  -2   6     222     114
 -10  -1   6    1434     269
  -9  -1   6     758     166
  -8  -1   6    3250     200
  -7  -1   6     131      86
  -6  -1   6    6608     224
  -5  -1   6     123      67
  -4  -1   6    4055     141
  -3  -1   6   22460     277
  -2  -1   6   26963     322
  -1  -1   6    3864     114
   0  -1   6     592     167
   1  -1   6    6742     128
   2  -1   6   11528     488
   3  -1   6      95      58
   4  -1   6    6570     248
   5  -1   6     529      89
   6  -1   6      92      75
   7  -1   6     961     120
   8  -1   6      25     114
 -10   0   6     320     192
  -9   0   6     422     179
  -8   0   6    7615     255
  -7   0   6      53      76
  -6   0   6     497      89
  -5   0   6     101      96
  -4   0   6   90562     954
  -3   0   6    2061      99
  -2   0   6    3803     130
  -1   0   6    2603     179
   0   0   6    6346     213
   1   0   6   24721     423
   2   0   6    8135     352
   3   0   6    8881     219
   4   0   6    3046     172
   5   0   6    1410     188
   6   0   6      -4      75
   7   0   6     533     162
 -10   1   6    -102     166
  -9   1   6    1498     256
  -8   1   6     896     205
  -7   1   6    3321     205
  -6   1   6    1454     126
  -5   1   6    5923     156
  -4   1   6     620      71
  -3   1   6    4054     141
  -2   1   6   10876     209
  -1   1   6     322      91
   0   1   6    5169     188
   1   1   6      34      71
   2   1   6   10561     429
   3   1   6     834     154
   4   1   6   15594     518
   5   1   6      30      89
   6   1   6     618     138
   7   1   6     962     256
 -10   2   6    2125     320
  -9   2   6    3380     358
  -8   2   6    1536     230
  -7   2   6     128     141
  -6   2   6    3534     138
  -5   2   6    7934     217
  -4   2   6    2512     125
  -3   2   6    1036      85
  -2   2   6    5191     193
  -1   2   6     722     104
   0   2   6    1112     120
   1   2   6    1881     153
   2   2   6     798     126
   3   2   6   26470     755
   4   2   6    5171     246
   5   2   6     622     136
   6   2   6      99     111
 -10   3   6     282     205
  -9   3   6      38     166
  -8   3   6     205     166
  -7   3   6     483     118
  -6   3   6     529      77
  -5   3   6   15542     285
  -4   3   6    5262     164
  -3   3   6     209      86
  -2   3   6    5534     416
  -1   3   6    3175     188
   0   3   6      26      86
   1   3   6    7740     273
   2   3   6     487     126
   3   3   6    6958     282
   4   3   6     826     149
   5   3   6    3590     255
 -10   4   6    2202     333
  -9   4   6     448     192
  -8   4   6    2138     282
  -7   4   6     132      95
  -6   4   6     -23     115
  -5   4   6    1397     121
  -4   4   6    2874     275
  -3   4   6    4124     204
  -2   4   6     213      95
  -1   4   6    1532     157
   0   4   6    2314     188
   1   4   6    2964     211
   2   4   6    2739     215
   3   4   6     315     122
   4   4   6    1278     180
  -9   5   6     192     179
  -8   5   6       0     109
  -7   5   6     789     198
  -6   5   6    2176     269
  -5   5   6    4161     307
  -4   5   6    1074     140
  -3   5   6     763     179
  -2   5   6    2039     181
  -1   5   6     -19     100
   0   5   6    1238     162
   1   5   6    5962     279
   2   5   6     148     117
   3   5   6     128     126
  -9   6   6    1255     269
  -8   6   6     550     192
  -7   6   6    -115     141
  -6   6   6     102     154
  -5   6   6     743     205
  -4   6   6     269     166
  -3   6   6    9378     321
  -2   6   6     262     118
  -1   6   6    3162     230
   0   6   6    1833     199
   1   6   6     226     115
  -7   7   6     512     205
  -6   7   6     371     205
  -5   7   6     550     205
  -4   7   6    2740     333
  -3   7   6    1728     269
  -2   7   6     918     163
  -1   7   6     761     224
   0   7   6    1101     256
  -2 -12   7     154     192
  -1 -12   7      77     179
   0 -12   7    1575     294
   1 -12   7    -115     166
   2 -12   7     807     243
   3 -12   7     102     192
   4 -12   7      64     205
   5 -12   7     717     218
   6 -12   7     -64     154
  -3 -11   7      -7     173
  -2 -11   7     -42     122
  -1 -11   7     -90     141
   0 -11   7     614     205
   1 -11   7      90     179
   2 -11   7    3457     371
   3 -11   7     154     192
   4 -11   7    1232     333
   5 -11   7    2878     352
   6 -11   7     -77     128
   7 -11   7     435     205
  -5 -10   7     320     192
  -4 -10   7      56     147
  -3 -10   7     165     198
  -2 -10   7      77     109
  -1 -10   7     628     275
   0 -10   7     794     218
   1 -10   7    -102     141
   2 -10   7     896     192
   3 -10   7    3771     250
   4 -10   7    2465     211
   5 -10   7     -11     104
   6 -10   7      26     141
   7 -10   7     333     166
  -6  -9   7     755     218
  -5  -9   7      51     117
  -4  -9   7     196     126
  -3  -9   7   10964     474
  -2  -9   7     461     122
  -1  -9   7    3709     212
   0  -9   7    7968     264
   1  -9   7    5620     371
   2  -9   7    5723     371
   3  -9   7    3187     429
   4  -9   7     169     179
   5  -9   7    1482     176
   6  -9   7    3111     333
   7  -9   7    -115     128
   8  -9   7      38     166
  -7  -8   7      77     154
  -6  -8   7     155     126
  -5  -8   7     942     162
  -4  -8   7     452     131
  -3  -8   7    2696     204
  -2  -8   7   62389     884
  -1  -8   7     626     117
   0  -8   7    1209     129
   1  -8   7     912     114
   2  -8   7     172      83
   3  -8   7    2182     175
   4  -8   7   23211     659
   5  -8   7    2777     269
   6  -8   7     512     179
   7  -8   7     -90     141
   8  -8   7     935     230
  -8  -7   7    1690     307
  -7  -7   7     320     135
  -6  -7   7     -15     122
  -5  -7   7     -72     179
  -4  -7   7   35635     627
  -3  -7   7    1892     169
  -2  -7   7     382     101
  -1  -7   7     160      86
   0  -7   7      95      96
   1  -7   7    2651     115
   2  -7   7      37      50
   3  -7   7   43027     659
   4  -7   7   10965     312
   5  -7   7   28096     552
   6  -7   7    2612     294
   7  -7   7     192     166
   8  -7   7     602     205
  -9  -6   7     755     230
  -8  -6   7     437     153
  -7  -6   7    2617     222
  -6  -6   7    2242     194
  -5  -6   7    3166     499
  -4  -6   7     718     122
  -3  -6   7   47245    1293
  -1  -6   7    7617     231
   0  -6   7    9028     240
   1  -6   7    2294     118
   2  -6   7    2370     110
   3  -6   7   34968     431
   4  -6   7   74161     973
   5  -6   7   20866     453
   6  -6   7    6707     397
   7  -6   7     871     218
   8  -6   7    2445     320
  -9  -5   7    3326     486
  -8  -5   7    -102     154
  -7  -5   7     449     127
  -6  -5   7    1699     171
  -5  -5   7     521     108
  -4  -5   7   39713     632
  -3  -5   7    2075     154
  -2  -5   7    3179     157
  -1  -5   7    6230     206
   0  -5   7     772      69
   1  -5   7   16059     252
   2  -5   7    2202     135
   3  -5   7     463      73
   4  -5   7   18596     410
   5  -5   7   13121     499
   6  -5   7      77     141
   7  -5   7    5812     397
   8  -5   7     307     179
  -9  -4   7     -53     198
  -8  -4   7     -92      92
  -7  -4   7    3758     275
  -6  -4   7    6705     261
  -5  -4   7   10142     301
  -4  -4   7    1295     131
  -3  -4   7    9493     333
  -2  -4   7     453      80
  -1  -4   7   70657     613
   0  -4   7     206      53
   1  -4   7    8572     236
   2  -4   7     159      54
   3  -4   7  112631    1037
   4  -4   7       2      60
   5  -4   7     166     141
   6  -4   7    5799     346
   7  -4   7     218     166
   8  -4   7     115     166
 -10  -3   7    -115     122
  -9  -3   7    3760     257
  -8  -3   7    1152     158
  -7  -3   7    2349     189
  -6  -3   7    3883     194
  -5  -3   7   34498     653
  -4  -3   7    6251     211
  -3  -3   7    1045     108
  -2  -3   7   14543     326
  -1  -3   7   16530     235
   0  -3   7      50      34
   1  -3   7     565      55
   2  -3   7     106      49
   3  -3   7   20842     317
   4  -3   7    1268     179
   5  -3   7    7761     275
   6  -3   7    3034     307
   7  -3   7     333     179
   8  -3   7    1196     169
 -10  -2   7    2343     333
  -9  -2   7     -40     122
  -8  -2   7     206     104
  -7  -2   7    5039     224
  -6  -2   7     339      91
  -5  -2   7    1355     141
  -4  -2   7     581      90
  -3  -2   7    3715     162
  -2  -2   7   29756     356
  -1  -2   7   51626     854
   0  -2   7    9399     181
   1  -2   7       5      38
   2  -2   7    1186      96
   3  -2   7    2071     183
   4  -2   7    4768     170
   5  -2   7   25799     448
   6  -2   7    3365     182
   7  -2   7     -46     173
   8  -2   7      99     131
 -10  -1   7    1651     282
  -9  -1   7    1061     149
  -8  -1   7    4950     239
  -7  -1   7     847     117
  -6  -1   7      59      77
  -5  -1   7     198     147
  -4  -1   7    1897     140
  -3  -1   7   20287     288
  -2  -1   7    2132      99
  -1  -1   7    5883     143
   0  -1   7       6      47
   1  -1   7     190      71
   2  -1   7    4410     154
   3  -1   7      -3      61
   4  -1   7     254     105
   5  -1   7      16      71
   6  -1   7    2701     308
   7  -1   7     653     148
 -10   0   7     256     166
  -9   0   7     397     179
  -8   0   7     612     122
  -7   0   7      -2      71
  -6   0   7    8007     252
  -5   0   7     374      89
  -4   0   7    4670     137
  -3   0   7     174      56
  -2   0   7    7129     165
  -1   0   7   14893     245
   0   0   7    1631     132
   1   0   7    1378     129
   2   0   7     383     101
   3   0   7     564     104
   4   0   7   14666     506
   5   0   7    1125     139
   6   0   7     950     123
   7   0   7     792     137
 -10   1   7     102     166
  -9   1   7    3393     371
  -8   1   7    4865     358
  -7   1   7     192      95
  -6   1   7    4264     193
  -5   1   7   19431     388
  -4   1   7    4031     146
  -3   1   7    3906     250
  -2   1   7    3788     339
  -1   1   7      51      77
   0   1   7    1663     141
   1   1   7     147      80
   2   1   7    4219     269
   3   1   7   11739     341
   4   1   7     -26     134
   5   1   7     410     218
   6   1   7      95     113
 -10   2   7    1101     269
  -9   2   7     653     218
  -8   2   7     282     166
  -7   2   7    5735     371
  -6   2   7      13     192
  -5   2   7    1288     109
  -4   2   7     253      82
  -3   2   7    3860     189
  -2   2   7    4765     202
  -1   2   7    1930     157
   0   2   7     846     126
   1   2   7     511     122
   2   2   7    4485     233
   3   2   7    3360     228
   4   2   7     520     131
   5   2   7    3858     275
  -9   3   7     832     230
  -8   3   7     410     192
  -7   3   7    1728     269
  -6   3   7    5697     217
  -5   3   7     110     128
  -4   3   7     606     128
  -3   3   7    2628     184
  -2   3   7     192     134
  -1   3   7    2368     184
   0   3   7    4011     243
   1   3   7    3986     237
   2   3   7     761     144
   3   3   7      18     102
   4   3   7     454     136
  -9   4   7     602     205
  -8   4   7      77     154
  -7   4   7     512     179
  -6   4   7      13     115
  -5   4   7    5110     240
  -4   4   7    6256     257
  -3   4   7    1163     149
  -2   4   7     142     134
  -1   4   7      38     100
   0   4   7    1703     243
   1   4   7     186     160
   2   4   7    1989     199
   3   4   7     102     288
  -9   5   7    1139     243
  -7   5   7     999     218
  -6   5   7     474     179
  -5   5   7    2535     282
  -4   5   7    2524     208
  -3   5   7    2004     185
  -2   5   7    2047     194
  -1   5   7     564     136
   0   5   7    1278     230
   1   5   7     131     141
  -7   6   7    1011     243
  -6   6   7    2778     320
  -5   6   7     320     179
  -4   6   7     743     205
  -3   6   7     616     140
  -2   6   7     178     128
  -1   6   7     122     127
   0   6   7    1319     269
  -2   7   7     141     166
  -2 -12   8     307     218
  -1 -12   8    -166     166
   0 -12   8    1101     256
   1 -12   8     128     179
   2 -12   8     154     205
   3 -12   8    1293     282
   4 -12   8     576     294
  -4 -11   8      64     192
  -3 -11   8     476     230
  -2 -11   8     102     127
  -1 -11   8     128     179
   0 -11   8     141     179
   1 -11   8     -13     154
   2 -11   8     -13     154
   3 -11   8    4494     435
   4 -11   8     179     205
   5 -11   8     217     132
   6 -11   8     741     182
  -5 -10   8     166     179
  -4 -10   8    -141     141
  -3 -10   8     -38     118
  -2 -10   8     -96      96
  -1 -10   8    2135     194
   0 -10   8     768     218
   1 -10   8    1920     282
   2 -10   8    -102     154
   3 -10   8      38     128
   4 -10   8    3747     240
   5 -10   8    1189     175
   6 -10   8    2970     333
   7 -10   8      77     179
  -6  -9   8     -64     154
  -5  -9   8     -88     120
  -4  -9   8      64     128
  -3  -9   8    4997     262
  -2  -9   8    1203     157
  -1  -9   8     157      95
   0  -9   8     770     123
   1  -9   8      51     154
   2  -9   8    8435     448
   3  -9   8    2962     215
   4  -9   8      88      89
   5  -9   8      50     111
   6  -9   8     772     230
   7  -9   8    7462     461
  -7  -8   8     819     230
  -6  -8   8     324     138
  -5  -8   8     -63      80
  -4  -8   8    1370     172
  -3  -8   8    5517     576
  -2  -8   8    6839     268
  -1  -8   8    -115     115
   0  -8   8     121      90
   1  -8   8     791     173
   2  -8   8     614     179
   3  -8   8     697     120
   4  -8   8    3329     231
   5  -8   8    -114     160
   6  -8   8     781     205
   7  -8   8    2688     333
   8  -8   8     755     230
  -8  -7   8     218     192
  -7  -7   8    1291     205
  -6  -7   8     452     135
  -5  -7   8     -19     100
  -4  -7   8    8945     314
  -3  -7   8     690     122
  -2  -7   8     745     186
  -1  -7   8     576     100
   0  -7   8     134      90
   1  -7   8    1265     179
   2  -7   8    7426     185
   3  -7   8    4502     224
   4  -7   8    1368     158
   5  -7   8   13876     385
   6  -7   8     499     179
   7  -7   8    1933     294
   8  -7   8     205     179
  -8  -6   8      44     154
  -7  -6   8    1819     205
  -6  -6   8    -111     179
  -5  -6   8     334     147
  -4  -6   8    5874     240
  -3  -6   8     370     141
  -2  -6   8     617     101
  -1  -6   8    2112     151
   0  -6   8     189      80
   1  -6   8     435      64
   2  -6   8     339      63
   3  -6   8    7782     196
   4  -6   8    9136     294
   5  -6   8     223     108
   6  -6   8    2509     307
   7  -6   8      13     154
   8  -6   8     794     218
  -9  -5   8      13     135
  -8  -5   8     404     179
  -7  -5   8    2519     217
  -6  -5   8     211     109
  -5  -5   8    2411     188
  -4  -5   8    4943     221
  -3  -5   8   14031     397
  -2  -5   8    3183     371
  -1  -5   8    5401     442
   0  -5   8   13196     304
   1  -5   8     564      71
   2  -5   8    9670     216
   3  -5   8   61794     677
   4  -5   8     -26      91
   5  -5   8    2432     269
   6  -5   8    2164     282
   7  -5   8    2317     307
   8  -5   8     256     205
  -9  -4   8    1135     181
  -8  -4   8     228     122
  -7  -4   8     375     122
  -6  -4   8    9037     301
  -5  -4   8   42914     685
  -4  -4   8    1447     192
  -3  -4   8   31504     528
  -2  -4   8   13800     319
  -1  -4   8    2457     154
   0  -4   8     -11      37
   1  -4   8     499      56
   2  -4   8    8262     204
   3  -4   8    1136     106
   4  -4   8   14849     362
   5  -4   8    3047     307
   6  -4   8     -51     141
   7  -4   8     141     166
 -10  -3   8    2061     294
  -9  -3   8     -64     147
  -8  -3   8     411     120
  -7  -3   8     851     192
  -6  -3   8     122      91
  -5  -3   8    9403     499
  -4  -3   8   64606     872
  -3  -3   8   16862     361
  -2  -3   8       0      63
  -1  -3   8    3495     119
   0  -3   8     143      48
   1  -3   8     599      64
   2  -3   8   11652     403
   3  -3   8   21688     548
   4  -3   8    2326     147
   5  -3   8    3132     164
   6  -3   8     118     104
   7  -3   8      45     108
  -9  -2   8     319     122
  -8  -2   8     373     122
  -7  -2   8    5051     237
  -6  -2   8     573     111
  -5  -2   8   11507     315
  -4  -2   8   11809     384
  -3  -2   8    6066     213
  -2  -2   8    6824     175
  -1  -2   8   17986     275
   0  -2   8    9009     195
   1  -2   8     -54      54
   2  -2   8   14193     270
   3  -2   8   20829     402
   4  -2   8     222      79
   5  -2   8    2680     169
   6  -2   8    2963     182
   7  -2   8    4747     301
  -9  -1   8     165      95
  -8  -1   8     192     102
  -7  -1   8     291      95
  -6  -1   8     -47      80
  -5  -1   8    8768     266
  -4  -1   8   28331     493
  -3  -1   8    2270     162
  -2  -1   8   14571     281
  -1  -1   8    2117     123
   0  -1   8   18357     363
   1  -1   8    8590     659
   2  -1   8     710     113
   3  -1   8    1485     148
   4  -1   8    5019     199
   5  -1   8    1167     169
   6  -1   8     131     130
  -9   0   8     141     166
  -8   0   8    2036     178
  -7   0   8      60     109
  -6   0   8   16085     377
  -5   0   8    1209     131
  -4   0   8   11605     321
  -3   0   8    1641     107
  -2   0   8      71      71
  -1   0   8    8013     249
   0   0   8   10751     292
   1   0   8     572     108
   2   0   8     647     198
   3   0   8    3360     221
   4   0   8     775     140
   5   0   8     864     149
   6   0   8    2110     230
  -9   1   8    1024     230
  -8   1   8    1216     230
  -7   1   8     285     104
  -6   1   8    1589     157
  -5   1   8   30172     529
  -4   1   8     483      79
  -3   1   8    2673     166
  -2   1   8    1098     129
  -1   1   8    1052     129
   0   1   8      34      86
   1   1   8    1940     205
   2   1   8    4013     346
   3   1   8    1507     250
   4   1   8    2232     435
   5   1   8     662     149
  -9   2   8     781     218
  -8   2   8    2420     307
  -7   2   8    5108     358
  -6   2   8    1367     237
  -5   2   8     666     179
  -4   2   8    1415     269
  -3   2   8    5363     467
  -2   2   8    2413     189
  -1   2   8      13     115
   0   2   8     -58      95
   1   2   8    4754     339
   2   2   8      96     111
   3   2   8    2528     275
   4   2   8     198     122
  -9   3   8     269     179
  -8   3   8     499     192
  -7   3   8    4673     346
  -6   3   8     205     128
  -5   3   8     -32      89
  -4   3   8    1681     162
  -3   3   8    7486     410
  -2   3   8      91      98
  -1   3   8    1176     157
   0   3   8    2936     237
   1   3   8   11742     711
   2   3   8    2238     217
   3   3   8     -32     117
  -5   4   8     274     224
  -4   4   8     291     262
  -3   4   8     932     333
  -2   4   8     183     117
  -1   4   8      95     218
   0   4   8    4445     294
   1   4   8     791     158
  -6   5   8     410     166
  -5   5   8     614     192
  -4   5   8     636     140
  -3   5   8     179     179
  -2   5   8      64     118
  -1   5   8     300     211
   0   5   8    1383     320
  -5   6   8     179     205
  -3   6   8     256     179
  -2   6   8    -115     166
   0 -12   9    3879     499
   1 -12   9     269     205
   2 -12   9     589     243
  -3 -11   9    -129     129
  -2 -11   9     154     122
  -1 -11   9     563     218
   0 -11   9     858     243
   1 -11   9    2215     320
   2 -11   9    -115     166
   3 -11   9     -38     166
   4 -11   9     627     243
   5 -11   9    -115     205
   6 -11   9      64     192
  -4 -10   9     158     135
  -3 -10   9     237     127
  -2 -10   9     146     113
  -1 -10   9     146     128
   0 -10   9     256     179
   1 -10   9      13     166
   2 -10   9    -128     128
   3 -10   9      38     166
   4 -10   9    5300     397
   5 -10   9     139     154
   6 -10   9    1010     294
  -5  -9   9    -145     230
  -4  -9   9      25     113
  -3  -9   9     275     118
  -2  -9   9     969     320
  -1  -9   9     243     179
   0  -9   9     922     138
   1  -9   9    5326     384
   2  -9   9    3201     346
   3  -9   9     -13     154
   4  -9   9    2393     218
   5  -9   9    1012     160
   6  -9   9    2779     244
   7  -9   9    3393     384
  -6  -8   9     260     144
  -5  -8   9    1325     184
  -4  -8   9    5718     275
  -3  -8   9      95     104
  -2  -8   9    1900     224
  -1  -8   9    1032     198
   0  -8   9    1434     230
   1  -8   9    6377     236
   2  -8   9     871     205
   3  -8   9    1191     230
   4  -8   9      70      98
   5  -8   9     174     117
   6  -8   9    1165     243
   7  -8   9      13     179
  -7  -7   9     -59     128
  -6  -7   9    1003     211
  -5  -7   9     424     126
  -4  -7   9    2892     211
  -3  -7   9    7104     273
  -2  -7   9     -51     115
  -1  -7   9     326      95
   0  -7   9    4985     307
   1  -7   9      33      73
   2  -7   9    3820     187
   3  -7   9   46619     732
   4  -7   9     627     126
   5  -7   9     422     127
   6  -7   9     294     179
   7  -7   9    5326     461
  -8  -6   9      26     154
  -7  -6   9    1610     189
  -6  -6   9    7839     890
  -5  -6   9   18060     563
  -4  -6   9      92      98
  -3  -6   9     232      98
  -2  -6   9    1782     218
  -1  -6   9    1216     132
   0  -6   9     209      96
   1  -6   9    2269     160
   2  -6   9   11581     254
   3  -6   9    1653     162
   4  -6   9    8292     285
   5  -6   9    -102     115
   6  -6   9     307     179
   7  -6   9    3764     397
  -8  -5   9     370     135
  -7  -5   9     339     111
  -6  -5   9    2831     211
  -5  -5   9      69      95
  -4  -5   9    -109     109
  -3  -5   9     246      96
  -2  -5   9     819     141
  -1  -5   9     771     108
   0  -5   9    3239     175
   1  -5   9    7475     164
   2  -5   9   60571     677
   3  -5   9   40518     527
   4  -5   9       0     128
   5  -5   9      51     141
   6  -5   9     256     179
   7  -5   9     -90     166
  -9  -4   9     -13     166
  -8  -4   9     108     113
  -7  -4   9    1804     184
  -6  -4   9    1236     269
  -5  -4   9    8294     288
  -4  -4   9   21452     455
  -3  -4   9     560     108
  -2  -4   9     128      81
  -1  -4   9      13      72
   0  -4   9      92     205
   1  -4   9    3108     114
   2  -4   9     204      73
   3  -4   9    2338     307
   4  -4   9     323      84
   5  -4   9    2727     208
   6  -4   9    1257     192
   7  -4   9    1152     326
  -9  -3   9     152     198
  -8  -3   9      76     104
  -7  -3   9     -40      89
  -6  -3   9     418     186
  -5  -3   9    5057     230
  -4  -3   9    8289     294
  -3  -3   9      19      81
  -2  -3   9    5291     213
  -1  -3   9     147     122
   0  -3   9    2232     118
   1  -3   9    1023      92
   2  -3   9   25863     390
   3  -3   9   13077     279
   4  -3   9     526      93
   5  -3   9     284      91
   6  -3   9     934     224
  -9  -2   9    1509     184
  -8  -2   9      19      89
  -7  -2   9     591     186
  -6  -2   9    1511     157
  -5  -2   9   28454     813
  -4  -2   9   17589     506
  -3  -2   9    4693     208
  -2  -2   9   11106     634
  -1  -2   9     125      61
   0  -2   9   15475     341
   1  -2   9     353     102
   2  -2   9    1221     269
   3  -2   9    1251     120
   4  -2   9    3175     181
   5  -2   9    2928     184
   6  -2   9     233     122
  -9  -1   9     254     122
  -8  -1   9     509     120
  -7  -1   9    1650     169
  -6  -1   9    3316     211
  -5  -1   9    5165     230
  -4  -1   9    1342     145
  -3  -1   9    2856     188
  -2  -1   9    1831     230
  -1  -1   9    2152     173
   0  -1   9    4693     212
   1  -1   9     975     132
   2  -1   9    1196     166
   3  -1   9    4314     230
   4  -1   9    1978     189
   5  -1   9    2693     226
   6  -1   9     499     205
  -9   0   9     307     179
  -8   0   9    1753     175
  -7   0   9     315     198
  -6   0   9      35      77
  -5   0   9   23411     475
  -4   0   9     155      92
  -3   0   9    6043     371
  -2   0   9     589     108
  -1   0   9   13499     341
   0   0   9     412     111
   1   0   9     356     108
   2   0   9    4064     288
   3   0   9    1672     176
   4   0   9     979     158
   5   0   9     128     154
  -9   1   9     218     166
  -8   1   9     883     218
  -7   1   9      99      95
  -6   1   9     763     127
  -5   1   9    4929     307
  -4   1   9    1306     243
  -3   1   9     132      95
  -2   1   9    1593     157
  -1   1   9    2330     188
   0   1   9    2164     188
   1   1   9     315     117
   2   1   9      68     113
   3   1   9    2533     224
   4   1   9     167     126
  -9   2   9     192     179
  -8   2   9      13     141
  -7   2   9       0     141
  -6   2   9     346     154
  -5   2   9     525     192
  -4   2   9     384     166
  -3   2   9    7387     283
  -2   2   9    1249     160
  -1   2   9       9      98
   0   2   9    1989     200
   1   2   9    3468     248
   2   2   9    1493     314
   3   2   9      90     179
  -5   3   9      51     154
  -4   3   9     727     140
  -3   3   9     135     128
  -2   3   9      50     198
  -1   3   9    1459     282
   0   3   9     685     158
   1   3   9     275     288
  -5   4   9     -13     141
  -4   4   9     538     127
  -3   4   9     -23     104
  -2   4   9     819     167
  -1   4   9    1606     314
  -5   5   9     102     166
  -4   5   9      -4     117
  -3   5   9     269     179
  -3 -11  10     320     205
  -2 -11  10     466     499
  -1 -11  10     819     243
   0 -11  10      38     179
   1 -11  10     346     205
   2 -11  10     717     243
   3 -11  10    4276     435
   4 -11  10    -179     179
  -4 -10  10    -154     154
  -3 -10  10     186     127
  -2 -10  10     371     122
  -1 -10  10     -81      81
   0 -10  10     589     218
   1 -10  10     307     192
   2 -10  10    2727     346
   3 -10  10     397     205
   4 -10  10      51     205
   5 -10  10      38     205
   6 -10  10     986     230
  -5  -9  10     918     176
  -4  -9  10     792     162
  -3  -9  10     342     131
  -2  -9  10    2644     218
  -1  -9  10      51     100
   0  -9  10    2943     212
   1  -9  10     218     179
   2  -9  10     999     230
   3  -9  10       0     154
   4  -9  10    1779     294
   5  -9  10      84     117
   6  -9  10      57     365
  -6  -8  10      53     135
  -5  -8  10      69     122
  -4  -8  10   14444     426
  -3  -8  10     353     166
  -2  -8  10      69      98
  -1  -8  10     994     135
   0  -8  10    3409     206
   1  -8  10    5186     227
   2  -8  10    1242     230
   3  -8  10      38     166
   4  -8  10     397     192
   5  -8  10     241     126
   6  -8  10    2330     320
  -6  -7  10    1494     435
  -5  -7  10    3192     244
  -4  -7  10     629     135
  -3  -7  10     849     138
  -2  -7  10     -13     128
  -1  -7  10    4851     307
   0  -7  10     169      95
   1  -7  10    2562     181
   2  -7  10     940     123
   3  -7  10     243     154
   4  -7  10    6844     428
   5  -7  10     922     205
   6  -7  10     -38     154
  -7  -6  10       7      98
  -6  -6  10      40     134
  -5  -6  10    1164     166
  -4  -6  10     778     205
  -3  -6  10    2063     178
  -2  -6  10     -20      80
  -1  -6  10    1185     218
   0  -6  10    4575     221
   1  -6  10     365     128
   2  -6  10     142      98
   3  -6  10    4603     226
   4  -6  10    8461     422
   5  -6  10     320     166
   6  -6  10    1587     282
  -8  -5  10     282     230
  -7  -5  10     261     113
  -6  -5  10     321     160
  -5  -5  10    2339     202
  -4  -5  10     237      91
  -3  -5  10     972     138
  -2  -5  10    6051     242
  -1  -5  10    1824     158
   0  -5  10    3885     199
   1  -5  10    7966     280
   2  -5  10     304      84
   3  -5  10    1548     124
   4  -5  10    5567     518
   5  -5  10    1194     158
   6  -5  10     973     218
  -8  -4  10    1055     163
  -7  -4  10      89     104
  -6  -4  10    1275     158
  -5  -4  10    1568     179
  -4  -4  10     760     126
  -3  -4  10    3093     288
  -2  -4  10     128     128
  -1  -4  10   13479     344
   0  -4  10     632     122
   1  -4  10    5926     224
   2  -4  10   24436     389
   3  -4  10     240     144
   4  -4  10      14      73
   5  -4  10     -32     109
   6  -4  10    3279     248
  -8  -3  10    1147     173
  -7  -3  10      73     109
  -6  -3  10    5284     248
  -5  -3  10     497     117
  -4  -3  10     109      91
  -3  -3  10    4864     222
  -2  -3  10      38      81
  -1  -3  10    2085     175
   0  -3  10    3713     333
   1  -3  10   16445     378
   2  -3  10    3575     194
   3  -3  10    7133     225
   4  -3  10    1745     143
   5  -3  10    1600     163
  -9  -2  10     525     192
  -8  -2  10      90     104
  -7  -2  10     120      95
  -6  -2  10    2178     189
  -5  -2  10   10536     794
  -4  -2  10     -43      77
  -3  -2  10    7944     339
  -2  -2  10    9498     461
  -1  -2  10    -102     115
   0  -2  10    1203     141
   1  -2  10   12578     486
   2  -2  10    1635     167
   3  -2  10    8529     310
   4  -2  10      58     109
   5  -2  10      58     118
  -9  -1  10     269     179
  -8  -1  10     602     131
  -7  -1  10    1171     162
  -6  -1  10    2593     204
  -5  -1  10     148     115
  -4  -1  10      81      86
  -3  -1  10     448     179
  -2  -1  10     525     179
  -1  -1  10     -84      90
   0  -1  10    3367     288
   1  -1  10    1726     172
   2  -1  10    3236     221
   3  -1  10     226     134
   4  -1  10    2007     204
   5  -1  10      26     154
  -8   0  10     315     122
  -7   0  10      30     115
  -6   0  10     213     104
  -5   0  10   10381     448
  -4   0  10     205     154
  -3   0  10    5966     397
  -2   0  10      51     154
  -1   0  10    4919     231
   0   0  10    4336     269
   1   0  10     813     141
   2   0  10    2416     224
   3   0  10      70     109
  -8   1  10    2074     294
  -7   1  10    5270     301
  -6   1  10     871     192
  -4   1  10    1114     243
  -3   1  10    2637     320
  -2   1  10     318     117
  -1   1  10     340     166
   0   1  10      88     173
   1   1  10     725     141
   2   1  10     108     122
  -6   2  10    1050     205
  -5   2  10     397     192
  -4   2  10     947     230
  -3   2  10     474     192
  -2   2  10     177     314
  -1   2  10    3541     252
   0   2  10    1685     199
   1   2  10    1229     243
  -5   3  10     256     192
  -4   3  10     589     205
  -3   3  10     -13     108
  -2   3  10    2779     235
  -1   3  10     179     166
  -4   4  10     371     243
  -2 -11  11     666     230
   1 -11  11     474     269
  -3 -10  11    1101     243
  -2 -10  11     398     131
  -1 -10  11     747     149
   0 -10  11     179     192
   1 -10  11    1127     269
   2 -10  11    1741     307
   3 -10  11    -166     166
   4 -10  11    -179     179
  -4  -9  11      19     118
  -3  -9  11      -5     115
  -2  -9  11     174     115
  -1  -9  11     692     148
   0  -9  11     106      95
   1  -9  11     397     205
   2  -9  11      64     166
   3  -9  11      51     166
   4  -9  11      38     192
   5  -9  11     102     205
  -5  -8  11    3380     270
  -4  -8  11      90     126
  -3  -8  11      65     104
  -2  -8  11     -52      98
  -1  -8  11     380     116
   0  -8  11    3585     237
   1  -8  11     312      97
   2  -8  11     384     192
   3  -8  11     243     166
   4  -8  11    2484     346
   6  -8  11     922     243
  -6  -7  11    1056     189
  -5  -7  11    1200     171
  -4  -7  11    -102     102
  -3  -7  11     406     122
  -2  -7  11     983     144
  -1  -7  11     852     131
   0  -7  11      18      83
   1  -7  11     511     198
   2  -7  11     525     256
   3  -7  11    4289     435
   5  -7  11     -26     154
   6  -7  11     218     179
  -6  -6  11      32     109
  -5  -6  11     183     113
  -4  -6  11      -1     205
  -3  -6  11    4278     233
  -2  -6  11       5      96
  -1  -6  11     136      95
   0  -6  11    1066     140
   1  -6  11     228      98
   2  -6  11   17883     563
   4  -6  11     318     117
   5  -6  11    1198     158
  -7  -5  11    1747     202
  -6  -5  11    3136     239
  -5  -5  11      92     104
  -4  -5  11     856     144
  -3  -5  11     186     104
  -2  -5  11     441     113
  -1  -5  11   15070     890
   0  -5  11   10768     326
   1  -5  11     102     141
   2  -5  11     397     166
   3  -5  11    3959     184
   4  -5  11     227     111
   5  -5  11    1741     243
  -7  -4  11    1662     189
  -6  -4  11      35     109
  -5  -4  11     638     160
  -4  -4  11    6741     280
  -3  -4  11     247     104
  -2  -4  11    1057     140
  -1  -4  11    3815     294
   0  -4  11   10599     499
   1  -4  11    1203     230
   2  -4  11    3507     212
   3  -4  11      -2      77
   4  -4  11    1748     152
   5  -4  11      99     113
  -7  -3  11     -48      95
  -6  -3  11     401     154
  -5  -3  11    2829     213
  -4  -3  11     -51      81
  -3  -3  11      70      91
  -2  -3  11   11137     474
  -1  -3  11    4801     371
   0  -3  11     -38     141
   1  -3  11     602     192
   2  -3  11     -19      91
   3  -3  11    3912     237
   4  -3  11    2904     230
  -8  -2  11     115     166
  -7  -2  11     601     131
  -6  -2  11    2208     204
  -5  -2  11    3712     538
  -4  -2  11    1058     186
  -3  -2  11     384     154
  -2  -2  11     -77     141
  -1  -2  11    7245     435
   0  -2  11    4494     410
   1  -2  11      49     108
   2  -2  11    4042     378
   3  -2  11     363     126
   4  -2  11    1469     192
  -8  -1  11      74     237
  -7  -1  11     442     127
  -6  -1  11     682     131
  -5  -1  11    2663     282
  -4  -1  11     640     179
  -3  -1  11    -128     128
  -2  -1  11     371     179
  -1  -1  11     986     218
   0  -1  11    2520     211
   1  -1  11    7066     390
   2  -1  11    5336     283
   3  -1  11      30     179
  -7   0  11    3789     346
  -6   0  11    1370     230
  -5   0  11     525     179
  -4   0  11       0     154
  -3   0  11     461     192
  -2   0  11     154     166
  -1   0  11    -128     128
   0   0  11     -26     109
   1   0  11    2286     215
   2   0  11     269     179
  -7   1  11      90     166
  -6   1  11    2727     294
  -5   1  11    -115     115
  -4   1  11      77     179
  -3   1  11     218     179
  -2   1  11     256     179
  -1   1  11      59     113
   0   1  11     538     192
   1   1  11     525     205
  -5   2  11    1997     320
  -4   2  11     384     192
  -3   2  11     410     218
  -1   2  11       0     154
  -2 -10  12     909     218
  -1 -10  12     230     154
   0 -10  12     614     230
   1 -10  12      90     179
   2 -10  12    4276     448
   3 -10  12    2893     435
  -3  -9  12    1050     189
  -2  -9  12      41     122
  -1  -9  12    -126     186
   0  -9  12     588     135
   1  -9  12     422     205
   2  -9  12     -26     179
   3  -9  12    1997     320
  -4  -8  12     224     129
  -3  -8  12     683     153
  -2  -8  12     787     153
  -1  -8  12    2840     320
   0  -8  12     -26     128
   1  -8  12     -69      83
   2  -8  12     461     218
  -5  -7  12    7409     390
  -4  -7  12     708     153
  -3  -7  12     167     134
  -2  -7  12     377     120
  -1  -7  12     857     148
   0  -7  12     -83      83
   1  -7  12    3248     226
  -5  -6  12    1248     178
  -4  -6  12     192     118
  -3  -6  12    1983     339
  -2  -6  12     964     160
  -1  -6  12      96      91
   0  -6  12     687     140
   1  -6  12     333     141
   2  -6  12     384     154
  -6  -5  12     456     148
  -5  -5  12      34     104
  -4  -5  12     633     135
  -3  -5  12     349     117
  -2  -5  12      73      95
  -1  -5  12     269     154
   0  -5  12    2586     282
   1  -5  12    6758     435
   2  -5  12     141     179
   3  -5  12     730     205
   4  -5  12      62     154
  -6  -4  12     -12      98
  -5  -4  12     249     111
  -4  -4  12     -32      91
  -3  -4  12     207     128
  -2  -4  12    1088     218
  -1  -4  12      38     128
   0  -4  12    1267     256
   1  -4  12      64     154
   2  -4  12     -38     141
   3  -4  12     384     192
   4  -4  12     154     166
  -7  -3  12     397     218
  -6  -3  12     100     179
  -5  -3  12     624     135
  -4  -3  12     883     192
  -3  -3  12     -51     128
  -2  -3  12    -115     115
  -1  -3  12    1075     243
   0  -3  12    4186     410
   1  -3  12      51     154
   2  -3  12    -141     141
   3  -3  12     619     288
  -7  -2  12     128     166
  -6  -2  12     522     262
  -5  -2  12     -90     128
  -4  -2  12    1370     230
  -3  -2  12    -128     128
  -2  -2  12     -38     154
  -1  -2  12     128     179
   0  -2  12     269     192
   1  -2  12     166     179
   2  -2  12    5851     346
  -5  -1  12     141     154
  -4  -1  12     807     218
  -3  -1  12     102     179
  -2  -1  12     269     179
  -1  -1  12     371     192
   0  -1  12     192     192
  -4   0  12    -166     166
  -3   0  12     -51     192
  -2  -9  13     -64     141
  -1  -9  13      90     154
   0  -9  13    -166     166
   1  -9  13     422     230
   2  -9  13     -64     166
  -2  -8  13    1219     178
  -1  -8  13     945     160
   0  -8  13     534     138
   1  -8  13      77     205
  -4  -7  13     282     218
  -3  -7  13     486     135
  -2  -7  13     194     117
  -1  -7  13     165     134
   0  -7  13     538     166
   1  -7  13     768     179
  -4  -6  13     358     192
  -3  -6  13    2336     215
  -2  -6  13     326     127
  -1  -6  13     179     141
   0  -6  13    1165     218
   1  -6  13     730     192
   2  -6  13    1280     230
  -5  -5  13     166     179
  -4  -5  13     115     166
  -3  -5  13     -59      95
  -2  -5  13     115     154
  -1  -5  13     307     154
   0  -5  13     218     179
   1  -5  13    3265     371
   2  -5  13    -141     141
  -5  -4  13     589     205
  -3  -4  13     -51     141
  -2  -4  13    3008     333
  -1  -4  13    5454     384
   0  -4  13     448     205
   1  -4  13     179     179
  -2  -3  13     768     243
  -1  -3  13    3969     486
;
_shelx_hkl_checksum              36580
_shelx_res_file
;
    shelx.res created by SHELXL-2014/7
TITL w P -1 R = 0.04
CELL 0.71073 9.1166 10.022 10.781 116.951 97.13 102.195
ZERR 2 0.0018 0.002 0.002 0.002 0.002 0.002
LATT 1
SFAC C H N O
UNIT 32 28 16 4
L.S. 5
PLAN  -20
TEMP 23
BOND $H
CONF
fmap 2
acta
REM <olex2.extras>
REM <HklSrc "%.\\w.hkl">
REM </olex2.extras>
mpla n1 n2 c3 c4 c5 c6
mpla n4 n5 c7 c8 c9 c10
mpla n7 n8 c13 c14 c15 c16
mpla c1 o1 n1 c2
mpla c12 n6 c11 o2
mpla n4 n5 c7 c8 c9 c10
mpla c1 o1 n1 c2
WGHT    0.075900    0.024200
FVAR      10.00109
O1    4    0.445735    0.723546    0.687087    11.00000    0.04276    0.08677 =
         0.03717    0.02617    0.00540    0.02306
O2    4    0.720741    1.031092    0.829719    11.00000    0.05343    0.05219 =
         0.05295    0.02915    0.01430    0.03041
N1    3    0.353075    0.816126    0.884485    11.00000    0.02753    0.04888 =
         0.03727    0.01295    0.00225    0.00972
AFIX   3
H1    2    0.373975    0.858236    0.976575    11.00000   -1.20000
AFIX   0
N2    3   -0.044683    0.599075    0.660432    11.00000    0.03107    0.03964 =
         0.03996    0.01780    0.00538    0.00829
N3    3    0.033069    0.369452    0.707536    11.00000    0.06103    0.05558 =
         0.13003    0.05672    0.00862    0.01448
N4    3    0.590542    0.723442    0.993765    11.00000    0.04983    0.07385 =
         0.05502    0.04361    0.02031    0.02700
N5    3    0.880029    0.819677    0.947915    11.00000    0.03691    0.05643 =
         0.04231    0.02731    0.00574    0.02109
N6    3    0.844725    0.864143    0.698338    11.00000    0.03827    0.05098 =
         0.04493    0.03110    0.01309    0.02261
AFIX   3
H6    2    0.884034    0.790513    0.689798    11.00000   -1.20000
AFIX   0
N7    3    0.688957    0.961343    0.436016    11.00000    0.06291    0.05259 =
         0.04904    0.03015    0.00897    0.02391
N8    3    0.480519    0.664340    0.322379    11.00000    0.06029    0.07698 =
         0.05795    0.03457    0.00325   -0.00039
C1    1    0.461752    0.772868    0.815887    11.00000    0.03015    0.04151 =
         0.03626    0.01702    0.00343    0.00766
C2    1    0.200767    0.792956    0.805646    11.00000    0.02812    0.03882 =
         0.05157    0.01706    0.00366    0.00954
AFIX  23
H2A   2    0.211918    0.817145    0.729148    11.00000   -1.20000
H2B   2    0.154093    0.865896    0.869906    11.00000   -1.20000
AFIX   0
C3    1    0.093780    0.628556    0.741383    11.00000    0.02971    0.03782 =
         0.04040    0.01856    0.00792    0.01233
C4    1   -0.143530    0.455554    0.604658    11.00000    0.03515    0.04744 =
         0.04916    0.01726    0.00229    0.00369
AFIX  43
H4    2   -0.241420    0.431198    0.548204    11.00000   -1.20000
AFIX   0
C5    1   -0.104166    0.342968    0.628627    11.00000    0.05529    0.04045 =
         0.09305    0.03040    0.01219    0.00375
AFIX  43
H5    2   -0.176636    0.244347    0.587898    11.00000   -1.20000
AFIX   0
C6    1    0.131007    0.513799    0.764026    11.00000    0.04229    0.05473 =
         0.08918    0.04316    0.00003    0.01261
AFIX  43
H6A   2    0.228456    0.537878    0.821059    11.00000   -1.20000
AFIX   0
C7    1    0.607611    0.781456    0.905340    11.00000    0.03444    0.04149 =
         0.03309    0.01760    0.00679    0.01474
C8    1    0.719717    0.713798    1.058276    11.00000    0.06706    0.08679 =
         0.06067    0.05514    0.02397    0.03849
AFIX  43
H8    2    0.713583    0.676594    1.122954    11.00000   -1.20000
AFIX   0
C9    1    0.861389    0.756796    1.032663    11.00000    0.04932    0.07291 =
         0.05147    0.04001    0.01059    0.03350
AFIX  43
H9    2    0.946499    0.741579    1.075653    11.00000   -1.20000
AFIX   0
C10   1    0.752696    0.834141    0.885937    11.00000    0.03056    0.03879 =
         0.03032    0.01559    0.00415    0.01505
C11   1    0.771392    0.918997    0.801066    11.00000    0.02748    0.04162 =
         0.03806    0.02029    0.00183    0.01216
C12   1    0.860121    0.925438    0.600097    11.00000    0.04236    0.05446 =
         0.04853    0.03286    0.01232    0.01441
AFIX  23
H12A  2    0.943555    0.897762    0.555998    11.00000   -1.20000
H12B  2    0.888423    1.039112    0.654358    11.00000   -1.20000
AFIX   0
C13   1    0.713955    0.864303    0.483299    11.00000    0.04300    0.04538 =
         0.03822    0.02406    0.01457    0.01728
C14   1    0.559375    0.910303    0.334971    11.00000    0.06471    0.07764 =
         0.05397    0.04065    0.00988    0.03232
AFIX  43
H14   2    0.537597    0.976328    0.301263    11.00000   -1.20000
AFIX   0
C15   1    0.457565    0.764621    0.279252    11.00000    0.04951    0.09733 =
         0.05008    0.04220    0.00591    0.01886
AFIX  43
H15   2    0.368642    0.734205    0.208356    11.00000   -1.20000
AFIX   0
C16   1    0.609327    0.717001    0.425928    11.00000    0.05818    0.05732 =
         0.05512    0.03477    0.00668    0.01004
AFIX  43
H16   2    0.629393    0.651491    0.460916    11.00000   -1.20000
REM  w P -1 R = 0.04
REM R1 =  0.0404 for    2592 Fo > 4sig(Fo)  and  0.0603 for all    3527 data
REM    235 parameters refined using      0 restraints
REM  w P -1 R = 0.04
REM R1 =  0.0404 for    2595 Fo > 4sig(Fo)  and  0.0603 for all    3527 data
REM    235 parameters refined using      0 restraints
REM Highest difference peak  0.151,  deepest hole -0.173,  1-sigma level  0.041
AFIX   0
HKLF 4
REM  w P -1 R = 0.04
REM R1 =  0.0405 for    2595 Fo > 4sig(Fo)  and  0.0603 for all    3527 data
REM    235 parameters refined using      0 restraints
END
WGHT      0.0759      0.0242
REM Highest difference peak  0.151,  deepest hole -0.173,  1-sigma level  0.041
Q1    1   0.4781  0.6783  0.2654  11.00000  0.05    0.15
Q2    1   0.6564  0.5930  1.0688  11.00000  0.05    0.15
Q3    1   0.3194  0.6398  0.1959  11.00000  0.05    0.14
Q4    1   0.6776  0.7628  0.8623  11.00000  0.05    0.14
Q5    1   0.5431  0.7808  0.8664  11.00000  0.05    0.14
Q6    1   0.7804  0.8843  0.5311  11.00000  0.05    0.13
Q7    1   0.1617  0.6948  0.7480  11.00000  0.05    0.13
Q8    1   0.3439  0.7936  0.9634  11.00000  0.05    0.13
Q9    1   0.0234  0.4387  0.7947  11.00000  0.05    0.13
Q10   1   0.7806  0.6600  0.9839  11.00000  0.05    0.12
Q11   1   0.7419  1.1351  0.9243  11.00000  0.05    0.12
Q12   1   0.6946  0.7833  0.4267  11.00000  0.05    0.12
Q13   1   0.3750  0.6255  0.1548  11.00000  0.05    0.12
Q14   1   0.8436  1.0585  0.4862  11.00000  0.05    0.12
Q15   1   0.0674  0.4553  0.9519  11.00000  0.05    0.12
Q16   1   0.9490  0.8374  0.5334  11.00000  0.05    0.12
Q17   1   0.2212  0.5627  0.0887  11.00000  0.05    0.12
Q18   1  -0.0186  0.4402  0.8378  11.00000  0.05    0.12
Q19   1   0.6440  0.8135  0.4888  11.00000  0.05    0.12
Q20   1   0.0632  0.2922  0.7279  11.00000  0.05    0.12
;
_shelx_res_checksum              87149
loop_
_space_group_symop_operation_xyz
'x, y, z'
'-x, -y, -z'
loop_
_atom_site_type_symbol
_atom_site_label
_atom_site_fract_x
_atom_site_fract_y
_atom_site_fract_z
_atom_site_U_iso_or_equiv
_atom_site_adp_type
_atom_site_calc_flag
_atom_site_occupancy
O O1 0.44574(13) 0.72355(16) 0.68709(12) 0.0573(4) Uani d 1
O O2 0.72074(13) 1.03109(13) 0.82972(12) 0.0489(3) Uani d 1
N N1 0.35307(13) 0.81613(15) 0.88449(13) 0.0423(3) Uani d 1
H H1 0.3740 0.8582 0.9766 0.051 Uiso d 1
N N2 -0.04468(13) 0.59908(14) 0.66043(13) 0.0385(3) Uani d 1
N N3 0.0331(2) 0.3695(2) 0.7075(2) 0.0799(6) Uani d 1
N N4 0.59054(16) 0.72344(19) 0.99377(15) 0.0525(4) Uani d 1
N N5 0.88003(14) 0.81968(16) 0.94792(13) 0.0432(3) Uani d 1
N N6 0.84472(14) 0.86414(16) 0.69834(13) 0.0398(3) Uani d 1
H H6 0.8840 0.7905 0.6898 0.048 Uiso d 1
N N7 0.68896(18) 0.96134(17) 0.43602(15) 0.0522(4) Uani d 1
N N8 0.48052(19) 0.6643(2) 0.32238(17) 0.0695(5) Uani d 1
C C1 0.46175(16) 0.77287(18) 0.81589(15) 0.0379(4) Uani d 1
C C2 0.20077(16) 0.79296(18) 0.80565(17) 0.0424(4) Uani d 1
H H2A 0.2119 0.8171 0.7291 0.051 Uiso calc 1
H H2B 0.1541 0.8659 0.8699 0.051 Uiso calc 1
C C3 0.09378(16) 0.62856(17) 0.74138(15) 0.0360(3) Uani d 1
C C4 -0.14353(18) 0.45555(19) 0.60466(18) 0.0490(4) Uani d 1
H H4 -0.2414 0.4312 0.5482 0.059 Uiso calc 1
C C5 -0.1042(2) 0.3430(2) 0.6286(2) 0.0665(6) Uani d 1
H H5 -0.1766 0.2443 0.5879 0.080 Uiso calc 1
C C6 0.1310(2) 0.5138(2) 0.7640(2) 0.0610(5) Uani d 1
H H6A 0.2285 0.5379 0.8211 0.073 Uiso calc 1
C C7 0.60761(16) 0.78146(17) 0.90534(15) 0.0363(3) Uani d 1
C C8 0.7197(2) 0.7138(2) 1.0583(2) 0.0603(5) Uani d 1
H H8 0.7136 0.6766 1.1230 0.072 Uiso calc 1
C C9 0.8614(2) 0.7568(2) 1.03266(18) 0.0517(4) Uani d 1
H H9 0.9465 0.7416 1.0757 0.062 Uiso calc 1
C C10 0.75270(16) 0.83414(17) 0.88594(14) 0.0334(3) Uani d 1
C C11 0.77139(16) 0.91900(18) 0.80107(15) 0.0358(3) Uani d 1
C C12 0.86012(18) 0.9254(2) 0.60010(17) 0.0454(4) Uani d 1
H H12A 0.9436 0.8978 0.5560 0.054 Uiso calc 1
H H12B 0.8884 1.0391 0.6544 0.054 Uiso calc 1
C C13 0.71396(17) 0.86430(18) 0.48330(15) 0.0397(4) Uani d 1
C C14 0.5594(2) 0.9103(2) 0.33497(19) 0.0607(5) Uani d 1
H H14 0.5376 0.9763 0.3013 0.073 Uiso calc 1
C C15 0.4576(2) 0.7646(3) 0.2793(2) 0.0645(6) Uani d 1
H H15 0.3686 0.7342 0.2084 0.077 Uiso calc 1
C C16 0.6093(2) 0.7170(2) 0.42593(19) 0.0561(5) Uani d 1
H H16 0.6294 0.6515 0.4609 0.067 Uiso calc 1
loop_
_atom_site_aniso_label
_atom_site_aniso_U_11
_atom_site_aniso_U_22
_atom_site_aniso_U_33
_atom_site_aniso_U_12
_atom_site_aniso_U_13
_atom_site_aniso_U_23
O1 0.0428(7) 0.0868(9) 0.0372(6) 0.0231(6) 0.0054(5) 0.0262(6)
O2 0.0534(7) 0.0522(7) 0.0530(7) 0.0304(6) 0.0143(5) 0.0292(6)
N1 0.0275(6) 0.0489(8) 0.0373(7) 0.0097(6) 0.0023(5) 0.0130(6)
N2 0.0311(6) 0.0396(7) 0.0400(7) 0.0083(6) 0.0054(5) 0.0178(6)
N3 0.0610(11) 0.0556(10) 0.1300(16) 0.0145(9) 0.0086(11) 0.0567(11)
N4 0.0498(8) 0.0739(10) 0.0550(9) 0.0270(7) 0.0203(7) 0.0436(8)
N5 0.0369(7) 0.0564(8) 0.0423(7) 0.0211(6) 0.0057(6) 0.0273(7)
N6 0.0383(7) 0.0510(8) 0.0449(7) 0.0226(6) 0.0131(6) 0.0311(6)
N7 0.0629(9) 0.0526(9) 0.0490(8) 0.0239(7) 0.0090(7) 0.0301(7)
N8 0.0603(10) 0.0770(12) 0.0580(10) -0.0004(9) 0.0033(8) 0.0346(9)
C1 0.0301(8) 0.0415(8) 0.0363(8) 0.0077(6) 0.0034(6) 0.0170(7)
C2 0.0281(8) 0.0388(8) 0.0516(9) 0.0095(6) 0.0037(6) 0.0171(7)
C3 0.0297(7) 0.0378(8) 0.0404(8) 0.0123(6) 0.0079(6) 0.0186(7)
C4 0.0351(9) 0.0474(10) 0.0492(9) 0.0037(7) 0.0023(7) 0.0173(8)
C5 0.0553(12) 0.0404(10) 0.0930(15) 0.0037(9) 0.0122(11) 0.0304(10)
C6 0.0423(10) 0.0547(11) 0.0892(14) 0.0126(8) 0.0000(9) 0.0432(11)
C7 0.0344(8) 0.0415(8) 0.0331(7) 0.0147(6) 0.0068(6) 0.0176(6)
C8 0.0671(12) 0.0868(14) 0.0607(11) 0.0385(11) 0.0240(9) 0.0551(11)
C9 0.0493(10) 0.0729(12) 0.0515(10) 0.0335(9) 0.0106(8) 0.0400(9)
C10 0.0306(7) 0.0388(8) 0.0303(7) 0.0151(6) 0.0042(5) 0.0156(6)
C11 0.0275(7) 0.0416(8) 0.0381(8) 0.0122(6) 0.0018(6) 0.0203(7)
C12 0.0424(9) 0.0545(10) 0.0485(9) 0.0144(8) 0.0123(7) 0.0329(8)
C13 0.0430(9) 0.0454(9) 0.0382(8) 0.0173(7) 0.0146(7) 0.0241(7)
C14 0.0647(12) 0.0776(14) 0.0540(11) 0.0323(11) 0.0099(9) 0.0407(10)
C15 0.0495(11) 0.0973(17) 0.0501(11) 0.0189(11) 0.0059(8) 0.0422(11)
C16 0.0582(11) 0.0573(11) 0.0551(10) 0.0100(9) 0.0067(9) 0.0348(9)
loop_
_atom_type_symbol
_atom_type_description
_atom_type_scat_dispersion_real
_atom_type_scat_dispersion_imag
_atom_type_scat_source
C C 0.0033 0.0016 'International Tables Vol C Tables 4.2.6.8 and 6.1.1.4'
H H 0.0000 0.0000 'International Tables Vol C Tables 4.2.6.8 and 6.1.1.4'
N N 0.0061 0.0033 'International Tables Vol C Tables 4.2.6.8 and 6.1.1.4'
O O 0.0106 0.0060 'International Tables Vol C Tables 4.2.6.8 and 6.1.1.4'
loop_
_geom_angle_atom_site_label_1
_geom_angle_atom_site_label_2
_geom_angle_atom_site_label_3
_geom_angle
C1 N1 C2 120.84(13)
C1 N1 H1 119.6
C2 N1 H1 119.6
C4 N2 C3 116.98(14)
C5 N3 C6 115.74(17)
C7 N4 C8 115.88(14)
C9 N5 C10 116.27(13)
C11 N6 C12 121.60(13)
C11 N6 H6 119.2
C12 N6 H6 119.2
C14 N7 C13 116.96(15)
C15 N8 C16 115.45(17)
O1 C1 N1 123.67(14)
O1 C1 C7 119.96(14)
N1 C1 C7 116.32(13)
N1 C2 C3 113.38(13)
N1 C2 H2A 108.9
C3 C2 H2A 108.9
N1 C2 H2B 108.9
C3 C2 H2B 108.9
H2A C2 H2B 107.7
N2 C3 C6 120.59(14)
N2 C3 C2 115.50(13)
C6 C3 C2 123.90(14)
N2 C4 C5 121.50(16)
N2 C4 H4 119.3
C5 C4 H4 119.3
N3 C5 C4 122.44(17)
N3 C5 H5 118.8
C4 C5 H5 118.8
N3 C6 C3 122.74(17)
N3 C6 H6A 118.6
C3 C6 H6A 118.6
N4 C7 C10 121.72(14)
N4 C7 C1 116.92(13)
C10 C7 C1 121.09(13)
N4 C8 C9 122.50(15)
N4 C8 H8 118.8
C9 C8 H8 118.7
N5 C9 C8 121.79(15)
N5 C9 H9 119.1
C8 C9 H9 119.1
N5 C10 C7 121.65(13)
N5 C10 C11 117.86(12)
C7 C10 C11 120.38(12)
O2 C11 N6 124.70(14)
O2 C11 C10 119.93(13)
N6 C11 C10 115.38(13)
N6 C12 C13 113.24(12)
N6 C12 H12A 108.9
C13 C12 H12A 108.9
N6 C12 H12B 108.9
C13 C12 H12B 108.9
H12A C12 H12B 107.7
N7 C13 C16 120.23(15)
N7 C13 C12 116.23(14)
C16 C13 C12 123.54(15)
N7 C14 C15 122.10(17)
N7 C14 H14 119.0
C15 C14 H14 119.0
N8 C15 C14 122.35(17)
N8 C15 H15 118.8
C14 C15 H15 118.8
N8 C16 C13 122.89(17)
N8 C16 H16 118.6
C13 C16 H16 118.6
loop_
_geom_bond_atom_site_label_1
_geom_bond_atom_site_label_2
_geom_bond_distance
O1 C1 1.2210(17)
O2 C11 1.2291(18)
N1 C1 1.3376(19)
N1 C2 1.4479(18)
N1 H1 0.8599
N2 C4 1.3328(19)
N2 C3 1.3333(18)
N3 C5 1.323(3)
N3 C6 1.335(2)
N4 C7 1.3312(19)
N4 C8 1.336(2)
N5 C9 1.3327(19)
N5 C10 1.3347(18)
N6 C11 1.3278(19)
N6 C12 1.4523(18)
N6 H6 0.8601
N7 C14 1.328(2)
N7 C13 1.3311(19)
N8 C15 1.326(3)
N8 C16 1.335(2)
C1 C7 1.5046(19)
C2 C3 1.505(2)
C2 H2A 0.9700
C2 H2B 0.9700
C3 C6 1.377(2)
C4 C5 1.372(3)
C4 H4 0.9300
C5 H5 0.9300
C6 H6A 0.9300
C7 C10 1.395(2)
C8 C9 1.375(3)
C8 H8 0.9300
C9 H9 0.9300
C10 C11 1.507(2)
C12 C13 1.509(2)
C12 H12A 0.9700
C12 H12B 0.9700
C13 C16 1.379(2)
C14 C15 1.359(3)
C14 H14 0.9300
C15 H15 0.9300
C16 H16 0.9300
loop_
_geom_hbond_atom_site_label_D
_geom_hbond_atom_site_label_H
_geom_hbond_atom_site_label_A
_geom_hbond_site_symmetry_A
_geom_hbond_distance_DH
_geom_hbond_distance_HA
_geom_hbond_distance_DA
_geom_hbond_angle_DHA
N1 H1 O2 2_677 0.86 2.26 2.9940(18) 144
N6 H6 N2 1_655 0.86 2.06 2.914(2) 174
C4 H4 O1 2_566 0.93 2.52 3.369(2) 152
C5 H5 N7 1_445 0.93 2.46 3.359(3) 162
C14 H14 O2 2_676 0.93 2.56 3.236(2) 130
loop_
_geom_torsion_atom_site_label_1
_geom_torsion_atom_site_label_2
_geom_torsion_atom_site_label_3
_geom_torsion_atom_site_label_4
_geom_torsion
C2 N1 C1 O1 5.8(2)
C2 N1 C1 C7 -171.79(12)
C1 N1 C2 C3 81.57(18)
C4 N2 C3 C6 0.5(2)
C4 N2 C3 C2 -178.48(14)
N1 C2 C3 N2 -176.08(12)
N1 C2 C3 C6 5.0(2)
C3 N2 C4 C5 -0.5(2)
C6 N3 C5 C4 0.7(3)
N2 C4 C5 N3 -0.1(3)
C5 N3 C6 C3 -0.6(3)
N2 C3 C6 N3 0.1(3)
C2 C3 C6 N3 178.94(18)
C8 N4 C7 C10 -2.3(2)
C8 N4 C7 C1 171.75(16)
O1 C1 C7 N4 -132.13(17)
N1 C1 C7 N4 45.6(2)
O1 C1 C7 C10 42.0(2)
N1 C1 C7 C10 -140.35(15)
C7 N4 C8 C9 -1.7(3)
C10 N5 C9 C8 -2.0(3)
N4 C8 C9 N5 4.0(3)
C9 N5 C10 C7 -2.0(2)
C9 N5 C10 C11 174.14(14)
N4 C7 C10 N5 4.4(2)
C1 C7 C10 N5 -169.43(14)
N4 C7 C10 C11 -171.71(14)
C1 C7 C10 C11 14.5(2)
C12 N6 C11 O2 -5.5(2)
C12 N6 C11 C10 174.84(12)
N5 C10 C11 O2 -125.27(15)
C7 C10 C11 O2 50.96(19)
N5 C10 C11 N6 54.42(18)
C7 C10 C11 N6 -129.35(15)
C11 N6 C12 C13 -77.41(19)
C14 N7 C13 C16 1.2(2)
C14 N7 C13 C12 -178.84(14)
N6 C12 C13 N7 148.37(14)
N6 C12 C13 C16 -31.7(2)
C13 N7 C14 C15 -1.4(3)
C16 N8 C15 C14 1.0(3)
N7 C14 C15 N8 0.3(3)
C15 N8 C16 C13 -1.2(3)
N7 C13 C16 N8 0.1(3)
C12 C13 C16 N8 -179.88(16)

_cod_database_fobs_code 1544289
