#------------------------------------------------------------------------------
#$Date: 2016-11-11 04:10:06 +0200 (Fri, 11 Nov 2016) $
#$Revision: 188388 $
#$URL: file:///home/coder/svn-repositories/cod/cif/1/54/45/1544546.cif $
#------------------------------------------------------------------------------
#
# This file is available in the Crystallography Open Database (COD),
# http://www.crystallography.net/. The original data for this entry
# were provided by IUCr Journals, http://journals.iucr.org/.
#
# The file may be used within the scientific community so long as
# proper attribution is given to the journal article from which the
# data were obtained.
#
data_1544546
loop_
_publ_author_name
'Limbach, Daniel'
'Detert, Heiner'
'Schollmeyer, Dieter'
_publ_section_title
;
 2-(4-Chloro-2-nitrophenyl)-5-[4-(propyloxy)phenyl]-1,3,4-oxadiazole
;
_journal_coeditor_code           SU4093
_journal_issue                   11
_journal_name_full               IUCrData
_journal_page_first              x161782
_journal_paper_doi               10.1107/S241431461601782X
_journal_volume                  1
_journal_year                    2016
_chemical_formula_iupac          'C17 H14 Cl N3 O4'
_chemical_formula_moiety         'C17 H14 Cl N3 O4'
_chemical_formula_sum            'C17 H14 Cl N3 O4'
_chemical_formula_weight         359.76
_chemical_name_systematic
;
2-(4-Chloro-2-nitrophenyl)-5-[4-(propyloxy)phenyl]-1,3,4-oxadiazole
;
_space_group_crystal_system      triclinic
_space_group_IT_number           2
_space_group_name_Hall           '-P 1'
_space_group_name_H-M_alt        'P -1'
_symmetry_space_group_name_Hall  '-P 1'
_symmetry_space_group_name_H-M   'P -1'
_atom_sites_solution_hydrogens   geom
_atom_sites_solution_primary     direct
_atom_sites_solution_secondary   difmap
_audit_creation_method           SHELXL-2014/7
_cell_angle_alpha                101.911(5)
_cell_angle_beta                 91.311(5)
_cell_angle_gamma                107.224(5)
_cell_formula_units_Z            2
_cell_length_a                   7.5691(5)
_cell_length_b                   7.7907(5)
_cell_length_c                   14.9040(10)
_cell_measurement_reflns_used    8906
_cell_measurement_temperature    193(2)
_cell_measurement_theta_max      28.20
_cell_measurement_theta_min      2.81
_cell_volume                     818.06(10)
_computing_cell_refinement
;
X-AREA (Stoe & Cie, 1996)
;
_computing_data_collection
;
X-AREA (Stoe & Cie, 1996)
;
_computing_data_reduction
;
X-RED32 (Stoe & Cie, 1996)
;
_computing_molecular_graphics
;
PLATON (Spek, 2009) and Mercury (Macrae <i>et al.</i>,  2008)
;
_computing_publication_material
;
SHELXL2014 (Sheldrick, 2015b) and PLATON (Spek, 2009)
;
_computing_structure_refinement
;
SHELXL2014 (Sheldrick, 2015b)
;
_computing_structure_solution
;
SHELXT2014 (Sheldrick, 2015a)
;
_diffrn_ambient_temperature      193(2)
_diffrn_detector_area_resol_mean 6.67
_diffrn_measured_fraction_theta_full 0.999
_diffrn_measured_fraction_theta_max 0.994
_diffrn_measurement_device       '2-circle goniometer'
_diffrn_measurement_device_type  'STOE IPDS 2T'
_diffrn_measurement_method       'rotation method'
_diffrn_radiation_type           MoK\a
_diffrn_radiation_wavelength     0.71073
_diffrn_reflns_av_R_equivalents  0.0182
_diffrn_reflns_limit_h_max       10
_diffrn_reflns_limit_h_min       -8
_diffrn_reflns_limit_k_max       10
_diffrn_reflns_limit_k_min       -10
_diffrn_reflns_limit_l_max       19
_diffrn_reflns_limit_l_min       -19
_diffrn_reflns_number            7659
_diffrn_reflns_theta_full        25.242
_diffrn_reflns_theta_max         28.072
_diffrn_reflns_theta_min         2.805
_exptl_absorpt_coefficient_mu    0.262
_exptl_absorpt_correction_type   none
_exptl_crystal_colour            colourless
_exptl_crystal_density_diffrn    1.461
_exptl_crystal_description       plate
_exptl_crystal_F_000             372
_exptl_crystal_size_max          0.440
_exptl_crystal_size_mid          0.280
_exptl_crystal_size_min          0.080
_refine_diff_density_max         0.347
_refine_diff_density_min         -0.384
_refine_ls_extinction_method     none
_refine_ls_goodness_of_fit_ref   1.038
_refine_ls_hydrogen_treatment    constr
_refine_ls_matrix_type           full
_refine_ls_number_parameters     227
_refine_ls_number_reflns         3942
_refine_ls_number_restraints     0
_refine_ls_restrained_S_all      1.038
_refine_ls_R_factor_all          0.0464
_refine_ls_R_factor_gt           0.0358
_refine_ls_shift/su_max          0.001
_refine_ls_shift/su_mean         0.000
_refine_ls_structure_factor_coef Fsqd
_refine_ls_weighting_details
'w=1/[\s^2^(Fo^2^)+(0.0509P)^2^+0.2041P] where P=(Fo^2^+2Fc^2^)/3'
_refine_ls_weighting_scheme      calc
_refine_ls_wR_factor_gt          0.0910
_refine_ls_wR_factor_ref         0.0978
_reflns_number_gt                3221
_reflns_number_total             3942
_reflns_threshold_expression     'I > 2\s(I)'
_cod_data_source_file            su4093sup1.cif
_cod_data_source_block           I
_cod_database_code               1544546
_shelx_space_group_comment
;
The symmetry employed for this shelxl refinement is uniquely defined
by the following loop, which should always be used as a source of
symmetry information in preference to the above space-group names.
They are only intended as comments.
;
_shelx_estimated_absorpt_t_min   0.893
_shelx_estimated_absorpt_t_max   0.979
_shelx_hkl_file
;
  -8   5   8    0.19    0.42   0
  -7   2  11    2.23    0.58   0
  -7   3   8    0.29    0.55   0
  -7   4   6   10.25    0.63   0
  -7   8   2   -0.05    0.54   0
  -6   4   3    7.82    0.44   0
  -6   7   0   58.83    0.68   0
  -5   0   9   20.62    1.06   0
  -5   2   4   45.23    0.83   0
  -5   6  -1   59.69    0.75   0
  -5   8  -2    3.31    0.40   0
  -5   9  -2    0.82    0.50   0
  -4   0   6   17.53    0.95   0
  -4   7  -3    9.86    0.57   0
  -3   5  -3   12.42    0.60   0
  -2  -3  11   36.34    0.79   0
  -2   5  -4   16.30    0.65   0
  -2   7  -5    2.26    0.38   0
  -2  10  -5   -0.07    0.45   0
   0   7  -6   46.69    0.75   0
   1  -4   9   76.97    0.86   0
   1   6  -6   46.76    0.81   0
   1   9  -6    1.51    0.60   0
   2  -5  13   73.68    0.73   0
   2  -4   8   33.72    0.70   0
   3  -2   2   48.29    0.83   0
   3   6  -6   42.56    0.85   0
   3   8  -6    6.00    0.58   0
   4  -5  11  146.41    0.89   0
   4  -4   7   11.05    0.43   0
   4  -2   2   67.55    0.77   0
   5  -5  11    3.85    0.39   0
   5  -4   7    3.18    0.53   0
   5  -2   2   16.58    0.59   0
   7  -5  13    3.08    0.45   0
   7   0   0    2.47    0.57   0
   7   2  -2    0.18    0.52   0
   8  -4  10    6.33    0.43   0
   8   0   1    4.35    0.55   0
   8   1   0    3.71    0.61   0
   9  -2   6    3.94    0.48   0
   9  -1   4   -0.59    0.56   0
  -8   6   7    4.67    0.49   0
  -7   7   3   32.56    0.71   0
  -6   5   2    9.23    0.45   0
  -6   6   1   24.47    0.54   0
  -6   8   0   30.40    0.55   0
  -6   9   0    0.22    0.40   0
  -5   4   1    0.53    0.39   0
  -5   5   0    1.82    0.40   0
  -4   2   2  284.35    1.70   0
  -4   8  -3    0.91    0.50   0
  -4   9  -3   12.07    0.57   0
  -3  -3  15   56.19    0.97   0
  -3   3  -1  241.98    1.37   0
  -3   4  -2    1.43    0.55   0
  -3   9  -4    1.63    0.56   0
  -2   2  -1  559.45    2.40   0
  -1   2  -2   58.33    0.96   0
  -1   4  -4    8.75    0.47   0
  -1  10  -5    5.02    0.62   0
   0  -5  18    0.33    0.56   0
   0   8  -6   18.62    0.53   0
   1  -2   3    1.24    0.75   0
   1  -1   1  163.22    1.82   0
   1   4  -5    2.78    0.42   0
   1   8  -6    0.84    0.55   0
   2  -5  12    8.16    0.57   0
   2   6  -6  269.99    1.70   0
   2   8  -6   16.28    0.66   0
   3  -5  11    1.62    0.40   0
   3  -4   7   16.92    0.60   0
   3   7  -6    8.33    0.59   0
   4  -3   4   44.88    0.65   0
   4  -1   0    2.42    0.53   0
   4   4  -5   18.21    0.88   0
   5  -3   4    2.33    0.39   0
   5   6  -5   28.64    1.00   0
   6  -5  11    5.71    0.41   0
   6  -4   7   74.47    0.83   0
   6   1  -2    3.85    0.68   0
   7  -5  12   11.02    0.45   0
   7  -4   8    0.98    0.39   0
   7  -3   5    2.96    0.53   0
   7  -2   3   42.58    0.61   0
   8  -4   9    2.80    0.54   0
   8  -3   6   23.18    0.64   0
   8   2  -1    8.14    0.68   0
   9  -3   8    0.89    0.43   0
  -8   5   9   -0.12    0.55   0
  -7   5   5   14.43    0.53   0
  -7   6   4    0.78    0.52   0
  -7   8   3    0.21    0.56   0
  -6   3   5   18.55    0.54   0
  -6   7   1   52.17    0.73   0
  -5   7  -1   51.26    0.71   0
  -4   6  -2    0.50    0.51   0
  -2  -4  18    3.22    0.53   0
  -2  -2   7   56.76    1.15   0
  -2   3  -2    2.21    0.58   0
  -2   4  -3  347.59    1.54   0
  -1   3  -3    0.17    0.43   0
   0  -5  17    2.40    0.58   0
   0   5  -5   -0.15    0.53   0
   2   7  -6   45.59    0.82   0
   3  -3   4    9.09    0.47   0
   3  -1   0   13.66    0.67   0
   4  -6  16    1.08    0.55   0
   4  -5  10   20.65    0.49   0
   5  -5  10   43.08    0.58   0
   5  -1   0   21.32    0.64   0
   6  -5  10    8.54    0.59   0
   6  -3   4    1.19    0.54   0
   6   0  -1   -0.47    0.48   0
   7  -5  11   -0.81    0.56   0
   7  -1   1    1.26    0.55   0
   8  -1   2   -0.05    0.52   0
   9  -2   5   -0.02    0.55   0
   9   0   2    0.36    0.54   0
   9   1   1   14.16    0.69   0
  -7   2  12    0.56    0.65   0
  -7   3   9    7.95    0.64   0
  -7   4   7   45.03    0.81   0
  -6   1  10    3.85    0.56   0
  -6   8   1    1.64    0.56   0
  -6   9   1    4.73    0.60   0
  -5   8  -1   14.25    0.46   0
  -5   9  -1    3.19    0.42   0
  -4  10  -2    8.83    0.61   0
  -3   0   4    9.56    0.89   0
  -3   6  -3  112.44    0.93   0
  -2  -4  17    0.08    0.57   0
  -2  10  -4    4.64    0.45   0
  -1  -3   8   49.60    0.87   0
  -1   7  -5   90.99    0.91   0
  -1   8  -5   18.81    0.62   0
  -1   9  -5    6.39    0.45   0
   0  -5  16    2.69    0.41   0
   1  -5  13    8.40    0.40   0
   2  -5  11   22.46    0.63   0
   2   4  -5    6.73    0.59   0
   3  -6  16    3.18    0.54   0
   3  -6  17    0.81    0.41   0
   3  -5  10  101.93    0.78   0
   4  -6  15    6.69    0.40   0
   4  -4   6   50.28    0.74   0
   5  -6  15   -0.21    0.42   0
   5  -4   6   17.16    0.45   0
   6   2  -3   14.79    0.95   0
   7  -4   7   98.30    0.79   0
   8  -4   8    1.41    0.54   0
   9  -3   7    0.88    0.41   0
   9  -1   3    1.19    0.54   0
  -7   7   4    1.80    0.43   0
  -6   4   4    2.35    0.38   0
  -6   5   3   13.40    0.63   0
  -6   6   2   28.29    0.56   0
  -5   3   3   21.66    0.65   0
  -5   6   0   25.02    0.52   0
  -4  -2  13    0.71    0.73   0
  -4   3   1  102.00    0.98   0
  -4   5  -1    4.36    0.41   0
  -4   7  -2  175.65    1.00   0
  -4   8  -2   22.81    0.63   0
  -3  -3  14    1.03    0.53   0
  -2  -4  16    5.69    0.61   0
  -2   9  -4   -0.63    0.53   0
   1  -3   5  101.25    1.03   0
   1   3  -4    5.39    0.61   0
   2  -6  17    3.76    0.52   0
   2  -4   7   22.50    0.52   0
   2  -2   2    0.50    0.67   0
   3  -6  15   10.01    0.57   0
   3   4  -5  116.59    1.38   0
   4  -6  14    3.96    0.41   0
   4  -5   9   28.05    0.50   0
   5  -6  14    5.80    0.43   0
   5  -5   9    0.49    0.36   0
   6  -6  14    0.49    0.41   0
   6  -5   9   76.77    0.70   0
   6  -4   6   40.26    0.57   0
   7  -5  10   -0.74    0.39   0
   7  -3   4   47.41    0.71   0
   8  -5  11    1.39    0.43   0
   8  -3   5   49.57    0.80   0
   8  -2   3    6.78    0.52   0
  -7   5   6    1.66    0.44   0
  -7   6   5   48.76    0.68   0
  -7   8   4   -0.04    0.42   0
  -6   7   2   10.87    0.61   0
  -5   4   2   17.49    0.64   0
  -5   5   1   21.24    0.60   0
  -5   7   0   19.02    0.61   0
  -4   4   0    3.03    0.41   0
  -3   7  -3   46.30    0.60   0
  -3   8  -3   16.97    0.57   0
  -3   9  -3   14.05    0.50   0
  -2  -3  10    4.91    0.56   0
  -2   7  -4   81.51    0.73   0
  -2   8  -4   29.14    0.53   0
  -1  -2   5   87.07    1.30   0
   0   6  -5   25.14    0.66   0
   0   8  -5   14.05    0.63   0
   1   9  -5    7.24    0.59   0
   2  -6  16    0.60    0.56   0
   2  -5  10   16.46    0.59   0
   2  -3   4  461.18    1.87   0
   2   9  -5    1.87    0.44   0
   3  -6  14    2.01    0.51   0
   3  -5   9   42.78    0.67   0
   3  -4   6   69.18    0.70   0
   4  -6  13   11.32    0.59   0
   5  -6  13   11.61    0.46   0
   5  -3   3    6.73    0.57   0
   6  -6  13    9.66    0.45   0
   6  -1   0    0.97    0.36   0
   6   6  -4    0.34    0.69   0
   7  -5   9   10.39    0.59   0
   7  -4   6   -0.34    0.54   0
   7  -2   2    1.86    0.52   0
   8  -5  10    2.30    0.54   0
   8  -4   7   54.26    0.79   0
   9  -3   6    1.88    0.57   0
   9  -2   4    2.15    0.54   0
  -7   2  13    6.85    0.67   0
  -7   3  10    2.32    0.58   0
  -7   4   8    4.88    0.57   0
  -7   7   5   19.36    0.63   0
  -6   0  15    0.17    0.75   0
  -6   3   6    1.52    0.54   0
  -6   8   2    1.52    0.40   0
  -6   9   2    1.94    0.41   0
  -5   8   0    7.32    0.43   0
  -5   9   0    0.89    0.41   0
  -4   6  -1   17.53    0.58   0
  -4  10  -1    2.11    0.44   0
  -3   5  -2    9.02    0.42   0
  -2  -4  15  105.02    1.15   0
  -2   5  -3   15.97    0.61   0
  -2  10  -3    6.49    0.54   0
   0  -4   9    4.66    0.53   0
   0  -3   6  163.00    1.23   0
   0   4  -4  320.31    1.67   0
   0   7  -5   94.58    0.83   0
   1   5  -5   23.65    0.57   0
   2  -6  15   13.90    0.62   0
   3  -6  13   20.27    0.59   0
   3   8  -5    3.63    0.59   0
   4  -6  12    2.45    0.50   0
   4  -5   8   17.13    0.54   0
   4  -3   3   26.14    0.55   0
   4  -2   1   23.80    0.63   0
   4   5  -5    1.33    0.61   0
   4   7  -5    0.06    0.52   0
   5  -6  12    3.76    0.39   0
   5  -5   8   56.60    0.62   0
   5  -4   5    1.90    0.53   0
   5  -2   1   28.88    0.67   0
   6  -6  12    1.55    0.54   0
   6  -5   8   64.91    0.77   0
   6  -3   3   12.68    0.59   0
   6   5  -4    7.41    0.91   0
   8   0   0   16.68    0.65   0
   9  -4   8    2.29    0.58   0
  -7   5   7    0.43    0.55   0
  -7   6   6    6.98    0.58   0
  -7   8   5    4.34    0.47   0
  -6   6   3    0.15    0.39   0
  -5   2   5    0.22    0.49   0
  -5   6   1    2.71    0.52   0
  -4   9  -1   20.49    0.61   0
  -3  -3  13    4.47    0.64   0
  -3   2   1   23.17    0.75   0
  -3   4  -1    4.64    0.56   0
  -1  -5  18   23.73    0.74   0
  -1   6  -4   26.80    0.68   0
  -1   9  -4    1.83    0.40   0
   0  -5  13    2.13    0.53   0
   1  -6  17   17.88    0.65   0
   1  -6  18    4.45    0.47   0
   1   1  -2  225.64    3.40   0
   1   2  -3  535.70    3.17   0
   1   6  -5    1.31    0.57   0
   1   8  -5    1.30    0.39   0
   2  -6  14    1.30    0.47   0
   2  -1   0 3918.42    7.47   0
   2   8  -5   25.51    0.69   0
   4  -4   5    0.18    0.36   0
   4   6  -5   20.72    0.75   0
   5  -6  11   13.30    0.56   0
   6  -6  11    0.66    0.50   0
   6  -4   5   30.31    0.52   0
   7  -6  12    2.41    0.41   0
   7  -5   8    8.53    0.62   0
   8  -5   9    2.37    0.57   0
   8  -3   4    4.03    0.55   0
   8  -1   1   74.62    0.96   0
   8   1  -1    0.03    0.60   0
   8   3  -2    0.46    0.91   0
   9  -1   2    0.32    0.51   0
  -7   2  14    0.44    0.67   0
  -7   7   6    0.32    0.57   0
  -6   1  11   31.33    0.91   0
  -6   4   5    0.36    0.39   0
  -6   5   4    2.54    0.38   0
  -6   7   3   30.43    0.67   0
  -6   8   3    0.11    0.56   0
  -6   9   3    0.36    0.42   0
  -5   9   1    5.63    0.54   0
  -4   5   0   71.34    0.82   0
  -4   7  -1  156.00    0.95   0
  -4   8  -1    2.34    0.38   0
  -4  10   0    0.90    0.56   0
  -3  -2   9    0.21    0.64   0
  -3   3   0   11.70    0.63   0
  -3   6  -2  103.08    0.81   0
  -3   9  -2    4.82    0.42   0
  -2  -4  14   79.80    1.04   0
  -2   9  -3   17.21    0.49   0
  -1   7  -4    0.51    0.50   0
  -1  10  -3   19.80    0.64   0
   1  -6  16    9.50    0.57   0
   1  -4   7    2.10    0.51   0
   1   7  -5   17.88    0.52   0
   2  -5   9   90.83    0.87   0
   2  -4   6   94.64    0.82   0
   2   5  -5   54.26    0.83   0
   2   7  -5   46.23    0.82   0
   3  -6  12    0.68    0.51   0
   3  -3   3    0.01    0.42   0
   3   5  -5    0.32    0.51   0
   3   7  -5    7.51    0.61   0
   4  -6  11   -0.53    0.51   0
   5  -5   7   28.41    0.60   0
   7  -6  11    4.17    0.56   0
   7  -4   5   -0.51    0.54   0
   7  -3   3    3.03    0.51   0
   7  -1   0   12.72    0.63   0
   7   0  -1   12.51    0.61   0
   8  -4   6   20.31    0.51   0
   8  -2   2    4.23    0.51   0
   9  -4   7    2.01    0.57   0
   9  -3   5    3.86    0.43   0
  -7   3  11    4.24    0.58   0
  -7   4   9   -0.11    0.50   0
  -7   6   7    2.61    0.59   0
  -5   3   4    9.69    0.59   0
  -5   5   2   24.98    0.63   0
  -5   7   1   59.61    0.67   0
  -5   8   1    1.07    0.37   0
  -4   2   3   83.97    0.93   0
  -3   7  -2   19.64    0.48   0
  -3   8  -2   16.17    0.46   0
  -3  10  -1   12.90    0.56   0
  -2   1   1  905.38    3.82   0
  -2   4  -2  109.85    0.92   0
  -2   7  -3  138.46    0.90   0
  -2   8  -3    0.43    0.36   0
  -2  10  -2    1.31    0.50   0
  -1  -5  16   14.13    0.62   0
   1   9  -4   19.58    0.70   0
   2  -6  13    0.69    0.39   0
   2   6  -5   76.28    0.95   0
   2   9  -4    7.84    0.64   0
   3  -4   5    3.25    0.41   0
   3  -2   1   61.33    0.81   0
   3   6  -5   47.55    0.85   0
   4  -5   7   23.52    0.59   0
   5  -6  10    1.17    0.52   0
   5   3  -4   22.33    1.52   0
   6  -6  10    0.20    0.52   0
   6  -5   7   42.72    0.58   0
   7  -5   7    4.13    0.53   0
   7   1  -2   -0.19    0.60   0
   8  -5   8    0.18    0.38   0
   9  -2   3    3.54    0.45   0
   9   1   0    5.55    0.67   0
  -7   5   8    0.16    0.41   0
  -7   7   7    3.01    0.54   0
  -6   3   7   -0.01    0.55   0
  -6   6   4    0.66    0.41   0
  -5   4   3    5.40    0.42   0
  -5   9   2    0.44    0.53   0
  -4   3   2   10.09    0.53   0
  -4   4   1   25.02    0.54   0
  -4   6   0   48.92    0.71   0
  -4   9   0   -1.06    0.40   0
  -1  -5  15    7.27    0.56   0
  -1   9  -3   15.26    0.59   0
   0   3  -3  202.17    1.51   0
   0   5  -4  155.07    1.07   0
   0   8  -4   11.15    0.46   0
   2   3  -4   26.49    0.82   0
   3  -6  11    4.85    0.38   0
   4  -7  15    0.70    0.53   0
   4  -6  10    7.58    0.51   0
   4   0  -2    5.47    0.63   0
   5  -7  14    7.70    0.54   0
   5  -4   4   17.21    0.59   0
   5  -3   2    0.64    0.50   0
   5   0  -2    2.35    0.53   0
   5   7  -4   -0.22    0.56   0
   6  -4   4   34.07    0.65   0
   7  -6  10   13.97    0.47   0
   7  -2   1    7.86    0.56   0
   9  -4   6    0.80    0.52   0
  -7   3  12    1.02    0.62   0
  -7   4  10    0.47    0.57   0
  -7   6   8    2.53    0.60   0
  -6   0  16    0.21    0.75   0
  -6   4   6   59.68    0.86   0
  -6   5   5    7.56    0.41   0
  -6   7   4   13.18    0.48   0
  -6   8   4    0.15    0.38   0
  -5   6   2    6.11    0.41   0
  -5   8   2    1.11    0.53   0
  -4   7   0   63.84    0.68   0
  -4   8   0    9.82    0.42   0
  -3   5  -1   34.63    0.56   0
  -3   9  -1   32.98    0.56   0
  -2  -4  13   13.71    0.64   0
  -2   3  -1  130.32    1.07   0
  -2   9  -2    0.54    0.42   0
  -1  -4  10   53.78    0.81   0
  -1  -3   7    0.06    0.42   0
  -1  10  -2    3.56    0.56   0
   0   6  -4  241.29    1.38   0
   0   7  -4   63.29    0.79   0
   1  -6  14    2.02    0.56   0
   1  -3   4 1022.40    2.90   0
   1   4  -4    1.92    0.51   0
   1   8  -4    1.19    0.58   0
   2  -6  12   10.98    0.44   0
   2  -5   8    2.45    0.52   0
   3  -7  16    6.67    0.60   0
   4  -7  14    0.05    0.53   0
   4  -4   4   13.57    0.59   0
   4  -3   2   93.80    0.92   0
   4   1  -3    0.37    0.77   0
   5  -6   9   -0.07    0.50   0
   5  -5   6   -0.59    0.46   0
   5  -1  -1   22.85    0.66   0
   6  -7  13    2.44    0.58   0
   6  -6   9    0.09    0.49   0
   6  -5   6   11.47    0.58   0
   7  -4   4    5.35    0.52   0
   8  -6  10    2.54    0.58   0
   8  -5   7   62.94    0.81   0
   8  -3   3    0.19    0.37   0
   9  -3   4    1.42    0.39   0
  -7   5   9    0.32    0.43   0
  -7   7   8    0.04    0.48   0
  -6   6   5   16.24    0.61   0
  -5   0  10   13.39    0.80   0
  -5   7   2    2.46    0.40   0
  -4   9   1    1.65    0.54   0
  -3   6  -1   11.85    0.56   0
  -3   8  -1    2.01    0.38   0
  -2  -3   9   13.15    0.65   0
  -2   2   0  376.38    1.98   0
  -2   5  -2   73.20    0.72   0
  -2   8  -2   31.50    0.64   0
  -2  10  -1   -0.40    0.40   0
  -1  -5  14   17.66    0.61   0
  -1   3  -2   -0.04    0.42   0
  -1   8  -3    1.42    0.36   0
   0  -6  17   24.98    0.72   0
   1  -2   2   55.60    1.06   0
   2  -3   3    8.20    0.47   0
   3  -7  15   26.10    0.66   0
   3  -6  10    4.05    0.54   0
   3   8  -4    0.12    0.42   0
   4  -6   9    7.76    0.54   0
   4  -1  -1  352.03    1.91   0
   5  -7  13   15.92    0.47   0
   7  -6   9   16.27    0.48   0
   7  -5   6   42.96    0.68   0
   7  -3   2    0.97    0.45   0
   9  -1   1    0.65    0.54   0
  -7   3  13    1.97    0.57   0
  -7   4  11    1.72    0.56   0
  -7   6   9    1.56    0.54   0
  -6   1  12    6.50    0.58   0
  -6   7   5    6.29    0.41   0
  -6   8   5    1.75    0.39   0
  -5   2   6    0.05    0.45   0
  -5   5   3   25.02    0.52   0
  -5   9   3    1.02    0.39   0
  -4   5   1   -0.05    0.38   0
  -3  -3  12   10.65    0.73   0
  -3   4   0   10.16    0.58   0
  -3   7  -1   48.54    0.60   0
  -2   6  -2  222.75    1.23   0
  -2   7  -2   76.41    0.81   0
  -1   6  -3    2.38    0.38   0
  -1   7  -3   35.12    0.57   0
   0  -6  16    8.40    0.57   0
   0  -5  11   38.98    0.62   0
   0  -2   3  393.17    2.37   0
   1  -6  13   14.20    0.47   0
   1  -4   6   13.77    0.54   0
   1   7  -4    1.81    0.53   0
   1   9  -3    0.36    0.58   0
   2  -6  11   -0.20    0.37   0
   2  -4   5   38.77    0.61   0
   3  -7  14   16.12    0.59   0
   4  -7  13    0.82    0.39   0
   4  -5   6   28.69    0.51   0
   4   7  -4   -0.10    0.56   0
   5  -7  12   11.64    0.43   0
   5  -2   0   44.56    0.74   0
   5   1  -3    7.42    0.75   0
   5   6  -4   -0.36    0.58   0
   6  -7  12    7.75    0.45   0
   6  -6   8   -0.03    0.49   0
   6   0  -2    0.27    0.50   0
   8  -6   9    2.72    0.43   0
   8  -4   4   18.43    0.59   0
   8  -2   1    1.05    0.51   0
   8  -1   0    2.90    0.41   0
   9  -5   7    9.45    0.63   0
   9  -4   5   32.77    0.59   0
   9  -2   2    6.31    0.45   0
   9   0   0    7.24    0.65   0
  -7   5  10    1.78    0.44   0
  -6   3   8    3.58    0.42   0
  -6   4   7    2.57    0.57   0
  -6   5   6    2.91    0.38   0
  -6   8   6    1.46    0.56   0
  -5   3   5   79.05    0.96   0
  -5   4   4   17.95    0.62   0
  -5   6   3  139.62    1.00   0
  -5   7   3   40.29    0.68   0
  -5   8   3   10.49    0.45   0
  -4   6   1    4.03    0.52   0
  -4   7   1   40.53    0.67   0
  -4   8   1    0.99    0.38   0
  -3   9   0   11.35    0.43   0
  -2   9  -1    1.50    0.50   0
  -2  10   0    0.81    0.55   0
  -1   2  -1  918.22    3.28   0
  -1   9  -2   12.29    0.45   0
   0   2  -2  552.53    2.79   0
   0   8  -3    9.25    0.57   0
   1   5  -4    4.17    0.53   0
   1   6  -4   89.14    0.94   0
   2  -7  16    6.96    0.44   0
   2  -2   1  531.67    2.34   0
   2   7  -4    1.54    0.54   0
   3  -4   4  177.61    1.05   0
   3  -3   2  282.44    1.45   0
   3   0  -2  251.34    2.45   0
   3   3  -4    3.08    0.66   0
   4  -7  12    0.31    0.54   0
   5  -6   8   23.84    0.47   0
   5  -4   3    2.41    0.50   0
   6  -7  11   -1.20    0.52   0
   6  -5   5    5.00    0.54   0
   6  -4   3    0.28    0.51   0
   6  -2   0   26.01    0.67   0
   7  -7  11   10.05    0.58   0
   7  -6   8    1.81    0.39   0
   8  -5   6   22.45    0.50   0
   8   0  -1    1.63    0.54   0
   9  -3   3    0.36    0.54   0
  -7   4  12    0.71    0.55   0
  -7   5  11    0.02    0.59   0
  -7   6  10    0.52    0.42   0
  -6   2  10    1.56    0.49   0
  -6   6   6    0.65    0.38   0
  -6   7   6    4.94    0.52   0
  -5   9   4    1.78    0.41   0
  -4   4   2    4.54    0.42   0
  -4   9   2    0.73    0.38   0
  -3  -4  17    2.26    0.65   0
  -3   3   1   87.96    0.95   0
  -3   8   0   -0.15    0.49   0
  -2  -4  12    9.16    0.54   0
  -1  -5  13   28.66    0.71   0
   0  -6  15   -0.21    0.39   0
   0   4  -3    3.98    0.50   0
   2  -7  15    1.11    0.40   0
   2  -6  10   17.24    0.57   0
   2  -5   7    4.03    0.38   0
   3  -7  13   -0.26    0.36   0
   3  -5   6    0.91    0.37   0
   3   7  -4    3.02    0.40   0
   4  -6   8   51.87    0.59   0
   4  -2   0   40.61    0.64   0
   5  -7  11    1.30    0.38   0
   5  -5   5   13.33    0.42   0
   7  -5   5    5.67    0.41   0
   7  -1  -1    1.22    0.49   0
   7   4  -3    1.46    1.03   0
   8  -6   8   -0.60    0.39   0
   8  -3   2    3.73    0.37   0
  -6   5   7    3.62    0.57   0
  -6   8   7    2.21    0.55   0
  -5   5   4    6.41    0.53   0
  -5   8   4    0.73    0.39   0
  -4  -2  12    0.60    1.08   0
  -4   0   7    0.05    0.59   0
  -4   2   4   14.42    0.61   0
  -4   3   3   70.28    0.85   0
  -4   8   2    3.62    0.54   0
  -3   2   2  137.93    1.26   0
  -3   5   0  114.26    0.84   0
  -3   7   0    1.47    0.50   0
  -3   9   1    2.54    0.55   0
  -2   4  -1   37.35    0.62   0
  -2   8  -1   15.31    0.45   0
  -1  -4   9   41.48    0.75   0
  -1   4  -2   27.06    0.66   0
  -1   8  -2    6.73    0.41   0
   0  -5  10    1.63    0.53   0
   0  -4   7   37.30    0.72   0
   0   7  -3  109.64    0.93   0
   0   9  -2    4.00    0.42   0
   1  -5   8    1.72    0.49   0
   1   8  -3    1.59    0.54   0
   2  -7  14    2.34    0.54   0
   2   4  -4   52.50    0.87   0
   2   6  -4    4.98    0.58   0
   3  -7  12   31.07    0.63   0
   3  -1  -1   99.96    1.16   0
   4  -7  11    0.84    0.52   0
   4  -5   5   68.01    0.76   0
   4  -4   3  151.15    0.96   0
   4   3  -4    0.03    0.72   0
   4   6  -4   61.76    0.98   0
   5  -3   1    1.54    0.53   0
   6  -7  10    2.05    0.39   0
   6  -6   7   11.20    0.44   0
   6  -3   1   18.71    0.62   0
   7  -7  10    1.21    0.38   0
   7  -6   7    2.30    0.38   0
   7  -2   0    0.28    0.36   0
   8  -5   5    6.82    0.55   0
   9  -5   6    3.86    0.46   0
   9  -4   4    0.15    0.41   0
  -6   1  13    1.15    0.52   0
  -6   3   9   40.87    0.80   0
  -6   4   8   -0.45    0.52   0
  -6   6   7    1.21    0.54   0
  -6   7   7   13.37    0.49   0
  -5   6   4   13.37    0.56   0
  -5   7   4    3.61    0.38   0
  -4  -3  17   20.09    1.05   0
  -4   5   2    1.83    0.49   0
  -4   7   2   29.63    0.61   0
  -4   9   3    0.02    0.38   0
  -3   6   0   11.47    0.41   0
  -2  -5  17    1.10    0.54   0
  -2   7  -1   64.29    0.75   0
  -1   7  -2    4.98    0.53   0
  -1   9  -1    0.63    0.39   0
   0  -6  14    4.27    0.40   0
   0   5  -3  128.99    1.03   0
   0   6  -3   29.87    0.69   0
   1  -6  11   41.45    0.66   0
   1   9  -2    0.59    0.41   0
   2   5  -4   24.60    0.64   0
   3  -6   8    8.34    0.49   0
   3   6  -4    9.05    0.59   0
   3   8  -3    6.30    0.47   0
   5  -7  10   28.51    0.51   0
   5   4  -4    4.25    0.69   0
   6   6  -3    6.80    0.75   0
   7  -3   1    1.66    0.50   0
   7   0  -2   17.28    0.73   0
   8  -6   7    1.73    0.40   0
   8  -4   3    4.49    0.41   0
   9  -2   1   12.39    0.59   0
   9   1  -1   -0.32    0.68   0
  -6   2  11   15.07    0.68   0
  -5   2   7   34.47    0.72   0
  -5   4   5   99.63    0.94   0
  -5   8   5   11.18    0.56   0
  -4   6   2    7.63    0.40   0
  -3  -4  16    2.55    0.56   0
  -3   8   1   37.46    0.63   0
  -2  -5  16   -0.12    0.63   0
  -2  -2   6    4.19    0.76   0
  -2   5  -1    1.45    0.36   0
  -2   6  -1    5.74    0.39   0
  -1  -5  12   59.17    0.88   0
  -1   5  -2    5.78    0.52   0
  -1   6  -2   89.35    0.90   0
   1  -7  16   17.94    0.54   0
   1   3  -3  153.99    1.41   0
   1   7  -3    2.89    0.52   0
   2  -7  13    4.47    0.40   0
   2  -6   9   49.91    0.71   0
   2  -4   4  174.16    1.14   0
   3  -7  11    5.02    0.49   0
   3  -2   0    4.59    0.57   0
   4  -7  10    6.74    0.53   0
   4  -6   7   50.68    0.59   0
   4  -3   1  126.98    0.94   0
   5  -5   4   10.59    0.51   0
   6  -7   9   -0.49    0.38   0
   6  -5   4   14.27    0.43   0
   6   1  -3    2.82    0.67   0
   7  -7   9    2.31    0.40   0
   7  -5   4   -0.40    0.50   0
   8   1  -2    0.14    0.60   0
   9  -5   5    0.92    0.56   0
   9  -3   2   15.73    0.64   0
  -6   5   8    0.41    0.42   0
  -6   6   8    0.63    0.55   0
  -6   7   8    3.06    0.45   0
  -5   3   6   11.75    0.47   0
  -5   7   5   -0.23    0.53   0
  -4   8   3    0.94    0.37   0
  -4   9   4   -0.06    0.39   0
  -3   4   1   18.42    0.59   0
  -3   9   2    3.05    0.42   0
  -2   3   0    5.04    0.59   0
  -2   8   0    1.83    0.49   0
  -1  -6  17    0.26    0.56   0
  -1  -3   6  345.58    2.00   0
  -1   8  -1    7.15    0.54   0
   0  -6  13    0.54    0.38   0
   0   9  -1   -0.17    0.42   0
   1  -7  15    2.41    0.56   0
   1  -4   5    3.90    0.41   0
   2  -5   6   17.37    0.59   0
   3  -5   5    0.45    0.49   0
   3  -4   3   29.73    0.56   0
   3   4  -4   27.48    0.74   0
   3   5  -4    1.03    0.37   0
   4  -8  14    7.85    0.44   0
   4   4  -4    0.74    0.61   0
   5  -8  13    2.78    0.40   0
   5  -7   9   -0.04    0.38   0
   5  -6   6   35.59    0.64   0
   5  -4   2   99.29    0.90   0
   6  -8  12    4.92    0.57   0
   6  -4   2   13.27    0.46   0
   7  -6   6   13.79    0.46   0
   7  -4   2    5.55    0.51   0
   7   2  -3    4.02    0.99   0
   8  -6   6   -0.58    0.49   0
   8  -5   4   15.18    0.57   0
   8  -3   1    1.00    0.50   0
   8  -2   0    1.95    0.39   0
   8  -1  -1   -0.33    0.49   0
   9  -4   3    0.28    0.51   0
  -6   1  14    0.16    0.53   0
  -6   3  10    0.15    0.51   0
  -6   4   9    2.55    0.51   0
  -6   7   9    1.74    0.53   0
  -5  -1  14    3.68    0.89   0
  -5   5   5   -0.45    0.37   0
  -5   6   5    7.81    0.44   0
  -5   8   6    0.77    0.41   0
  -4   4   3   19.84    0.51   0
  -4   7   3   11.19    0.54   0
  -3   5   1    0.17    0.51   0
  -3   6   1  304.21    1.31   0
  -3   7   1   26.46    0.51   0
  -2  -4  11   12.31    0.59   0
  -1  -2   4   89.60    1.36   0
   1  -6  10   13.72    0.59   0
   1  -3   3    0.40    0.41   0
   1   6  -3  104.06    0.97   0
   1   8  -2    5.94    0.54   0
   1   9  -1   14.80    0.64   0
   2  -7  12    4.85    0.39   0
   2  -3   2    2.49    0.42   0
   2   7  -3    9.08    0.56   0
   3  -8  15    2.05    0.40   0
   3   7  -3   24.45    0.69   0
   4  -8  13   18.13    0.60   0
   4  -7   9   58.35    0.71   0
   4  -5   4    2.94    0.50   0
   4   7  -3    0.83    0.39   0
   5  -8  12    4.99    0.54   0
   6  -7   8    0.25    0.50   0
   7  -7   8    8.77    0.44   0
  -6   2  12    5.13    0.58   0
  -6   5   9    8.13    0.58   0
  -6   6   9    0.61    0.41   0
  -5   0  11    2.55    0.60   0
  -5   7   6   11.72    0.60   0
  -4  -3  16   12.20    1.03   0
  -4   5   3    0.41    0.37   0
  -4   6   3   48.51    0.60   0
  -4   8   4    4.41    0.39   0
  -4   9   5    0.64    0.41   0
  -3  -4  15    0.59    0.50   0
  -3  -3  11   15.65    0.79   0
  -3   8   2   17.79    0.47   0
  -3   9   3   13.79    0.46   0
  -2  -5  15    0.50    0.51   0
  -2  -3   8  146.43    1.49   0
  -2   7   0   38.46    0.54   0
  -1  -6  16    4.74    0.45   0
  -1   7  -1   33.45    0.65   0
   0   7  -2   -0.34    0.37   0
   1  -7  14   30.28    0.57   0
   1  -5   7    0.72    0.36   0
   2  -6   8  100.93    0.87   0
   2   2  -3    7.07    0.68   0
   2   8  -2    3.40    0.54   0
   3  -8  14    4.83    0.57   0
   3  -6   7    0.33    0.33   0
   3  -3   1  260.27    1.41   0
   4  -6   6   49.51    0.69   0
   4  -4   2  280.07    1.35   0
   5  -2  -1    1.35    0.45   0
   6  -8  11    8.82    0.45   0
   6  -6   5    4.00    0.51   0
   7  -6   5    4.85    0.49   0
   8  -7   8    0.31    0.40   0
   9  -6   6    8.43    0.47   0
   9  -5   4   11.52    0.59   0
   9   0  -1    1.34    0.58   0
  -6   1  15   -0.19    0.57   0
  -6   3  11    0.51    0.53   0
  -6   4  10    0.18    0.52   0
  -6   6  10    2.04    0.56   0
  -5   4   6    4.55    0.41   0
  -5   5   6    7.58    0.54   0
  -5   6   6   24.76    0.63   0
  -5   8   7   10.27    0.47   0
  -4   3   4    3.01    0.39   0
  -3   3   2    2.59    0.50   0
  -2   4   0   64.31    0.81   0
  -2   6   0    4.13    0.52   0
  -2   8   1    0.08    0.47   0
  -1  -5  11    6.58    0.43   0
  -1  -4   8   28.49    0.60   0
  -1   3  -1  236.04    1.42   0
  -1   8   0   12.70    0.57   0
   0  -4   6  186.23    1.28   0
   0  -3   4    0.36    0.56   0
   0   3  -2  135.85    1.17   0
   0   6  -2    0.80    0.55   0
   0   9   0    0.11    0.41   0
   1  -1   0   37.19    1.17   0
   1   5  -3    0.34    0.36   0
   2  -7  11   53.12    0.75   0
   4  -8  12   -0.07    0.38   0
   5  -8  11   -0.11    0.37   0
   5  -6   5   24.35    0.57   0
   5  -1  -2    4.97    0.55   0
   5   6  -3    0.21    0.56   0
   6  -8  10    3.49    0.52   0
   6  -5   3   22.80    0.45   0
   6  -3   0   46.53    0.74   0
   6  -1  -2    2.67    0.49   0
   7  -7   7    2.34    0.52   0
   7  -5   3    0.35    0.35   0
   7  -2  -1    4.34    0.50   0
   8  -6   5    7.01    0.57   0
   9  -3   1    0.69    0.53   0
  -6   5  10    0.24    0.40   0
  -5   2   8   17.88    0.65   0
  -5   3   7   47.02    0.74   0
  -5   7   7    5.97    0.59   0
  -5   8   8    4.86    0.43   0
  -4   2   5    0.49    0.49   0
  -4   7   4    2.95    0.39   0
  -4   8   5    3.49    0.50   0
  -3   7   2    0.75    0.33   0
  -3   8   3   10.67    0.53   0
  -3   9   4   10.36    0.46   0
  -2   2   1  109.83    1.12   0
  -2   5   0    0.13    0.35   0
  -1  -6  15   15.87    0.51   0
  -1   6  -1  241.94    1.17   0
   0  -7  16    6.44    0.54   0
   1  -7  13    0.33    0.41   0
   1  -6   9    0.45    0.50   0
   1   0  -1   35.53    1.81   0
   1   7  -2    0.27    0.46   0
   1   9   0    7.23    0.54   0
   2  -8  15   16.19    0.64   0
   2   6  -3   58.88    0.73   0
   3  -8  13    2.56    0.41   0
   3  -7   9    0.98    0.51   0
   4  -7   8   15.11    0.45   0
   5  -5   3   20.43    0.47   0
   5  -3   0  100.50    0.85   0
   6  -7   7   67.34    0.65   0
   6   5  -3    0.91    0.52   0
   7  -3   0    0.44    0.34   0
   8  -7   7   -0.59    0.37   0
   8  -5   3    1.64    0.37   0
   8   0  -2    5.90    0.63   0
   9  -4   2    3.24    0.54   0
   9  -2   0    1.89    0.38   0
  -6   2  13    0.04    0.40   0
  -6   3  12   -0.34    0.51   0
  -6   4  11    0.13    0.50   0
  -6   5  11    0.67    0.56   0
  -6   6  11    0.35    0.44   0
  -5   6   7   19.67    0.61   0
  -4   4   4   94.48    0.91   0
  -4   6   4    6.11    0.38   0
  -3   4   2  114.87    0.96   0
  -3   6   2   24.72    0.58   0
  -2  -5  14    3.52    0.54   0
  -2   7   1   40.27    0.65   0
  -2   9   3    1.28    0.53   0
  -1   4  -1  286.36    1.39   0
  -1   5  -1   16.87    0.47   0
   0  -6  11  117.00    1.04   0
   0  -5   8    3.75    0.55   0
   0   4  -2    0.72    0.33   0
   0   9   1    0.26    0.55   0
   2  -5   5   66.63    0.69   0
   2  -4   3  332.50    1.51   0
   3  -8  12    0.63    0.48   0
   3  -6   6   11.88    0.55   0
   3  -5   4   19.11    0.46   0
   3   6  -3   40.75    0.77   0
   4  -8  11    2.37    0.41   0
   4  -2  -1    5.60    0.38   0
   4   6  -3    6.10    0.55   0
   5  -8  10    5.88    0.41   0
   5  -7   7    4.63    0.38   0
   6  -8   9    5.71    0.51   0
   6  -4   1   28.41    0.55   0
   7  -8   9   -0.02    0.40   0
   7  -4   1    0.35    0.35   0
   7  -1  -2    0.01    0.46   0
   8  -3   0    0.26    0.45   0
   9  -6   5   -0.72    0.42   0
   9  -5   3    3.07    0.51   0
  -6   2  14    1.44    0.57   0
  -5   4   7    0.31    0.38   0
  -5   5   7    0.07    0.45   0
  -5   7   8    0.31    0.36   0
  -4   5   4    1.47    0.36   0
  -4   7   5   17.95    0.57   0
  -4   8   6    0.86    0.41   0
  -3  -4  14    6.34    0.65   0
  -3   0   5    1.49    0.68   0
  -3   2   3    0.68    0.39   0
  -3   5   2    0.70    0.35   0
  -3   7   3    0.32    0.49   0
  -3   8   4    0.42    0.53   0
  -3   9   5   -0.12    0.41   0
  -2  -4  10   85.62    1.13   0
  -2   8   2    1.50    0.37   0
  -1  -6  14   14.63    0.61   0
  -1   7   0    9.01    0.52   0
  -1   9   2    3.91    0.41   0
   0  -7  15    2.01    0.58   0
   0   7  -1    6.98    0.39   0
   1  -7  12   19.08    0.52   0
   1  -5   6    0.48    0.51   0
   1  -4   4    8.04    0.53   0
   1  -2   1 1006.11    3.38   0
   2  -8  14    2.85    0.42   0
   2  -6   7   32.08    0.53   0
   2   5  -3    7.35    0.54   0
   2   7  -2    1.96    0.38   0
   2   8  -1    0.47    0.51   0
   3  -4   2    1.81    0.39   0
   3   8  -1    0.64    0.54   0
   4  -6   5    5.28    0.36   0
   4  -5   3    0.66    0.34   0
   4  -3   0   49.73    0.66   0
   4  -1  -2 1246.68    3.66   0
   4   7  -2    3.27    0.56   0
   5  -4   1    0.39    0.38   0
   6  -7   6   12.80    0.57   0
   6  -6   4   32.72    0.54   0
   7  -7   6   11.19    0.44   0
   7  -6   4    8.41    0.42   0
   7   1  -3    0.22    0.71   0
   8  -7   6    0.58    0.52   0
   8  -6   4   13.48    0.55   0
   8  -4   1    0.49    0.51   0
   8  -2  -1    7.61    0.55   0
   9  -1  -1    0.61    0.55   0
  -6   3  13    0.21    0.56   0
  -6   4  12    2.38    0.43   0
  -6   5  12    3.23    0.45   0
  -5   3   8   28.72    0.68   0
  -5   6   8    0.07    0.50   0
  -5   7   9    0.24    0.53   0
  -4   8   7    1.57    0.55   0
  -2   1   2  407.70    2.47   0
  -2   6   1   88.46    0.82   0
  -2   9   4    1.69    0.51   0
   1   6  -2   45.45    0.72   0
   1   9   1    0.25    0.39   0
   2  -8  13    2.70    0.50   0
   2  -2   0  363.50    1.91   0
   2  -1  -1  862.43    3.57   0
   3  -8  11    0.07    0.47   0
   3  -7   8   13.71    0.46   0
   3   7  -2    0.43    0.38   0
   4  -8  10    0.97    0.38   0
   4  -7   7    8.47    0.42   0
   5  -8   9    3.99    0.40   0
   5  -7   6    3.57    0.47   0
   5  -6   4   24.66    0.47   0
   6  -5   2   21.81    0.46   0
   7  -8   8    3.86    0.41   0
   7  -5   2    1.92    0.36   0
   8  -5   2    6.17    0.50   0
   9  -6   4    2.09    0.54   0
  -6   2  15    0.64    0.52   0
  -6   4  13   26.60    0.70   0
  -5  -1  15   17.15    1.00   0
  -5   0  12   20.76    0.81   0
  -5   2   9    1.24    0.53   0
  -5   5   8   15.43    0.58   0
  -4   3   5   20.44    0.52   0
  -4   6   5    0.35    0.33   0
  -4   7   6   10.49    0.56   0
  -3   6   3   48.76    0.69   0
  -3   8   5   19.87    0.60   0
  -2  -5  13   32.51    0.77   0
  -2   3   1  138.51    1.14   0
  -2   7   2   15.83    0.59   0
  -2   8   3    2.22    0.51   0
  -1  -6  13    9.60    0.56   0
  -1   6   0   22.97    0.61   0
  -1   9   3    3.11    0.40   0
   0  -7  14   17.30    0.67   0
   0  -6  10   18.14    0.61   0
   0   9   2    0.65    0.42   0
   1  -7  11    1.39    0.55   0
   1  -6   8    9.28    0.59   0
   1   7  -1   13.80    0.55   0
   2  -7   9    0.19    0.52   0
   2   3  -3    0.53    0.53   0
   3   5  -3  170.20    1.32   0
   4  -4   1   60.65    0.67   0
   5  -5   2   56.75    0.62   0
   5   5  -3    0.21    0.48   0
   6   0  -3    3.49    0.66   0
   9  -4   1    2.27    0.56   0
   9  -3   0    0.16    0.50   0
  -6   3  14    0.21    0.44   0
  -6   4  14    1.13    0.56   0
  -5   4   8   16.68    0.47   0
  -5   6   9   13.62    0.57   0
  -5   7  10    0.23    0.41   0
  -4   0   8   -0.28    0.58   0
  -4   4   5    7.70    0.45   0
  -4   5   5   15.71    0.44   0
  -4   8   8    0.77    0.42   0
  -3   3   3   65.96    0.81   0
  -3   7   4   41.28    0.57   0
  -2   4   1   61.20    0.79   0
  -2   5   1   20.28    0.46   0
  -2   9   5    8.81    0.45   0
  -1  -4   7   18.21    0.63   0
  -1   2   0   10.71    0.60   0
  -1   8   2    2.24    0.49   0
   0  -2   2  518.12    2.70   0
   0   8   1   -0.02    0.50   0
   1  -8  15    0.65    0.57   0
   1  -3   2    0.00    0.57   0
   1   5  -2   18.44    0.61   0
   2  -8  12    7.15    0.54   0
   2  -5   4   16.51    0.57   0
   2  -3   1  131.97    1.04   0
   2   6  -2   72.54    0.89   0
   2   8   0    0.87    0.54   0
   3  -6   5    4.05    0.35   0
   3  -5   3   13.40    0.56   0
   4  -8   9   12.19    0.45   0
   4  -6   4    4.93    0.48   0
   4   5  -3   29.85    0.73   0
   5  -9  11    1.63    0.51   0
   5  -8   8   24.49    0.48   0
   6  -7   5    3.85    0.53   0
   6  -6   3    3.79    0.51   0
   6  -3  -1   23.60    0.62   0
   6   4  -3   24.86    0.96   0
   7  -8   7    0.14    0.53   0
   7  -7   5   -0.27    0.37   0
   7  -6   3    2.98    0.37   0
   8  -7   5   20.75    0.50   0
   8  -6   3    0.33    0.52   0
   8  -1  -2    4.12    0.55   0
   9  -5   2    0.24    0.38   0
  -5   3   9    1.21    0.57   0
  -5   5   9   13.61    0.58   0
  -5   6  10   38.54    0.73   0
  -4   2   6   18.09    0.62   0
  -4   6   6    7.63    0.53   0
  -4   7   7    3.62    0.41   0
  -3   4   3  408.39    1.62   0
  -3   5   3    4.89    0.40   0
  -3   8   6   11.47    0.59   0
  -2   8   4   -0.36    0.50   0
  -1  -3   5    0.81    0.54   0
  -1   5   0   27.38    0.65   0
  -1   7   1   12.63    0.42   0
  -1   9   4   31.91    0.58   0
   0  -7  13    2.51    0.54   0
   0  -5   7   69.74    0.85   0
   0  -4   5  239.53    1.35   0
   0   7   0    0.33    0.35   0
   0   9   3    7.94    0.45   0
   1   2  -2    8.53    0.72   0
   2  -6   6    3.73    0.37   0
   2   7  -1   -0.18    0.52   0
   3  -8  10   19.71    0.47   0
   3  -7   7    2.64    0.37   0
   3  -3   0   12.71    0.60   0
   3  -2  -1   23.72    0.70   0
   3   8   0   15.75    0.52   0
   4  -9  12    4.01    0.41   0
   4  -7   6   30.84    0.51   0
   4  -5   2   58.25    0.72   0
   5  -3  -1   93.30    0.91   0
   5   6  -2    0.62    0.55   0
   6  -8   7    1.01    0.38   0
   6  -4   0   56.43    0.68   0
   6  -2  -2    6.45    0.53   0
   7  -4   0   88.59    0.78   0
   7  -3  -1    0.45    0.36   0
   9  -6   3    1.16    0.49   0
   9  -2  -1    2.62    0.41   0
  -5   4   9    2.19    0.48   0
  -4  -2  12   -0.00    0.36   0
  -4   7   8    1.16    0.52   0
  -3  -4  13   52.06    1.10   0
  -3   6   4   22.03    0.58   0
  -3   7   5    0.16    0.49   0
  -2   6   2    9.98    0.39   0
  -2   7   3   26.91    0.60   0
  -1  -5   9   17.93    0.61   0
   0   2  -1  106.84    1.36   0
   0   5  -1    6.03    0.41   0
   1  -8  14    1.47    0.44   0
   1  -5   5    1.10    0.53   0
   2  -8  11   12.06    0.57   0
   2  -7   8   62.30    0.75   0
   3   4  -3   28.79    0.71   0
   3   7  -1   11.76    0.57   0
   4  -8   8   23.49    0.59   0
   4   6  -2    0.43    0.54   0
   4   7  -1    3.31    0.55   0
   5  -9  10    9.26    0.54   0
   5  -7   5    9.85    0.40   0
   5  -6   3    0.50    0.33   0
   5  -4   0    9.58    0.57   0
   5  -2  -2   19.48    0.60   0
   6  -5   1   -0.50    0.51   0
   7  -7   4    8.22    0.51   0
   7  -5   1    3.15    0.39   0
   7  -2  -2   16.42    0.64   0
   7   0  -3    2.50    0.61   0
   8  -5   1    8.43    0.54   0
   8  -4   0    7.17    0.43   0
   8  -3  -1    6.71    0.54   0
   9   0  -2    1.67    0.62   0
   9   1  -2    0.11    0.66   0
  -5   2  10    7.27    0.45   0
  -5   5  10    6.15    0.52   0
  -5   6  11    0.69    0.41   0
  -4   3   6    9.15    0.59   0
  -4   4   6    1.61    0.53   0
  -4   5   6    2.28    0.36   0
  -4   6   7    1.44    0.47   0
  -3  -3  10   53.29    1.31   0
  -3  -2   8   12.51    1.24   0
  -3   8   7    2.62    0.39   0
  -2  -5  12   22.45    0.68   0
  -2  -3   7  110.96    1.41   0
  -2   8   5    2.35    0.52   0
  -1   3   0    2.96    0.42   0
  -1   4   0    3.52    0.42   0
  -1   6   1   80.14    0.80   0
  -1   8   3   19.88    0.48   0
   0  -6   9   17.40    0.60   0
   0   4  -1  400.20    1.69   0
   1  -6   7    8.81    0.44   0
   1   3  -2  110.94    1.18   0
   1   6  -1  156.81    1.11   0
   2  -4   2  107.65    0.88   0
   2   8   1    2.51    0.53   0
   3  -8   9    7.25    0.54   0
   3  -4   1    5.80    0.53   0
   3  -1  -2  283.43    1.96   0
   4  -9  11    1.80    0.38   0
   4   0  -3  100.70    1.60   0
   5  -8   7    2.52    0.36   0
   6  -9   9   -0.03    0.39   0
   6  -7   4    8.41    0.55   0
   7  -8   6    8.77    0.45   0
   7  -6   2    0.74    0.47   0
   8  -7   4   -0.42    0.39   0
  -5  -1  16    7.44    0.74   0
  -5   0  13    6.15    0.55   0
  -5   3  10    8.19    0.59   0
  -5   4  10   -0.01    0.49   0
  -5   5  11    3.74    0.57   0
  -5   6  12    2.38    0.41   0
  -4  -2  12    0.56    1.07   0
  -4   7   9    6.53    0.43   0
  -3   2   4   72.82    0.92   0
  -3   5   4   32.26    0.65   0
  -3   7   6    2.77    0.51   0
  -3   8   8   -0.04    0.50   0
  -2  -6  16    5.24    0.59   0
  -2  -4   9    0.88    0.49   0
  -2   5   2   11.15    0.42   0
  -1   7   2   27.08    0.51   0
   0  -7  12    5.87    0.41   0
   0  -3   3  198.02    1.45   0
   0   3  -1    6.50    0.60   0
   1  -8  13    2.10    0.39   0
   1  -4   3    0.71    0.35   0
   2   5  -2   17.83    0.63   0
   3  -9  12    9.18    0.61   0
   3  -7   6   15.76    0.56   0
   3  -6   4    1.54    0.33   0
   4  -7   5   45.14    0.58   0
   4  -6   3    1.42    0.46   0
   4  -3  -1  100.68    0.94   0
   4   4  -3   -0.05    0.58   0
   5  -9   9    0.39    0.52   0
   5  -5   1   12.95    0.43   0
   5   4  -3    2.24    0.58   0
   6  -8   6   25.29    0.50   0
   6  -6   2    1.73    0.47   0
   6   5  -2    6.63    0.72   0
   8  -6   2    3.02    0.38   0
   8  -2  -2    4.09    0.52   0
   9  -5   1    0.59    0.38   0
   9  -4   0    1.11    0.39   0
   9  -3  -1    0.53    0.48   0
  -4   5   7    8.02    0.52   0
  -4   6   8    2.77    0.38   0
  -4   7  10    0.48    0.40   0
  -3   4   4   48.08    0.74   0
  -3   6   5   19.30    0.46   0
  -2   2   2   88.50    0.99   0
  -2   4   2  279.72    1.35   0
  -2   6   3   19.97    0.55   0
  -2   7   4   35.08    0.54   0
  -2   8   6    5.10    0.42   0
  -1   8   4   33.73    0.55   0
   0   8   3   12.35    0.60   0
   1  -7   9    2.26    0.34   0
   1   8   2   17.12    0.48   0
   2  -8  10    7.02    0.38   0
   2  -7   7   23.64    0.59   0
   2  -6   5   16.74    0.46   0
   2   7   0    7.73    0.55   0
   3  -5   2    9.11    0.54   0
   3   3  -3    6.22    0.68   0
   4  -9  10    3.80    0.40   0
   4  -8   7    9.38    0.42   0
   4  -4   0    3.35    0.39   0
   5  -8   6    0.57    0.50   0
   5  -7   4   18.24    0.46   0
   6  -9   8    4.79    0.44   0
   6  -1  -3   32.93    0.79   0
   7  -8   5    2.93    0.50   0
   9  -6   2    2.85    0.40   0
   9  -1  -2    0.44    0.55   0
  -5  -1  17   -0.08    0.64   0
  -5   2  11   46.16    0.71   0
  -5   3  11    0.65    0.53   0
  -5   4  11   30.43    0.60   0
  -5   5  12   29.49    0.56   0
  -5   5  13    0.56    0.55   0
  -4  -1  10    0.35    0.67   0
  -4   2   7    0.65    0.49   0
  -4   4   7    2.55    0.54   0
  -4   6   9    1.81    0.52   0
  -4   7  11    1.22    0.40   0
  -3   3   4    2.07    0.37   0
  -3   7   7    2.78    0.38   0
  -2  -6  15    0.20    0.51   0
  -2   3   2   31.64    0.72   0
  -2   8   7    9.48    0.58   0
  -1  -7  15    0.58    0.41   0
  -1  -6  11   15.84    0.50   0
  -1   5   1  114.16    0.91   0
  -1   7   3    4.53    0.51   0
   0  -7  11   -0.01    0.50   0
   0  -5   6    0.13    0.49   0
   1  -8  12   31.04    0.56   0
   2  -5   3   15.53    0.46   0
   2   0  -2 9999.99   18.59   0
   2   6  -1    0.11    0.36   0
   3  -9  11    0.03    0.39   0
   3  -8   8    0.58    0.37   0
   3   7   0   10.09    0.57   0
   4  -5   1    4.98    0.50   0
   4  -2  -2  269.85    1.51   0
   4   7   0   -0.05    0.51   0
   5  -6   2    8.34    0.38   0
   5  -1  -3   13.80    0.61   0
   6  -8   5    1.05    0.52   0
   6  -4  -1   30.36    0.65   0
   7  -7   3    3.30    0.40   0
   7  -5   0    7.99    0.53   0
   7  -4  -1    4.71    0.52   0
   8  -7   3    9.90    0.43   0
  -5   0  14    6.92    0.55   0
  -5   4  12  108.80    1.01   0
  -4   3   7  122.40    1.02   0
  -4   5   8    0.57    0.51   0
  -3   5   5    2.42    0.50   0
  -3   6   6    3.17    0.51   0
  -3   7   8    0.46    0.52   0
  -2  -5  11    4.54    0.47   0
  -2   7   5    7.98    0.40   0
  -1  -5   8   16.03    0.59   0
  -1  -4   6    3.75    0.53   0
  -1   6   2   46.08    0.57   0
  -1   8   5    1.57    0.38   0
   0  -6   8    1.02    0.36   0
   0   7   2   25.81    0.51   0
   0   8   4    0.49    0.52   0
   1  -6   6   21.00    0.50   0
   1   5  -1  271.56    1.32   0
   1   7   1   10.64    0.45   0
   1   8   3   14.98    0.58   0
   2  -8   9    4.75    0.48   0
   3   2  -3    4.21    0.80   0
   3   5  -2   33.35    0.62   0
   3   6  -1    7.41    0.56   0
   4  -9   9    3.32    0.40   0
   4  -7   4   29.07    0.61   0
   5  -9   8   -0.05    0.36   0
   5   5  -2   25.46    0.73   0
   5   6  -1   10.68    0.48   0
   6  -9   7    2.73    0.54   0
   6  -7   3   21.65    0.47   0
   6  -5   0   21.96    0.48   0
   6  -3  -2    0.54    0.49   0
   7  -6   1    5.89    0.53   0
   7  -3  -2    2.07    0.53   0
   7   4  -2    1.65    0.66   0
   8  -6   1   -0.11    0.49   0
   8  -5   0    7.21    0.42   0
   8  -4  -1    7.41    0.42   0
   9  -2  -2    0.35    0.50   0
  -5   2  12    3.39    0.52   0
  -5   3  12   36.63    0.71   0
  -5   4  13   13.84    0.63   0
  -4   6  10    1.46    0.37   0
  -3  -5  16    4.95    0.66   0
  -2   5   3   19.90    0.46   0
  -2   6   4    0.49    0.33   0
  -2   8   8    5.22    0.41   0
  -1  -7  14   18.94    0.65   0
  -1   8   6   -0.17    0.50   0
   0  -8  14    0.92    0.51   0
   0  -4   4  317.59    1.53   0
   0   6   1    0.30    0.33   0
   1  -7   8    0.49    0.48   0
   1  -5   4   86.72    0.78   0
   2  -9  12    2.55    0.53   0
   2   4  -2   16.35    0.60   0
   2   7   1    1.27    0.55   0
   2   8   3    2.11    0.54   0
   3  -9  10    0.79    0.49   0
   3  -8   7    1.81    0.46   0
   3  -7   5    3.72    0.37   0
   3  -6   3  113.32    0.89   0
   4  -8   6    0.58    0.36   0
   4   5  -2    0.12    0.47   0
   5  -8   5    0.52    0.48   0
   5  -7   3   -0.21    0.49   0
   5  -4  -1    1.21    0.53   0
   6  -6   1    1.08    0.51   0
   7  -8   4    0.83    0.54   0
   8  -8   4    5.30    0.42   0
   8  -3  -2    9.71    0.57   0
   8   0  -3    1.07    0.60   0
   9  -6   1    0.67    0.50   0
   9  -5   0    2.30    0.39   0
   9  -4  -1   -0.19    0.52   0
  -5   0  15    0.71    0.54   0
  -5   3  13    4.51    0.56   0
  -5   4  14    6.17    0.58   0
  -4   0   9    5.12    0.65   0
  -4   4   8    6.28    0.42   0
  -4   5   9    0.31    0.39   0
  -4   6  11    5.46    0.40   0
  -3  -4  12    0.95    0.62   0
  -3   4   5    1.85    0.53   0
  -3   6   7   52.77    0.72   0
  -3   7   9    2.25    0.39   0
  -2  -6  14    0.15    0.49   0
  -2   7   6    1.18    0.38   0
  -1  -6  10    0.56    0.50   0
  -1   4   1  304.14    1.37   0
  -1   7   4   10.23    0.43   0
   0  -7  10   77.50    0.86   0
   0   8   5    3.17    0.52   0
   1   8   4    6.41    0.55   0
   2  -7   6    7.18    0.39   0
   2  -6   4    1.97    0.38   0
   2  -4   1   33.69    0.70   0
   2  -3   0    5.40    0.44   0
   3   7   1   15.73    0.60   0
   4  -9   8    0.76    0.53   0
   4  -6   2    0.79    0.33   0
   4   7   1    1.17    0.51   0
   5  -9   7    1.11    0.39   0
   5  -5   0    2.41    0.37   0
   5  -3  -2    0.24    0.36   0
   6  -8   4    0.02    0.49   0
   6   3  -3    6.29    0.72   0
   7  -7   2    5.52    0.41   0
   8  -7   2    7.91    0.41   0
   8  -1  -3   14.55    0.71   0
   8   1  -3    0.44    0.82   0
   8   3  -2    0.19    0.79   0
   9  -7   2    3.83    0.52   0
  -5   1  14    1.58    0.53   0
  -5   2  13   11.21    0.48   0
  -5   3  14   12.00    0.66   0
  -4   2   8    4.97    0.53   0
  -4   3   8   -0.17    0.53   0
  -4   5  10    3.48    0.55   0
  -4   6  12   13.80    0.48   0
  -3   5   6    3.77    0.36   0
  -3   7  10    2.42    0.40   0
  -3   7  11    2.55    0.55   0
  -2   4   3    0.78    0.50   0
  -2   6   5    1.02    0.48   0
  -2   7   7    4.33    0.52   0
  -1  -7  13   13.62    0.61   0
  -1  -2   3  538.89    3.07   0
  -1   3   1  131.42    1.11   0
  -1   5   2   69.38    0.77   0
  -1   6   3   51.73    0.58   0
  -1   8   7    7.41    0.42   0
   0  -8  13   18.09    0.63   0
   0   4   0   42.82    0.72   0
   0   7   3   10.03    0.43   0
   1  -8  10    2.61    0.51   0
   1  -3   1  232.23    1.40   0
   1   4  -1  219.15    1.32   0
   1   7   2   26.96    0.49   0
   2  -9  11    0.46    0.53   0
   2  -8   8    1.69    0.51   0
   2  -2  -1  106.33    1.08   0
   2   5  -1   16.82    0.60   0
   3  -9   9    0.72    0.49   0
   3  -4   0   11.36    0.44   0
   3  -3  -1   91.46    0.85   0
   4   3  -3    0.15    0.50   0
   5  -6   1   54.96    0.61   0
   6  -9   6    0.63    0.38   0
   6  -7   2    9.53    0.40   0
   6  -2  -3    3.21    0.47   0
   7  -2  -3    0.49    0.52   0
   9  -3  -2   -0.17    0.46   0
  -5   2  14   -0.10    0.48   0
  -5   3  15    0.43    0.52   0
  -4   4   9    8.70    0.51   0
  -3   2   5    3.10    0.36   0
  -3   3   5   31.53    0.57   0
  -3   6   8   65.21    0.66   0
  -2  -4   8   54.09    0.98   0
  -2   5   4   -0.07    0.34   0
  -1   2   1   29.08    0.86   0
  -1   7   5    4.08    0.38   0
  -1   8   8    0.49    0.40   0
   0  -6   7   22.82    0.61   0
   0  -5   5   -0.01    0.49   0
   0   6   2   11.89    0.54   0
   0   8   6    3.02    0.39   0
   1  -7   7    0.80    0.46   0
   1  -6   5   15.97    0.62   0
   1  -4   2   27.51    0.55   0
   1  -2   0   10.98    0.60   0
   1   6   1    8.62    0.54   0
   1   8   5    2.65    0.39   0
   2  -5   2   75.92    0.71   0
   3  -8   6   19.72    0.56   0
   3  -7   4    1.92    0.47   0
   3  -5   1   34.32    0.53   0
   4  -8   5    4.53    0.37   0
   4  -7   3    8.03    0.38   0
   4  -4  -1   24.94    0.64   0
   4  -1  -3  236.31    1.76   0
   5  -9   6    1.73    0.50   0
   5  -8   4   20.83    0.59   0
   5   3  -3   53.70    1.14   0
   7  -9   5    0.35    0.39   0
   7  -8   3    1.11    0.52   0
   7  -6   0    4.67    0.50   0
   7  -5  -1    0.58    0.49   0
   8  -8   3    0.77    0.37   0
   8  -6   0    1.33    0.51   0
   8  -5  -1    0.97    0.55   0
  -5   1  15    3.62    0.52   0
  -5   1  16    1.35    0.55   0
  -5   2  15   25.79    0.69   0
  -5   2  16   26.15    0.75   0
  -4   5  11   14.78    0.44   0
  -4   5  12    1.44    0.55   0
  -3  -5  15    1.24    0.62   0
  -3   4   6   65.96    0.79   0
  -3   5   7   24.53    0.58   0
  -3   6   9    2.78    0.51   0
  -2  -6  13   41.58    0.80   0
  -2  -5  10    4.26    0.47   0
  -2  -2   5  416.06    3.42   0
  -2   1   3    4.92    0.67   0
  -2   3   3    0.49    0.53   0
  -2   6   6    6.10    0.51   0
  -2   7   8    0.38    0.37   0
  -1  -3   4    5.49    0.59   0
  -1   7   6    5.44    0.54   0
   0  -7   9   10.42    0.54   0
   0   5   1   53.77    0.65   0
   0   7   4    0.76    0.35   0
   0   8   7    0.14    0.37   0
   1   5   0   16.76    0.48   0
   1   7   3   26.73    0.60   0
   2  -9  10    3.05    0.52   0
   2  -7   5    2.40    0.46   0
   2   3  -2    9.83    0.63   0
   3  -2  -2  140.98    1.23   0
   3   4  -2    7.54    0.52   0
   3   6   0    0.92    0.36   0
   3   7   2    0.22    0.51   0
   4  -9   7   18.82    0.47   0
   4  -5   0   71.14    0.69   0
   4  -3  -2   10.68    0.54   0
   4   6   0   24.16    0.63   0
   4   7   2    2.82    0.56   0
   5  -7   2   17.59    0.43   0
   5  -2  -3    1.47    0.46   0
   6  -9   5    3.91    0.53   0
   6  -8   3    2.22    0.51   0
   6  -6   0   14.12    0.56   0
   6  -5  -1    1.73    0.36   0
   6  -4  -2    0.56    0.53   0
   6   4  -2    0.91    0.56   0
   7  -4  -2    0.21    0.35   0
   8  -7   1    5.41    0.53   0
   8  -4  -2   18.37    0.59   0
   8  -2  -3   13.02    0.63   0
   9  -6   0    0.28    0.53   0
   9  -5  -1    4.81    0.56   0
  -5   1  17    3.49    0.58   0
  -4   1   9   87.61    1.00   0
  -4   3   9    0.11    0.36   0
  -4   4  10    0.48    0.37   0
  -4   5  13   -0.11    0.50   0
  -3   6  10    2.06    0.54   0
  -2   2   3   12.46    0.66   0
  -2   7   9    2.55    0.39   0
  -1  -7  12   14.27    0.63   0
  -1  -6   9    6.36    0.58   0
  -1  -5   7    0.02    0.36   0
  -1   6   4   -0.19    0.35   0
   0  -8  12   -0.32    0.40   0
   0   3   0   39.96    0.79   0
   1  -8   9    0.17    0.51   0
   1  -5   3   28.11    0.53   0
   2  -8   7    5.00    0.54   0
   2  -6   3   82.37    0.82   0
   3  -9   8    1.74    0.38   0
   3  -6   2  100.93    0.76   0
   3   5  -1    0.32    0.37   0
   4  -6   1   18.64    0.44   0
   7  -7   1    0.21    0.36   0
   9  -7   1    2.03    0.40   0
  -4   2   9   14.30    0.48   0
  -4   4  11   87.53    0.87   0
  -4   5  14    6.44    0.45   0
  -3   5   8    2.83    0.37   0
  -3   6  11    0.53    0.51   0
  -2   4   4    4.09    0.51   0
  -2   5   5   30.27    0.51   0
  -2   6   7    0.66    0.49   0
  -2   7  10   13.34    0.46   0
  -2   7  11    1.50    0.55   0
  -1   4   2    7.42    0.43   0
  -1   5   3   -0.32    0.33   0
  -1   7   7    0.15    0.36   0
   0  -3   2  131.11    1.14   0
   0   6   3   27.14    0.60   0
   0   7   5    5.61    0.40   0
   1  -9  12    0.91    0.43   0
   1   3  -1    5.37    0.57   0
   1   7   4    0.10    0.51   0
   2   7   3    1.48    0.38   0
   3  -8   5    0.12    0.46   0
   4  -9   6   17.49    0.59   0
   4  -8   4   -0.23    0.35   0
   4   4  -2    3.07    0.51   0
   5  -9   5    1.64    0.52   0
   5  -8   3    0.13    0.52   0
   5  -6   0   25.78    0.60   0
   5  -5  -1   19.67    0.47   0
   5  -4  -2   18.37    0.61   0
   5   4  -2    9.79    0.62   0
   5   5  -1    0.20    0.38   0
   6  -7   1    1.80    0.37   0
   6  -3  -3    1.54    0.46   0
   7  -9   4    0.59    0.39   0
   7  -8   2    1.22    0.53   0
   7  -3  -3   63.48    0.86   0
   8  -8   2    0.59    0.38   0
   9  -1  -3    0.72    0.62   0
  -4   3  10   11.69    0.44   0
  -4   4  12    1.18    0.55   0
  -3   3   6   16.60    0.48   0
  -3   4   7   15.00    0.57   0
  -3   6  12    2.21    0.40   0
  -3   6  13    0.52    0.49   0
  -2  -3   6   40.48    1.01   0
  -1  -4   5    2.58    0.39   0
  -1   6   5   74.58    0.66   0
  -1   7   8    3.21    0.48   0
   0  -6   6    2.48    0.53   0
   0  -4   3    4.08    0.37   0
   0  -2   1  107.33    1.37   0
   0   7   6   11.09    0.55   0
   1  -7   6    3.43    0.52   0
   2  -9   9    8.71    0.43   0
   2   5   0    0.34    0.52   0
   3  -9   7    3.85    0.54   0
   3  -7   3   46.19    0.55   0
   3   6   1   54.84    0.77   0
   3   7   3    1.90    0.40   0
   4  -7   2  172.33    0.93   0
   4   7   3    0.25    0.43   0
   5   6   1    3.35    0.57   0
   6  -9   4    4.34    0.40   0
   6  -8   2    4.64    0.48   0
   7   2  -3    4.34    0.98   0
   8  -6  -1    1.56    0.50   0
   8  -3  -3    8.79    0.56   0
   9  -2  -3    0.34    0.50   0
  -4  -1  11   27.40    0.90   0
  -4   2  10   12.46    0.60   0
  -4   4  13   -0.25    0.51   0
  -3  -5  14   10.11    0.74   0
  -3   2   6    4.80    0.49   0
  -3   5   9    8.56    0.43   0
  -2  -6  12    4.95    0.56   0
  -2   5   6   22.65    0.58   0
  -2   6   8   -0.14    0.35   0
  -1  -7  11    6.58    0.56   0
  -1  -1   2  222.45    3.21   0
  -1   7   9    6.48    0.51   0
   0  -7   8   11.06    0.42   0
   0   2   0  329.12    2.04   0
   0   4   1   26.42    0.54   0
   0   5   2   19.28    0.48   0
   1  -8   8   31.58    0.66   0
   1  -6   4   27.46    0.52   0
   1   5   1   17.86    0.59   0
   1   7   5    0.38    0.51   0
   2  -8   6    3.99    0.53   0
   2  -7   4   80.21    0.79   0
   2  -5   1    0.57    0.49   0
   2  -4   0   65.14    0.80   0
   2   4  -1    3.00    0.37   0
   2   7   4    3.38    0.49   0
   3  -5   0  116.61    0.93   0
   3  -4  -1   18.02    0.60   0
   4  -2  -3   83.76    0.96   0
   4   6   1    6.64    0.41   0
   5  -7   1   49.33    0.59   0
   5  -3  -3   22.01    0.60   0
   7  -9   3    3.46    0.55   0
   7  -7   0    9.45    0.58   0
   7  -6  -1   18.47    0.47   0
   7  -5  -2    1.53    0.35   0
   8  -7   0    2.45    0.41   0
   8  -5  -2    7.08    0.58   0
   9  -6  -1    3.21    0.58   0
  -4   1  10   72.04    0.94   0
  -4   3  11   10.15    0.44   0
  -4   4  14    1.21    0.41   0
  -4   4  15    1.10    0.40   0
  -3  -4  11    6.56    0.68   0
  -3   1   6   45.59    0.78   0
  -3   4   8   28.23    0.62   0
  -3   5  10   65.11    0.67   0
  -2   3   4   73.62    0.82   0
  -2   4   5   10.73    0.57   0
  -2   6   9    2.81    0.38   0
  -1  -6   8    6.81    0.52   0
  -1   3   2  172.43    1.24   0
  -1   5   4   -0.01    0.35   0
  -1   6   6   41.91    0.56   0
  -1   7  10   15.88    0.47   0
   0   6   4    2.22    0.36   0
   0   7   7   -0.15    0.37   0
   1  -1  -1  371.50    2.65   0
   1   4   0    9.71    0.39   0
   1   6   3   79.39    0.80   0
   2  -9   8    4.22    0.55   0
   2  -3  -1  129.88    1.09   0
   2  -1  -2  414.37    2.45   0
   2   2  -2   42.65    1.00   0
   2   6   2   29.93    0.63   0
   3  -6   1   15.28    0.55   0
   3   0  -3   47.17    1.29   0
   3   7   4   15.31    0.49   0
   4  -9   5    0.17    0.36   0
   4  -6   0   49.43    0.66   0
   4  -5  -1    0.25    0.35   0
   5  -9   4    0.84    0.38   0
   6  -7   0   63.21    0.73   0
   6  -6  -1   23.51    0.49   0
   6  -5  -2    9.06    0.42   0
   6   5   0    0.10    0.53   0
   7  -8   1   11.31    0.56   0
   7  -4  -3    3.74    0.50   0
   7   4  -1    1.80    0.56   0
   8  -8   1   -0.32    0.40   0
   9  -5  -2    2.91    0.56   0
   9  -3  -3    0.23    0.47   0
   9   0  -3    2.24    0.80   0
  -4   2  11    0.53    0.53   0
  -4   3  12    1.72    0.38   0
  -3  -3   9    5.67    0.88   0
  -3   3   7    8.43    0.43   0
  -3   5  11    8.03    0.42   0
  -3   5  12    1.78    0.51   0
  -2  -7  15    1.07    0.52   0
  -2  -5   9   31.62    0.72   0
  -2   5   7    0.14    0.49   0
  -2   6  10   24.62    0.49   0
  -1  -5   6   36.16    0.71   0
  -1   4   3    1.88    0.39   0
  -1   7  11    0.89    0.40   0
   0  -8  10   -0.21    0.38   0
   0   7   8   21.60    0.50   0
   1  -9  10    3.09    0.56   0
   1  -4   1  296.03    1.38   0
   1   7   6   17.99    0.49   0
   2  -6   2  228.32    1.11   0
   2   7   5   -0.31    0.38   0
   3  -9   6    3.51    0.40   0
   3  -8   4   13.31    0.44   0
   3  -3  -2    2.65    0.41   0
   3   5   0   30.33    0.56   0
   3   6   2   -0.06    0.53   0
   4 -10   7    4.16    0.42   0
   4  -4  -2    4.02    0.40   0
   5  -8   2    1.96    0.37   0
   6  -9   3    1.55    0.37   0
   6  -4  -3    8.47    0.53   0
   6  -1  -4  640.42    2.81   0
   6   0  -4    0.15    0.62   0
   7  -1  -4    0.50    0.48   0
   8  -4  -3    3.78    0.39   0
  -4   3  13   37.11    0.62   0
  -4   3  14   49.42    0.77   0
  -3  -1   7   29.19    1.22   0
  -3   4   9   33.08    0.65   0
  -3   5  13    1.36    0.37   0
  -3   5  14   10.51    0.60   0
  -2  -6  11    6.76    0.54   0
  -2  -4   7   53.90    0.91   0
  -2   6  11   -0.63    0.37   0
  -2   6  12   -0.15    0.50   0
  -2   6  13    4.56    0.57   0
  -1  -7  10    2.38    0.51   0
  -1   6   7    1.61    0.36   0
   0  -7   7    0.81    0.48   0
   0   5   3    1.00    0.49   0
   0   6   5    0.84    0.38   0
   0   7   9    1.30    0.41   0
   1  -8   7   16.19    0.48   0
   1  -7   5   88.13    0.73   0
   1  -5   2    5.99    0.40   0
   1  -3   0    3.48    0.42   0
   1   2  -1   69.97    1.15   0
   2  -8   5    0.24    0.46   0
   3 -10   8    9.80    0.62   0
   3  -7   2   21.06    0.46   0
   3   3  -2  142.63    1.35   0
   3   4  -1    1.03    0.49   0
   3   7   5    0.12    0.40   0
   4  -7   1  160.77    0.91   0
   4   5   0   12.45    0.57   0
   5  -6  -1    1.35    0.35   0
   5  -5  -2   25.60    0.60   0
   5   5   0   15.15    0.51   0
   6  -8   1    5.24    0.39   0
   6  -2  -4   29.43    0.67   0
   7  -9   2    0.06    0.54   0
   7  -2  -4    3.60    0.51   0
   7   3  -2   -0.15    0.59   0
   9  -4  -3   -0.37    0.55   0
  -4  -2  13    0.58    0.71   0
  -4   1  11   28.20    0.69   0
  -4   2  12    9.36    0.58   0
  -4   3  15    0.03    0.39   0
  -4   3  16   -0.26    0.42   0
  -3   2   7   71.27    0.87   0
  -3   3   8    9.59    0.58   0
  -3   4  10  205.60    1.17   0
  -2   2   4  231.11    1.46   0
  -2   4   6   -0.39    0.52   0
  -2   5   8    3.99    0.40   0
  -1  -8  13    0.11    0.57   0
  -1   5   5   66.45    0.64   0
  -1   6   8   13.39    0.42   0
   0  -8   9    4.85    0.52   0
   0   7  10    3.39    0.41   0
   1  -9   9    0.50    0.49   0
   1  -6   3    2.71    0.54   0
   1   5   2   68.52    0.79   0
   1   6   4   19.85    0.48   0
   1   7   8   22.59    0.57   0
   2  -9   7    0.38    0.36   0
   2  -7   3  130.59    0.84   0
   2   7   7    1.67    0.52   0
   3  -1  -3   14.38    0.67   0
   3   7   6    5.29    0.53   0
   4 -10   6    0.09    0.51   0
   4  -9   4    3.03    0.39   0
   4  -8   2   25.60    0.58   0
   4  -3  -3   73.14    0.84   0
   5 -10   5   14.27    0.48   0
   5  -9   3   10.26    0.44   0
   5  -7   0   20.32    0.46   0
   5  -4  -3    6.22    0.52   0
   5  -1  -4   28.17    0.75   0
   7  -7  -1   11.24    0.56   0
   7  -6  -2    7.53    0.53   0
   8  -8   0    3.83    0.54   0
   8  -7  -1    1.59    0.41   0
   8  -6  -2    8.50    0.43   0
   8  -2  -4   17.00    0.75   0
   9  -6  -2    0.56    0.55   0
  -4  -3  16   12.01    1.05   0
  -4  -1  12    0.76    0.59   0
  -4   2  13    2.91    0.56   0
  -3  -5  13    0.49    0.63   0
  -3   4  11   19.48    0.62   0
  -2  -7  14    3.07    0.57   0
  -2   3   5  381.53    1.60   0
  -2   5   9   31.85    0.64   0
  -1   2   2  428.24    2.02   0
  -1   6   9    2.73    0.37   0
   0   3   1   90.69    0.89   0
   0   4   2    8.02    0.45   0
   0   6   6    0.04    0.36   0
   3  -9   5    5.20    0.40   0
   3  -8   3   16.87    0.45   0
   3  -5  -1   -0.39    0.47   0
   3   6   3    3.42    0.49   0
   4   6   3    1.16    0.51   0
   5  -8   1   12.99    0.42   0
   5   0  -4   30.54    1.00   0
   5   6   3    1.62    0.52   0
   6  -9   2    0.89    0.37   0
   6  -7  -1   52.89    0.70   0
   6  -6  -2   26.61    0.65   0
   6   5   1    1.48    0.52   0
   7  -8   0    3.55    0.42   0
   7  -5  -3    9.94    0.57   0
   7  -3  -4    2.10    0.54   0
   8  -5  -3    1.06    0.38   0
  -4   1  12    1.78    0.52   0
  -4   2  14   -0.03    0.48   0
  -4   2  15   17.74    0.64   0
  -4   2  16    4.54    0.57   0
  -4   2  17    1.08    0.56   0
  -3   1   7   24.36    0.70   0
  -3   3   9    0.70    0.55   0
  -3   4  12   15.45    0.58   0
  -2   5  10    8.87    0.53   0
  -1  -8  12   -0.49    0.55   0
  -1  -7   9    0.74    0.53   0
  -1  -6   7   11.51    0.47   0
  -1  -4   4    2.04    0.50   0
  -1  -3   3  154.16    1.38   0
  -1   4   4   91.47    0.77   0
  -1   5   6    9.09    0.38   0
  -1   6  10    2.67    0.37   0
  -1   6  11    1.37    0.52   0
   0  -4   2    0.54    0.34   0
   0   5   4   17.57    0.46   0
   0   6   7    2.27    0.47   0
   1  -8   6    6.99    0.55   0
   1   4   1    3.15    0.49   0
   1   6   5   14.69    0.43   0
   2  -8   4   29.49    0.60   0
   2  -6   1    5.14    0.50   0
   2  -5   0   -0.04    0.35   0
   2  -2  -2   92.15    0.99   0
   2   3  -1    0.62    0.54   0
   2   4   0    8.91    0.44   0
   2   6   4    2.66    0.36   0
   3 -10   7   17.38    0.47   0
   3  -6   0   10.35    0.40   0
   3   5   1    1.69    0.51   0
   4  -6  -1    3.84    0.36   0
   4  -5  -2    2.55    0.50   0
   5 -10   4    7.27    0.54   0
   5  -2  -4   42.96    0.75   0
   5   4  -1    0.24    0.50   0
   6  -8   0   31.73    0.65   0
   6  -5  -3   13.05    0.59   0
   6  -3  -4    1.96    0.35   0
   7  -9   1    2.03    0.56   0
   8  -3  -4   -0.24    0.51   0
   8   3  -1   -0.24    0.63   0
   9  -5  -3    0.53    0.39   0
  -4  -3  17   19.02    1.06   0
  -4   1  13    0.00    0.52   0
  -3   4  13    7.42    0.41   0
  -3   4  14    0.60    0.48   0
  -3   4  15    3.30    0.53   0
  -3   4  16    3.84    0.41   0
  -2  -7  13    0.24    0.49   0
  -2  -6  10    0.09    0.47   0
  -2  -5   8    0.07    0.47   0
  -2   1   4   69.38    0.98   0
  -2   4   7    4.37    0.39   0
  -2   5  11    4.06    0.40   0
  -2   5  12    1.47    0.52   0
  -1   3   3  253.84    1.32   0
  -1   5   7    9.51    0.53   0
  -1   6  12    3.19    0.42   0
  -1   6  13    1.56    0.40   0
   0  -9  11   18.09    0.68   0
   0  -8   8    2.78    0.50   0
   0  -5   3  129.09    0.95   0
   0  -3   1    6.48    0.62   0
   0   6   8   44.97    0.67   0
   1  -9   8    9.42    0.59   0
   1  -2  -1   26.34    0.85   0
   1   3   0   82.58    0.88   0
   1   5   3    4.99    0.52   0
   1   6   6    1.28    0.49   0
   2  -9   6    9.72    0.42   0
   2  -4  -1   64.72    0.71   0
   2   5   2   43.17    0.74   0
   3  -7   1   47.27    0.60   0
   3  -4  -2  112.36    0.88   0
   3  -2  -3    0.93    0.38   0
   3   6   4    2.38    0.51   0
   4 -10   5    0.05    0.37   0
   4  -7   0   62.56    0.64   0
   4   3  -2  196.27    1.56   0
   4   5   1    3.66    0.50   0
   5  -9   2   -0.46    0.38   0
   5  -6  -2    6.59    0.51   0
   5   5   1    4.30    0.41   0
   5   6   4    0.56    0.52   0
   6   2  -3   15.40    0.94   0
   6   3  -2    0.01    0.56   0
   7  -4  -4    6.78    0.52   0
   7   4   0    0.76    0.55   0
   8  -7  -2   21.54    0.63   0
  -4  -2  14   18.04    0.90   0
  -4   1  14    1.20    0.54   0
  -3   2   8    6.01    0.43   0
  -3   3  10  127.97    0.99   0
  -2   4   8   23.43    0.61   0
  -2   5  13    5.40    0.41   0
  -2   5  14    0.34    0.38   0
  -1  -5   5   23.54    0.55   0
   0  -6   4  235.55    1.31   0
   0   5   5    0.56    0.48   0
   0   6   9    4.43    0.50   0
   1  -5   1   17.57    0.60   0
   2 -10   8    2.28    0.41   0
   2   6   5    5.62    0.39   0
   3 -10   6    8.70    0.44   0
   3  -9   4    1.44    0.37   0
   4  -8   1    1.83    0.37   0
   4  -4  -3   19.51    0.63   0
   4   6   4    4.80    0.44   0
   5  -8   0    5.98    0.52   0
   5  -7  -1   62.84    0.66   0
   5  -5  -3   27.74    0.62   0
   5  -3  -4    9.92    0.56   0
   5   2  -3   35.79    1.10   0
   5   3  -2    2.26    0.60   0
   6  -9   1    8.25    0.42   0
   6  -4  -4    2.03    0.49   0
   7  -8  -1   19.23    0.63   0
   7  -7  -2   18.32    0.47   0
   7  -6  -3    3.51    0.48   0
   8  -8  -1    6.85    0.46   0
   8  -6  -3    5.30    0.56   0
   8  -4  -4    0.23    0.34   0
   9  -3  -4    0.81    0.54   0
   9  -2  -4    2.19    0.57   0
  -4   1  15    4.98    0.43   0
  -4   1  16    4.23    0.52   0
  -4   1  17   -0.26    0.44   0
  -3   3  11    8.18    0.56   0
  -2   2   5   36.23    0.73   0
  -2   3   6    0.43    0.37   0
  -1   1   2   97.89    1.42   0
  -1   4   5    1.82    0.37   0
  -1   5   8  159.48    0.92   0
   0  -9  10    6.26    0.55   0
   0   4   3   39.39    0.59   0
   0   6  10    0.70    0.37   0
   0   6  11    0.35    0.48   0
   0   6  12   16.56    0.58   0
   1  -8   5   18.33    0.60   0
   1  -4   0    4.01    0.39   0
   1   6   7    0.73    0.38   0
   2  -9   5   10.12    0.51   0
   3   4   0    0.43    0.52   0
   4 -10   4   -0.05    0.48   0
   4   6   5    4.64    0.55   0
   5 -10   3    1.00    0.58   0
   6  -7  -2   10.77    0.57   0
   6   5   2    4.87    0.45   0
   7  -9   0    0.53    0.55   0
   9  -6  -3    2.12    0.43   0
   9  -4  -4    1.01    0.51   0
  -4   0  14   -0.15    0.54   0
  -4   0  18    0.42    0.59   0
  -3  -5  12    1.16    0.58   0
  -3  -4  10   -0.02    0.56   0
  -3   2   9   93.73    0.96   0
  -3   3  12   37.06    0.66   0
  -3   3  17    0.65    0.57   0
  -2  -7  12   53.13    0.91   0
  -2   4   9   76.39    0.69   0
  -1  -7   8    8.78    0.43   0
  -1  -6   6   45.33    0.76   0
  -1   5   9    8.75    0.40   0
   0  -8   7    3.11    0.52   0
   0  -1   0  657.53    3.81   0
   0   5   6    0.41    0.46   0
   1  -9   7   -0.48    0.39   0
   1  -7   3   35.99    0.68   0
   1   4   2    0.51    0.48   0
   1   5   4   10.68    0.42   0
   1   6   8    5.06    0.39   0
   1   6   9    1.52    0.52   0
   2 -10   7    0.48    0.58   0
   2  -8   3    0.29    0.33   0
   2  -3  -2   33.16    0.60   0
   2   5   3    0.57    0.49   0
   3 -10   5    1.10    0.47   0
   3  -6  -1  305.29    1.30   0
   3  -3  -3   67.22    0.73   0
   3   6   6    1.07    0.52   0
   4  -9   2    0.61    0.37   0
   4  -2  -4   15.82    0.59   0
   4  -1  -4   22.45    0.73   0
   4   5   2   -0.42    0.51   0
   5  -9   1    3.69    0.39   0
   5   5   2   73.89    0.86   0
   6  -8  -1    1.07    0.39   0
   6  -6  -3   -0.41    0.35   0
   6   4   0    2.80    0.53   0
   7  -5  -4    7.54    0.55   0
   8  -5  -4    3.40    0.54   0
  -4  -2  15   17.89    0.74   0
  -4  -2  18    0.59    0.65   0
  -4  -1  14    0.33    0.47   0
  -4   0  15    3.32    0.42   0
  -4   0  16    8.45    0.56   0
  -4   0  17    5.83    0.45   0
  -3   1   8   13.32    0.49   0
  -3   3  13    2.36    0.38   0
  -3   3  14    0.20    0.39   0
  -3   3  15    2.51    0.41   0
  -3   3  16   10.26    0.45   0
  -2  -4   6  136.01    1.32   0
  -2  -3   5  140.46    1.59   0
  -2   3   7   13.00    0.60   0
  -2   4  10    5.32    0.39   0
  -1  -8  10    1.76    0.53   0
  -1  -2   2    8.71    0.74   0
  -1   3   4   32.86    0.57   0
  -1   4   6   67.79    0.67   0
  -1   5  10    1.32    0.35   0
  -1   5  11    3.07    0.50   0
   0  -7   5   96.03    0.79   0
   0   2   1  496.67    2.33   0
   0   3   2  940.28    2.54   0
   1  -3  -1  138.02    1.14   0
   1   6  10    0.65    0.39   0
   1   6  11    0.39    0.52   0
   2  -6   0    4.03    0.51   0
   2  -5  -1   20.06    0.58   0
   2   4   1  145.84    1.01   0
   2   6   7    3.28    0.39   0
   2   6   8    1.34    0.54   0
   3  -9   3   14.14    0.44   0
   3  -7   0    1.49    0.36   0
   3  -5  -2   -0.05    0.36   0
   3   6   7    8.75    0.56   0
   4  -8   0   10.28    0.51   0
   4  -7  -1   45.44    0.58   0
   4  -6  -2    8.24    0.38   0
   4   4   0   -0.01    0.55   0
   4   6   6    1.10    0.40   0
   5  -4  -4   17.17    0.50   0
   5   4   0   38.57    0.75   0
   6  -9   0    0.37    0.38   0
   6  -5  -4    1.81    0.51   0
   6   5   3    6.69    0.59   0
   8  -7  -3   20.68    0.63   0
   8   0  -4    4.14    0.89   0
   8   2  -2   19.68    0.98   0
   9  -5  -4    0.23    0.53   0
   9  -1  -4    0.64    0.63   0
  -4  -2  16   11.09    0.64   0
  -4  -2  17    1.40    0.53   0
  -3   2  10    9.12    0.45   0
  -2   4  11    1.59    0.36   0
  -2   4  12    1.83    0.47   0
  -2   4  13   15.69    0.58   0
  -2   4  14    2.73    0.53   0
  -2   4  15   -0.67    0.49   0
  -2   4  16   13.24    0.50   0
  -1   2   3    0.21    0.61   0
  -1   5  12    8.85    0.41   0
  -1   5  13    6.03    0.41   0
  -1   5  14   27.39    0.51   0
   0  -9   9    3.43    0.43   0
   0  -5   2   46.13    0.63   0
   0   4   4    6.26    0.40   0
   0   5   7   50.14    0.57   0
   1  -9   6    0.36    0.47   0
   1   1  -1   70.25    1.64   0
   1   5   5    7.76    0.39   0
   2  -9   4   -0.23    0.52   0
   2  -7   1   67.22    0.65   0
   3  -8   1    2.70    0.36   0
   3   3  -1  154.32    1.30   0
   3   5   3    1.19    0.46   0
   4 -10   3   -0.20    0.39   0
   4  -5  -3    0.67    0.37   0
   4  -3  -4    2.80    0.50   0
   4   6   7    5.88    0.45   0
   5 -10   2    7.05    0.44   0
   5  -8  -1    0.12    0.36   0
   5  -7  -2    2.44    0.39   0
   5  -6  -3  135.94    0.87   0
   7  -8  -2    0.51    0.38   0
   7  -7  -3   29.45    0.54   0
   7  -3  -5    1.20    0.49   0
   7  -2  -5    4.44    0.49   0
   7   3  -1    4.49    0.63   0
   7   4   1    5.48    0.52   0
  -3   2  11   34.29    0.69   0
  -2  -7  11   -0.09    0.51   0
  -2  -5   7    8.33    0.54   0
  -2   2   6    0.89    0.47   0
  -2   3   8    1.25    0.52   0
  -1  -7   7   18.12    0.62   0
  -1  -4   3  127.03    1.11   0
  -1   4   7   49.03    0.60   0
   0  -8   6   18.65    0.59   0
   0  -6   3   29.89    0.56   0
   0  -4   1  396.74    1.62   0
   0  -2   0  328.00    1.97   0
   0   5   8    4.26    0.38   0
   1  -8   4    5.87    0.41   0
   1  -6   1  241.57    1.23   0
   1  -5   0   31.51    0.67   0
   1   3   1  143.94    1.14   0
   2 -10   6    1.11    0.41   0
   2  -8   2   32.45    0.63   0
   2  -4  -2  266.48    1.32   0
   2   5   4    3.20    0.38   0
   3 -10   4   18.71    0.63   0
   3  -4  -3  436.88    1.56   0
   3   6   9    0.08    0.39   0
   4  -9   1   18.93    0.48   0
   4   5   3   11.14    0.45   0
   5  -9   0    1.53    0.38   0
   6  -8  -2    1.42    0.52   0
   6  -7  -3   30.65    0.65   0
   6  -3  -5   18.12    0.65   0
   6  -2  -5    7.22    0.52   0
   7  -6  -4    1.13    0.52   0
   7  -4  -5   -0.33    0.49   0
   8  -6  -4    2.47    0.42   0
   8  -3  -5   -0.38    0.54   0
   9  -6  -4   -0.14    0.58   0
  -3   1   9   10.63    0.56   0
  -3   2  12    1.76    0.50   0
  -3   2  16    2.68    0.54   0
  -3   2  17    1.19    0.52   0
  -2   1   5    1.42    0.57   0
  -1  -8   9    5.51    0.59   0
  -1  -6   5    2.03    0.50   0
  -1   3   5    5.20    0.57   0
  -1   4   8  345.12    1.37   0
   0  -9   8    4.41    0.62   0
   0  -7   4   63.63    0.79   0
   0   4   5   59.15    0.74   0
   0   5   9    6.16    0.39   0
   0   5  10   -0.14    0.50   0
   1  -7   2    5.38    0.52   0
   1   4   3   36.20    0.58   0
   1   5   6  201.34    1.00   0
   2   3   0  565.06    2.20   0
   3  -9   2    5.27    0.39   0
   3   2  -2   80.77    1.25   0
   3   4   1    0.40    0.36   0
   3   5   4  212.73    1.18   0
   4  -4  -4   96.37    0.92   0
   4   0  -4 2129.87    7.25   0
   5  -5  -4    6.62    0.40   0
   6  -9  -1    2.95    0.41   0
   6  -6  -4    0.45    0.53   0
   8  -4  -5    0.33    0.37   0
   8  -2  -5    2.43    0.56   0
   8   3   0    1.24    0.55   0
  -3   2  13  115.21    0.88   0
  -3   2  14   37.76    0.60   0
  -3   2  15    8.32    0.48   0
  -2   3   9    1.47    0.38   0
  -1   4   9   27.69    0.61   0
   0   3   3  284.10    1.43   0
   0   5  11   18.07    0.45   0
   0   5  12    0.85    0.38   0
   0   5  13   -0.17    0.39   0
   0   5  14   -0.07    0.40   0
   1  -4  -1  325.82    1.47   0
   1   2   0 1121.71    3.58   0
   1   5   7   16.85    0.46   0
   2 -10   5   -0.66    0.57   0
   2   1  -2  831.19    6.14   0
   3  -8   0   -0.19    0.48   0
   3  -7  -1   27.42    0.50   0
   3  -6  -2   25.76    0.48   0
   4  -8  -1    0.00    0.36   0
   4  -7  -2   31.29    0.52   0
   4  -6  -3   50.55    0.70   0
   4   3  -1   30.26    0.70   0
   4   4   1   34.68    0.72   0
   4   5   4    3.45    0.42   0
   5  -8  -2    1.47    0.47   0
   5  -3  -5   78.65    0.89   0
   5  -2  -5   -0.01    0.46   0
   6  -4  -5    0.24    0.37   0
   6  -1  -5  125.27    1.41   0
   7  -8  -3    1.07    0.49   0
   7  -5  -5   14.12    0.62   0
   7  -1  -5   10.24    0.69   0
   8  -7  -4    2.45    0.53   0
   8  -5  -5    2.74    0.55   0
   9  -4  -5    0.28    0.55   0
  -3  -5  11    0.57    0.60   0
  -3   1  10   20.76    0.66   0
  -2  -7  10   -0.30    0.52   0
  -2  -6   8    3.70    0.39   0
  -2   2   7   23.92    0.63   0
  -2   3  10    2.52    0.38   0
  -2   3  11  172.91    1.06   0
  -2   3  16    4.87    0.58   0
  -2   3  17    0.22    0.42   0
  -1  -3   2  113.20    1.11   0
  -1   4  10   16.13    0.53   0
  -1   4  15   31.27    0.65   0
  -1   4  16    8.78    0.44   0
   0  -3   0   39.99    0.69   0
   0   4   6    7.80    0.53   0
   1 -10   7    2.76    0.42   0
   1   5   8    8.92    0.40   0
   1   5   9    3.69    0.51   0
   2  -7   0   39.20    0.54   0
   2  -6  -1   92.80    0.74   0
   2  -2  -3   12.88    0.66   0
   3 -10   3    7.32    0.44   0
   3  -5  -3    4.43    0.53   0
   3   5   5    0.07    0.38   0
   4  -9   0   -0.21    0.37   0
   5  -9  -1    7.20    0.56   0
   5  -7  -3   37.61    0.55   0
   5  -6  -4   12.23    0.57   0
   5   3  -1    0.87    0.46   0
   5   5   5    3.27    0.56   0
   6  -5  -5    8.08    0.49   0
   7  -7  -4    1.72    0.40   0
   9  -5  -5    0.69    0.56   0
  -3  -2   8   11.30    1.25   0
  -3  -1   8    9.94    0.68   0
  -3   1  11    0.16    0.51   0
  -3   1  18    0.58    0.55   0
  -2   3  12   64.89    0.69   0
  -2   3  13    0.36    0.47   0
  -2   3  14    1.01    0.47   0
  -2   3  15   11.80    0.44   0
  -1  -8   8    7.03    0.44   0
  -1  -7   6    2.90    0.40   0
  -1   2   4   96.26    1.02   0
  -1   3   6   15.78    0.47   0
  -1   4  11    0.36    0.37   0
  -1   4  12    1.34    0.36   0
  -1   4  13   23.85    0.49   0
  -1   4  14   -0.23    0.38   0
   0  -9   7    1.81    0.39   0
   0  -8   5   14.57    0.48   0
   0  -6   2    0.65    0.54   0
   1   4   4  266.36    1.21   0
   1   5  10    7.53    0.41   0
   1   5  11   15.54    0.53   0
   1   5  12   33.16    0.63   0
   1   5  13    9.74    0.43   0
   2  -8   1   16.04    0.44   0
   2  -5  -2   11.30    0.42   0
   2  -3  -3    0.54    0.49   0
   2  -1  -3    5.30    0.67   0
   2   2  -1  203.52    1.72   0
   2   5   7   38.12    0.55   0
   3  -9   1   32.33    0.53   0
   3  -3  -4    1.58    0.50   0
   3  -2  -4   73.39    0.83   0
   3   4   2   98.23    0.93   0
   4  -5  -4    1.63    0.35   0
   4   5   5   13.64    0.47   0
   5  -4  -5   96.28    0.83   0
   5   5   6    0.24    0.53   0
   6  -9  -2    0.89    0.55   0
   6  -8  -3   -0.24    0.38   0
   6  -7  -4   13.42    0.53   0
   6   4   2    5.48    0.55   0
   8  -6  -5    0.01    0.53   0
   8   1  -3    0.48    0.89   0
   9  -2  -5    1.18    0.62   0
  -3  -6  13    2.93    0.73   0
  -3   1  12    9.97    0.59   0
  -3   1  16   48.29    0.79   0
  -3   1  17    0.66    0.44   0
  -2  -5   6   15.06    0.60   0
  -1  -9  10   22.02    0.68   0
  -1  -5   3    0.44    0.49   0
   0   4   7   71.59    0.66   0
   1 -10   6    4.31    0.54   0
   1  -9   4    2.27    0.53   0
   1  -7   1   34.46    0.53   0
   1  -6   0   23.53    0.49   0
   1  -2  -2  417.81    2.05   0
   1   3   2    4.57    0.51   0
   2 -10   4    4.55    0.42   0
   2  -9   2    0.36    0.52   0
   2   5   8   14.58    0.43   0
   2   5   9    7.15    0.54   0
   3 -10   2   15.18    0.57   0
   3   5   7   12.82    0.56   0
   4 -10   1    1.95    0.42   0
   4   5   6   16.86    0.49   0
   5  -1  -5   16.36    0.64   0
   7  -6  -5   49.78    0.66   0
   7   3   0    4.89    0.56   0
   7   4   3    5.12    0.45   0
   8  -1  -5    3.77    0.76   0
   8   3   1   13.27    0.67   0
  -3  -4   9    0.86    0.59   0
  -3   1  13    2.03    0.40   0
  -3   1  14    7.25    0.53   0
  -3   1  15   13.80    0.46   0
  -2  -8  12    1.60    0.55   0
  -2  -7   9   11.15    0.61   0
  -2   1   6   75.86    0.98   0
  -2   2   8   55.58    0.69   0
  -2   2  18   13.94    0.60   0
  -1  -6   4   86.74    0.80   0
  -1   3   7   66.16    0.69   0
   0  -9   6    0.48    0.49   0
   0  -4   0   47.59    0.73   0
   0   2   2   49.90    0.80   0
   0   3   4    3.06    0.41   0
   0   4   8   11.29    0.40   0
   0   4  15    9.93    0.60   0
   1  -5  -1  114.25    0.84   0
   1  -3  -2  158.93    1.18   0
   1   4   5    2.73    0.39   0
   2  -4  -3    0.97    0.50   0
   2   5  10    0.19    0.38   0
   2   5  11    1.59    0.40   0
   2   5  12    1.19    0.37   0
   3  -8  -1   36.96    0.53   0
   3  -7  -2    0.15    0.38   0
   3  -6  -3   50.93    0.69   0
   3  -4  -4   49.60    0.74   0
   3  -1  -4   30.92    0.80   0
   3   5   9   14.17    0.58   0
   4  -9  -1    2.26    0.52   0
   4  -8  -2    2.82    0.36   0
   4  -7  -3   12.02    0.42   0
   4  -3  -5   19.77    0.62   0
   4   4   2    1.05    0.37   0
   4   5   7    1.89    0.40   0
   4   5   8    0.64    0.54   0
   5  -9  -2   -0.16    0.47   0
   5  -8  -3    7.98    0.55   0
   5  -5  -5    0.41    0.34   0
   6  -6  -5   15.26    0.47   0
   7  -8  -4    0.10    0.53   0
   7   2  -2    0.07    0.48   0
   8  -7  -5   18.11    0.61   0
  -3   0  10   14.56    0.61   0
  -3   0  18    8.52    0.62   0
  -2  -6   7   32.05    0.63   0
  -2  -2   4   43.42    1.30   0
  -2   2   9   10.45    0.57   0
  -2   2  17    3.34    0.53   0
  -1  -8   7   17.57    0.49   0
  -1  -4   2    2.18    0.34   0
  -1   1   3    4.24    0.77   0
  -1   3   8   78.24    0.82   0
  -1   3  17    0.38    0.41   0
   0  -8   4   11.37    0.43   0
   0   4   9    2.18    0.35   0
   0   4  10    6.69    0.51   0
   0   4  11    8.12    0.52   0
   0   4  12    1.48    0.51   0
   0   4  13    3.50    0.51   0
   0   4  14   11.21    0.44   0
   1  -1  -2   94.69    1.42   0
   1   4   6  196.04    1.09   0
   2 -10   3    6.70    0.51   0
   2  -8   0    2.28    0.50   0
   2  -7  -1   43.69    0.55   0
   2  -6  -2   11.11    0.39   0
   2   3   1   98.61    0.89   0
   3   4   3    8.86    0.60   0
   3   5  11    4.73    0.42   0
   4 -10   0    0.87    0.51   0
   4  -6  -4    7.03    0.38   0
   4  -4  -5    9.40    0.57   0
   4  -2  -5    0.42    0.36   0
   5  -7  -4    3.52    0.36   0
   6  -9  -3   -1.14    0.50   0
   6  -3  -6    2.20    0.50   0
   6   4   3   16.68    0.63   0
   7  -7  -5   19.04    0.65   0
   7  -5  -6    1.76    0.51   0
   7  -4  -6   10.27    0.45   0
   7  -3  -6    5.26    0.42   0
   8  -5  -6    0.73    0.51   0
   8  -4  -6    0.31    0.39   0
   8  -3  -6    1.15    0.48   0
  -3  -5  10   17.18    0.81   0
  -3   0  17    3.53    0.58   0
  -2  -8  11   18.95    0.67   0
  -2   2  10    1.99    0.55   0
  -2   2  15    1.28    0.51   0
  -2   2  16    7.74    0.44   0
  -1  -9   9    5.49    0.44   0
  -1   2   5  121.31    1.04   0
  -1   3   9   29.96    0.64   0
  -1   3  15    3.60    0.54   0
  -1   3  16   12.03    0.44   0
   0  -6   1   52.19    0.75   0
   1  -4  -2    7.62    0.55   0
   2  -9   1    1.42    0.51   0
   3 -10   1   12.96    0.58   0
   3  -5  -4   31.50    0.63   0
   4   2  -2    2.03    0.53   0
   4   3   0    1.72    0.48   0
   4   4   3    0.16    0.51   0
   5  -6  -5    7.67    0.54   0
   5   4   3   23.10    0.65   0
   6  -8  -4    0.18    0.38   0
   6  -7  -5    7.31    0.50   0
   6  -4  -6   59.08    0.70   0
   8   2  -1    8.66    0.71   0
   9  -5  -6   -0.45    0.54   0
   9  -4  -6    0.48    0.49   0
   9   1  -2    0.35    0.73   0
  -3  -6  12    0.20    0.61   0
  -3  -3   8  149.84    3.16   0
  -3   0  11    7.28    0.54   0
  -3   0  16    6.44    0.56   0
  -2  -7   8    2.86    0.52   0
  -2  -3   4   26.40    0.81   0
  -2   2  11   -0.35    0.39   0
  -2   2  12    1.88    0.51   0
  -2   2  13   27.04    0.60   0
  -2   2  14   22.47    0.50   0
  -1  -8   6    0.77    0.48   0
  -1   3  10   48.86    0.59   0
  -1   3  11    0.33    0.49   0
  -1   3  12    8.97    0.54   0
  -1   3  13    1.27    0.49   0
  -1   3  14   13.11    0.44   0
   0  -9   5   26.30    0.67   0
   0  -5   0   21.58    0.64   0
   0   3   5   41.20    0.60   0
   1  -7   0    9.00    0.40   0
   1  -6  -1   82.62    0.80   0
   1   3   3    2.00    0.49   0
   1   4   7   26.96    0.49   0
   1   4   8   23.56    0.60   0
   1   4  14   17.61    0.59   0
   1   4  15    3.83    0.42   0
   2  -5  -3   20.72    0.47   0
   2   4   5   10.60    0.43   0
   3  -8  -2   20.63    0.57   0
   3  -7  -3    1.13    0.47   0
   3   4   4   69.48    0.82   0
   4  -9  -2    0.41    0.47   0
   4  -8  -3    0.38    0.50   0
   4  -5  -5   16.01    0.44   0
   5   3   0   19.37    0.67   0
   6  -5  -6    2.74    0.37   0
   6  -2  -6    9.04    0.55   0
   6   2  -2   10.69    0.69   0
   6   4   4    5.01    0.44   0
   7  -6  -6    7.56    0.59   0
   7  -2  -6   23.10    0.67   0
   7   3   1   23.64    0.70   0
   8  -6  -6    1.00    0.42   0
  -3  -1   9    5.92    0.60   0
  -3   0  12   34.19    0.72   0
  -3   0  13    0.43    0.56   0
  -3   0  14   18.97    0.66   0
  -3   0  15   14.44    0.48   0
  -2  -8  10    7.87    0.56   0
  -2  -5   5   55.42    0.82   0
  -2   1   7    7.18    0.43   0
  -2   1  18   -0.29    0.58   0
  -1  -9   8   -0.14    0.55   0
  -1  -6   3  105.38    0.86   0
  -1  -5   2   18.69    0.62   0
   0  -8   3    7.83    0.42   0
   0   3   6    0.65    0.53   0
   1 -10   4   19.81    0.64   0
   1   4   9    0.36    0.37   0
   1   4  10    1.06    0.50   0
   1   4  11   21.46    0.60   0
   1   4  12    5.23    0.49   0
   1   4  13   24.85    0.50   0
   2 -10   2    0.69    0.40   0
   2  -8  -1    1.33    0.45   0
   2  -7  -2   15.83    0.56   0
   2   4   6   19.50    0.57   0
   3  -9  -1    2.09    0.40   0
   4  -7  -4    3.47    0.38   0
   4  -1  -5    2.96    0.51   0
   5  -9  -3   -0.82    0.41   0
   5  -8  -4    0.47    0.38   0
   5  -4  -6    4.41    0.39   0
   5  -3  -6   12.10    0.46   0
   5   2  -2    2.57    0.64   0
   5   4   4   28.71    0.65   0
   6  -6  -6    1.40    0.48   0
   7  -8  -5    3.57    0.45   0
   8  -2  -6   13.92    0.72   0
   9  -3  -6    0.09    0.56   0
  -3  -1  18    0.09    0.51   0
  -1  -7   4    2.07    0.36   0
  -1  -2   1   72.84    1.18   0
  -1   2   6   43.38    0.71   0
  -1   2  18   24.77    0.55   0
   0  -3  -1   91.49    0.90   0
   0  -2  -1  500.32    2.28   0
   0   2   3   19.31    0.70   0
   0   3  16   37.60    0.64   0
   1  -9   2   11.84    0.43   0
   1  -5  -2   72.12    0.69   0
   1   2   1  287.35    1.71   0
   2  -9   0    2.64    0.51   0
   2  -6  -3   20.72    0.56   0
   2  -3  -4   74.71    0.82   0
   2   3   2   17.53    0.48   0
   2   4   7   26.24    0.60   0
   2   4  14    1.09    0.50   0
   3 -10   0    4.41    0.56   0
   3  -6  -4   22.95    0.46   0
   3  -3  -5   31.02    0.65   0
   3   4   5   17.81    0.46   0
   4  -6  -5    0.25    0.48   0
   5  -7  -5    0.39    0.37   0
   5  -5  -6    6.81    0.39   0
   5  -2  -6    0.37    0.43   0
   5   4   5    8.12    0.57   0
   6  -8  -5    0.36    0.53   0
   6   4   6    1.90    0.58   0
   7  -7  -6    0.20    0.54   0
  -3  -1  17   -0.35    0.52   0
  -2  -7   7   22.11    0.64   0
  -2   1   8   60.78    0.83   0
  -2   1  17   21.85    0.51   0
  -1  -9   7    6.67    0.55   0
  -1   2  17    3.11    0.42   0
   0  -9   4    0.62    0.40   0
   0  -7   1    6.70    0.52   0
   0  -6   0  115.22    0.91   0
   0  -4  -1   26.32    0.54   0
   0   3   7    8.78    0.42   0
   0   3  15    3.95    0.39   0
   1  -7  -1   15.11    0.54   0
   1   3   4   14.06    0.48   0
   2  -4  -4    4.50    0.39   0
   2  -2  -4  236.84    1.45   0
   2   4   8    3.71    0.40   0
   2   4   9   13.63    0.57   0
   2   4  10   14.77    0.58   0
   2   4  11    0.30    0.52   0
   2   4  12    4.62    0.41   0
   2   4  13    7.70    0.42   0
   3  -4  -5    2.29    0.38   0
   3   4   6    7.78    0.41   0
   5  -6  -6   26.36    0.60   0
   6  -7  -6    4.26    0.48   0
   6   3   1    0.56    0.48   0
   6   4   7    1.69    0.42   0
   7  -4  -7   45.94    0.74   0
   7   3   2   27.78    0.70   0
  -3  -5   9    1.03    0.59   0
  -3  -1  16    6.18    0.58   0
  -2  -8   9   -0.53    0.54   0
  -2   0  19    1.42    0.59   0
  -2   1  15   10.73    0.60   0
  -2   1  16   10.36    0.48   0
  -1  -4   1  222.54    1.27   0
  -1   2   7  122.97    1.00   0
  -1   2  16    1.64    0.38   0
   0  -8   2   20.12    0.60   0
   0   3   8    2.18    0.37   0
   0   3   9  324.93    1.32   0
   0   3  13    0.91    0.46   0
   0   3  14    5.63    0.38   0
   1  -8   0   12.75    0.44   0
   1  -6  -2   46.55    0.67   0
   1  -3  -3  253.46    1.38   0
   2 -10   1   -0.43    0.38   0
   2  -5  -4    0.72    0.45   0
   2   2   0   79.30    1.07   0
   3  -9  -2    3.08    0.40   0
   3  -8  -3   10.54    0.43   0
   3  -7  -4   45.09    0.67   0
   3  -5  -5    2.74    0.50   0
   3  -2  -5    3.11    0.36   0
   3   2  -1   42.61    0.88   0
   3   4   7   21.39    0.47   0
   3   4   8    0.12    0.48   0
   3   4   9   23.86    0.61   0
   3   4  11    9.05    0.55   0
   3   4  12   38.79    0.66   0
   3   4  13    3.35    0.41   0
   4  -9  -3    0.40    0.36   0
   4  -8  -4    4.40    0.38   0
   4  -7  -5   19.78    0.56   0
   4  -4  -6    2.01    0.40   0
   4  -3  -6    8.39    0.57   0
   4   3   1    8.91    0.45   0
   4   4   6   18.95    0.49   0
   5  -9  -4    2.29    0.39   0
   5  -8  -5   11.68    0.59   0
   5   3   1    5.83    0.58   0
   5   4   7    4.18    0.51   0
   6  -4  -7    3.39    0.51   0
   7  -5  -7    0.17    0.41   0
   8  -6  -7    3.82    0.57   0
   8  -5  -7    0.63    0.42   0
   8  -4  -7   -0.38    0.53   0
  -3  -4   8    4.14    0.67   0
  -3  -2  18    0.42    0.52   0
  -3  -1  15    4.66    0.55   0
  -2  -6   5   77.34    0.92   0
  -2   1   9   56.16    0.71   0
  -2   1  10   18.41    0.63   0
  -2   1  14    1.55    0.47   0
  -1  -6   2   44.72    0.64   0
  -1   1   4  122.98    1.22   0
  -1   2   8    0.39    0.53   0
  -1   2  14    8.64    0.56   0
  -1   2  15   13.57    0.42   0
   0  -9   3    4.36    0.53   0
   0  -5  -1   55.72    0.66   0
   0   3  10   47.89    0.57   0
   0   3  11    6.41    0.38   0
   0   3  12   21.61    0.47   0
   1  -9   1    0.80    0.38   0
   1  -4  -3    1.21    0.38   0
   1   3   5   24.76    0.51   0
   1   3  16    4.93    0.44   0
   2  -9  -1    1.36    0.53   0
   2  -8  -2    1.11    0.37   0
   2  -7  -3   26.43    0.59   0
   2   3   3  132.55    0.95   0
   3   3   2    7.15    0.54   0
   4  -5  -6    2.05    0.37   0
   4   4   8    6.34    0.40   0
   4   4   9    2.45    0.40   0
   4   4  10    1.57    0.39   0
   4   4  11    9.21    0.44   0
   5  -7  -6   11.30    0.54   0
   5   4   9    0.68    0.41   0
   6  -5  -7    4.04    0.42   0
   6  -3  -7   -0.05    0.50   0
   7  -6  -7    3.01    0.42   0
   7  -3  -7   14.81    0.61   0
   7   2  -1   -0.21    0.44   0
   7   3   3    2.00    0.60   0
   8   2   0    0.05    0.56   0
   9  -4  -7    0.62    0.52   0
   9  -1  -5    7.40    0.98   0
  -3  -7  13    2.06    0.75   0
  -3  -6  10    8.88    0.66   0
  -3  -1  13   21.94    0.68   0
  -3  -1  14   13.15    0.56   0
  -2  -8   8    3.60    0.55   0
  -2  -7   6   44.37    0.77   0
  -2  -5   4   25.61    0.56   0
  -2   0  18    3.71    0.56   0
  -2   1  11    1.09    0.38   0
  -2   1  12    2.54    0.38   0
  -2   1  13    0.70    0.36   0
  -1  -9   6    1.76    0.41   0
  -1  -8   4    1.90    0.55   0
  -1  -5   1  266.32    1.29   0
  -1   2   9  203.92    1.16   0
  -1   2  10   41.61    0.70   0
  -1   2  12   88.68    0.84   0
  -1   2  13   32.04    0.54   0
   0   2   4  114.59    0.98   0
   1 -10   2    3.12    0.59   0
   1  -5  -3   -0.51    0.49   0
   1  -2  -3   -0.15    0.43   0
   1   3   6  108.66    0.90   0
   1   3  14   26.90    0.61   0
   1   3  15    5.45    0.42   0
   2  -6  -4   -0.13    0.45   0
   3  -6  -5   18.58    0.45   0
   4  -6  -6    6.71    0.56   0
   4  -2  -6   19.10    0.62   0
   5  -4  -7   -0.70    0.48   0
   6  -8  -6    1.13    0.39   0
   6  -6  -7    0.76    0.38   0
   6  -1  -6   22.38    0.86   0
   6   0  -5   12.76    1.18   0
   6   3   2    2.84    0.42   0
   7  -7  -7    3.23    0.57   0
   8  -3  -7    1.51    0.52   0
   9  -2  -6    5.62    0.62   0
  -3  -2  17    8.74    0.58   0
  -2   0  17   17.03    0.62   0
  -1   1  18    2.31    0.41   0
  -1   2  11  143.74    0.89   0
   0  -8   1    1.33    0.51   0
   0  -7   0    0.34    0.36   0
   0  -6  -1    0.30    0.48   0
   0  -1  -1   45.07    1.20   0
   0   2  17    0.41    0.38   0
   1  -8  -1   18.54    0.46   0
   1  -7  -2   27.24    0.60   0
   1   2   2    6.88    0.63   0
   1   3   7  210.74    1.12   0
   1   3  13    1.09    0.49   0
   2   0  -3   25.70    1.11   0
   2   3  15    1.68    0.55   0
   3  -9  -3   15.47    0.57   0
   3  -8  -4    0.67    0.51   0
   4  -9  -4    0.33    0.37   0
   4  -8  -5    3.80    0.52   0
   4   3   2    8.19    0.43   0
   5  -5  -7    0.01    0.34   0
   5  -3  -7   47.62    0.77   0
   5   3   2    0.24    0.52   0
   6  -7  -7   14.26    0.58   0
   7  -1  -6   14.27    0.80   0
  -3  -7  12    0.23    0.58   0
  -3  -2   9    0.25    0.63   0
  -3  -2  16   10.12    0.60   0
  -2  -3   3    0.83    0.57   0
  -1  -7   2    0.26    0.46   0
  -1   1  17    3.89    0.54   0
   0  -4  -2    9.57    0.56   0
   0  -3  -2  937.95    2.57   0
   0   2   5   44.90    0.76   0
   0   2  16    6.91    0.41   0
   1  -9   0    1.81    0.37   0
   1  -6  -3   53.60    0.69   0
   1   3   8  119.83    0.82   0
   1   3   9    0.34    0.45   0
   1   3  10   16.80    0.53   0
   1   3  11    1.93    0.37   0
   1   3  12   36.67    0.53   0
   2  -9  -2    2.00    0.53   0
   2  -8  -3    4.65    0.51   0
   2  -4  -5   11.01    0.56   0
   2  -1  -4   69.63    1.06   0
   2   3  14   54.02    0.72   0
   3  -7  -5    0.08    0.48   0
   3  -4  -6   63.25    0.76   0
   3   3   3   68.95    0.73   0
   4  -7  -6   11.03    0.56   0
   4   2  -1    7.97    0.59   0
   5  -8  -6    0.24    0.39   0
   5  -6  -7   17.12    0.47   0
   5  -1  -6    4.62    0.53   0
   6   2  -1   41.04    0.80   0
   6   3   3   61.16    0.73   0
   7   1  -3    0.08    0.64   0
   7   3   5    0.53    0.54   0
   8   2   1    0.43    0.56   0
   9  -3  -7    0.94    0.66   0
   9   1  -1   -0.36    0.64   0
  -3  -6   9    0.35    0.55   0
  -3  -5   8   39.14    0.89   0
  -2  -8   7    9.86    0.46   0
  -2  -7   5   46.51    0.76   0
  -2  -6   4    4.65    0.59   0
  -2  -1  19    0.33    0.41   0
  -2   0  16    3.06    0.38   0
  -1  -8   3    1.84    0.54   0
  -1  -6   1  157.93    1.01   0
  -1   1   5   65.30    0.87   0
  -1   1  16    0.16    0.50   0
   0  -5  -2   20.71    0.58   0
   0   2  15    4.90    0.40   0
   1   2  17   -0.37    0.54   0
   2  -7  -4   36.00    0.54   0
   2  -5  -5   32.56    0.62   0
   2  -3  -5  400.16    1.56   0
   2   3   5    6.79    0.42   0
   2   3  13    0.98    0.37   0
   3  -5  -6    4.26    0.36   0
   3  -3  -6   18.21    0.48   0
   3  -1  -5    1.76    0.55   0
   3   0  -4    9.54    0.80   0
   3   3  14    8.14    0.55   0
   4  -4  -7    2.57    0.50   0
   4   3   3    0.42    0.51   0
   5  -7  -7    6.64    0.52   0
   5   0  -5    0.61    0.77   0
   5   2  -1   12.77    0.61   0
   6  -8  -7    2.33    0.52   0
   6  -2  -7    1.32    0.50   0
   6   3   4    3.73    0.54   0
   7  -6  -8    3.01    0.56   0
   7  -5  -8   -0.49    0.39   0
   7  -4  -8    5.10    0.53   0
   7  -2  -7    0.75    0.46   0
   7   2   0    2.35    0.55   0
   7   3   6    1.30    0.45   0
   8  -5  -8    0.24    0.39   0
  -3  -7  11    1.10    0.60   0
  -2  -1  18    6.77    0.60   0
  -2   0   7    1.82    0.40   0
  -2   0  15    1.28    0.38   0
  -1  -5   0   17.38    0.60   0
  -1   0  19    4.32    0.55   0
  -1   1  15    0.22    0.50   0
   0  -8   0    3.13    0.51   0
   0  -7  -1    1.46    0.51   0
   0   1   2  314.82    2.20   0
   0   2   6   97.24    0.92   0
   0   2  13    3.84    0.52   0
   0   2  14   31.17    0.51   0
   1  -9  -1   35.49    0.65   0
   1  -4  -4   88.86    0.75   0
   1  -3  -4   32.28    0.69   0
   1   2  16   20.49    0.62   0
   2  -6  -5    1.18    0.47   0
   2   2   1   24.12    0.71   0
   2   3   6    1.25    0.39   0
   2   3   7  411.75    1.49   0
   2   3  10   15.83    0.53   0
   2   3  11    0.57    0.46   0
   2   3  12   13.12    0.43   0
   3  -9  -4   10.53    0.58   0
   3  -6  -6    3.78    0.40   0
   3   3   4    5.31    0.43   0
   3   3  13   12.85    0.56   0
   4  -9  -5    0.42    0.39   0
   4  -5  -7    7.15    0.41   0
   4  -3  -7  122.51    1.01   0
   4   3  13    0.06    0.55   0
   5   3   4   74.35    0.85   0
   6  -6  -8    1.52    0.54   0
   6  -5  -8    0.40    0.41   0
   6  -4  -8    0.03    0.52   0
   6   3   5    3.99    0.58   0
   8  -4  -8    5.30    0.57   0
   8   1  -2    0.12    0.60   0
  -3  -2  10   13.26    0.77   0
  -2  -8   6   16.48    0.64   0
  -2   0  14   44.27    0.63   0
  -1  -9   4   18.47    0.54   0
  -1   1   6   53.10    0.84   0
  -1   1  14   94.67    0.86   0
   0  -6  -2   12.92    0.55   0
   0  -2  -2   51.65    0.82   0
   0   1  18    0.14    0.42   0
   0   2   7    8.15    0.55   0
   0   2  12   77.36    0.77   0
   1  -7  -3    3.40    0.40   0
   1  -5  -4    0.33    0.34   0
   1  -1  -3    4.34    0.77   0
   1   1   0  248.17    2.34   0
   1   2   3  392.00    1.72   0
   2  -9  -3    2.19    0.56   0
   2  -8  -4    1.14    0.49   0
   2  -2  -5   37.78    0.72   0
   2   3   8   13.61    0.41   0
   2   3   9    4.46    0.37   0
   3  -8  -5   18.50    0.48   0
   3   2   0    4.54    0.42   0
   3   3  11    3.28    0.52   0
   3   3  12   35.84    0.53   0
   4  -8  -6    2.06    0.39   0
   4  -6  -7    1.12    0.37   0
   4   1  -3    0.16    0.75   0
   4   3   4    2.01    0.41   0
   5  -8  -7   10.53    0.55   0
   5  -5  -8   16.15    0.54   0
   5  -2  -7   32.88    0.60   0
   5   3   5    0.18    0.52   0
   6  -7  -8    2.63    0.57   0
   6   3   7    2.83    0.53   0
   6   3   8    0.42    0.56   0
   8  -2  -7    8.80    0.68   0
   8   2   2    6.38    0.57   0
  -3  -7  10    2.68    0.64   0
  -3  -6   8    4.32    0.61   0
  -3  -4   7    2.59    0.66   0
  -3  -2  11    0.56    0.59   0
  -2  -7   4    1.14    0.51   0
  -2  -1  17   19.94    0.66   0
  -2   0   8    8.68    0.50   0
  -2   0  12   -0.06    0.53   0
  -2   0  13    1.67    0.37   0
  -1  -8   2    6.99    0.45   0
  -1  -6   0    1.98    0.53   0
  -1  -2   0 1072.06    3.54   0
  -1   0  18    3.39    0.43   0
  -1   1  13    0.83    0.52   0
   0   1  17   51.52    0.70   0
   0   2   8    8.32    0.42   0
   0   2   9    5.84    0.41   0
   0   2  10    1.38    0.37   0
   0   2  11   77.32    0.68   0
   1  -6  -4   -0.27    0.48   0
   1   2  15   18.23    0.46   0
   2  -7  -5    7.05    0.50   0
   2   2  16    2.92    0.58   0
   3  -7  -6    3.03    0.37   0
   3  -2  -6    4.67    0.37   0
   3   3   6  134.25    0.87   0
   3   3   8   35.52    0.62   0
   3   3   9   23.47    0.56   0
   3   3  10    8.95    0.41   0
   4  -7  -7    3.18    0.39   0
   4   3   5  227.40    1.15   0
   4   3   6    2.73    0.51   0
   4   3  11    0.09    0.38   0
   5  -6  -8    0.64    0.36   0
   5  -4  -8   17.43    0.47   0
   5   3   6    5.16    0.49   0
   5   3   7    4.10    0.51   0
   5   3  10   15.58    0.45   0
   6  -3  -8    3.92    0.57   0
   6   2   0   26.06    0.70   0
   7  -3  -8    0.26    0.52   0
  -3  -5   7   51.79    0.93   0
  -2  -4   2   16.68    0.62   0
  -2  -2   3    7.53    0.83   0
  -2  -2  19    5.35    0.57   0
  -2   0   9  665.95    2.31   0
  -2   0  10    3.49    0.52   0
  -2   0  11    2.44    0.41   0
  -1  -9   3    0.16    0.59   0
  -1   0  17    9.64    0.58   0
  -1   1   7    1.01    0.51   0
  -1   1  12  116.24    0.95   0
   0  -8  -1    0.76    0.50   0
   0  -4  -3   41.04    0.70   0
   0   1  16   -0.25    0.50   0
   1  -8  -3   20.09    0.61   0
   1  -2  -4   89.68    0.99   0
   1   1  18    4.96    0.57   0
   1   2   4  139.70    1.09   0
   1   2  14    4.71    0.40   0
   2  -5  -6   24.72    0.57   0
   2  -4  -6    0.01    0.51   0
   3  -9  -5    1.01    0.53   0
   3  -5  -7   24.64    0.60   0
   3  -4  -7   15.21    0.58   0
   4  -1  -6    0.17    0.50   0
   4   3   7   15.50    0.48   0
   4   3   9    8.56    0.42   0
   5  -7  -8   -0.06    0.51   0
   6   1  -3    2.95    0.72   0
   7  -6  -9    0.61    0.54   0
   7   2   1    8.82    0.47   0
   8  -3  -8    0.17    0.53   0
   8  -1  -6  169.66    2.44   0
   8   2   3   65.18    0.83   0
   9   1   0    5.51    0.62   0
  -3  -7   9    4.02    0.57   0
  -2  -5   2   17.91    0.64   0
  -2  -1  16    1.59    0.48   0
  -1  -5  -1   18.70    0.62   0
  -1  -4  -1    3.39    0.39   0
  -1   1   8   36.64    0.60   0
  -1   1   9   25.03    0.62   0
  -1   1  10    5.50    0.52   0
  -1   1  11   29.53    0.55   0
   0  -5  -3    1.11    0.37   0
   0  -3  -3  282.22    1.43   0
   0   0  19   12.30    0.58   0
   1  -7  -4   10.10    0.42   0
   1   2  12    0.10    0.49   0
   1   2  13    8.48    0.41   0
   2  -9  -4    0.59    0.56   0
   2  -6  -6    4.55    0.52   0
   2   2   2   10.34    0.60   0
   2   2  15    2.16    0.39   0
   3  -8  -6    9.51    0.43   0
   3  -6  -7   47.09    0.59   0
   4  -8  -7    1.57    0.39   0
   4  -5  -8    0.74    0.52   0
   4  -4  -8    6.31    0.53   0
   4  -2  -7    0.37    0.52   0
   4   2   0    0.21    0.37   0
   5  -3  -8   27.69    0.56   0
   5   2   0    2.70    0.50   0
   6  -6  -9    0.41    0.51   0
   6  -5  -9    8.42    0.57   0
   7  -5  -9    0.45    0.41   0
   8  -5  -9    0.35    0.41   0
   8   2   4    6.55    0.47   0
   8   2   5    5.07    0.62   0
  -3  -6   7    0.49    0.47   0
  -2  -3   2    9.78    0.63   0
  -2  -2  18    0.35    0.57   0
  -2  -1  15    6.86    0.57   0
  -1  -9   2    0.85    0.49   0
  -1  -8   1   16.23    0.50   0
  -1  -7   0   15.27    0.43   0
  -1  -1  19   12.45    0.52   0
  -1   0  16    4.08    0.42   0
   0  -6  -3   26.56    0.49   0
   0   1  15   20.10    0.47   0
   1  -5  -5   67.57    0.64   0
   1  -4  -5    2.18    0.37   0
   1   1  17   12.54    0.44   0
   1   2   5   89.27    0.83   0
   1   2  11   58.00    0.71   0
   2  -8  -5    1.87    0.39   0
   2  -3  -6    0.15    0.37   0
   2   2  14    4.74    0.38   0
   3  -7  -7    3.86    0.51   0
   3  -3  -7    8.64    0.42   0
   3   2   1   68.56    0.90   0
   3   2  15    3.33    0.40   0
   4  -6  -8    1.49    0.39   0
   5  -8  -8    5.08    0.43   0
   6  -7  -9    1.42    0.59   0
   6  -4  -9    2.04    0.48   0
   6   2   1    3.11    0.58   0
   7  -4  -9    0.11    0.51   0
   7   2   2   28.52    0.71   0
   9   0  -3    2.37    0.77   0
  -3  -7   8    5.85    0.56   0
  -3  -5   6   11.32    0.68   0
  -3  -4  16    2.78    0.64   0
  -3  -3  14    1.32    0.59   0
  -2  -8   4    4.95    0.57   0
  -2  -6   2   71.55    0.75   0
  -1  -6  -1    8.78    0.44   0
  -1   0  15   48.38    0.72   0
   0  -8  -2    0.78    0.52   0
   0   0  18    4.45    0.43   0
   0   1   3   25.12    0.73   0
   0   1  14    8.61    0.55   0
   1  -9  -3    3.10    0.54   0
   1  -8  -4   34.29    0.67   0
   1  -6  -5   76.88    0.67   0
   1  -3  -5    5.32    0.54   0
   1   1  16    0.97    0.54   0
   1   2   6    9.79    0.46   0
   1   2   7  158.46    1.04   0
   1   2   8   53.06    0.72   0
   1   2   9  206.33    1.10   0
   1   2  10   61.85    0.63   0
   2  -7  -6    0.76    0.38   0
   2   2  13   12.12    0.43   0
   3   2  14    8.68    0.44   0
   4  -7  -8    0.07    0.38   0
   4  -3  -8   -0.43    0.54   0
   5  -6  -9   13.01    0.59   0
   5  -5  -9   14.57    0.60   0
   5   1  -3    7.72    0.71   0
   8  -4  -9    6.54    0.47   0
   8   1  -1    0.28    0.51   0
   9  -3  -8    0.18    0.66   0
   9   1   1   15.71    0.66   0
  -3  -4   6    0.36    0.53   0
  -2  -9   5    2.05    0.53   0
  -2  -3  19    5.08    0.63   0
  -2  -2  17   -0.35    0.54   0
  -2  -1   5  141.41    2.32   0
  -2  -1  14    3.51    0.58   0
  -1  -8   0   17.71    0.60   0
  -1  -1  18    0.49    0.38   0
   0   1  13   28.06    0.64   0
   1  -7  -5    5.06    0.52   0
   1   0  -2  265.06    3.39   0
   2  -9  -5    8.91    0.59   0
   2   1  17   22.19    0.51   0
   2   2   3  193.65    1.18   0
   2   2  12   11.70    0.42   0
   3  -8  -7    3.07    0.53   0
   3  -5  -8    2.74    0.49   0
   3   2  13   13.57    0.43   0
   4  -8  -8    1.32    0.55   0
   4   0  -5    9.99    0.96   0
   4   2   1  104.73    1.03   0
   4   2  13    5.16    0.57   0
   5  -7  -9    0.73    0.36   0
   5  -4  -9    2.05    0.37   0
   5   2   1   13.61    0.60   0
   5   2  13    7.38    0.46   0
   6  -2  -8    4.60    0.52   0
   7   1  -2    0.04    0.58   0
   7   2   4    4.93    0.55   0
   8   0  -4    4.45    0.90   0
   9  -2  -7   -0.04    0.61   0
  -3  -7   7    3.76    0.52   0
  -3  -6   6   41.83    0.81   0
  -3  -3  13    4.16    0.63   0
  -2  -8   3    1.40    0.51   0
  -2  -5   1   16.55    0.49   0
  -2  -1  13   18.01    0.66   0
  -1  -9   1   14.78    0.50   0
  -1  -5  -2   68.92    0.82   0
  -1  -4  -2    1.19    0.50   0
  -1   0  14   46.97    0.61   0
   0  -6  -4    1.69    0.50   0
   0  -5  -4   19.46    0.47   0
   0  -4  -4    6.63    0.41   0
   0  -2  -3   20.81    0.59   0
   0   0  17    0.17    0.38   0
   0   1  12   17.01    0.57   0
   1   1  15   -0.32    0.38   0
   2  -8  -6    5.53    0.42   0
   2  -6  -7    1.73    0.49   0
   2  -5  -7    1.69    0.34   0
   2  -4  -7    4.27    0.38   0
   2  -2  -6    1.15    0.46   0
   2  -1  -5    1.34    0.56   0
   2   1  -1   23.65    0.96   0
   2   1  16    0.46    0.51   0
   2   2   4   51.13    0.73   0
   2   2  10  128.69    0.91   0
   2   2  11   15.70    0.44   0
   3  -6  -8   64.08    0.66   0
   3  -4  -8   28.30    0.63   0
   3  -2  -7   70.33    0.85   0
   3   2   2   62.25    0.74   0
   3   2  12    1.61    0.37   0
   4  -6  -9    2.05    0.49   0
   4  -5  -9    0.63    0.50   0
   4   2  12    0.03    0.53   0
   5  -2  -8   17.58    0.65   0
   5   2  12    0.32    0.39   0
   6  -3  -9   44.87    0.80   0
   6  -1  -7    7.61    0.68   0
   6   2  10    1.74    0.56   0
   7  -6 -10    0.55    0.43   0
   7  -5 -10    1.92    0.53   0
   7  -3  -9    7.38    0.57   0
   7  -2  -8    0.68    0.49   0
   7   2   6    1.06    0.40   0
   7   2   7    0.49    0.41   0
   9   1   2   -0.14    0.54   0
  -3  -8   9   10.11    0.68   0
  -3  -4  15    0.57    0.59   0
  -2  -6   1    0.11    0.37   0
  -2  -2  16    1.04    0.52   0
  -1  -6  -2    0.75    0.51   0
  -1  -1  17    5.66    0.44   0
  -1   0  13    9.30    0.58   0
   0  -9  -2    0.90    0.40   0
   0  -8  -3   12.34    0.44   0
   0  -3  -4    3.60    0.53   0
   0  -1  -2  329.19    2.24   0
   0  -1  19   14.96    0.61   0
   0   0  16   13.41    0.57   0
   0   1   4    1.48    0.48   0
   0   1  11    4.58    0.53   0
   1  -8  -5    1.38    0.53   0
   1  -6  -6   42.75    0.65   0
   1  -5  -6    9.12    0.38   0
   1  -4  -6   65.98    0.76   0
   1   0  18    0.95    0.38   0
   1   1  14   18.82    0.58   0
   2  -7  -7    4.31    0.52   0
   2   2   5   43.62    0.62   0
   2   2   6  141.67    1.02   0
   2   2   7   25.12    0.62   0
   2   2   8    0.63    0.50   0
   2   2   9   99.74    0.76   0
   3  -7  -8   -0.17    0.36   0
   3  -1  -6   47.01    0.89   0
   3   1  -2   24.24    0.99   0
   3   2  11   20.15    0.46   0
   4  -7  -9    7.84    0.58   0
   4  -4  -9    8.81    0.55   0
   4   2   2   80.83    0.89   0
   5  -3  -9    2.17    0.52   0
   5  -1  -7    0.03    0.52   0
   5   2   2    1.31    0.50   0
   5   2  11   13.88    0.45   0
   6  -6 -10    1.15    0.42   0
   6  -5 -10    1.17    0.53   0
   6   2   3    7.96    0.44   0
  -3  -8   8    3.91    0.54   0
  -3  -7   6    8.21    0.57   0
  -3  -5   5    0.72    0.50   0
  -3  -5  16    5.01    0.71   0
  -3  -3  12   10.33    0.69   0
  -2  -9   4    8.02    0.50   0
  -2  -3   1    1.07    0.54   0
  -2  -3  18    2.28    0.53   0
  -2  -1  12   51.14    0.78   0
  -1  -8  -1    0.78    0.51   0
  -1  -3  -2    4.40    0.53   0
  -1  -2  19   19.46    0.55   0
  -1   0  12   16.51    0.63   0
   0  -7  -4    0.37    0.36   0
   0   1   5   41.91    0.82   0
   0   1  10   -0.03    0.50   0
   1  -2  -5  117.48    0.96   0
   1   1   1   10.37    0.87   0
   2  -3  -7   13.85    0.46   0
   2   1  15   46.22    0.57   0
   3  -8  -8    0.60    0.49   0
   3  -3  -8    9.67    0.57   0
   3   1  16   20.03    0.49   0
   3   2   3    8.32    0.43   0
   3   2   9   36.33    0.64   0
   3   2  10    0.46    0.38   0
   4   2  10    9.38    0.52   0
   5  -6 -10   45.23    0.75   0
   5  -5 -10    5.25    0.53   0
   5   2   3   14.80    0.62   0
   5   2   9    2.38    0.51   0
   5   2  10    2.68    0.38   0
   6  -4 -10    0.12    0.50   0
   6   2   4   13.21    0.48   0
   6   2   6   29.86    0.68   0
   6   2   7   12.81    0.46   0
   6   2   8    0.60    0.41   0
   7  -4 -10    2.37    0.50   0
   8  -3  -9    2.25    0.57   0
  -3  -4   5  110.93    1.32   0
  -2  -8   2    3.35    0.40   0
  -2  -5   0    0.06    0.54   0
  -2  -1  11   19.06    0.61   0
  -1  -7  -2   25.66    0.52   0
  -1  -1  16    1.91    0.40   0
   0  -9  -3    7.93    0.55   0
   0  -5  -5    0.38    0.50   0
   0  -1  18   18.26    0.64   0
   0   0  15    4.14    0.52   0
   0   1   6  155.51    1.16   0
   0   1   7  322.45    1.49   0
   0   1   8   32.09    0.68   0
   0   1   9   49.52    0.64   0
   1  -7  -6    5.75    0.39   0
   1  -3  -6   16.30    0.61   0
   1  -1  -4  125.12    1.22   0
   1   0  17   -0.09    0.40   0
   1   1  13   -0.40    0.40   0
   2  -8  -7   10.98    0.44   0
   2   0  18    9.49    0.47   0
   2   1  14   11.32    0.59   0
   3   1  15    8.18    0.44   0
   3   2   4    4.23    0.41   0
   3   2   5  161.02    1.10   0
   3   2   6  162.93    1.06   0
   3   2   7   59.41    0.75   0
   3   2   8   29.73    0.52   0
   4  -2  -8    5.66    0.41   0
   4   1  15   11.66    0.59   0
   4   2   3    4.21    0.43   0
   4   2   8  129.03    0.97   0
   4   2   9    4.86    0.42   0
   5  -7 -10    0.14    0.41   0
   5   2   4   69.04    0.83   0
   5   2   5   10.58    0.58   0
   5   2   6   13.28    0.59   0
   5   2   7   27.74    0.66   0
   5   2   8    5.61    0.42   0
   7  -1  -7    0.11    0.71   0
   8  -4 -10    1.24    0.52   0
   8  -2  -8    0.21    0.52   0
  -3  -8   7    5.84    0.65   0
  -3  -4  14    6.59    0.66   0
  -3  -3  11   15.38    0.79   0
  -2  -9   3    0.45    0.42   0
  -2  -6   0    0.58    0.37   0
  -2  -4   0    9.04    0.45   0
  -2  -3  17    0.10    0.52   0
  -2  -2  15   20.92    0.55   0
  -2  -1  10   25.22    0.69   0
  -1  -6  -3   81.13    0.83   0
  -1  -5  -3    4.65    0.40   0
  -1  -4  -3   36.64    0.70   0
  -1  -2  18    0.65    0.53   0
  -1   0  11   11.16    0.46   0
   0  -6  -5    0.82    0.39   0
   0  -4  -5   59.29    0.64   0
   1  -8  -6    0.80    0.53   0
   1  -1  19    0.09    0.60   0
   1   1  12  184.26    0.97   0
   2  -6  -8    0.23    0.37   0
   2  -5  -8    4.55    0.38   0
   2  -4  -8   23.52    0.60   0
   3  -7  -9    0.70    0.52   0
   3  -6  -9    3.05    0.40   0
   3  -5  -9    8.69    0.42   0
   4  -6 -10    0.56    0.52   0
   4  -3  -9    0.40    0.35   0
   4  -1  -7   11.10    0.61   0
   4   2   4   29.99    0.56   0
   4   2   7  130.61    0.88   0
   5  -4 -10    0.32    0.38   0
   6   1  -2    3.97    0.62   0
   7   1  -1   11.68    0.58   0
   8   1   1   11.53    0.60   0
  -3  -8   6    5.97    0.55   0
  -3  -7   5    7.45    0.45   0
  -3  -5   4    0.74    0.52   0
  -3  -3  10   51.86    1.32   0
  -2  -8   1    0.49    0.53   0
  -2  -2   2   43.27    1.06   0
  -1  -9  -1    0.04    0.40   0
  -1  -7  -3   27.31    0.61   0
  -1  -1  15    0.05    0.37   0
  -1   0  10   41.02    0.64   0
   0  -7  -5    6.08    0.40   0
   0  -1  17   13.28    0.61   0
   0   0  14    0.70    0.37   0
   1  -6  -7    1.02    0.37   0
   1  -5  -7    7.71    0.40   0
   1  -4  -7   51.38    0.69   0
   1   0  16   29.62    0.52   0
   1   1  11   15.29    0.53   0
   2  -7  -8   -0.09    0.35   0
   2   0  17   -0.14    0.39   0
   2   1  13   19.65    0.46   0
   3  -4  -9   32.64    0.55   0
   3   1  14   13.91    0.45   0
   4  -7 -10   -0.18    0.39   0
   4  -5 -10    2.75    0.40   0
   6  -6 -11   -0.02    0.45   0
   6  -5 -11    0.87    0.50   0
   7  -5 -11   -0.01    0.58   0
   8   1   2    0.14    0.56   0
  -3  -5  15    1.31    0.67   0
  -2  -5  -1    0.06    0.56   0
  -2  -2  14   68.09    0.90   0
  -1  -3  19    1.88    0.58   0
  -1   0   5  311.76    2.06   0
  -1   0   8   73.98    0.90   0
  -1   0   9  105.72    0.91   0
   0  -3  -5   39.70    0.60   0
   0  -2  -4  115.28    0.99   0
   0   0  13   10.43    0.55   0
   1  -7  -7   -0.09    0.36   0
   1  -1  18   15.40    0.61   0
   1   0  15    9.45    0.54   0
   1   1   2  380.73    2.19   0
   1   1  10  140.34    0.98   0
   2  -8  -8    4.12    0.42   0
   2  -2  -7   23.60    0.52   0
   2   1  12   14.10    0.55   0
   3  -2  -8    5.45    0.53   0
   3   0  17    0.13    0.43   0
   3   1  13    1.66    0.39   0
   4  -4 -10    0.15    0.36   0
   5  -6 -11    0.98    0.41   0
   5   1  13    3.10    0.42   0
   6  -3 -10   -0.32    0.54   0
   6  -2  -9    3.16    0.54   0
   6   1  12    2.53    0.40   0
   7  -3 -10    2.86    0.51   0
   7   1  10    8.63    0.61   0
   8   1   3   -0.17    0.51   0
   8   1   4    1.98    0.57   0
   8   1   5   16.74    0.66   0
   8   1   6   26.46    0.69   0
   8   1   7    0.74    0.46   0
  -3  -7   4    2.85    0.42   0
  -3  -5   3  172.90    1.33   0
  -3  -3   9    5.43    0.90   0
  -2  -8   0    0.92    0.53   0
  -2  -6  -1   35.71    0.56   0
  -2  -3   0  560.21    2.15   0
  -2  -3  16    0.39    0.57   0
  -1  -5  -4   10.27    0.41   0
  -1  -3  -3    2.35    0.35   0
  -1  -2  -2    6.31    0.66   0
  -1  -1  14    0.15    0.36   0
  -1   0   6    0.29    0.59   0
  -1   0   7    1.14    0.53   0
   0  -6  -6    1.15    0.38   0
   0  -5  -6    0.01    0.35   0
   1  -8  -7    6.52    0.57   0
   1  -2  -6   41.96    0.73   0
   1   1   9    0.10    0.51   0
   2  -6  -9    1.78    0.51   0
   2  -5  -9   33.23    0.63   0
   2  -3  -8    1.10    0.38   0
   2   0  16   20.30    0.48   0
   2   1  11   61.18    0.73   0
   3  -6 -10    1.36    0.54   0
   3  -5 -10   70.77    0.77   0
   3  -3  -9    0.48    0.41   0
   3   1  12   20.04    0.58   0
   4   1  -2   44.72    1.07   0
   5  -5 -11    3.57    0.44   0
   5  -3 -10    7.51    0.44   0
   5  -2  -9    0.72    0.40   0
   5   1  -2    2.17    0.58   0
   5   1  12    7.96    0.53   0
   6  -4 -11   -0.07    0.49   0
   6   1  11    2.75    0.53   0
   7  -4 -11    0.96    0.52   0
   7  -2  -9    4.34    0.63   0
   7   1   0    0.55    0.50   0
   7   1   9   -0.40    0.55   0
  -3  -4  13   53.44    1.14   0
  -3  -3   6    8.08    1.02   0
  -2  -2  13  103.31    1.07   0
  -1  -7  -4    0.53    0.52   0
  -1  -4  -4  267.81    1.22   0
   0  -7  -6   10.45    0.43   0
   0  -4  -6    6.69    0.39   0
   0  -1  16   34.68    0.56   0
   0   0  12   13.22    0.56   0
   1  -6  -8   12.66    0.53   0
   1  -5  -8  163.10    1.01   0
   1  -3  -7   66.65    0.69   0
   1   0  14    0.87    0.52   0
   1   1   3  716.52    2.63   0
   1   1   8   32.24    0.67   0
   2  -7  -9    2.55    0.38   0
   2  -4  -9   75.63    0.77   0
   2  -1  -6   74.04    0.97   0
   2   0  15    0.53    0.51   0
   3  -7 -10    1.95    0.39   0
   3   0  16    4.74    0.41   0
   4  -7 -11    0.81    0.53   0
   4  -6 -11    4.64    0.40   0
   4  -5 -11   14.16    0.56   0
   4   0  16   19.10    0.48   0
   4   1  12    8.46    0.42   0
   5  -4 -11   33.36    0.76   0
   5   1  11    1.12    0.52   0
   6   1  10   15.62    0.60   0
   7   1   1    4.68    0.56   0
   7   1   8    6.03    0.53   0
   8  -3 -10   -0.08    0.65   0
   9   0  -1    1.36    0.57   0
  -3  -8   4   -0.20    0.57   0
  -3  -7   3   25.29    0.57   0
  -3  -4   3   28.68    0.71   0
  -2  -5  -2   43.15    0.74   0
  -1  -3  18   19.10    0.69   0
  -1  -1  13   19.31    0.48   0
   0  -8  -6    3.17    0.56   0
   0  -1  -3   26.68    0.75   0
   1  -7  -8    2.66    0.40   0
   1  -4  -8  337.50    1.37   0
   1  -1  17   28.44    0.52   0
   1   1   4   96.35    1.04   0
   1   1   6  102.19    0.96   0
   1   1   7  100.05    0.83   0
   2  -1  18   16.37    0.46   0
   2   0  -4  112.29    1.69   0
   2   1   0  417.12    2.52   0
   2   1  10    0.91    0.35   0
   3  -4 -10  199.32    1.06   0
   3  -1  -7   25.43    0.61   0
   3   0  -5    1.59    0.72   0
   3   1  11    0.92    0.37   0
   4  -3 -10   12.79    0.44   0
   4  -2  -9   13.07    0.48   0
   4   1  11    0.46    0.36   0
   5   0  15    0.01    0.55   0
   6   1  -1    5.09    0.51   0
   6   1   9   -0.42    0.53   0
   7   1   2    5.04    0.59   0
   7   1   6   74.72    0.89   0
   7   1   7   10.75    0.50   0
  -3  -6   2    4.54    0.42   0
  -2  -8  -1    2.27    0.41   0
  -2  -7  -2    5.16    0.55   0
  -2  -4  17   -0.20    0.54   0
  -2  -3  15   62.86    0.90   0
  -2  -2   1  204.32    1.76   0
  -2  -2  12   31.20    0.71   0
  -1  -5  -5    8.47    0.52   0
  -1  -3  -4   15.08    0.60   0
   0  -6  -7    3.27    0.38   0
   0  -5  -7   47.66    0.69   0
   0  -3  -6    0.83    0.37   0
   0  -2  -5   46.35    0.78   0
   0  -1  15   11.28    0.41   0
   0   0  11   12.03    0.46   0
   1  -8  -8    0.62    0.41   0
   1  -2  19    1.81    0.43   0
   1  -1  -5   63.46    0.86   0
   1   0  13   70.65    0.67   0
   1   1   5   36.83    0.64   0
   2  -6 -10   24.26    0.59   0
   2   0  14   14.99    0.57   0
   2   1   9   15.86    0.45   0
   3  -1  18    0.71    0.42   0
   3   0  15    0.16    0.38   0
   3   1  -1   40.13    1.01   0
   3   1  10  205.37    1.01   0
   4  -4 -11   85.69    0.88   0
   4   0  15    0.73    0.39   0
   4   1  10   15.14    0.58   0
   5  -6 -12    1.78    0.41   0
   5  -1  -8    1.16    0.51   0
   6  -5 -12    2.57    0.46   0
   7   1   3   23.89    0.55   0
   7   1   4    5.95    0.52   0
   7   1   5   24.26    0.55   0
   8   0  -3    1.25    0.58   0
   9   0   0    7.71    0.64   0
  -3  -8   3    6.27    0.46   0
  -3  -5  14   10.36    0.77   0
  -2  -4  -2   10.73    0.46   0
  -2  -3  -1  101.17    0.92   0
  -1  -7  -5    0.86    0.38   0
  -1  -4  -5    2.53    0.55   0
  -1  -4  19    1.04    0.60   0
  -1  -2  15   11.41    0.58   0
  -1  -1  12   65.08    0.73   0
   0  -7  -7    0.33    0.37   0
   0  -4  -7   73.42    0.77   0
   0  -3  19    0.93    0.60   0
   0  -2  17    0.32    0.53   0
   0   0  10   -0.07    0.54   0
   1  -6  -9    1.88    0.51   0
   1  -1  16    3.28    0.40   0
   2  -7 -10   12.98    0.45   0
   2  -5 -10    8.71    0.41   0
   2  -3  -9    1.50    0.37   0
   2  -2  -8   57.22    0.77   0
   2  -1  17    9.62    0.46   0
   2   1   8   26.50    0.50   0
   3  -7 -11    2.63    0.42   0
   3  -6 -11    1.07    0.40   0
   3  -5 -11    8.59    0.55   0
   3  -3 -10  128.21    1.00   0
   3   0  14   22.35    0.59   0
   3   1   9   89.43    0.80   0
   4  -6 -12   12.98    0.57   0
   5  -5 -12   31.36    0.58   0
   5   1   9    3.14    0.37   0
   6  -3 -11    0.23    0.50   0
   6  -1  -8    4.46    0.67   0
   6   1   0    1.52    0.51   0
   9   0   1    1.87    0.55   0
  -3  -8   2   10.61    0.58   0
  -3  -6   1    7.39    0.57   0
  -3  -6  15   15.65    0.89   0
  -3  -5   1    0.22    0.56   0
  -3  -4   2    7.68    0.54   0
  -3  -4  12    1.30    0.62   0
  -3  -3   5    0.54    0.63   0
  -2  -8  -2    0.63    0.40   0
  -2  -6  -3   12.55    0.43   0
  -2  -5  -3    0.92    0.51   0
  -1  -8  -5    2.65    0.55   0
  -1  -3  17    1.29    0.53   0
  -1  -2  -3  391.60    1.74   0
   0  -8  -7    0.41    0.40   0
   0  -1  14   27.13    0.63   0
   1  -7  -9    8.13    0.43   0
   1  -5  -9    9.83    0.40   0
   1  -3  -8   74.33    0.71   0
   1  -2  -7  118.18    0.91   0
   1   0  12   28.53    0.51   0
   2  -4 -10    5.60    0.54   0
   2  -2  19    5.89    0.45   0
   2   0  13    0.08    0.48   0
   2   1   1   14.11    0.72   0
   2   1   7   31.89    0.64   0
   3  -2  -9   87.95    0.84   0
   3  -1  17    1.25    0.40   0
   3   1   8  219.62    1.17   0
   4  -5 -12    1.42    0.56   0
   4  -1  -8    1.39    0.50   0
   4   0  14    9.08    0.43   0
   5  -3 -11    0.19    0.40   0
   5   1  -1   35.35    0.76   0
   6  -4 -12    2.26    0.60   0
   6   0  13   12.56    0.47   0
   6   1   5    2.47    0.49   0
   6   1   6   -0.23    0.36   0
   7  -4 -12    0.00    0.55   0
   7  -3 -11    3.63    0.57   0
   8  -2  -9    1.09    0.63   0
   9  -2  -8    1.12    0.80   0
   9  -1  -5    8.23    0.99   0
   9   0   2    0.63    0.52   0
   9   0   3    1.82    0.59   0
   9   0   4    7.76    0.63   0
  -2  -7  -3    1.55    0.39   0
  -2  -4  16    5.43    0.58   0
  -2  -3  14    9.00    0.58   0
  -2  -2  11   18.56    0.63   0
  -1  -7  -6   17.00    0.58   0
  -1  -6  -6    0.88    0.38   0
  -1  -5  -6  201.73    1.10   0
  -1  -1  11  101.27    0.98   0
   0  -7  -8   21.90    0.62   0
   0  -6  -8   48.39    0.59   0
   0  -5  -8    4.55    0.49   0
   0   0   9    1.67    0.39   0
   1  -4  -9   25.45    0.48   0
   1  -1  15    5.91    0.52   0
   2  -1  16   10.31    0.43   0
   2   1   6    0.00    0.39   0
   3  -4 -11   17.81    0.48   0
   3   0  13   -0.01    0.49   0
   4  -3 -11   10.72    0.58   0
   4   0  13    9.68    0.54   0
   4   1  -1   11.58    0.62   0
   5  -4 -12  111.51    0.93   0
   5  -2 -10    6.36    0.46   0
   5   0  13    5.81    0.41   0
   5   1   7   62.22    0.66   0
   6  -2 -10    1.32    0.53   0
   6   0  12    7.03    0.58   0
   6   1   2   13.28    0.61   0
   6   1   3   19.03    0.61   0
   6   1   4    0.28    0.36   0
   7   0  11    1.53    0.41   0
  -3  -8   1    1.06    0.57   0
  -3  -6   0    0.82    0.53   0
  -3  -3   4    3.57    0.67   0
  -2  -8  -3    1.82    0.57   0
  -2  -6  -4    1.94    0.51   0
  -2  -4  -3   13.43    0.49   0
  -2  -3  -2   17.70    0.50   0
  -1  -4  -6  198.68    1.11   0
  -1  -4  18    9.19    0.64   0
  -1  -3  -5   26.05    0.52   0
  -1  -2  14    1.12    0.54   0
  -1  -1  -1   10.63    0.89   0
   0  -3  -7   10.27    0.42   0
   0  -3  18    4.10    0.55   0
   0  -2  16   17.05    0.61   0
   0  -1  13   58.38    0.80   0
   1  -6 -10    2.89    0.49   0
   1   0  11   65.89    0.66   0
   2  -7 -11    0.80    0.40   0
   2  -6 -11    0.42    0.38   0
   2  -5 -11    3.61    0.53   0
   2  -1  -7    6.57    0.53   0
   2   0  12    0.69    0.47   0
   2   1   3   51.53    0.85   0
   2   1   4   49.01    0.78   0
   2   1   5  363.01    1.54   0
   3  -6 -12    1.90    0.41   0
   3  -1  16    1.15    0.39   0
   3   1   0    0.38    0.53   0
   3   1   6    0.24    0.53   0
   3   1   7    0.05    0.37   0
   4  -4 -12    2.05    0.55   0
   4  -2 -10   13.69    0.62   0
   4   1   7    1.95    0.37   0
   5  -5 -13    1.23    0.52   0
   5  -1  16   -0.20    0.41   0
   5   1   0    8.54    0.52   0
   5   1   5   41.58    0.75   0
   7   0  10    0.41    0.52   0
   8   0  -2    5.84    0.56   0
   8   0   8   10.07    0.48   0
  -3  -7   0    9.79    0.47   0
  -3  -5   0   31.20    0.57   0
  -3  -4   1    0.73    0.37   0
  -2  -7  -4    3.05    0.55   0
  -2  -5  -4    3.49    0.39   0
  -2  -5  17    1.25    0.54   0
  -2  -2   0   78.86    1.01   0
  -1  -8  -6    0.35    0.41   0
  -1  -3  16   36.53    0.71   0
  -1  -1  10    2.38    0.51   0
   0  -4  -8   12.09    0.41   0
   0  -2  -6  101.64    0.88   0
   0  -1  -4    1.26    0.50   0
   0   0   8   16.92    0.47   0
   1  -7 -10   17.18    0.50   0
   1  -5 -10    0.27    0.36   0
   1  -3  -9   31.56    0.63   0
   1  -3  19    8.20    0.45   0
   1  -1  -6   50.76    0.83   0
   1  -1  14    5.15    0.54   0
   2  -3 -10    2.33    0.39   0
   2  -1  15   28.90    0.61   0
   3  -5 -12    1.68    0.37   0
   3  -2  18    8.34    0.57   0
   3  -1  -8   13.67    0.60   0
   3   0  12    2.35    0.47   0
   3   1   5  132.68    1.01   0
   4   0  12   21.10    0.59   0
   4   1   5   83.21    0.88   0
   4   1   6    0.30    0.37   0
   5   0  12   17.26    0.46   0
   5   1   2   -0.14    0.52   0
   5   1   4   24.54    0.62   0
   7  -2 -10    0.02    0.51   0
   7   0  -4    5.40    0.77   0
   7   0   9    5.54    0.57   0
   8  -3 -11    2.49    0.63   0
   8   0   6    2.50    0.56   0
   8   0   7    2.42    0.42   0
  -3  -8   0   15.63    0.68   0
  -3  -6  -1   55.12    0.81   0
  -3  -3   3    5.65    0.71   0
  -2  -8  -4   -0.27    0.58   0
  -2  -4  -4   11.28    0.58   0
  -1  -7  -7    2.51    0.57   0
  -1  -6  -7    1.55    0.38   0
  -1  -5  -7   17.63    0.46   0
  -1  -2  -4  138.45    1.03   0
   0  -7  -9    1.03    0.56   0
   0  -6  -9    4.92    0.40   0
   0  -5  -9    5.85    0.51   0
   0  -4  19   12.99    0.65   0
   0   0   7 1272.35    3.06   0
   1  -4 -10   15.52    0.56   0
   1  -2  -8    0.38    0.52   0
   1   0  -3   13.66    1.00   0
   1   0  10   24.73    0.51   0
   2  -4 -11    1.53    0.39   0
   2  -2  -9   10.30    0.44   0
   2   0  11    1.93    0.34   0
   3  -4 -12   14.68    0.57   0
   3  -3 -11    6.04    0.42   0
   3  -2 -10    9.24    0.55   0
   3  -1  15   50.62    0.70   0
   3   1   1  128.39    1.23   0
   3   1   2    7.97    0.56   0
   3   1   3    4.86    0.52   0
   3   1   4   48.68    0.73   0
   4  -5 -13    0.56    0.58   0
   4   0  -6   16.86    0.90   0
   5  -3 -12   36.63    0.71   0
   5  -1  15    4.55    0.42   0
   5   0  11    0.48    0.51   0
   6  -4 -13   27.73    0.71   0
   6  -3 -12    0.76    0.49   0
   6   0  10    8.02    0.56   0
   8   0  -1    1.36    0.54   0
   8   0   5    2.84    0.57   0
  -3  -5  13    0.46    0.66   0
  -3  -4   0    0.79    0.40   0
  -3  -4  11    6.84    0.76   0
  -2  -5  -5   11.64    0.56   0
  -2  -4  15  106.33    1.11   0
  -2  -3  -3  133.15    0.96   0
  -2  -3  13    8.16    0.46   0
  -1  -4  -7   27.27    0.59   0
  -1  -3  -6  101.96    0.90   0
  -1  -2  13    1.86    0.52   0
   0  -3  -8    2.24    0.52   0
   0  -3  17    6.81    0.58   0
   0  -2  15    4.27    0.37   0
   0  -1  12   -0.14    0.40   0
   1  -7 -11    1.63    0.53   0
   1  -6 -11   -0.25    0.49   0
   1  -2  16   24.30    0.62   0
   1   0   9   22.76    0.63   0
   2  -6 -12    0.06    0.39   0
   2  -3  19    0.04    0.43   0
   2  -1  14   22.18    0.58   0
   3  -6 -13    0.29    0.54   0
   3   0  11  122.90    0.81   0
   4   0  11    4.59    0.49   0
   4   1   2   25.09    0.58   0
   5  -4 -13   13.54    0.49   0
   5   0  -6   40.68    1.85   0
   6  -1  14    1.32    0.40   0
   7  -1  -8    3.18    0.77   0
   7   0   8   12.83    0.46   0
   8   0   0   16.78    0.66   0
   8   0   3    0.41    0.54   0
   8   0   4    2.76    0.53   0
  -3  -8  -1   10.75    0.51   0
  -3  -7  -2    0.25    0.49   0
  -3  -6  -2    0.25    0.55   0
  -2  -2  -1   23.76    0.61   0
  -1  -6  -8    7.12    0.56   0
  -1  -4  17    8.27    0.56   0
  -1  -3  15   12.70    0.60   0
  -1  -1   9   71.49    0.83   0
   0  -4  -9    2.59    0.37   0
   0  -2  -7    9.76    0.57   0
   0   0   6   20.77    0.58   0
   1  -5 -11    2.72    0.37   0
   1  -3  18   45.19    0.63   0
   1  -1  13   21.90    0.48   0
   2  -5 -12    2.17    0.38   0
   2   0  10   26.63    0.51   0
   3  -5 -13    1.54    0.52   0
   3  -2  17    0.71    0.41   0
   3  -1  14   15.18    0.57   0
   4  -4 -13   -0.32    0.55   0
   4  -3 -12    1.82    0.40   0
   4  -2  17    1.24    0.42   0
   4  -1  -9   83.86    1.01   0
   5  -2 -11   47.61    0.84   0
   5  -1  -9    3.43    0.53   0
   5  -1  14    0.15    0.40   0
   5   0  10   16.49    0.46   0
   6   0   9    9.55    0.44   0
   7  -3 -12    4.76    0.59   0
   7  -1  12    7.67    0.59   0
   7   0   7   10.58    0.55   0
   8   0   1    4.23    0.55   0
   8   0   2    2.86    0.41   0
  -4  -7   6   12.40    0.65   0
  -4  -7   7   20.47    0.83   0
  -3  -6  14    6.75    0.73   0
  -3  -5  -2   19.06    0.49   0
  -3  -4  -1    0.32    0.54   0
  -2  -6  -6   10.54    0.57   0
  -2  -4  -5   11.17    0.43   0
  -1  -5  -8   11.07    0.41   0
  -1  -5  18   24.56    0.74   0
  -1  -2  -5   93.88    0.92   0
  -1  -1  -2  405.30    2.26   0
   0  -7 -10    2.16    0.41   0
   0  -6 -10    1.06    0.38   0
   0  -5 -10    0.35    0.52   0
   0  -2  14    1.06    0.51   0
   0  -1  -5   39.26    0.82   0
   0  -1  11   12.34    0.58   0
   0   0   5    4.43    0.67   0
   1  -4 -11    1.12    0.49   0
   1  -3 -10   49.77    0.60   0
   1   0   8   78.08    0.84   0
   2  -4 -12    1.76    0.51   0
   2  -3 -11  162.76    0.97   0
   2  -2  16    0.99    0.51   0
   2  -1  -8   59.38    0.82   0
   2   0  -5    2.59    0.62   0
   3   0  10   24.57    0.48   0
   4  -5 -14    8.19    0.56   0
   4  -2 -11    0.30    0.38   0
   4   0  10    3.23    0.37   0
   6  -2 -11   15.86    0.67   0
   6  -1  13    5.45    0.41   0
   6   0   8    8.03    0.56   0
   7   0   6   11.09    0.62   0
   8  -1  10    0.53    0.43   0
  -4  -6   6   13.30    0.65   0
  -3  -7  -3    1.49    0.51   0
  -3  -3   1  149.78    1.31   0
  -2  -7  -6   23.78    0.52   0
  -2  -5  -6   19.81    0.48   0
  -2  -3  -4   58.96    0.70   0
  -1  -4  -8   24.09    0.59   0
  -1  -3  -7  217.82    1.16   0
  -1  -2  12   54.73    0.78   0
  -1  -1   8  210.95    1.47   0
   0  -4  18   -0.10    0.42   0
   0  -3  -9  320.37    1.33   0
   0  -3  16    2.46    0.56   0
   1  -6 -12    3.08    0.56   0
   1  -4  19    0.85    0.41   0
   1  -2  -9  200.79    1.09   0
   1  -2  15   81.57    0.82   0
   1  -1  -7    0.99    0.36   0
   1  -1  12   -0.79    0.50   0
   2  -6 -13    4.97    0.43   0
   2  -3  18   57.69    0.68   0
   2  -2 -10    1.49    0.40   0
   2  -1  13   30.51    0.51   0
   2   0   9    1.31    0.36   0
   3  -4 -13    6.08    0.41   0
   3  -3 -12   37.67    0.57   0
   3  -1  -9   10.22    0.59   0
   3   0  -6   17.75    0.79   0
   4  -2  16   26.45    0.66   0
   5  -2  16    6.18    0.44   0
   5  -1  13   32.68    0.52   0
   5   0   9   53.88    0.61   0
   6  -1  -9    4.44    0.56   0
   6  -1  12    1.25    0.53   0
   6   0  -5   13.74    1.23   0
   7  -1  11   22.11    0.58   0
   7   0  -3    2.42    0.61   0
   7   0   5    7.65    0.57   0
   8  -1   9   -0.22    0.57   0
   9  -1  -4    0.78    0.62   0
   9  -1   6    4.41    0.59   0
  -4  -7   3    1.10    0.54   0
  -4  -6   3    6.56    0.56   0
  -4  -6   4   63.05    0.96   0
  -3  -5  -3    1.52    0.37   0
  -3  -4  -2   96.30    0.96   0
  -2  -4  -6   19.74    0.58   0
  -2  -2  -2   10.74    0.47   0
  -1  -7  -9    0.65    0.41   0
  -1  -6  -9    2.04    0.40   0
  -1  -5  -9    3.84    0.50   0
  -1  -4  16   -0.12    0.53   0
   0  -6 -11    0.52    0.48   0
   0  -4 -10    6.10    0.42   0
   0   0   4  189.44    1.60   0
   1  -5 -12    9.05    0.42   0
   1  -3  17    4.53    0.42   0
   1   0   7   63.39    0.81   0
   2  -5 -13    4.85    0.42   0
   3  -5 -14   11.74    0.57   0
   3  -3  18    4.13    0.41   0
   3  -2 -11   32.08    0.58   0
   3  -1  13   13.82    0.44   0
   3   0   9   20.79    0.47   0
   4  -1  13   18.11    0.47   0
   4   0   9    0.48    0.34   0
   5  -4 -14    5.02    0.47   0
   5  -3 -13    4.15    0.42   0
   5   0   8    4.20    0.54   0
   6  -4 -14    0.42    0.45   0
   6  -3 -13   -0.13    0.57   0
   6  -2  15    4.34    0.42   0
   6   0   7    5.41    0.41   0
   7  -2 -11    2.33    0.64   0
   7   0   4    0.70    0.51   0
   8  -2 -10   -0.10    0.62   0
   9  -1   5    1.99    0.61   0
  -4  -7   2    3.78    0.58   0
  -4  -7   9    4.65    0.85   0
  -4  -6   2    0.30    0.49   0
  -4  -6   8   94.10    1.73   0
  -3  -7  -4   15.93    0.63   0
  -3  -6  -4    2.71    0.51   0
  -3  -3   0    3.32    0.53   0
  -2  -7  -7    1.67    0.42   0
  -2  -6  -7    3.89    0.40   0
  -2  -5  -7   38.58    0.67   0
  -2  -3  -5    8.07    0.59   0
  -1  -3  14   32.02    0.71   0
  -1  -2  -6   10.09    0.58   0
  -1  -1  -3  703.88    2.66   0
   0  -5 -11   15.29    0.44   0
   0  -2  -8    7.81    0.44   0
   0  -2  13   63.01    0.83   0
   0  -1  10  148.08    1.01   0
   0   0   3  135.30    1.67   0
   1  -3 -11    0.60    0.48   0
   2  -4 -13   12.79    0.56   0
   2  -4  19    0.90    0.41   0
   2  -3 -12   66.60    0.79   0
   2  -2  15    0.24    0.37   0
   2  -1  12   39.17    0.65   0
   2   0   8   26.79    0.53   0
   4  -4 -14    0.87    0.41   0
   4  -3 -13   37.58    0.64   0
   5  -2  15    1.56    0.51   0
   5  -1  12   17.04    0.57   0
   6  -1  11    5.01    0.58   0
   6   0   6   -0.03    0.52   0
   7  -1  10    4.39    0.41   0
   7   0   3    0.01    0.52   0
   8  -1   8    1.88    0.42   0
   9  -1   4   -0.51    0.56   0
  -4  -7   1    3.45    0.57   0
  -4  -6   1   24.01    0.67   0
  -4  -5   4    0.80    0.47   0
  -4  -5   5    1.10    0.57   0
  -3  -5  -4  205.00    1.06   0
  -3  -4  -3    9.00    0.61   0
  -2  -2  -3  196.31    1.27   0
  -1  -6 -10    2.12    0.53   0
  -1  -5  17    9.54    0.59   0
  -1  -4  -9   -0.34    0.39   0
  -1  -3  -8  129.78    0.85   0
  -1  -2  11   18.90    0.65   0
  -1  -1   7   21.00    0.71   0
   0  -4  17    0.51    0.51   0
   0  -3 -10   50.63    0.68   0
   0  -1  -6  168.36    1.13   0
   1  -4 -12    0.20    0.37   0
   1  -4  18    0.09    0.50   0
   1  -2 -10   39.78    0.69   0
   1  -2  14    5.26    0.40   0
   1  -1  11   23.82    0.51   0
   1   0  -4    0.05    0.73   0
   2  -3  17    0.20    0.37   0
   2  -2 -11   -0.07    0.55   0
   2  -1  -9   59.08    0.83   0
   3  -4 -14   -0.18    0.50   0
   3  -3 -13    2.46    0.53   0
   3  -2  15    7.42    0.41   0
   3  -1  12    7.95    0.49   0
   3   0   8    0.91    0.36   0
   4  -2 -12    8.22    0.60   0
   4  -2  15   10.36    0.43   0
   4  -1 -10   67.74    0.89   0
   4   0   8    0.22    0.36   0
   5  -2 -12    3.89    0.56   0
   5   0   7   36.57    0.55   0
   6  -2  14   26.56    0.63   0
   7  -3 -13    1.88    0.57   0
   7  -2  13    2.58    0.51   0
   7   0  -1   12.96    0.58   0
   7   0   0    2.75    0.55   0
   7   0   1    6.00    0.58   0
   7   0   2    9.58    0.46   0
   8  -1   7    0.00    0.57   0
   9  -1  -3    0.60    0.53   0
   9  -1   3    1.04    0.57   0
  -4  -7   0    0.29    0.52   0
  -4  -5   2    0.47    0.52   0
  -4  -5   3   28.79    0.73   0
  -4  -5   6   42.43    1.06   0
  -3  -7  -5    0.32    0.58   0
  -3  -6  -5    6.96    0.58   0
  -3  -5  12    0.95    0.61   0
  -3  -3  -1    1.15    0.37   0
  -2  -4  -7   24.37    0.49   0
  -1  -5 -10    7.53    0.41   0
   0  -6 -12   14.10    0.47   0
   0  -4 -11    8.28    0.41   0
   0  -3  15    0.83    0.36   0
   1  -5 -13    5.52    0.42   0
   1  -3  16   14.17    0.45   0
   1  -1  -8   36.97    0.61   0
   1   0   6    6.00    0.44   0
   2  -5 -14   -0.00    0.38   0
   2   0   7    1.16    0.53   0
   3  -3  17   12.80    0.47   0
   4  -3  17    1.73    0.43   0
   4   0   7    8.17    0.55   0
   5  -1 -10   22.97    0.68   0
   5  -1  11    0.24    0.48   0
   6  -2 -12    5.76    0.56   0
   6  -1  10    6.27    0.53   0
   6   0   5    2.47    0.39   0
   7  -1   9    2.56    0.39   0
   9  -1  -2    0.57    0.56   0
   9  -1   1    0.95    0.53   0
   9  -1   2    0.64    0.51   0
  -4  -6   0   23.93    0.54   0
  -4  -5   1   11.89    0.64   0
  -3  -5  -5   -0.21    0.40   0
  -3  -4  -4   67.40    0.71   0
  -3  -4  10    0.25    0.55   0
  -2  -5  -8   14.88    0.46   0
  -2  -3  -6    1.46    0.41   0
  -2  -2  -4   51.55    0.76   0
  -1  -4  15    0.60    0.53   0
  -1  -3  13  253.71    1.48   0
  -1  -2  -7  164.22    0.99   0
  -1  -1  -4   95.29    1.06   0
   0  -5 -12   -0.02    0.38   0
   0  -2  -9    6.32    0.42   0
   0  -1   9  194.08    1.18   0
   1  -3 -12    8.66    0.56   0
   2  -4  18    2.71    0.54   0
   2  -3 -13    1.11    0.49   0
   2  -2  14    4.60    0.42   0
   2  -1  11   28.93    0.53   0
   2   0  -6   49.42    0.97   0
   3  -2 -12    1.54    0.36   0
   3  -2  14   21.98    0.60   0
   3  -1 -10   19.37    0.52   0
   3   0   7   49.70    0.64   0
   4  -4 -15    1.73    0.56   0
   4  -3 -14   45.99    0.77   0
   4  -2  14    4.61    0.53   0
   4  -1  11    8.36    0.53   0
   5  -4 -15    0.85    0.44   0
   5  -3 -14   13.30    0.67   0
   5  -2  14    9.45    0.44   0
   5   0   6    5.86    0.42   0
   6  -3 -14    0.89    0.54   0
   6  -2  13    1.16    0.55   0
   6   0   4   35.76    0.58   0
   7  -2  12    1.29    0.55   0
   7  -1   8   14.03    0.58   0
   8  -1   6    8.22    0.45   0
   9  -1  -1    0.85    0.52   0
   9  -1   0    9.00    0.57   0
  -4  -7  -1    0.82    0.41   0
  -4  -6  -1    6.29    0.56   0
  -4  -5   0   12.12    0.63   0
  -3  -6  13    2.64    0.68   0
  -2  -6  -9    0.35    0.55   0
  -2  -4  -8    3.49    0.51   0
  -1  -6 -11    0.01    0.38   0
  -1  -5 -11   14.60    0.56   0
  -1  -4 -10    1.13    0.38   0
  -1  -3  -9   -0.12    0.34   0
   0  -4 -12    1.56    0.52   0
   0  -3 -11    8.03    0.52   0
   0  -2  12   69.78    0.74   0
   0  -1  -7  321.00    1.50   0
   1  -4 -13   24.27    0.52   0
   1  -4  17   13.78    0.62   0
   1  -2  13    1.73    0.36   0
   1  -1  10   95.17    0.80   0
   1   0   5  218.85    1.39   0
   2  -4 -14    1.57    0.41   0
   2  -3  16   -0.16    0.37   0
   2   0   6  183.96    1.19   0
   3  -4  18   -0.41    0.38   0
   3  -3  16   26.29    0.64   0
   3  -1  11    3.74    0.36   0
   4  -3  16   40.93    0.67   0
   4   0  -7   -0.34    0.60   0
   4   0   6   21.86    0.61   0
   5  -3  16    2.53    0.40   0
   5  -1  10   27.37    0.61   0
   5   0   5    0.21    0.54   0
   6  -1   9    6.41    0.53   0
   6   0   3    1.04    0.54   0
   8  -2  10   11.70    0.64   0
   8  -1   5   -0.31    0.55   0
  -4  -7  -2    3.45    0.59   0
  -4  -6  -2    0.38    0.54   0
  -4  -5  -1    4.04    0.57   0
  -3  -5  -6    2.63    0.39   0
  -3  -3  -3   65.45    0.73   0
  -2  -5  -9    7.92    0.42   0
  -2  -3  -7  418.58    1.45   0
  -1  -5  16   14.70    0.62   0
  -1  -2  10  229.12    1.44   0
   0  -5 -13    0.53    0.51   0
   0  -4  16   15.96    0.48   0
   0  -3  14   21.68    0.60   0
   1  -5 -14   26.38    0.54   0
   1  -3  15   16.12    0.47   0
   1  -2 -11  143.57    0.92   0
   1  -1  -9   25.20    0.63   0
   2  -2 -12    1.81    0.40   0
   2  -1 -10   18.21    0.64   0
   3  -4 -15    2.26    0.43   0
   3  -3 -14    0.69    0.41   0
   3   0  -7  136.94    1.50   0
   3   0   6   13.17    0.48   0
   4  -2 -13    3.47    0.56   0
   5  -2 -13   12.30    0.61   0
   5  -2  13   -0.34    0.37   0
   6  -3  15    5.03    0.44   0
   6  -1 -10    3.75    0.65   0
   6   0   2   49.00    0.79   0
   7  -2  11    0.39    0.53   0
   7  -1   7    3.13    0.53   0
  -4  -5   7   60.30    1.54   0
  -3  -6  -7    8.00    0.44   0
  -2  -6 -10   20.40    0.61   0
  -2  -4  -9   14.11    0.57   0
  -2  -2  -5   43.04    0.64   0
  -1  -6  17   -0.09    0.57   0
  -1  -4 -11   19.67    0.47   0
  -1  -3 -10   16.13    0.55   0
  -1  -2  -8   54.12    0.64   0
  -1  -1  -5   37.69    0.66   0
   0  -2 -10    0.82    0.39   0
   0  -1   8    3.25    0.52   0
   1  -5  18    8.62    0.57   0
   1  -4 -14    0.15    0.49   0
   1  -3 -13    1.12    0.49   0
   1   0  -5  316.48    2.02   0
   2  -4  17   33.44    0.66   0
   2  -2  13    1.79    0.36   0
   2  -1  10    6.69    0.41   0
   3  -2 -13  124.04    1.05   0
   3  -1  10   25.13    0.58   0
   4  -2  13   10.23    0.43   0
   4  -1 -11   27.19    0.72   0
   4  -1  10   89.18    0.72   0
   4   0   5    5.40    0.58   0
   5  -3  15   14.99    0.57   0
   5   0   4   13.82    0.59   0
   6  -2  12   15.25    0.46   0
   6  -1   8   23.42    0.64   0
   6   0  -4    0.05    0.63   0
   6   0   1   28.23    0.67   0
   7  -2 -12    0.34    0.56   0
   8  -2   9    2.82    0.52   0
   8  -1   4    2.11    0.41   0
   9  -2   7   -0.06    0.42   0
  -4  -7  -3   -0.15    0.45   0
  -4  -6  -3    0.98    0.40   0
  -4  -4   1   33.18    0.77   0
  -4  -4   3    0.03    0.49   0
  -3  -5  -7   12.30    0.47   0
  -3  -4  -6    7.99    0.41   0
  -3  -3  -4    4.97    0.43   0
  -2  -5 -10    0.82    0.55   0
  -2  -3  -8   13.32    0.55   0
  -1  -5 -12   36.61    0.55   0
  -1  -4  14   10.23    0.60   0
   0  -4 -13    1.36    0.38   0
   0  -3 -12   22.87    0.50   0
   0  -2  11   78.76    0.88   0
   0  -1  -8   33.19    0.58   0
   1  -2  12    0.52    0.52   0
   1  -1   9   20.23    0.51   0
   1   0   4   25.82    0.68   0
   2  -4 -15    0.44    0.41   0
   2  -3 -14    0.92    0.37   0
   2  -3  15    0.97    0.37   0
   2   0   5 1442.53    3.14   0
   3  -4  17    9.82    0.44   0
   3  -3  15   40.13    0.66   0
   3  -1 -11    0.54    0.36   0
   3   0   5   60.21    0.80   0
   4  -4  17    3.44    0.43   0
   4  -3 -15   -0.07    0.54   0
   4  -3  15    2.93    0.48   0
   5  -3 -15    0.59    0.42   0
   5  -2  12   24.61    0.60   0
   5  -1 -11   -0.47    0.48   0
   5  -1   9   16.80    0.44   0
   6  -3  14   21.15    0.61   0
   6  -2 -13    0.18    0.53   0
   6   0   0   10.62    0.55   0
   7  -3  13    6.80    0.59   0
   7  -2  10    4.97    0.58   0
   7  -1  -9    0.05    0.82   0
   7  -1   6    3.49    0.49   0
   8  -2 -11    0.66    0.65   0
   8  -1  -6  178.86    2.54   0
   8  -1   3    0.40    0.50   0
   9  -2   6    3.38    0.58   0
  -4  -6  -4    4.23    0.59   0
  -4  -5  -3   11.14    0.46   0
  -4  -4   0   -0.07    0.42   0
  -4  -4   4    0.80    0.63   0
  -3  -6  -8    3.82    0.43   0
  -3  -3  -5  172.67    1.13   0
  -2  -2  -6  136.43    0.93   0
  -1  -4 -12    4.73    0.51   0
  -1  -3  12    0.22    0.37   0
  -1  -2  -9  207.03    1.04   0
  -1  -1  -6  102.27    0.97   0
   0  -5 -14    0.18    0.41   0
   0  -4  15    3.24    0.54   0
   0  -2 -11   73.74    0.77   0
   0   0  -2    1.81    0.87   0
   1  -4  16    6.57    0.43   0
   1  -3  14   64.98    0.79   0
   1  -2 -12   86.96    0.75   0
   1  -1 -10    6.25    0.56   0
   2  -5  18    0.50    0.39   0
   2  -2 -13   28.52    0.66   0
   2  -1 -11    0.63    0.52   0
   2  -1   9    0.78    0.52   0
   2   0  -7    2.21    0.41   0
   3  -4 -16    2.91    0.43   0
   3  -3 -15    1.74    0.42   0
   5   0   3   21.80    0.53   0
   6  -2  11    5.69    0.43   0
   6  -1   7   -0.22    0.51   0
   6   0  -3    3.84    0.56   0
   6   0  -2    0.19    0.48   0
   6   0  -1    0.15    0.46   0
   8  -2   8    4.70    0.51   0
   8  -1   2    0.02    0.49   0
  -4  -5  -4    3.65    0.57   0
  -4  -4  -2    1.04    0.54   0
  -3  -5  -8    0.42    0.39   0
  -2  -5 -11    2.15    0.54   0
  -2  -4 -10   15.54    0.46   0
  -2  -3  -9    3.19    0.52   0
  -1  -5 -13    6.54    0.56   0
  -1  -3 -11    1.49    0.39   0
  -1  -2   9    3.78    0.54   0
   0  -3  13  254.98    1.27   0
   1  -4 -15   31.01    0.69   0
   1  -3 -14   12.72    0.59   0
   1   0  -6    0.65    0.58   0
   2  -2  12    3.66    0.37   0
   2   0   4    7.36    0.63   0
   3  -5  18    7.60    0.48   0
   3  -2  12   37.15    0.63   0
   3  -1   9   35.99    0.55   0
   4  -2 -14   -0.01    0.52   0
   4  -2  12    6.82    0.41   0
   5  -4  16    3.41    0.53   0
   5  -3  14   15.49    0.46   0
   5  -2 -14    0.32    0.48   0
   5  -1   8    3.82    0.36   0
   5   0   2    1.32    0.49   0
   7  -1   5    0.11    0.35   0
   8  -3  11    0.24    0.40   0
   8  -1   1   71.47    0.93   0
   9  -2   5   -0.12    0.45   0
  -4  -6  -5    4.75    0.43   0
  -4  -4  -3    0.12    0.50   0
  -3  -5  11    0.75    0.71   0
  -3  -4  -8   -0.04    0.49   0
  -3  -2   0    4.27    0.57   0
  -3  -2   1   41.13    0.90   0
  -2  -2  -7   23.76    0.51   0
  -1  -5  15    7.48    0.55   0
  -1  -2 -10   60.09    0.73   0
  -1  -1  -7  101.13    0.93   0
   0  -5  16    2.89    0.55   0
   0  -4 -14   10.46    0.44   0
   0  -3 -13    1.42    0.37   0
   0  -1  -9   48.49    0.65   0
   0  -1   7    1.06    0.39   0
   0   0  -3  132.84    1.58   0
   1  -5  17    0.02    0.42   0
   1  -2 -13   32.35    0.64   0
   1  -2  11   29.17    0.67   0
   1  -1   8  173.97    1.11   0
   1   0   3   84.97    1.12   0
   2  -4 -16   15.72    0.53   0
   2  -3 -15   10.77    0.45   0
   2  -3  14    3.05    0.40   0
   3  -4  16   -0.73    0.49   0
   3  -3  14   36.95    0.65   0
   3  -2 -14   35.49    0.61   0
   3  -1 -12    9.15    0.58   0
   3   0  -8   39.03    0.87   0
   3   0   4    0.79    0.36   0
   4  -4  16    2.40    0.41   0
   4  -3 -16    0.28    0.55   0
   4  -3  14    1.60    0.39   0
   4  -1 -12    1.31    0.57   0
   5  -2  11   11.43    0.43   0
   6  -4  15    0.36    0.56   0
   6  -3  13   -0.19    0.40   0
   6  -2  10    2.96    0.52   0
   7  -3  12    1.54    0.40   0
   7  -2   9    0.85    0.38   0
   8  -2   7   21.27    0.63   0
   8  -1   0    2.44    0.55   0
   9  -2   4    1.76    0.59   0
  -4  -5  -5   13.44    0.48   0
  -4  -4  -4    6.10    0.51   0
  -4  -4   5   17.83    0.83   0
  -3  -5  -9   14.46    0.48   0
  -3  -2  -3    7.75    0.55   0
  -3  -2  -2   60.85    0.75   0
  -2  -5 -12    0.93    0.50   0
  -2  -4 -11    0.59    0.38   0
  -2  -3 -10   14.22    0.55   0
  -2  -2  -8    0.71    0.50   0
  -2  -1  -2    3.37    0.64   0
  -2  -1  -1   13.77    0.59   0
  -1  -6  16    5.02    0.56   0
  -1  -4 -13   23.83    0.50   0
  -1  -3 -12   32.02    0.52   0
   0  -2 -12   76.65    0.68   0
   0  -2  10  141.07    1.09   0
   0   0  -4  188.83    1.70   0
   1  -4  15   24.25    0.62   0
   1  -1 -11   27.72    0.68   0
   2  -5  17    3.09    0.57   0
   2  -2 -14   26.03    0.62   0
   2   0  -8    9.06    0.59   0
   3  -3 -16   11.81    0.61   0
   4  -2  11    6.72    0.51   0
   4  -1   8    5.16    0.40   0
   4   0  -8    0.60    0.50   0
   5  -1   7    0.27    0.51   0
   5   0   1    0.33    0.47   0
   6  -2 -14    2.03    0.53   0
   6  -1 -11   31.07    0.89   0
   6  -1   6   21.89    0.49   0
   7  -2 -13    6.22    0.62   0
   7  -1   4    2.70    0.38   0
   8  -3  10    1.60    0.52   0
   8  -1  -5    3.68    0.70   0
   8  -1  -1   -0.02    0.52   0
   9  -3   8    1.94    0.57   0
  -3  -7  13    1.69    0.69   0
  -3  -5 -10   18.63    0.60   0
  -3  -4  -9   24.31    0.65   0
  -3  -3  -7    0.86    0.35   0
  -3  -2  -4    4.08    0.54   0
  -3  -2   2   77.26    1.25   0
  -1  -4  13    1.06    0.55   0
  -1  -3  11    4.66    0.53   0
  -1  -1  -8   31.30    0.67   0
   0  -4 -15    7.48    0.58   0
   0  -4  14    1.86    0.53   0
   0  -3 -14    4.10    0.55   0
   0  -1 -10   -0.32    0.52   0
   1  -4 -16    7.82    0.44   0
   1  -3 -15    2.37    0.42   0
   1  -3  13    4.63    0.40   0
   1   0  -7    0.56    0.39   0
   2  -2  11  135.23    0.88   0
   2  -1 -12    2.07    0.39   0
   2  -1   8  366.53    1.45   0
   2   0   3   32.43    0.81   0
   3  -5  17   26.40    0.64   0
   3  -2  11    4.10    0.47   0
   3  -1   8   68.50    0.69   0
   3   0   3   -0.15    0.52   0
   4  -5  17    9.05    0.47   0
   4  -2 -15   17.89    0.63   0
   5  -4  15    5.54    0.42   0
   5  -3  13   46.27    0.58   0
   5  -1 -12    0.34    0.50   0
   6  -3  12    2.43    0.53   0
   7  -3  11   50.62    0.73   0
   7  -2   8   16.33    0.47   0
   7  -1   3    4.05    0.55   0
   8  -2   6    0.65    0.52   0
   8  -1  -4    2.61    0.62   0
   8  -1  -3   14.06    0.71   0
   8  -1  -2    4.14    0.57   0
  -4  -6  -7    6.13    0.45   0
  -4  -5  -7    2.03    0.52   0
  -4  -4  -5   13.91    0.47   0
  -3  -6  12    0.09    0.62   0
  -3  -4   9    0.79    0.62   0
  -3  -3  -8   34.44    0.65   0
  -2  -4 -12    3.55    0.41   0
  -2  -3 -11   -0.44    0.49   0
  -2  -2  -9  104.01    0.86   0
  -2  -1  -4   49.97    0.69   0
  -2  -1   1   23.07    1.10   0
  -1  -4 -14   17.50    0.61   0
  -1  -3 -13    1.27    0.52   0
  -1  -2 -11   56.68    0.61   0
   0  -3  12   31.79    0.57   0
   0  -2 -13    2.43    0.50   0
   0   0  -5    4.72    0.50   0
   1  -5  16   19.95    0.66   0
   1  -2 -14    8.88    0.56   0
   2  -4  15    1.83    0.39   0
   2  -3 -16    4.07    0.45   0
   2  -3  13   -0.35    0.52   0
   3  -4  15    9.15    0.57   0
   3  -3  13   12.33    0.55   0
   3  -2 -15    8.38    0.48   0
   3   0  -9    4.23    0.56   0
   4  -4  15   13.50    0.45   0
   4  -3  13   -0.17    0.37   0
   5  -2 -15   27.36    0.72   0
   5  -2  10   13.34    0.43   0
   5   0   0    4.34    0.50   0
   6  -4  14    0.18    0.49   0
   6  -2   9   42.75    0.59   0
   6  -1   5    2.66    0.40   0
   7  -4  13    4.45    0.57   0
   8  -3   9   -0.66    0.52   0
   9  -3   7    1.34    0.57   0
  -5  -7   4   -0.25    0.59   0
  -5  -6   0    0.50    0.57   0
  -5  -6   1   11.09    0.49   0
  -5  -6   2    0.59    0.56   0
  -4  -4  -6   18.10    0.62   0
  -4  -3  -2    8.16    0.59   0
  -4  -3   0    1.60    0.50   0
  -3  -5 -11    4.54    0.59   0
  -3  -4 -10   25.17    0.53   0
  -3  -2  -5  163.19    1.03   0
  -2  -1  -5  364.61    1.55   0
  -1  -1  -9   -0.09    0.52   0
   0  -1 -11    3.92    0.55   0
   0  -1   6   25.66    0.77   0
   1  -6  17   18.70    0.70   0
   1  -2  10  110.70    0.97   0
   1  -1 -12  109.10    0.85   0
   1  -1   7  252.59    1.35   0
   1   0  -8   69.68    0.88   0
   1   0   2   10.90    0.72   0
   2  -2 -15    0.50    0.38   0
   2  -1 -13    0.58    0.49   0
   2   0  -9  694.03    2.47   0
   3  -3 -17    0.54    0.58   0
   3  -1 -13    2.14    0.40   0
   4  -2  10    0.16    0.47   0
   4  -1 -13   -0.14    0.53   0
   5  -5  16   17.90    0.61   0
   5  -3  12   12.95    0.55   0
   5  -1   6   36.01    0.57   0
   5   0  -1   -0.08    0.47   0
   7  -2   7    1.62    0.49   0
   7  -1   2   33.13    0.73   0
   8  -2   5   17.54    0.62   0
  -5  -6  -3    2.01    0.55   0
  -5  -6  -2   -0.35    0.42   0
  -5  -6   3    0.06    0.56   0
  -4  -4  -7   -0.32    0.52   0
  -4  -3  -4    2.26    0.60   0
  -4  -3  -3    0.58    0.37   0
  -3  -2  -6  160.23    0.99   0
  -2  -4 -13    8.21    0.46   0
  -2  -3 -12   13.71    0.57   0
  -2  -2 -10  126.51    0.93   0
  -2  -1  -6   -0.18    0.53   0
  -1  -5  14   17.38    0.52   0
  -1  -4 -15    2.80    0.52   0
  -1  -2 -12    0.86    0.36   0
  -1  -2   8   18.42    0.59   0
   0  -5  15   42.60    0.62   0
   0  -3 -15    2.10    0.40   0
   0  -2   9   18.74    0.59   0
   0   0  -6   19.90    0.57   0
   1  -4  14   -0.26    0.50   0
   1  -3 -16   10.51    0.44   0
   2  -5  16   -0.34    0.40   0
   2  -3 -17    0.88    0.55   0
   2  -2  10   85.68    0.86   0
   2  -1   7  246.57    1.33   0
   3  -5  16   20.08    0.62   0
   3  -2  10    5.26    0.51   0
   3  -1   7    4.45    0.42   0
   4  -5  16    2.50    0.51   0
   4   0  -9    4.77    0.58   0
   4   0   1   18.09    0.61   0
   5  -4  14    1.73    0.39   0
   5  -2   9    0.73    0.49   0
   6  -5  15    9.79    0.62   0
   6  -3  11    4.57    0.39   0
   6  -2 -15    0.57    0.51   0
   6  -2   8    3.39    0.53   0
   6  -1   4    4.76    0.53   0
   7  -3  10    9.69    0.45   0
   8  -4  11    0.03    0.50   0
   8  -2 -12   -0.01    0.68   0
   9  -3   6    1.68    0.56   0
  -5  -6  -4    0.35    0.55   0
  -5  -6   4   -0.07    0.56   0
  -5  -5  -1    4.85    0.57   0
  -5  -5   0   14.93    0.67   0
  -5  -5   1   -0.14    0.53   0
  -4  -5  -9    5.56    0.56   0
  -4  -3  -5  229.23    1.27   0
  -4  -3   2  197.66    1.58   0
  -3  -4 -11    8.75    0.44   0
  -3  -2  -7   61.03    0.77   0
  -3  -2   3    4.42    0.76   0
  -2  -2   6    3.93    0.78   0
  -2  -1  -7   30.85    0.67   0
  -1  -6  15   16.18    0.62   0
  -1  -3 -14   27.13    0.51   0
  -1  -1 -10  145.03    1.00   0
   0  -6  16    8.37    0.48   0
   0  -2 -14   31.61    0.52   0
   0   0  -7 1295.72    3.12   0
   1  -3  12   32.89    0.59   0
   1  -2 -15   11.82    0.44   0
   1  -1 -13    1.18    0.52   0
   1   0  -9  102.95    0.98   0
   2  -6  17    3.43    0.53   0
   2  -4  14   10.66    0.56   0
   3  -2 -16    2.91    0.42   0
   3   0 -10   13.90    0.58   0
   4  -4  14    6.56    0.54   0
   4  -3  12    1.32    0.38   0
   4  -2 -16    5.35    0.46   0
   4  -1   6  105.64    0.95   0
   5  -1 -13    2.56    0.55   0
   5  -1   5    0.47    0.54   0
   5   0  -2    2.25    0.51   0
   6  -4  13    5.91    0.42   0
   6  -1 -12    6.88    0.67   0
   7  -4  12    0.87    0.39   0
   7  -2 -14    0.22    0.55   0
   7  -2   6   13.65    0.58   0
   7  -1   1    1.56    0.54   0
   8  -3   8    0.84    0.39   0
   8  -2   4    5.54    0.56   0
   9  -2   0    2.26    0.53   0
  -5  -5  -3   -0.87    0.56   0
  -5  -5   2   26.82    0.75   0
  -4  -4  -8    6.33    0.42   0
  -4  -3  -6    2.42    0.51   0
  -3  -3 -10    9.44    0.42   0
  -3  -2  -8   29.62    0.63   0
  -2  -4 -14    0.00    0.55   0
  -2  -3 -13    0.93    0.54   0
  -2  -2 -11   14.95    0.45   0
  -1  -4  12    8.39    0.62   0
  -1  -2 -13    7.99    0.42   0
   0  -4  13  109.80    0.90   0
   0  -3 -16   37.97    0.69   0
   0  -3  11   19.79    0.65   0
   0  -1 -12   16.58    0.46   0
   1  -5  15    0.56    0.54   0
   1  -3 -17    0.78    0.55   0
   2  -3  12   38.46    0.56   0
   2  -2 -16    8.44    0.45   0
   2  -1 -14    1.27    0.49   0
   2   0 -10    3.54    0.42   0
   3  -6  17    0.77    0.40   0
   3  -4  14    0.13    0.37   0
   3  -3  12   44.27    0.56   0
   3  -1 -14    6.81    0.42   0
   4  -2   9  148.52    0.97   0
   4  -1 -14    1.69    0.53   0
   5  -5  15   21.89    0.60   0
   5  -3  11   14.46    0.55   0
   5  -2 -16   24.60    0.75   0
   6  -1   3  194.72    1.24   0
   7  -3   9   -0.01    0.52   0
   7  -1 -10    0.06    0.93   0
   9  -3   5    3.26    0.61   0
  -5  -5  -5    3.83    0.55   0
  -5  -5  -4    7.21    0.46   0
  -4  -4  -9    2.13    0.56   0
  -3  -4 -12   35.83    0.59   0
  -3  -3 -11    1.89    0.54   0
  -2  -1  -8   24.22    0.50   0
  -1  -3 -15    5.70    0.43   0
  -1  -3  10   37.19    0.65   0
  -1  -1 -11   14.84    0.44   0
   0  -2 -15    5.11    0.56   0
   0   0  -8   16.37    0.52   0
   1  -2 -16    0.76    0.50   0
   1  -1   6  136.27    1.17   0
   1   0 -10   41.69    0.73   0
   3  -1   6  150.14    1.08   0
   4  -5  15    2.50    0.53   0
   4   0   0    0.83    0.52   0
   5  -4  13   11.15    0.42   0
   5  -2   8    7.07    0.54   0
   5   0  -3   46.92    1.08   0
   6  -5  14    0.42    0.57   0
   6  -3  10    0.98    0.36   0
   6  -2   7   40.49    0.57   0
   7  -1   0   13.13    0.58   0
   8  -4  10    5.49    0.41   0
   8  -3   7    8.53    0.55   0
   9  -4   8    1.49    0.55   0
  -5  -6   5   27.85    0.95   0
  -5  -5  -6    0.61    0.52   0
  -5  -5   3   -0.06    0.53   0
  -5  -4  -2   13.80    0.60   0
  -4  -3  -8   20.64    0.60   0
  -4  -3   3    0.31    0.52   0
  -3  -4 -13    3.44    0.53   0
  -3  -2  -9   35.62    0.54   0
  -2  -3 -14   53.79    0.75   0
  -2  -2 -12   10.38    0.43   0
  -2  -1  -9   16.69    0.60   0
  -1  -2 -14    4.79    0.39   0
   0  -5  14    1.92    0.54   0
   0  -1 -13   26.77    0.53   0
   0   0  -9    2.23    0.51   0
   1  -4  13   33.17    0.67   0
   1  -1 -14   93.47    0.77   0
   2  -5  15    0.50    0.37   0
   2  -2 -17    3.50    0.56   0
   2  -2   9  176.02    1.11   0
   2  -1   6   53.79    0.74   0
   2   0 -11    2.56    0.56   0
   3  -5  15    0.88    0.40   0
   3  -2 -17    1.57    0.44   0
   3  -2   9   43.90    0.60   0
   3  -1 -15   14.16    0.57   0
   3   0 -11    7.36    0.54   0
   3   0   1   84.60    1.00   0
   4  -4  13    4.76    0.52   0
   4  -3  11    1.47    0.50   0
   4  -2 -17    0.74    0.58   0
   4  -1   5  387.20    1.58   0
   4   0 -10    7.41    0.59   0
   5  -1 -14    1.12    0.52   0
   5  -1   4  129.22    1.03   0
   6  -4  12    3.79    0.39   0
   7  -5  13    3.16    0.43   0
   7  -4  11    0.31    0.38   0
   7  -2   5   32.72    0.55   0
   9  -3   4    1.32    0.56   0
   9  -2  -8    0.94    0.83   0
   9  -2  -2    0.42    0.50   0
  -5  -5  -7    1.89    0.55   0
  -5  -4  -4   27.64    0.70   0
  -5  -4  -1    8.89    0.47   0
  -5  -4   0   38.43    0.76   0
  -3  -3 -12   35.36    0.54   0
  -3  -2 -10    0.80    0.51   0
  -1  -3 -16    5.31    0.44   0
  -1  -1 -12  186.76    0.98   0
  -1   0  -6    5.67    0.60   0
  -1   0  -5  225.44    1.41   0
  -1   0  -4   25.73    0.68   0
  -1   0  -3   84.24    1.25   0
   0  -2 -16    6.68    0.54   0
   0  -1   5  100.61    1.24   0
   1  -3  11  253.59    1.25   0
   1   0 -11   13.11    0.60   0
   2  -6  16    1.04    0.42   0
   2  -4  13   10.50    0.54   0
   2  -1 -15   11.32    0.46   0
   3  -6  16    3.49    0.54   0
   3  -4  13   15.58    0.61   0
   3  -3  11    3.71    0.51   0
   4  -6  16    0.80    0.38   0
   4  -1 -15    5.16    0.55   0
   5  -5  14   14.96    0.59   0
   5  -3  10   23.52    0.62   0
   5   0  -8    1.38    0.85   0
   5   0  -4   31.31    1.03   0
   6  -1   2    6.60    0.54   0
   7  -3   8    1.17    0.38   0
   7  -1  -1    0.97    0.49   0
   8  -4   9    2.49    0.50   0
   8  -3   6   22.46    0.66   0
   8  -2   2    4.35    0.53   0
   9  -4   7    1.73    0.59   0
   9  -2  -3    0.33    0.52   0
  -5  -5   4    8.31    0.70   0
  -5  -4  -6    0.38    0.53   0
  -5  -4  -5    7.43    0.46   0
  -5  -4   1    0.46    0.52   0
  -4  -4 -11    8.98    0.61   0
  -4  -3  -9    9.18    0.44   0
  -4  -2  -5    9.10    0.58   0
  -4  -2  -4   30.78    0.71   0
  -4  -2  -3    4.20    0.59   0
  -4  -2  -2   79.57    0.90   0
  -3  -7  12   -0.15    0.66   0
  -3  -5  10   17.63    0.84   0
  -3  -1  -5  134.06    1.04   0
  -3  -1  -4   50.14    0.76   0
  -3  -1  -3    5.24    0.52   0
  -2  -3 -15    0.92    0.54   0
  -2  -2 -13   10.49    0.44   0
  -2  -1 -10    1.47    0.36   0
  -1  -7  15    0.85    0.43   0
  -1  -6  14   14.13    0.61   0
  -1  -2 -15   19.27    0.62   0
  -1   0  -7   62.01    0.72   0
   0  -4  12  267.99    1.42   0
   0  -2   8    3.34    0.38   0
   0  -1 -14    9.50    0.45   0
   0   0 -10    0.10    0.38   0
   1  -2 -17    3.24    0.43   0
   1  -1 -15    0.94    0.54   0
   2  -3  11  271.13    1.22   0
   2   0 -12   -0.14    0.48   0
   2   0   1   50.43    1.06   0
   4  -2   8    4.63    0.40   0
   4   0  -1   16.14    0.66   0
   5  -4  12    2.28    0.39   0
   5  -2   7   61.31    0.77   0
   6  -5  13    4.31    0.54   0
   6  -3   9   10.75    0.41   0
   6  -2   6    5.19    0.40   0
   6  -1 -13    1.13    0.51   0
   7  -5  12   11.29    0.59   0
   7  -4  10   12.09    0.58   0
   7  -2   4    3.16    0.51   0
   8  -5  11    0.72    0.42   0
   9  -3   3    0.10    0.56   0
   9  -2  -7    0.00    0.66   0
   9  -2  -6    6.29    0.77   0
   9  -2  -5    0.84    0.65   0
   9  -2  -4    2.54    0.56   0
  10  -3  -1    0.79    0.43   0
  -5  -4  -7    4.16    0.59   0
  -4  -3 -10    2.44    0.40   0
  -4  -2  -6    9.50    0.44   0
  -4  -2  -1  106.06    1.05   0
  -3  -3 -13   13.91    0.47   0
  -3  -2 -11   20.35    0.48   0
  -3  -1  -7   -0.23    0.51   0
  -3  -1  -2    7.72    0.57   0
  -2  -2 -14    4.68    0.50   0
  -2  -1 -11   54.54    0.60   0
  -1  -1 -13    1.75    0.39   0
  -1   0  -8   76.15    0.76   0
  -1   0  -2   10.51    0.92   0
   0  -3  10   44.94    0.77   0
   1  -5  14   61.11    0.69   0
   1   0 -12   16.44    0.63   0
   2  -2 -18   13.82    0.63   0
   2  -1 -16    9.61    0.59   0
   3  -2   8   11.25    0.57   0
   3  -1 -16   44.28    0.80   0
   3  -1   5   38.87    0.63   0
   3   0 -12   34.12    0.78   0
   4  -5  14    0.51    0.37   0
   4   0 -11   93.69    1.14   0
   5  -6  15    0.49    0.39   0
   5  -1   3   45.63    0.74   0
   5   0  -5    0.76    0.84   0
   6  -4  11    2.19    0.38   0
   7  -3   7    0.82    0.53   0
   7  -1  -2    0.06    0.45   0
   8  -2   1    1.85    0.52   0
  -5  -4  -8   24.83    0.67   0
  -5  -4   2    9.43    0.56   0
  -4  -3 -11    0.11    0.54   0
  -4  -2  -7  126.81    0.88   0
  -3  -6  11    9.79    0.63   0
  -3  -3 -14    8.15    0.56   0
  -3  -2 -12    2.52    0.51   0
  -3  -1  -8  211.85    1.15   0
  -2  -1   2  836.06    6.16   0
  -1  -4  11   48.39    0.78   0
  -1  -2 -16   21.17    0.63   0
  -1   0  -9   22.54    0.51   0
   0  -2 -17   -0.03    0.39   0
   0  -1 -15   18.16    0.49   0
   0   0 -11   13.08    0.46   0
   1  -7  16   19.05    0.55   0
   1  -6  15    0.82    0.40   0
   1  -2 -18   23.65    0.71   0
   1  -1 -16    0.11    0.49   0
   1  -1   5    7.73    0.67   0
   2  -5  14   25.00    0.52   0
   2  -2   8   42.19    0.71   0
   2  -1   5  135.61    1.13   0
   3  -5  14   27.07    0.51   0
   4  -6  15    6.18    0.53   0
   4  -4  12    4.78    0.40   0
   4  -3  10   64.48    0.64   0
   4  -1 -16    3.93    0.53   0
   4  -1   4   28.21    0.57   0
   5  -5  13    2.70    0.51   0
   5  -1 -15    4.11    0.58   0
   6  -6  14   -0.89    0.51   0
   6  -1   1    6.68    0.41   0
   8  -5  10    2.41    0.57   0
   8  -4   8    2.21    0.39   0
   8  -3   5   50.78    0.66   0
   9  -4   6    1.27    0.41   0
   9  -3   2   16.49    0.66   0
  -5  -6   6   10.82    1.01   0
  -5  -4  -9    1.27    0.58   0
  -5  -3  -6    5.22    0.53   0
  -5  -3  -5   -0.10    0.51   0
  -5  -3  -3   94.07    0.97   0
  -4  -2  -9    5.02    0.54   0
  -4  -2   0    0.20    0.53   0
  -3  -1  -9   87.56    0.82   0
  -3  -1  -1  135.60    1.28   0
  -2  -2 -15    1.98    0.55   0
  -2  -1 -12   13.99    0.46   0
  -1  -3   9   44.82    0.79   0
  -1  -1 -14   17.37    0.46   0
  -1   0 -10   26.21    0.64   0
   0  -5  13    2.48    0.52   0
   0   0 -12   13.34    0.57   0
   1  -4  12    0.11    0.39   0
   1  -3  10   26.74    0.66   0
   1   0 -13   10.24    0.60   0
   2  -7  16    5.14    0.44   0
   2  -6  15   13.67    0.48   0
   2  -4  12   65.35    0.78   0
   2   0 -13    2.19    0.39   0
   3  -7  16    7.73    0.56   0
   3  -6  15    8.58    0.40   0
   3  -4  12    5.25    0.41   0
   3  -3  10   83.91    0.82   0
   3   0 -13    0.32    0.56   0
   4  -2   7   40.34    0.70   0
   4   0 -12   17.16    0.63   0
   5  -4  11   13.31    0.53   0
   5  -3   9   -0.50    0.35   0
   5  -2   6    2.81    0.56   0
   5   0  -9   20.35    1.06   0
   6  -5  12    2.52    0.52   0
   6  -3   8   52.89    0.63   0
   6  -2   5   12.11    0.46   0
   7  -5  11    1.29    0.53   0
   7  -4   9    8.30    0.54   0
   7  -2   3   43.47    0.69   0
   7  -1  -3   10.51    0.58   0
   8  -2   0    1.84    0.53   0
  -5  -3  -1    6.15    0.60   0
  -4  -3 -12   38.92    0.59   0
  -4  -2 -10    9.11    0.53   0
  -3  -2 -13   14.14    0.45   0
  -3  -1 -10  201.03    1.09   0
  -2  -1 -13   17.74    0.58   0
  -1  -2 -17    0.83    0.55   0
  -1  -1 -15   -0.16    0.49   0
  -1   0 -11   68.03    0.77   0
   0  -1 -16    0.21    0.52   0
   2  -3  10    3.40    0.40   0
   2  -1 -17   21.49    0.53   0
   3  -1 -17   -0.09    0.57   0
   4  -5  13    1.84    0.51   0
   5  -6  14    5.08    0.52   0
   6  -4  10    0.08    0.37   0
   6  -1 -14    0.37    0.52   0
   6  -1   0    0.98    0.47   0
   7  -3   6    7.35    0.58   0
   7  -1 -11    0.59    0.99   0
   8  -4   7   56.62    0.77   0
   8  -3   4    3.66    0.56   0
   9  -4   5   42.89    0.74   0
  -6  -5  -4   12.68    0.68   0
  -6  -5  -3    7.05    0.63   0
  -6  -5  -2    5.00    0.58   0
  -5  -4   3    2.48    0.59   0
  -5  -3  -8    8.88    0.43   0
  -4  -3 -13    0.37    0.58   0
  -4  -3   4   -0.01    0.73   0
  -3  -2 -14    9.56    0.57   0
  -3  -1 -11    2.04    0.55   0
  -2  -2 -16    5.46    0.58   0
  -2   0  -8   26.94    0.64   0
  -2   0  -7    1.82    0.41   0
  -2   0  -6  187.02    1.15   0
  -2   0  -5 1503.98    3.20   0
  -1  -7  14   19.68    0.66   0
  -1  -6  13    9.40    0.58   0
  -1  -5  12   57.97    0.77   0
   0   0 -13    9.74    0.42   0
   1  -5  13    8.94    0.50   0
   1  -1 -17    5.23    0.42   0
   1   0 -14   45.14    0.72   0
   2   0 -14   44.49    0.64   0
   3  -5  13   10.01    0.52   0
   3  -1   4  277.04    1.47   0
   3   0 -14   19.95    0.63   0
   4  -4  11   41.12    0.68   0
   4  -3   9  324.18    1.35   0
   4  -1 -17   -0.50    0.57   0
   4   0  -2    5.27    0.63   0
   5  -1 -16    1.55    0.56   0
   5  -1   2   26.31    0.55   0
   5   0 -10   13.09    0.89   0
   5   0  -6   42.37    1.80   0
   6  -6  13    9.45    0.55   0
   7  -6  12    3.37    0.56   0
   7  -1  -4    0.29    0.51   0
   8  -5   9    0.36    0.52   0
   9  -3   1    0.33    0.43   0
  -6  -5  -1    1.72    0.58   0
  -5  -3  -9    9.35    0.43   0
  -5  -3   0   19.51    0.55   0
  -4  -2 -11   29.48    0.54   0
  -3  -4   8    4.24    0.69   0
  -3  -1 -12   19.38    0.56   0
  -3  -1   0    0.56    0.58   0
  -2  -1 -14   15.03    0.45   0
  -2   0  -9    1.13    0.36   0
  -2   0  -4    7.23    0.48   0
  -1  -1 -16    1.41    0.53   0
  -1   0 -12   29.78    0.52   0
   0  -4  11   15.69    0.49   0
   0  -2   7   60.58    0.80   0
   0  -1 -17   51.29    0.74   0
   0   0 -14    1.48    0.49   0
   1  -7  15    1.39    0.54   0
   1  -6  14    2.46    0.53   0
   2  -5  13   73.63    0.74   0
   2  -1 -18    0.50    0.55   0
   3  -2   7  218.96    1.14   0
   4  -7  15    0.64    0.54   0
   4  -6  14    3.86    0.40   0
   4  -1   3    2.81    0.40   0
   4   0 -13    8.45    0.57   0
   5  -5  12    5.03    0.39   0
   5  -3   8   20.76    0.47   0
   6  -5  11    5.78    0.52   0
   6  -3   7  147.92    0.91   0
   6  -2   4    7.64    0.45   0
   7  -5  10    0.53    0.53   0
   7  -4   8    0.73    0.37   0
   7  -2   2    1.82    0.39   0
   9  -5   7    9.88    0.48   0
   9  -4   4   -0.15    0.59   0
  -6  -5   0   -0.41    0.56   0
  -4  -2 -12    0.18    0.39   0
  -4  -1  -7    1.84    0.50   0
  -4  -1  -5   82.42    0.87   0
  -3  -2 -15    3.50    0.44   0
  -2  -1 -15   46.30    0.70   0
  -2   0 -10   29.00    0.52   0
  -2   0  -3   33.34    0.83   0
  -1   0 -13   72.93    0.67   0
  -1   0  -1   79.60    1.42   0
   0  -3   9   56.13    0.81   0
   0  -1   4   28.49    0.97   0
   1  -4  11    3.38    0.58   0
   1  -2   7    9.55    0.56   0
   1  -1 -18    3.30    0.42   0
   1   0 -15   45.58    0.73   0
   2  -7  15    0.94    0.40   0
   2  -6  14    1.57    0.36   0
   2  -2   7  148.66    1.08   0
   2   0 -15    0.86    0.39   0
   2   0   0    8.38    0.79   0
   3  -7  15   28.33    0.55   0
   3  -6  14    0.89    0.37   0
   3  -4  11   44.81    0.58   0
   3  -3   9  284.21    1.29   0
   3  -1 -18    1.09    0.42   0
   4  -2   6   66.55    0.70   0
   5  -6  13   11.71    0.58   0
   5  -4  10    0.60    0.34   0
   5  -2   5   59.45    0.67   0
   6  -4   9   86.87    0.74   0
   6  -1 -15    0.06    0.66   0
   6  -1  -1   20.89    0.61   0
   7  -3   5    2.91    0.52   0
   7  -1  -5    9.77    0.63   0
   8  -4   6   22.51    0.51   0
   8  -3   3    0.14    0.37   0
   9  -3   0    0.39    0.38   0
  -6  -4  -7    1.19    0.58   0
  -6  -4  -6    1.54    0.44   0
  -6  -4  -5    0.21    0.40   0
  -6  -4  -4    4.80    0.45   0
  -6  -4  -3   16.29    0.68   0
  -6  -4  -2    5.41    0.54   0
  -5  -3 -11   18.32    0.49   0
  -5  -3   1    0.35    0.49   0
  -5  -2  -7   26.95    0.66   0
  -5  -2  -4   67.65    0.83   0
  -4  -2 -13    5.45    0.43   0
  -4  -1  -9   55.10    0.73   0
  -4  -1  -8    1.88    0.36   0
  -4  -1  -4    0.52    0.53   0
  -3  -1 -13    2.57    0.37   0
  -2   0 -11    1.89    0.37   0
  -1  -4  10   53.89    0.82   0
  -1  -1 -17   12.13    0.59   0
  -1   0 -14    1.82    0.48   0
   0  -5  12    5.15    0.57   0
   0  -1 -18    0.13    0.59   0
   0   0 -15    5.15    0.54   0
   1  -3   9   33.71    0.67   0
   2  -4  11  196.61    1.06   0
   2  -3   9    3.82    0.56   0
   2  -1   4   85.68    0.93   0
   3   0 -15   13.89    0.62   0
   3   0  -1   73.42    1.23   0
   4  -5  12    9.90    0.43   0
   4   0 -14   -0.30    0.54   0
   5  -7  14    9.11    0.58   0
   5  -1 -17    3.61    0.60   0
   5  -1   1   56.41    0.80   0
   5   0 -11    2.69    0.66   0
   6  -6  12    1.47    0.51   0
   7  -6  11    3.73    0.53   0
   7  -2   1    7.65    0.55   0
   8  -6  10    4.64    0.43   0
   8  -5   8    0.08    0.38   0
   9  -5   6    3.90    0.56   0
  -6  -5   1    6.50    0.62   0
  -6  -4  -1   -0.33    0.50   0
  -5  -2  -9    1.75    0.52   0
  -5  -2  -3   15.51    0.64   0
  -4  -2 -14   11.53    0.61   0
  -4  -1 -10   14.92    0.44   0
  -4  -1  -3  128.23    1.06   0
  -3  -3   6    7.91    1.03   0
  -3  -1 -14   12.27    0.46   0
  -2  -1 -16    0.59    0.39   0
  -2   0 -12    1.16    0.36   0
   0  -7  14   16.21    0.54   0
   0  -6  13    0.47    0.49   0
   1  -8  15    0.39    0.59   0
   1  -1   4   91.12    1.07   0
   1   0 -16    3.72    0.42   0
   2   0 -16    4.02    0.54   0
   3  -5  12   31.25    0.66   0
   4  -6  13   12.33    0.58   0
   4  -4  10   55.72    0.62   0
   4  -3   8    4.44    0.38   0
   5  -5  11    3.47    0.50   0
   5  -3   7   35.28    0.65   0
   6  -7  13    7.61    0.57   0
   6  -3   6   18.04    0.44   0
   6  -2   3    2.63    0.39   0
   7  -5   9   13.67    0.55   0
   7  -4   7   93.31    0.77   0
   7  -1  -6   14.64    0.81   0
   8  -3   2    3.96    0.56   0
   9  -4   3    0.24    0.39   0
   9  -3  -1    0.91    0.37   0
  -6  -6   3    6.46    0.76   0
  -5  -2  -2    0.95    0.52   0
  -4  -1 -11    0.96    0.37   0
  -3  -7  11    1.54    0.54   0
  -3  -1 -15    7.73    0.54   0
  -3   0 -10   24.97    0.57   0
  -3   0  -9   20.01    0.46   0
  -3   0  -8    0.57    0.35   0
  -3   0  -7   52.08    0.64   0
  -3   0  -6   14.27    0.47   0
  -2  -1 -17   20.35    0.61   0
  -2   0 -13   -0.02    0.38   0
  -2   0  -2  243.67    1.76   0
  -1  -3   8   48.26    0.86   0
  -1  -1 -18    5.30    0.42   0
  -1   0 -15    9.03    0.42   0
   0   0 -16   13.41    0.45   0
   1  -7  14   32.50    0.69   0
   1  -5  12   51.31    0.63   0
   2  -8  15   18.27    0.67   0
   2  -5  12    8.13    0.41   0
   3  -8  15    1.42    0.56   0
   3  -6  13   21.60    0.61   0
   3  -2   6  121.08    0.91   0
   3   0 -16    5.84    0.58   0
   4  -7  14    2.83    0.42   0
   4  -1   2    5.64    0.50   0
   5  -4   9  155.51    0.90   0
   5   0 -12   21.13    0.84   0
   6  -5  10    9.40    0.42   0
   6  -4   8   66.95    0.65   0
   7  -3   4   46.29    0.71   0
   7  -1 -12    0.70    1.01   0
   8  -6   9    3.46    0.54   0
   8  -4   5   10.04    0.43   0
  -6  -5   2    6.18    0.59   0
  -6  -4   0    2.42    0.56   0
  -6  -3  -7    2.37    0.42   0
  -6  -3  -6    1.61    0.41   0
  -6  -3  -4    4.27    0.55   0
  -4  -1 -12    8.44    0.43   0
  -3  -5   9    1.68    0.61   0
  -3   0 -11  123.82    0.90   0
  -3   0  -5   62.88    0.71   0
  -2  -2   5  411.51    3.54   0
  -2   0 -14   14.09    0.44   0
  -1  -6  12    0.48    0.52   0
  -1  -5  11    7.34    0.55   0
  -1   0 -16   29.26    0.61   0
   0  -4  10   29.22    0.70   0
   0   1 -10  150.35    1.08   0
   0   1  -9  200.77    1.26   0
   0   1  -8    3.50    0.52   0
   1   0 -17    7.80    0.46   0
   1   1 -10    2.69    0.48   0
   1   1  -9   73.68    0.92   0
   1   1  -8  210.50    1.47   0
   2  -7  14    2.85    0.52   0
   2  -6  13    1.10    0.49   0
   2   0 -17   16.55    0.63   0
   3  -7  14   16.39    0.45   0
   3  -4  10    3.06    0.38   0
   3  -3   8   35.03    0.67   0
   4  -2   5    3.48    0.53   0
   4   0 -15    3.14    0.43   0
   5  -6  12    3.66    0.37   0
   5  -2   4    7.48    0.42   0
   6  -1  -2    3.18    0.51   0
   7  -6  10   14.83    0.59   0
   7  -2   0   -0.01    0.51   0
   7  -1  -7    0.18    0.74   0
   8  -5   7   60.58    0.65   0
   9  -5   5    0.15    0.41   0
   9  -3  -2    0.22    0.48   0
  -6  -3  -9    0.21    0.42   0
  -5  -4   4    5.09    0.70   0
  -5  -3   2    1.88    0.51   0
  -5  -2 -13    7.44    0.57   0
  -4  -2   2    2.20    0.55   0
  -4  -1 -13   37.55    0.56   0
  -3  -6  10    9.52    0.61   0
  -3  -1 -16   20.44    0.49   0
  -3   0 -12    2.08    0.40   0
  -3   0  -4    0.26    0.54   0
  -2   0 -15    1.06    0.54   0
   0  -8  14    0.78    0.58   0
   0   0 -17   -0.46    0.40   0
   0   1 -11   13.27    0.60   0
   0   1  -7    1.19    0.53   0
   1   1 -12   64.17    0.81   0
   1   1 -11   96.51    0.88   0
   1   1  -7   20.92    0.71   0
   2  -4  10  261.88    1.29   0
   2  -2   6   44.62    0.77   0
   3   0 -17    4.43    0.58   0
   4  -5  11  147.85    0.88   0
   5  -7  13   14.19    0.47   0
   5  -1   0   20.93    0.62   0
   5   0 -13    6.72    0.68   0
   6  -7  12    8.40    0.55   0
   6  -6  11    0.07    0.39   0
   6  -3   5    5.91    0.53   0
   6  -2   2    0.10    0.50   0
   7  -5   8    8.10    0.59   0
   7  -4   6    0.14    0.39   0
   8  -4   4   18.41    0.60   0
   8  -3   1    1.22    0.49   0
   8  -2  -4   17.37    0.70   0
  -6  -3  -2    3.41    0.56   0
  -5  -1  -8  133.16    0.98   0
  -5  -1  -7   63.69    0.77   0
  -4  -1 -14    6.91    0.44   0
  -3   0 -13    0.10    0.36   0
  -1   0 -17    0.07    0.40   0
  -1   1 -11   24.93    0.64   0
  -1   1 -10  101.81    0.91   0
  -1   1  -9   20.06    0.51   0
  -1   1  -8  177.45    1.16   0
   0  -3   8   12.79    0.57   0
   0  -2   6   24.99    0.75   0
   0   0 -18    4.67    0.56   0
   0   1 -12   -0.33    0.40   0
   1  -4  10    4.75    0.41   0
   1   0 -18    4.00    0.42   0
   1   1 -13   19.35    0.60   0
   2  -3   8   51.58    0.76   0
   2   0 -18    4.37    0.61   0
   2   1 -11   17.40    0.62   0
   2   1 -10   22.69    0.56   0
   2   1  -9    2.84    0.54   0
   2   1  -8    9.62    0.63   0
   3  -5  11    2.39    0.51   0
   4  -8  14    8.50    0.53   0
   4  -7  13    1.75    0.54   0
   4  -6  12    2.15    0.38   0
   4  -4   9   93.17    0.73   0
   4  -3   7    0.32    0.36   0
   4   0 -16    9.49    0.60   0
   5  -5  10   36.33    0.55   0
   5  -3   6  145.46    0.99   0
   6  -5   9   81.22    0.70   0
   6  -4   7   71.78    0.78   0
   7  -7  11   11.71    0.47   0
   8  -6   8   -0.55    0.50   0
   8  -5   6   26.39    0.64   0
   9  -5   4   10.79    0.59   0
   9  -4   1    1.85    0.55   0
   9  -3  -3    0.04    0.49   0
  -6  -4   1    5.99    0.57   0
  -5  -1 -11    1.31    0.50   0
  -5  -1 -10   27.86    0.52   0
  -5  -1  -9    2.86    0.37   0
  -5  -1  -6   42.62    0.61   0
  -5  -1  -5   42.88    0.75   0
  -4  -1 -15   10.79    0.46   0
  -4  -1  -1    2.57    0.39   0
  -4   0  -9   -0.37    0.46   0
  -4   0  -8    0.67    0.47   0
  -3   0 -14   21.22    0.48   0
  -3   0  -3    0.06    0.52   0
  -2   0 -16   19.81    0.49   0
  -1  -8  13   -0.04    0.57   0
  -1   1 -12    0.21    0.35   0
  -1   1  -7  263.05    1.37   0
   0  -7  13    2.87    0.43   0
   0  -6  12   22.62    0.67   0
   0  -5  11   39.17    0.61   0
   0   1 -13   56.43    0.67   0
   0   1  -6   28.00    0.65   0
   1  -8  14    1.13    0.56   0
   1  -3   8  121.74    1.02   0
   1  -2   6    9.25    0.46   0
   1   1  -6   46.77    0.95   0
   2  -8  14    3.68    0.55   0
   2  -5  11   20.41    0.61   0
   2  -1   3   25.97    0.81   0
   2   1 -12   49.60    0.70   0
   3  -8  14    4.51    0.54   0
   3   0 -18    7.85    0.56   0
   5  -6  11   14.99    0.58   0
   5  -4   8    2.45    0.38   0
   5   0 -14    6.86    0.66   0
   7  -6   9   15.22    0.57   0
   7  -2  -1    4.15    0.55   0
   7  -1  -8    3.20    0.78   0
   9  -6   6    7.39    0.49   0
  -6  -3  -1    0.79    0.53   0
  -6  -2 -10    1.41    0.56   0
  -6  -2  -9    9.76    0.46   0
  -6  -2  -7   12.39    0.47   0
  -6  -2  -6   29.50    0.55   0
  -6  -2  -5  142.80    1.10   0
  -5  -2   0    2.80    0.51   0
  -5  -1  -4   23.74    0.67   0
  -4  -7   9    4.80    0.83   0
  -4   0 -11    3.99    0.41   0
  -4   0 -10    2.62    0.37   0
  -4   0  -7    8.22    0.41   0
  -4   0  -6   21.60    0.62   0
  -3   0 -15   -0.13    0.38   0
  -2   0 -17    0.37    0.39   0
  -2   1 -10    7.13    0.55   0
  -2   1  -9    1.42    0.52   0
  -1   0 -18    0.79    0.38   0
  -1   1 -13   22.18    0.48   0
  -1   1  -6  135.26    1.15   0
   0   0 -19   14.51    0.64   0
   0   1 -14   25.71    0.53   0
   1  -7  13    0.55    0.56   0
   1  -6  12   -0.34    0.50   0
   1  -5  11   37.84    0.59   0
   1   0 -19    3.56    0.44   0
   1   1 -14   -0.16    0.36   0
   2  -7  13    5.15    0.55   0
   2  -6  12    9.73    0.56   0
   2   0 -19    1.71    0.59   0
   2   1 -13   15.85    0.53   0
   3  -7  13    0.56    0.37   0
   3  -6  12    1.09    0.38   0
   3  -4   9    3.63    0.54   0
   3  -2   5    6.91    0.44   0
   4  -5  10   22.61    0.60   0
   4  -1   1   42.81    0.75   0
   4   0 -17    8.07    0.59   0
   5  -8  13    2.05    0.42   0
   5  -7  12   14.34    0.53   0
   5  -2   3   57.40    0.68   0
   6  -6  10    1.26    0.38   0
   6  -1  -3   34.39    0.82   0
   7  -5   7    3.37    0.52   0
   7  -1 -13    2.46    0.99   0
   8  -7   9    0.59    0.41   0
   8  -3   0   -0.06    0.38   0
   8  -2  -5    2.69    0.54   0
  -6  -6   4   -0.24    0.66   0
  -6  -5   3    1.14    0.52   0
  -6  -2 -11    5.09    0.43   0
  -6  -2  -4   13.74    0.61   0
  -5  -1 -13    2.88    0.42   0
  -4   0 -13    9.21    0.55   0
  -4   0 -12   22.79    0.49   0
  -4   0  -5    6.47    0.54   0
  -3   0 -16    3.84    0.56   0
  -2   0 -18   10.26    0.56   0
  -2   1 -12   41.70    0.54   0
  -2   1 -11   26.39    0.51   0
  -2   1  -8  372.96    1.46   0
  -1   1 -14    5.26    0.40   0
   0   1 -15   11.43    0.43   0
   1   1 -15   -0.03    0.36   0
   2   1 -14    2.24    0.42   0
   2   1  -7   21.26    0.78   0
   3  -3   7    8.06    0.55   0
   3  -1   2   30.04    0.75   0
   4  -2   4    4.10    0.42   0
   5  -5   9   -0.12    0.54   0
   5   0  -7   25.10    1.66   0
   6  -8  12    6.86    0.43   0
   6  -7  11   -0.28    0.39   0
   6  -5   8   67.07    0.76   0
   6  -3   4    0.74    0.38   0
   6  -2   1   16.65    0.57   0
   7  -7  10    2.60    0.40   0
   7  -3   2    0.79    0.49   0
   7  -1  -9   -0.06    0.88   0
   8  -6   7    2.21    0.40   0
   8  -5   5    6.31    0.56   0
   9  -6   5   -0.11    0.52   0
   9  -5   3    3.15    0.41   0
   9  -4   0    1.02    0.49   0
  -7  -4  -3    5.40    0.63   0
  -6  -3   0    8.78    0.57   0
  -5  -1 -14   25.48    0.56   0
  -5  -1  -3   10.97    0.61   0
  -4   0 -14    9.00    0.56   0
  -3   0 -17    1.75    0.55   0
  -2   1 -14   20.59    0.59   0
  -2   1 -13   28.20    0.50   0
  -2   1  -7  245.15    1.25   0
  -1  -7  12   14.13    0.49   0
  -1   1 -15    6.90    0.41   0
   0  -8  13   19.89    0.67   0
   0   1 -16   32.94    0.69   0
   0   1  -5  104.32    1.16   0
   1   1 -16    1.44    0.56   0
   2  -4   9    0.07    0.54   0
   2   1 -15    8.07    0.57   0
   3   0  -2  259.31    2.45   0
   3   1 -11   90.65    1.09   0
   4  -8  13   18.14    0.48   0
   4  -7  12    0.86    0.48   0
   4  -6  11    0.19    0.36   0
   4  -4   8  213.54    1.11   0
   4  -3   6    0.49    0.50   0
   4   0 -18    0.88    0.53   0
   5  -3   5   40.25    0.69   0
   5   0 -15    0.29    0.56   0
   6  -4   6   37.89    0.55   0
   7  -6   8    1.62    0.54   0
   8  -7   8    0.26    0.55   0
   8  -2  -6   14.52    0.68   0
   9  -3  -5    7.56    0.63   0
  -7  -4  -2   18.01    0.66   0
  -7  -3  -6    1.46    0.59   0
  -6  -4   2    1.06    0.49   0
  -4   0 -15    1.24    0.39   0
  -4   0  -4  141.31    1.06   0
  -3   0  -2   37.66    0.69   0
  -3   1 -12    6.81    0.49   0
  -3   1 -11    3.42    0.48   0
  -3   1 -10   24.24    0.59   0
  -3   1  -9   39.00    0.67   0
  -2   1 -15   28.85    0.60   0
  -2   1  -6   57.16    0.71   0
  -1  -5  10    5.72    0.43   0
  -1   1 -16    2.63    0.40   0
  -1   1  -5    7.42    0.49   0
   0  -4   9    4.90    0.41   0
   0   1 -17   14.92    0.61   0
   1  -8  13    0.21    0.55   0
   1  -4   9   75.17    0.84   0
   1  -1   3  132.48    1.36   0
   1   1 -17    4.85    0.57   0
   2  -2   5   85.73    0.94   0
   2   1 -16    0.97    0.49   0
   3  -8  13    3.64    0.54   0
   3  -5  10  102.66    0.78   0
   3   1 -13   23.60    0.70   0
   3   1 -12    3.81    0.54   0
   3   1 -10   11.70    0.64   0
   5  -8  12    5.58    0.55   0
   5  -6  10    2.52    0.36   0
   5  -4   7    2.99    0.36   0
   6  -6   9    0.20    0.46   0
   7  -5   6   42.24    0.67   0
   8  -4   2    4.23    0.53   0
   8  -3  -1    7.20    0.41   0
   9  -4  -1   -0.58    0.55   0
  -6  -2  -2   14.16    0.61   0
  -6  -1 -11    5.34    0.54   0
  -6  -1  -9   -0.09    0.37   0
  -6  -1  -8   42.23    0.69   0
  -6  -1  -7   23.14    0.63   0
  -5  -1  -2   -0.20    0.53   0
  -5   0 -10   15.15    0.45   0
  -5   0  -9   55.26    0.73   0
  -5   0  -8    3.40    0.53   0
  -4   0 -16   16.66    0.50   0
  -3  -7  10    3.09    0.65   0
  -3   1 -13   12.47    0.41   0
  -2  -7  11    0.48    0.51   0
  -2   1 -16    9.96    0.59   0
  -1  -3   7    0.08    0.55   0
  -1   1 -17   25.58    0.50   0
   0  -7  12    6.05    0.54   0
   1   1  -5   28.11    0.89   0
   2  -8  13    3.19    0.41   0
   2  -5  10   18.88    0.58   0
   2  -3   7   10.49    0.46   0
   2   0  -1  126.68    2.04   0
   3  -7  12   28.40    0.51   0
   3  -6  11    5.31    0.40   0
   3   1 -14   12.17    0.59   0
   3   1  -9    6.07    0.59   0
   5  -7  11    1.32    0.36   0
   5  -2   2   16.98    0.56   0
   5   0 -16    2.54    0.57   0
   6  -8  11    9.22    0.54   0
   6  -7  10    1.08    0.39   0
   6  -3   3   11.37    0.58   0
   6  -1  -4  659.55    2.83   0
   7  -7   9    2.65    0.39   0
   7  -1 -14    0.34    0.90   0
   8  -6   6    0.12    0.39   0
   8  -5   4   15.21    0.56   0
   9  -3  -6    0.27    0.59   0
  -7  -4  -1    5.30    0.56   0
  -7  -3  -4    3.92    0.43   0
  -6  -1 -12    2.37    0.41   0
  -5   0 -13    5.49    0.43   0
  -5   0 -12   16.38    0.46   0
  -5   0  -7   41.83    0.57   0
  -3   1 -15   54.60    0.71   0
  -3   1 -14   13.64    0.44   0
  -3   1  -7    4.46    0.41   0
  -2   1 -17    8.78    0.59   0
  -2   1  -5  141.54    1.15   0
  -1  -8  12    0.64    0.55   0
  -1   1 -18   13.33    0.60   0
   0   1 -18   18.38    0.51   0
   1  -7  12   19.15    0.62   0
   1  -5  10   20.16    0.65   0
   1   1 -18    0.28    0.52   0
   2  -7  12    5.46    0.40   0
   2  -6  11    0.38    0.48   0
   2   1 -17   18.70    0.52   0
   2   1  -6   25.35    0.97   0
   3  -4   8    0.86    0.50   0
   3   1 -15    3.38    0.56   0
   4  -8  12    0.58    0.54   0
   4  -5   9   29.38    0.50   0
   5  -5   8   58.96    0.73   0
   6  -5   7   43.77    0.59   0
   7  -3   1    1.86    0.36   0
   7  -1 -10    0.03    0.90   0
   8  -7   7    0.06    0.54   0
   8  -2  -7    8.30    0.62   0
  -7  -2  -8    3.43    0.41   0
  -7  -2  -7    0.39    0.56   0
  -6  -3   1    3.61    0.59   0
  -6  -1  -5    2.26    0.49   0
  -5   0 -15    0.10    0.52   0
  -5   0 -14    0.29    0.41   0
  -5   0  -6    6.61    0.41   0
  -4  -6   8   95.09    1.73   0
  -4  -4   6   11.61    1.32   0
  -4   0  -3  212.09    1.23   0
  -4   1 -12   16.82    0.55   0
  -4   1 -10   90.46    0.81   0
  -3   1 -16   -0.21    0.52   0
  -2   1 -18   13.18    0.56   0
  -1   1  -4   92.13    1.18   0
   0  -3   7   18.14    0.61   0
   0   1 -19   14.16    0.63   0
   1  -6  11   39.96    0.57   0
   1  -3   7  163.28    1.08   0
   1  -2   5   51.28    0.88   0
   1   1 -19   11.64    0.59   0
   2   1 -18    5.91    0.55   0
   3  -3   6  104.76    0.92   0
   3  -2   4    1.08    0.37   0
   3   1 -16    4.63    0.54   0
   4  -7  11    0.37    0.38   0
   4  -6  10    6.07    0.40   0
   4  -4   7   10.62    0.54   0
   4  -2   3   91.43    0.82   0
   4  -1   0    2.67    0.50   0
   5  -4   6   16.07    0.56   0
   5   0 -17    2.27    0.59   0
   7  -6   7    3.22    0.38   0
   7  -2  -3    1.08    0.55   0
   9  -5   1    0.46    0.41   0
   9  -4  -2   26.60    0.69   0
   9  -3  -7    1.38    0.58   0
  -6  -2  -1    3.27    0.59   0
  -6  -1  -4    0.09    0.47   0
  -5   0  -5    0.30    0.55   0
  -4   1 -14    7.31    0.53   0
  -4   1 -13   17.37    0.45   0
  -4   1  -9   29.58    0.51   0
  -4   1  -8    5.08    0.49   0
  -3  -6   9   -0.02    0.53   0
  -3   1 -17    1.86    0.54   0
  -2  -8  11   18.79    0.70   0
  -1   1 -19    0.81    0.41   0
   0  -8  12   -0.11    0.55   0
   0   1  -4   29.38    0.82   0
   2  -1   2    0.42    0.70   0
   3  -8  12    1.15    0.48   0
   3  -5   9   42.47    0.65   0
   3   1  -8   11.03    0.75   0
   4  -3   5    0.38    0.47   0
   5  -8  11   -0.03    0.38   0
   5  -7  10   29.67    0.59   0
   5  -6   9    0.48    0.35   0
   5  -1  -2    4.69    0.54   0
   6  -8  10    3.20    0.52   0
   6  -7   9    0.19    0.49   0
   6  -6   8    0.25    0.35   0
   7  -8   9   -0.23    0.40   0
   7  -7   8    7.81    0.43   0
   7  -4   3    2.58    0.37   0
   8  -6   5    7.37    0.43   0
   8  -2  -8    0.51    0.60   0
  -7  -4   0    0.47    0.54   0
  -7  -3  -2   29.25    0.74   0
  -7  -2  -5    5.22    0.44   0
  -5  -1  -1   18.42    0.50   0
  -4   1 -15   16.06    0.45   0
  -4   1  -7    0.33    0.50   0
  -3  -4   7    2.72    0.62   0
  -3   1 -18    0.37    0.56   0
  -3   1  -5   38.95    0.70   0
  -2   1  -4   88.13    1.02   0
  -1  -7  11    6.29    0.55   0
   0  -2   5  587.65    2.51   0
   1  -8  12   30.56    0.68   0
   2  -8  12    5.63    0.54   0
   2  -4   8   32.38    0.56   0
   2   1 -19    0.73    0.56   0
   3  -7  11    4.73    0.39   0
   3  -6  10    3.71    0.50   0
   3  -1   1    1.57    0.53   0
   3   1 -17    0.20    0.38   0
   4  -9  12    3.04    0.41   0
   6  -5   6   11.19    0.54   0
   6  -3   2   15.31    0.61   0
   7  -3   0    0.76    0.49   0
   8  -7   6    1.11    0.49   0
   8  -3  -3    9.40    0.58   0
   9  -4  -3    0.05    0.55   0
   9  -3  -8    0.27    0.57   0
  -7  -2  -4    5.18    0.55   0
  -7  -1 -10    7.24    0.55   0
  -7  -1  -9   -0.70    0.52   0
  -6  -5   4    7.95    0.86   0
  -6  -1  -3   18.59    0.61   0
  -6   0 -13   12.08    0.61   0
  -6   0 -12    7.13    0.45   0
  -6   0 -11    1.47    0.40   0
  -6   0 -10    8.53    0.42   0
  -6   0  -9   10.38    0.44   0
  -6   0  -8    6.36    0.54   0
  -5   0  -4   13.64    0.59   0
  -4  -5   7   61.92    1.61   0
  -4  -2   3  156.49    1.98   0
  -4   0  -2   47.96    0.76   0
  -4   1 -17   26.95    0.64   0
  -4   1 -16    3.12    0.39   0
  -3  -5   8   39.72    0.96   0
  -1  -6  10    0.85    0.55   0
  -1   2 -14    4.14    0.51   0
  -1   2 -13    2.37    0.36   0
  -1   2 -12    0.47    0.38   0
  -1   2 -11   28.59    0.67   0
   0   2 -14    0.69    0.49   0
   0   2 -13   60.12    0.81   0
   0   2 -12   70.09    0.85   0
   1  -4   8   34.30    0.69   0
   2  -7  11   54.64    0.73   0
   2  -5   9   92.70    0.87   0
   3  -9  12    8.35    0.59   0
   3   1 -18    0.74    0.55   0
   4  -8  11    3.58    0.53   0
   4  -5   8   15.75    0.42   0
   5  -9  11    2.46    0.55   0
   5  -5   7   25.27    0.59   0
   5  -2   1   28.63    0.54   0
   6  -4   4   35.19    0.64   0
   6  -2  -1    7.38    0.54   0
   6  -1  -5  124.66    1.40   0
   8  -4   0    7.17    0.53   0
   9  -6   2    2.91    0.41   0
  -7  -3  -1   22.85    0.67   0
  -7  -1  -8    5.85    0.44   0
  -7  -1  -7   10.81    0.58   0
  -6  -4   3   24.24    0.87   0
  -6   0  -7    6.82    0.55   0
  -5   1 -13   30.97    0.51   0
  -5   1 -12   16.06    0.45   0
  -5   1 -11    0.09    0.37   0
  -5   1 -10   25.34    0.60   0
  -4  -1   1   11.51    0.65   0
  -4   1  -6  107.50    0.83   0
  -2   2 -15    0.56    0.50   0
  -2   2 -14    5.25    0.41   0
  -2   2 -13    2.68    0.35   0
  -2   2 -12    3.56    0.36   0
  -2   2 -11  140.10    0.88   0
  -2   2 -10   85.51    0.83   0
  -1  -5   9   18.78    0.62   0
  -1   2 -16   22.79    0.64   0
  -1   2 -15   84.45    0.75   0
  -1   2 -10  109.21    0.86   0
   0  -7  11    0.95    0.35   0
   0  -4   8   68.87    0.85   0
   0   2 -16   15.43    0.60   0
   0   2 -15    4.52    0.37   0
   0   2 -11   78.44    0.78   0
   1  -9  12    0.85    0.56   0
   1  -7  11    2.38    0.51   0
   2  -9  12    2.33    0.54   0
   2  -6  10   16.49    0.44   0
   2  -3   6   32.30    0.58   0
   2  -2   4   66.42    0.91   0
   3  -4   7   15.42    0.54   0
   4  -7  10    7.42    0.40   0
   4  -6   9    6.70    0.41   0
   5  -8  10    5.94    0.52   0
   5  -6   8   24.33    0.60   0
   6  -6   7   13.09    0.53   0
   7  -8   8    6.03    0.42   0
   7  -7   7    1.68    0.40   0
   7  -5   4    0.01    0.47   0
   7  -4   2    5.60    0.48   0
   7  -2  -4    3.59    0.53   0
   7  -1 -11    0.41    0.91   0
   8  -6   4   13.85    0.43   0
   8  -2  -9    1.43    0.61   0
  -7  -2  -3    0.18    0.39   0
  -7  -1  -6   71.70    0.85   0
  -6  -2   0   25.38    0.70   0
  -6   0  -6   -0.09    0.50   0
  -5   1 -16    0.35    0.50   0
  -5   1 -15    5.00    0.42   0
  -5   1  -9   15.74    0.43   0
  -5   1  -8    3.64    0.49   0
  -3   1  -4  279.35    1.46   0
  -3   2 -14   21.26    0.59   0
  -3   2 -13   24.61    0.59   0
  -3   2 -12   37.85    0.63   0
  -2  -7  10   -0.32    0.52   0
  -2   0   0    7.97    0.82   0
  -2   2 -17   22.44    0.60   0
  -2   2 -16   -0.06    0.37   0
  -2   2  -9  177.14    1.09   0
  -1  -8  11    3.24    0.53   0
  -1   2 -17    9.44    0.43   0
  -1   2  -9   55.57    0.67   0
   0  -6  10   18.38    0.59   0
   0  -5   9    9.60    0.56   0
   0   2 -17    0.31    0.53   0
   0   2 -10  138.07    1.00   0
   1  -5   9   10.37    0.45   0
   1   2 -15   11.15    0.58   0
   1   2 -14    1.44    0.53   0
   1   2 -13    1.83    0.40   0
   1   2 -12   53.56    0.80   0
   4  -9  11    1.45    0.51   0
   4  -4   6   56.51    0.70   0
   4  -2   2   66.71    0.81   0
   4   1 -15   21.60    0.77   0
   4   1 -14    0.44    0.48   0
   4   1 -13   26.12    0.76   0
   5  -7   9   -0.37    0.38   0
   5  -4   5    1.63    0.36   0
   5  -3   3    6.55    0.42   0
   6  -8   9    6.49    0.41   0
   6  -7   8    0.36    0.36   0
   8  -7   5   21.32    0.49   0
   9  -6   1    0.27    0.51   0
   9  -5  -1    4.85    0.53   0
   9  -4  -4    0.62    0.51   0
  -7  -4   1    1.69    0.63   0
  -6  -1  -2   13.72    0.64   0
  -5  -2   2    2.70    0.63   0
  -5   1  -7    0.01    0.46   0
  -4   1  -5  393.37    1.58   0
  -3  -1   2   24.36    0.93   0
  -3   2 -16    8.62    0.57   0
  -3   2 -15    6.98    0.40   0
  -3   2 -10    5.46    0.37   0
  -2   2 -18   24.00    0.61   0
  -1   2 -18    4.78    0.44   0
   0   2 -18    6.65    0.58   0
   0   2  -9   19.03    0.57   0
   1   2 -17   38.00    0.71   0
   1   2 -16    4.92    0.41   0
   1   2 -11   19.88    0.64   0
   3  -7  10   40.22    0.66   0
   3  -5   8   11.72    0.42   0
   3  -3   5   69.51    0.72   0
   3  -2   3    5.86    0.40   0
   4  -3   4   44.10    0.71   0
   4   1 -16    4.89    0.57   0
   4   1 -12    0.39    0.49   0
   6  -5   5    5.14    0.48   0
   6  -3   1   18.84    0.61   0
   7  -6   5    5.35    0.50   0
   7  -3  -1   -0.05    0.35   0
   8  -4  -1    8.24    0.51   0
   8  -3  -4   -0.09    0.38   0
   8  -2 -10    0.08    0.63   0
  -7  -2  -2   29.22    0.71   0
  -7  -1  -5   26.88    0.56   0
  -7   0 -11   -0.18    0.54   0
  -7   0 -10    0.27    0.51   0
  -6  -3   2    0.23    0.45   0
  -6   0  -5    2.78    0.38   0
  -6   1 -13    4.38    0.52   0
  -6   1 -12    1.05    0.49   0
  -4   2 -15    8.95    0.51   0
  -4   2 -14    3.64    0.52   0
  -4   2 -13    8.55    0.53   0
  -4   2 -12    5.83    0.50   0
  -3  -7   9    4.40    0.65   0
  -3   2 -18    7.68    0.55   0
  -3   2  -9   45.65    0.58   0
  -2   1  -3   25.06    0.79   0
  -2   2  -8   43.43    0.61   0
  -1   1  -3  133.75    1.36   0
  -1   2 -19    1.90    0.43   0
  -1   2  -8  144.02    0.99   0
   0  -8  11    3.51    0.43   0
   0   2 -19   16.16    0.62   0
   1  -8  11    5.55    0.52   0
   1  -3   6  217.94    1.27   0
   1   1  -4  177.06    2.07   0
   1   2 -18   -0.05    0.52   0
   1   2 -10  227.71    1.41   0
   2  -4   7   22.60    0.61   0
   3  -9  11   -0.04    0.54   0
   3  -6   9   18.72    0.43   0
   4  -8  10    0.73    0.36   0
   4  -5   7   23.05    0.56   0
   4  -1  -1  347.75    1.93   0
   4   1 -17    0.48    0.52   0
   5  -9  10    9.09    0.46   0
   6  -9   9    0.30    0.39   0
   6  -4   3    0.54    0.47   0
   7  -7   6   11.32    0.44   0
   7  -5   3    0.43    0.50   0
   8  -6   3    1.10    0.37   0
   8  -5   1    9.35    0.53   0
   9  -5  -2    3.73    0.54   0
   9  -4  -5    1.02    0.54   0
  -7  -3   0    5.32    0.56   0
  -7  -1  -4    6.22    0.51   0
  -7   0  -9    6.46    0.42   0
  -7   0  -8   12.42    0.55   0
  -6   1 -14    1.35    0.41   0
  -6   1 -11    5.56    0.41   0
  -6   1 -10    6.34    0.39   0
  -5   1  -6   35.55    0.56   0
  -4  -7   8   10.94    0.77   0
  -4   0  -1   17.84    0.63   0
  -4   2 -17    2.01    0.51   0
  -4   2 -16   24.44    0.52   0
  -4   2 -11    5.87    0.37   0
  -4   2 -10   -0.49    0.47   0
  -3   2  -8   11.56    0.55   0
  -2  -8  10    8.31    0.60   0
   0   2  -8    3.62    0.48   0
   1   2 -19   19.79    0.64   0
   2  -9  11    0.84    0.51   0
   2  -7  10   35.89    0.65   0
   2   2 -15   21.32    0.63   0
   2   2 -14   67.36    0.90   0
   4  -7   9   60.18    0.63   0
   4  -6   8   53.35    0.67   0
   5  -8   9    4.07    0.40   0
   5  -7   8    9.65    0.53   0
   5  -6   7   29.07    0.60   0
   5  -2   0   43.95    0.72   0
   5  -1  -3   14.70    0.65   0
   6  -8   8    0.99    0.38   0
   6  -7   7   67.36    0.73   0
   6  -6   6   26.86    0.50   0
   6  -2  -2    5.83    0.41   0
   7  -4   1   -0.03    0.34   0
   7  -2  -5    4.65    0.52   0
   8  -8   5    3.18    0.54   0
   8  -7   4   -0.30    0.38   0
   9  -6   0    0.25    0.46   0
  -8  -2  -5    2.68    0.61   0
  -7   0  -7    9.43    0.54   0
  -6   0  -4   36.47    0.57   0
  -6   1  -9    6.09    0.40   0
  -6   1  -8   22.80    0.59   0
  -5   0  -2    1.06    0.48   0
  -4   1  -4   29.46    0.56   0
  -4   2  -9  151.04    0.97   0
  -3   1  -3   10.03    0.60   0
  -2   2  -7  151.57    0.99   0
  -1   2  -7    9.73    0.54   0
   0  -7  10   76.79    0.87   0
   1  -9  11    5.48    0.46   0
   1  -7  10   11.01    0.56   0
   1  -1   2  379.52    2.36   0
   2  -6   9   49.91    0.60   0
   2  -5   8    2.41    0.36   0
   2   2 -17    0.03    0.48   0
   2   2 -16    0.30    0.51   0
   2   2 -13  105.23    1.07   0
   3  -8  10   18.90    0.58   0
   3  -4   6   69.46    0.77   0
   4  -9  10    3.73    0.50   0
   4   1 -18    1.57    0.57   0
   5  -4   4   18.58    0.56   0
   6  -1  -6   21.36    0.76   0
   7  -6   4    8.49    0.53   0
   7  -3  -2    3.43    0.51   0
   8  -6   2    3.74    0.52   0
   8  -4  -2   19.14    0.60   0
   8  -3  -5    0.14    0.38   0
   8  -2 -11    0.41    0.62   0
  -7  -2  -1    7.99    0.56   0
  -6  -1  -1   32.15    0.75   0
  -5   1  -5    0.63    0.52   0
  -5   2 -16    4.16    0.58   0
  -5   2 -15    0.21    0.39   0
  -5   2 -14    1.43    0.46   0
  -5   2 -13    0.17    0.36   0
  -5   2 -12   26.34    0.48   0
  -5   2 -11   13.33    0.55   0
  -4   2  -8    6.31    0.53   0
  -3   0   0    6.05    0.61   0
  -3   2  -7  221.14    1.20   0
   0   1  -3 2339.53    6.32   0
   1  -6   9    0.87    0.51   0
   1  -4   7    2.33    0.37   0
   1   2  -9    3.81    0.40   0
   2   2 -18    0.83    0.57   0
   2   2 -12   26.75    0.56   0
   5  -3   2    0.01    0.37   0
   6  -5   4   16.32    0.43   0
   7  -7   5   -1.09    0.46   0
   8  -5   0    6.98    0.51   0
   9  -7   1   -0.01    0.41   0
   9  -5  -3    0.16    0.48   0
   9  -4  -6    0.06    0.39   0
  -8  -1  -7    0.51    0.44   0
  -7  -1  -3   24.57    0.55   0
  -7   0  -6    9.93    0.45   0
  -6   1  -7   -0.08    0.36   0
  -5   2 -10   14.81    0.45   0
  -1  -6   9    7.09    0.43   0
   2  -3   5  139.57    0.98   0
   3  -7   9    0.88    0.37   0
   3  -5   7    2.48    0.37   0
   4  -8   9   11.87    0.44   0
   6  -3   0   45.93    0.62   0
   7  -5   2    1.95    0.39   0
   8  -8   4    6.20    0.42   0
   8  -7   3   10.16    0.43   0
   9  -6  -1    4.19    0.42   0
  -7  -2  -3    0.50    0.41   0
  -6  -5   4    7.87    0.42   0
  -4  -5   7   61.58    0.62   0
  -4  -2   3  154.72    0.96   0
  -4  -1   1   10.78    0.45   0
  -3   2 -14   20.52    0.79   0
  -3   2 -13   25.01    0.85   0
  -1  -8  11    3.13    0.43   0
  -1   2 -17    8.66    0.44   0
  -1   2  -9   54.43    0.90   0
   0  -5   9    9.26    0.54   0
   0   2 -17    0.33    0.49   0
   1  -6  10   13.58    0.47   0
   1  -5   9    9.67    0.44   0
   1   2 -16    5.13    0.52   0
   1   2 -15   11.14    0.57   0
   1   2 -14    1.22    0.36   0
   3  -8  11    0.11    0.50   0
   4   1 -16    4.86    0.54   0
   4   1 -15   20.13    0.49   0
   4   1 -14    0.03    0.35   0
   4   1 -13   26.76    0.51   0
   4   1 -11   29.16    0.59   0
   5   0  -7   25.90    0.62   0
   7  -1 -11    0.70    0.38   0
   7  -1 -10   -0.14    0.37   0
   8  -2  -9    1.82    0.37   0
  -7  -4   0    0.40    0.40   0
  -7  -2  -4    5.02    0.54   0
  -7  -1  -8    5.74    0.58   0
  -6  -6   4   -0.19    0.52   0
  -6  -3   1    4.01    0.50   0
  -5  -6   6   10.99    0.45   0
  -5  -3   3   53.91    0.70   0
  -4  -7   8   11.74    0.45   0
  -3  -7   9    4.40    0.39   0
  -3   2 -11    4.26    0.70   0
  -2  -8  10    7.88    0.54   0
  -2  -6   9   61.23    0.73   0
  -2   2 -17   22.32    0.69   0
  -1   2 -18    4.82    0.56   0
   0  -8  11    2.94    0.53   0
   0   2 -18    6.65    0.62   0
   0   2  -9   19.02    0.61   0
   1   1  -4  179.59    1.38   0
   1   2 -17   37.56    0.73   0
   2   1  -5  151.45    1.15   0
   3   1  -7   30.32    0.55   0
   4  -9  11    1.24    0.54   0
   4   0  -4 2101.59    3.42   0
   4   1 -17    0.19    0.38   0
   4   1 -10    0.06    0.48   0
   6  -2  -1    7.45    0.53   0
   6   0 -16    0.91    0.55   0
   6   0 -15    0.57    0.36   0
   6   0 -14    2.67    0.40   0
   6   0 -13   32.66    0.56   0
   6   0 -12    2.42    0.37   0
   6   0 -11    0.43    0.47   0
   7  -5   4    0.36    0.55   0
   7  -1  -9    0.17    0.36   0
   8  -5   2    5.41    0.55   0
   8  -2  -8    0.18    0.39   0
  -6  -5   3    0.71    0.38   0
  -6  -4   2    0.91    0.47   0
  -6  -2  -1    3.63    0.36   0
  -5  -5   5   84.64    0.71   0
  -5  -4   4    4.24    0.40   0
  -5  -2   1   13.16    0.59   0
  -5  -1  -1   17.90    0.50   0
  -5   0  -4   13.67    0.57   0
  -4  -6   7   60.59    0.63   0
  -4  -3   4    0.54    0.49   0
  -3  -8   9    9.87    0.45   0
  -3  -6   8    4.44    0.50   0
  -3  -3   5    0.61    0.47   0
  -3   0  -1   87.81    1.11   0
  -1  -7  10    2.35    0.36   0
  -1  -3   6  340.97    1.54   0
   0   2 -19   16.92    0.62   0
   1  -8  11    4.91    0.51   0
   1   2 -18    0.38    0.52   0
   1   2 -10  235.18    1.22   0
   2  -8  11   12.42    0.56   0
   2   0  -1  122.78    1.41   0
   2   2 -15   21.61    0.61   0
   3  -7  10   39.26    0.77   0
   4   1 -18    1.94    0.40   0
   4   1  -9   12.88    0.52   0
   5  -2   1   28.08    0.66   0
   6  -1  -4  667.12    2.00   0
   6   0 -10    2.38    0.37   0
   7  -2  -3    0.67    0.49   0
   7  -1  -8    3.59    0.38   0
   8  -2  -7    9.04    0.44   0
   9  -4  -3   -0.33    0.39   0
   9  -3  -7    1.14    0.42   0
  -7  -3  -3    1.58    0.53   0
  -7  -2  -5    5.08    0.44   0
  -6  -1  -4    0.04    0.53   0
  -4  -7   7   21.45    0.61   0
  -4  -4   5   18.26    0.56   0
  -3  -5   7   53.44    0.68   0
  -3  -4   6    0.72    0.47   0
  -3   2 -16    8.94    0.65   0
  -2  -1   2  803.54    2.68   0
  -2   2 -18   24.18    0.73   0
  -1   2  -8  147.22    1.38   0
   0  -9  11   17.79    0.50   0
   0   2  -8    3.64    0.50   0
   1  -3   6  222.79    1.62   0
   1   2  -9    3.40    0.51   0
   2   2 -16    0.66    0.37   0
   2   2 -12   28.93    0.51   0
   2   2 -11   17.73    0.61   0
   3  -9  11    0.05    0.51   0
   3  -5   8   11.61    0.61   0
   3  -1   1    1.47    0.51   0
   3   1  -6  193.61    1.08   0
   6  -3   2   15.31    0.57   0
   6   0  -9    8.98    0.41   0
   7  -1  -7    0.61    0.37   0
   8  -2  -6   14.04    0.45   0
   9  -5   0    2.68    0.38   0
   9  -3  -6   -0.10    0.40   0
  -7  -4  -2   16.02    0.58   0
  -7  -2  -6    0.79    0.55   0
  -6  -5   2    6.50    0.52   0
  -6  -4   1    6.33    0.54   0
  -6  -3   0    8.87    0.42   0
  -6  -2  -2   14.28    0.56   0
  -5  -5   4    8.56    0.53   0
  -5  -3   2    2.26    0.44   0
  -4  -2   2    2.09    0.38   0
  -4  -1   0   47.53    0.72   0
  -3  -7   8    6.32    0.40   0
  -2  -7   9   10.47    0.42   0
  -1  -8  10    2.52    0.38   0
   0  -3   6  159.62    1.15   0
   1  -9  11    4.98    0.43   0
   1  -7  10   11.60    0.57   0
   2  -7  10   37.01    0.73   0
   2   2 -18    0.48    0.39   0
   2   2 -10    1.46    0.52   0
   3  -6   9   19.13    0.62   0
   4  -1   0    2.69    0.35   0
   4   0  -3  103.09    0.97   0
   4   1  -8    0.28    0.34   0
   5   0  -5    0.68    0.52   0
   5   1 -17    0.26    0.54   0
   5   1 -16    9.25    0.44   0
   5   1 -15   18.79    0.48   0
   5   1 -14    5.12    0.38   0
   5   1 -13   18.90    0.47   0
   5   1 -12   -0.58    0.48   0
   6   0  -8   29.51    0.64   0
   7  -1  -6   13.84    0.56   0
   8  -3  -2    9.90    0.42   0
   8  -1 -12    0.88    0.55   0
   9  -4  -2   26.63    0.69   0
   9  -3  -5    6.87    0.53   0
  -7  -3  -4    4.10    0.41   0
  -6   0 -10    8.09    0.64   0
  -5  -4   3    2.37    0.34   0
  -5  -1  -2   -0.16    0.52   0
  -5   0  -5    0.11    0.46   0
  -5   1 -11    0.28    0.70   0
  -4  -6   6   14.69    0.44   0
  -3  -8   8    4.71    0.41   0
  -3  -1   1   38.80    0.63   0
  -3   2 -17    0.70    0.59   0
  -2  -8   9    0.56    0.37   0
  -2   2 -19    6.04    0.60   0
  -1  -9  10   21.28    0.51   0
   0  -6   9   17.50    0.59   0
   0   1  -3 2326.16    6.34   0
   1   2  -8   18.51    0.55   0
   2  -4   7   22.76    0.71   0
   2   1  -4  277.59    1.54   0
   2   2 -19    5.53    0.45   0
   3   2 -17    8.28    0.55   0
   3   2 -16    9.76    0.57   0
   3   2 -15   12.31    0.44   0
   3   2 -14   89.56    0.75   0
   3   2 -13   20.60    0.61   0
   4  -8  10    0.53    0.53   0
   4   1  -7   37.00    0.65   0
   5   1 -11    1.43    0.37   0
   6  -2   0   24.99    0.62   0
   7  -2  -2   17.37    0.58   0
   7   0 -14    2.24    0.53   0
   7   0 -13   -0.25    0.49   0
   8  -2  -5    2.25    0.38   0
   8  -1 -11    1.08    0.38   0
   8  -1 -10    0.20    0.48   0
  -7  -3  -5    0.87    0.54   0
  -7  -2  -8    3.41    0.57   0
  -6  -5   1    6.62    0.50   0
  -6  -3  -1    0.90    0.46   0
  -6   0 -13   11.83    0.78   0
  -6   0 -11    1.48    0.58   0
  -5  -6   4   -0.05    0.39   0
  -5   1 -14    0.11    0.90   0
  -4  -7   6   15.31    0.56   0
  -4  -5   5    1.70    0.47   0
  -4  -4   4    0.84    0.48   0
  -4  -3   3    0.40    0.36   0
  -4   0  -3  210.51    1.49   0
  -2  -5   7    8.13    0.51   0
  -1  -7   9    2.03    0.48   0
  -1  -2   4   89.91    0.93   0
   0  -8  10    0.10    0.38   0
   0  -5   8    3.12    0.52   0
   0  -4   7   37.72    0.68   0
   1  -6   9    0.54    0.50   0
   2  -6   9   50.29    0.81   0
   2   2  -9   18.90    0.48   0
   3   1  -5  142.12    0.97   0
   3   2 -18   -0.60    0.39   0
   3   2 -12   42.85    0.55   0
   3   2 -11   -0.31    0.48   0
   5  -1  -1   23.45    0.51   0
   5   1 -10   15.73    0.41   0
   6   0  -7   35.45    0.54   0
   7  -1  -5    9.87    0.54   0
   7   0 -12    6.40    0.42   0
   7   0 -11    3.04    0.51   0
   8  -4   1    0.40    0.50   0
   8  -1  -9    0.46    0.51   0
   9  -3  -4    0.81    0.48   0
  -7  -3  -6    1.38    0.57   0
  -6  -4   0    2.24    0.36   0
  -6  -2  -3    7.62    0.41   0
  -5  -7   4   -0.50    0.40   0
  -5  -4   2    9.61    0.51   0
  -3  -7   7    3.71    0.49   0
  -3  -4   5  113.75    0.88   0
  -3  -3   4    3.84    0.37   0
  -2  -7   8    2.64    0.50   0
  -2  -4   6  135.68    0.88   0
   0  -9  10    6.78    0.44   0
   0   2  -7   61.72    0.89   0
   1  -8  10    3.39    0.54   0
   1  -5   8    2.04    0.51   0
   1  -4   7    1.93    0.37   0
   2  -5   8    2.34    0.46   0
   3  -8  10   19.45    0.64   0
   3   2 -10   13.46    0.52   0
   5   1  -9    1.07    0.35   0
   6   0  -6  256.54    1.23   0
   6   1 -15    3.55    0.51   0
   6   1 -14    2.29    0.49   0
   7  -3   1    2.08    0.49   0
   7   0 -10    2.71    0.38   0
   8  -5   3    1.65    0.51   0
   8  -3  -1    6.80    0.52   0
   8  -1  -8    0.05    0.54   0
   9  -5   1    0.57    0.39   0
   9  -2  -8    1.75    0.41   0
  -6  -5   0    0.62    0.47   0
  -6  -3  -2    3.11    0.50   0
  -6  -1  -6    0.05    0.38   0
  -5  -6   3    0.38    0.50   0
  -5  -1  -3   10.60    0.59   0
  -4  -6   5   20.31    0.49   0
  -4  -2   1    7.83    0.42   0
  -3  -8   7   11.31    0.47   0
  -3   2 -18    7.96    0.63   0
  -2  -8   8    3.31    0.52   0
  -1  -9   9    4.83    0.53   0
  -1  -8   9    5.10    0.40   0
  -1  -6   8    6.76    0.51   0
  -1   2  -7    9.81    0.64   0
   0  -7   9   10.41    0.53   0
   0  -2   4   35.70    0.87   0
   1  -9  10    3.30    0.57   0
   1   1  -3   58.35    0.93   0
   1   2  -7    0.84    0.47   0
   2  -8  10    6.93    0.51   0
   2   2  -8   17.49    0.47   0
   4   1  -6    1.36    0.38   0
   4   2 -18    0.74    0.53   0
   4   2 -17    2.28    0.38   0
   4   2 -16   12.55    0.43   0
   4   2 -15   20.18    0.48   0
   4   2 -14   18.98    0.47   0
   4   2 -13    1.09    0.50   0
   5   1  -8    5.57    0.51   0
   6   1 -13    9.57    0.42   0
   6   1 -12    3.70    0.53   0
   7  -4   3    2.69    0.48   0
   7   0  -9    3.22    0.40   0
   9  -2  -7    0.29    0.40   0
  -6  -4  -1   -0.15    0.37   0
  -6  -1  -7   22.89    0.67   0
  -5  -7   3    2.95    0.42   0
  -4  -7   5   -0.01    0.37   0
  -4  -5   4    1.05    0.46   0
  -4  -1  -1    2.46    0.36   0
  -4   1  -7    0.12    0.58   0
  -3  -6   6   42.22    0.56   0
  -2  -2   3    6.88    0.48   0
  -1  -3   5    0.61    0.48   0
   1  -2   4   49.71    1.12   0
   2  -9  10    1.84    0.53   0
   3   0  -1   75.91    0.87   0
   3   2  -9   -0.07    0.36   0
   4  -9  10    3.93    0.51   0
   4   0  -2    5.60    0.41   0
   4   2 -12    0.69    0.36   0
   6  -9   9    0.02    0.63   0
   6  -1  -2    3.03    0.39   0
   6   1 -11   -0.58    0.35   0
   7  -2  -1    4.12    0.37   0
   7  -1  -4    0.53    0.36   0
   7   0  -8    7.38    0.51   0
   8  -2  -3   12.49    0.54   0
   8  -1  -7   18.35    0.49   0
   9  -6   3    0.54    0.54   0
   9  -3  -3    0.11    0.36   0
  -6  -5  -1    1.54    0.50   0
  -6  -3  -3   62.47    0.82   0
  -5  -4   1    0.35    0.46   0
  -5  -3   0   19.50    0.46   0
  -4  -4   3    0.28    0.33   0
  -4  -3   2  192.24    1.01   0
  -3   0  -2   37.06    0.84   0
  -3   1  -5   37.87    1.21   0
  -1  -7   8    8.10    0.53   0
  -1  -5   7   -0.01    0.34   0
  -1  -4   6    3.94    0.50   0
   0  -8   9    6.20    0.48   0
   0   3 -16    2.96    0.50   0
   0   3 -15    0.19    0.50   0
   0   3 -14   20.88    0.61   0
   1  -7   9    2.16    0.48   0
   1   0   0   95.33    1.67   0
   1   3 -16   35.09    0.69   0
   1   3 -15   10.72    0.53   0
   2  -1   2    0.63    0.83   0
   2   2  -7   57.58    0.77   0
   3  -9  10   -0.13    0.39   0
   3   1  -4   13.79    0.44   0
   4   1  -5   15.24    0.60   0
   4   2 -11   -0.04    0.35   0
   5   0  -3   48.84    0.73   0
   5   1  -7   11.58    0.41   0
   6   0  -5   13.98    0.45   0
   6   1 -10    2.89    0.38   0
  -6  -4  -2    4.97    0.42   0
  -6  -2  -5  142.90    1.09   0
  -6  -1  -8   42.39    0.81   0
  -4  -7   4    0.05    0.48   0
  -4  -6   4   64.17    0.62   0
  -3  -5   5    0.78    0.36   0
  -3  -4   4   27.38    0.59   0
  -3  -1   0    0.63    0.51   0
  -2  -8   7   11.10    0.55   0
  -2  -7   7   22.90    0.47   0
  -2  -3   4   26.01    0.62   0
  -1  -9   8   -0.33    0.50   0
  -1  -8   8    7.34    0.52   0
  -1   3 -16   15.02    0.59   0
  -1   3 -15   15.46    0.58   0
   0  -9   9    2.65    0.41   0
   0  -6   8    0.90    0.38   0
   0   3 -18    3.51    0.58   0
   0   3 -17    6.27    0.42   0
   0   3 -13  266.07    1.42   0
   1   3 -18   16.52    0.65   0
   1   3 -17   -0.26    0.39   0
   1   3 -14   31.43    0.52   0
   1   3 -13  250.06    1.32   0
   2  -7   9    1.25    0.52   0
   2   1  -3  235.36    1.41   0
   2   3 -16    1.23    0.48   0
   3   2  -8   12.12    0.43   0
   4  -6   8   52.69    0.99   0
   4   2 -10    0.31    0.33   0
   5  -1   0   20.89    0.59   0
   5   2 -16   23.28    0.50   0
   5   2 -15   14.88    0.47   0
   5   2 -14    9.69    0.42   0
   5   2 -13    0.09    0.46   0
   6  -2   1   15.89    0.53   0
   6   1  -9    0.37    0.36   0
   7   0  -7    0.66    0.36   0
   7   1 -14    0.06    0.49   0
   8  -4   2    4.27    0.50   0
   8  -3   0   -0.19    0.49   0
   8   0 -11    0.63    0.39   0
   9  -4   0    0.85    0.36   0
   9  -2  -5    1.21    0.53   0
  -6  -5  -2    4.82    0.44   0
  -6  -4  -3   17.09    0.61   0
  -5  -5   1    0.07    0.35   0
  -5  -2  -2    0.92    0.38   0
  -5  -1  -4   23.83    0.53   0
  -4  -5   3   30.91    0.59   0
  -4  -2   0    0.45    0.48   0
  -4   0  -4  142.99    1.28   0
  -3  -6   5   48.75    0.68   0
  -2  -4   5    6.57    0.39   0
  -1   3 -17    3.31    0.55   0
  -1   3 -14   62.81    0.78   0
  -1   3 -13    3.50    0.56   0
   0   2  -6   25.43    0.61   0
   0   3 -19    1.02    0.55   0
   0   3 -12   29.18    0.69   0
   1  -8   9   -0.37    0.50   0
   1   2  -6    0.18    0.35   0
   1   3 -19    2.71    0.42   0
   1   3 -12    0.11    0.53   0
   2   3 -18    2.89    0.51   0
   2   3 -17   -0.17    0.39   0
   2   3 -15   56.09    0.65   0
   2   3 -14    8.87    0.40   0
   2   3 -13    8.42    0.51   0
   4  -2   3   89.43    1.30   0
   4  -1   1   40.28    0.70   0
   4   2  -9   49.68    0.67   0
   5   1  -6   21.59    0.47   0
   5   2 -12   20.23    0.46   0
   6   0  -4    0.50    0.50   0
   6   1  -8    1.18    0.47   0
   7  -1  -3    9.81    0.41   0
   7   1 -13   -0.12    0.39   0
   7   1 -12    0.57    0.47   0
   8  -2  -2    3.87    0.47   0
   8  -1  -5    4.35    0.51   0
   8   0 -10    2.24    0.40   0
   9  -5   2    0.16    0.53   0
  -6  -2  -6   30.69    0.56   0
  -6  -1  -9   -0.30    0.49   0
  -5  -3  -1    6.01    0.38   0
  -4  -6   3    6.28    0.55   0
  -4  -4   2    3.18    0.45   0
  -4  -3   1   29.83    0.64   0
  -4  -1  -2   24.93    0.62   0
  -3  -8   5    4.22    0.50   0
  -3  -7   5    7.92    0.50   0
  -2  -6   6  272.82    1.22   0
  -1  -6   7   13.47    0.42   0
  -1   3 -18   39.21    0.66   0
   0  -7   8   11.49    0.53   0
   0  -4   6  180.07    1.16   0
   0  -3   5   27.17    0.58   0
   0  -1   2 1053.44    4.71   0
   0   3 -11   19.69    0.63   0
   1  -9   9    0.04    0.38   0
   1  -6   8    9.03    0.41   0
   1   3 -11    4.32    0.51   0
   2   0   0    7.95    0.77   0
   2   3 -19    4.48    0.43   0
   2   3 -12   88.03    0.82   0
   3  -3   5   69.95    1.97   0
   3   2  -7   10.86    0.42   0
   3   3 -18    3.77    0.53   0
   3   3 -17    1.72    0.52   0
   3   3 -16    1.79    0.52   0
   3   3 -15   54.57    0.73   0
   4  -5   7   24.18    0.89   0
   5  -3   4    2.78    0.60   0
   5   2 -11   11.69    0.40   0
   6  -1  -1   21.77    0.49   0
   7  -3   2    0.95    0.43   0
   7  -2   0   -0.09    0.48   0
   7   0  -6   11.41    0.41   0
   7   1 -11   -0.55    0.52   0
   8   0  -9    2.29    0.40   0
   9  -2  -4    2.95    0.52   0
   9  -1  -8    1.76    0.42   0
  -6  -3  -5    3.97    0.55   0
  -6  -1 -10   15.55    0.65   0
  -4  -7   3    0.62    0.36   0
  -2  -9   6   -0.01    0.40   0
  -2  -8   6   16.44    0.58   0
  -2  -7   6   45.72    0.68   0
  -1  -7   7   16.86    0.56   0
  -1   3 -19    6.65    0.47   0
  -1   3 -12   34.42    0.61   0
   0  -9   8    8.93    0.58   0
   0  -8   8    2.26    0.48   0
   2  -9   9   10.15    0.58   0
   2  -8   9    4.12    0.38   0
   2  -6   8  104.19    0.99   0
   2   2  -6    4.41    0.42   0
   2   3 -11   36.48    0.63   0
   3  -8   9    6.41    0.55   0
   3  -6   8    7.27    0.54   0
   3   1  -3    1.70    0.50   0
   3   3 -14    0.90    0.39   0
   3   3 -13    3.82    0.50   0
   4   0  -1   16.09    0.56   0
   4   1  -4  274.83    1.25   0
   4   2  -8   10.81    0.39   0
   5  -9   9    0.38    0.54   0
   5   0  -2    2.47    0.51   0
   5   2 -10    5.61    0.39   0
   6   1  -7    4.08    0.51   0
   6   2 -15    0.05    0.40   0
   6   2 -14    5.34    0.53   0
   7  -5   5    6.11    0.70   0
   7   1 -10    4.56    0.53   0
   8   0  -8   54.51    0.76   0
   9  -1  -7    1.81    0.54   0
  -6  -5  -4   13.73    0.49   0
  -5  -6   0    0.79    0.38   0
  -5  -4  -1    9.47    0.56   0
  -5  -3  -2    0.19    0.52   0
  -5  -2  -3   15.28    0.46   0
  -5  -1  -5   42.47    0.71   0
  -4  -5   2   -0.23    0.45   0
  -3  -4   3   30.16    0.59   0
  -3  -2   1   41.99    0.62   0
  -2  -5   5   54.07    0.60   0
  -2   3 -16    0.42    0.48   0
  -2   3 -15    0.54    0.48   0
  -1  -9   7    6.12    0.40   0
  -1  -8   7   16.69    0.46   0
  -1  -5   6   36.51    0.55   0
  -1   2  -6    9.29    0.66   0
  -1   3 -11  265.29    1.54   0
   0   3 -10   44.51    0.73   0
   1  -5   7    1.44    0.47   0
   1   3 -10   39.79    0.70   0
   3   3 -12    9.85    0.54   0
   4   3 -17   19.30    0.60   0
   4   3 -15   14.30    0.56   0
   5   1  -5   14.65    0.43   0
   5   2  -9   34.93    0.63   0
   6   0  -3    4.17    0.50   0
   6   2 -13    0.20    0.37   0
   6   2 -12    2.32    0.48   0
   7  -1  -2    0.09    0.32   0
   7   0  -5   21.73    0.48   0
   7   1  -9   10.88    0.55   0
   8  -1  -4    2.96    0.38   0
   9  -4   1    2.21    0.47   0
   9  -3  -1    0.67    0.52   0
  -6  -4  -5    0.17    0.38   0
  -6  -3  -6    1.47    0.37   0
  -6  -2  -8    0.02    0.49   0
  -5  -5  -1    4.59    0.54   0
  -4  -7   2    3.68    0.40   0
  -4  -6   2    0.30    0.35   0
  -4  -4   1   33.57    0.61   0
  -4  -2  -1  104.11    0.92   0
  -3  -8   4    0.17    0.37   0
  -3  -7   4    3.09    0.37   0
  -3  -6   4    8.42    0.40   0
  -3  -3   2  143.23    0.91   0
  -2  -9   5    2.32    0.55   0
  -2  -4   4   52.60    0.71   0
  -2  -2   2   44.16    0.66   0
  -2   2  -7  151.10    2.05   0
  -2   3 -18   56.23    1.03   0
  -2   3 -17   -0.22    0.51   0
  -2   3 -14    4.13    0.48   0
  -1  -4   5    2.27    0.38   0
  -1  -3   4    5.92    0.55   0
   0  -6   7   22.64    0.57   0
   1  -7   8    1.32    0.33   0
   1  -4   6   14.81    0.59   0
   2   3 -10    3.87    0.38   0
   3  -9   9    0.61    0.41   0
   3   2  -6   69.72    0.69   0
   3   3 -11   15.67    0.55   0
   4  -9   9    2.32    0.40   0
   4   2  -7   44.80    0.56   0
   4   3 -14   65.23    0.68   0
   4   3 -13    2.32    0.47   0
   5  -7   8    9.51    0.59   0
   6   1  -6   69.05    0.77   0
   6   2 -11    2.62    0.49   0
   8  -3   1    1.09    0.46   0
   8  -2  -1    7.40    0.54   0
   8   0  -7    5.20    0.40   0
   9  -2  -3    0.74    0.51   0
   9  -1  -6    0.67    0.54   0
  -6  -4  -6    1.97    0.52   0
  -6  -3  -7    2.57    0.52   0
  -6  -2  -9    9.78    0.59   0
  -5  -6  -1    3.11    0.40   0
  -5  -2  -4   68.11    0.83   0
  -4  -3   0    1.34    0.37   0
  -2  -8   5   26.01    0.61   0
  -2  -3   3    0.52    0.37   0
  -2   3 -13   -0.03    0.43   0
  -1  -6   6   48.20    0.66   0
   1  -9   8   10.02    0.45   0
   1  -8   8   29.95    0.52   0
   1   1  -2  221.90    1.77   0
   1   2  -5   82.68    0.87   0
   1   3  -9   44.34    0.72   0
   2  -5   7    4.10    0.36   0
   2  -3   5  153.46    1.72   0
   2   2  -5  411.73    1.66   0
   3  -5   7    2.85    0.50   0
   3   0   0    6.16    0.57   0
   4   3 -12   -0.17    0.48   0
   5   2  -8   95.93    0.82   0
   6  -8   8    0.94    0.50   0
   7   0  -4    5.76    0.49   0
   7   1  -8    1.63    0.40   0
   8   1 -11   -0.89    0.51   0
   9  -6   4    1.61    0.61   0
  -6  -3  -8    1.04    0.54   0
  -6  -2 -10    1.01    0.54   0
  -5  -6  -2   -0.15    0.49   0
  -5  -5  -2   74.25    0.78   0
  -5  -4  -2   13.70    0.44   0
  -5  -3  -3   95.42    0.86   0
  -5  -1  -6   42.78    0.76   0
  -4  -6   1   24.14    0.61   0
  -4  -5   1   11.09    0.42   0
  -4  -1  -3  130.30    1.07   0
  -3  -8   3    5.94    0.41   0
  -3  -5   3  166.81    0.89   0
  -2   3 -19   -0.07    0.57   0
  -1  -7   6    3.01    0.50   0
  -1   3 -10   26.79    0.68   0
   0  -9   7    1.19    0.36   0
   0  -8   7    2.85    0.49   0
   0  -7   7    0.70    0.35   0
   0   2  -5  592.64    2.49   0
   0   3  -9   55.32    0.78   0
   2 -10   8    3.27    0.57   0
   2  -7   8   62.84    0.71   0
   2  -4   6   94.91    1.12   0
   2   1  -2  800.86    2.63   0
   2   3  -9   13.14    0.44   0
   3  -1   2   28.86    0.85   0
   3   3 -10   51.28    0.59   0
   4   1  -3    0.39    0.39   0
   4   3 -11    7.73    0.51   0
   5  -1   1   54.33    0.78   0
   5   1  -4    3.90    0.37   0
   5   3 -16   -0.10    0.40   0
   5   3 -15    2.48    0.39   0
   5   3 -14    0.15    0.52   0
   6  -2   2    0.08    0.39   0
   6  -1   0    1.07    0.34   0
   6   2 -10   -0.20    0.35   0
   7  -4   4    5.41    0.51   0
   7   2 -13    0.59    0.49   0
   8  -1  -3   13.81    0.47   0
   8   0  -6    0.32    0.38   0
   8   1 -10    0.59    0.49   0
   9  -1  -5    8.72    0.59   0
  -6  -3  -9    0.12    0.53   0
  -6  -2 -11    4.99    0.57   0
  -3  -6   3   39.95    0.54   0
  -2   3 -12   37.93    0.80   0
   0  -5   6   -0.07    0.34   0
   1  -6   7   10.03    0.51   0
   2  -9   8    4.69    0.52   0
   2  -8   8    0.90    0.47   0
   3  -7   8   14.86    0.58   0
   3   2  -5  168.64    1.07   0
   3   3  -9    5.78    0.49   0
   4  -7   8   13.07    0.55   0
   4   2  -6   12.63    0.42   0
   5   0  -1   -0.30    0.45   0
   5   2  -7   16.07    0.56   0
   5   3 -13    2.36    0.36   0
   6   0  -2    0.08    0.51   0
   6   1  -5    0.78    0.33   0
   6   2  -9    4.50    0.37   0
   7  -1  -1    1.47    0.50   0
   7   1  -7   16.73    0.44   0
   7   2 -12   -0.08    0.52   0
   8  -4   3    3.89    0.52   0
   9  -5   3    2.84    0.54   0
   9  -3   0    0.57    0.46   0
   9  -2  -2    0.69    0.51   0
  -5  -5  -3   -0.79    0.50   0
  -5  -4  -3   23.28    0.50   0
  -5  -3  -4   74.65    0.79   0
  -5  -2  -5    9.99    0.54   0
  -4  -7   0    0.18    0.49   0
  -4  -3  -1    8.57    0.55   0
  -4  -2  -2   81.48    0.85   0
  -3  -8   2   10.85    0.57   0
  -3  -3   1  150.30    1.02   0
  -2  -8   4    6.34    0.50   0
  -2  -6   4    4.99    0.53   0
  -2  -1   0  430.83    2.09   0
  -1  -9   5    8.19    0.56   0
  -1  -5   5   24.19    0.49   0
  -1  -1   1   68.61    1.18   0
   1 -10   7    2.76    0.40   0
   1   3  -8   47.83    0.70   0
   1   4 -19    1.31    0.52   0
   1   4 -18    9.30    0.60   0
   1   4 -17    8.09    0.54   0
   1   4 -16    0.63    0.49   0
   1   4 -15    0.43    0.48   0
   2   3  -8  148.16    1.02   0
   2   4 -18    2.54    0.53   0
   2   4 -17   -0.39    0.53   0
   2   4 -16    5.07    0.54   0
   3 -10   8   11.01    0.61   0
   3   1  -2   24.74    0.53   0
   4   3 -10    0.42    0.35   0
   5   3 -12    5.74    0.38   0
   6  -9   8    4.06    0.61   0
   7   2 -11    7.79    0.54   0
   8   0  -5    2.54    0.36   0
   8   1  -9    0.45    0.37   0
  -3  -7   2    0.46    0.46   0
  -3  -6   2    4.04    0.50   0
  -3  -5   2   34.94    0.52   0
  -2  -9   3    0.36    0.53   0
  -2  -4   3   67.99    0.75   0
  -1  -6   5    1.61    0.49   0
   0  -9   6    0.87    0.48   0
   0  -6   6    3.79    0.51   0
   0  -4   5  238.50    1.25   0
   0  -2   3  395.06    2.20   0
   0   4 -18    0.71    0.56   0
   0   4 -17    0.44    0.54   0
   0   4 -16   15.49    0.58   0
   0   4 -15    2.80    0.49   0
   1  -9   7   -0.27    0.38   0
   1  -8   7   16.84    0.57   0
   1  -7   7    0.44    0.35   0
   1   4 -14    9.35    0.56   0
   2   4 -14   78.74    0.85   0
   3  -9   8    1.65    0.50   0
   3  -8   8    1.31    0.36   0
   3   4 -17    2.57    0.41   0
   3   4 -16    2.69    0.52   0
   4  -8   8   24.10    0.68   0
   4   0   0    0.92    0.44   0
   4   3  -9   14.01    0.52   0
   5  -8   8   23.66    0.69   0
   5  -2   3   56.40    0.93   0
   5   3 -11    0.57    0.35   0
   6  -4   5   29.55    1.11   0
   6   2  -8    4.69    0.39   0
   6   3 -14    1.79    0.54   0
   7   0  -3    2.93    0.36   0
   7   1  -6    3.14    0.36   0
   7   2 -10   36.99    0.68   0
   8  -1  -2    3.73    0.38   0
   8   1  -8   17.73    0.60   0
   9  -4   2    3.73    0.55   0
   9   0  -7    2.69    0.42   0
  -5  -5  -4    6.71    0.42   0
  -5  -4  -4   28.36    0.51   0
  -5  -2  -6   13.25    0.61   0
  -4  -7  -1    0.65    0.37   0
  -4  -4  -1   33.21    0.60   0
  -4  -1  -4    0.77    0.50   0
  -3  -8   1    0.45    0.54   0
  -2  -3   2    9.75    0.55   0
  -2   3 -11  276.06    1.88   0
  -1  -8   5    1.45    0.39   0
  -1  -7   5   17.70    0.46   0
  -1  -4   4    2.37    0.38   0
  -1   3  -9   33.91    0.73   0
   0  -8   6   18.15    0.55   0
   0  -7   6   46.61    0.69   0
   0   1  -2 1095.82    4.76   0
   0   3  -8   12.11    0.44   0
   0   4 -19   10.77    0.49   0
   0   4 -14    3.65    0.54   0
   1  -5   6    1.27    0.47   0
   1   4 -13    1.40    0.49   0
   2 -10   7    0.24    0.54   0
   2  -6   7   33.30    0.57   0
   2   2  -4   44.08    0.76   0
   2   4 -13   13.89    0.57   0
   3   3  -8  143.79    0.88   0
   3   4 -15    0.34    0.36   0
   3   4 -14    6.76    0.52   0
   4  -9   8    0.44    0.51   0
   4  -1   2    5.34    0.53   0
   4   1  -2   46.31    0.71   0
   4   2  -5    1.13    0.36   0
   5  -9   8    0.11    0.51   0
   5  -6   7   28.45    0.90   0
   5   2  -6    4.07    0.35   0
   5   3 -10   18.12    0.56   0
   6   1  -4   36.36    0.54   0
   6   3 -13    1.72    0.37   0
   7  -3   3    3.13    0.45   0
   8  -3   2    3.36    0.51   0
  -5  -5  -5    2.73    0.57   0
  -5  -3  -5    0.41    0.36   0
  -5  -1  -8  134.26    1.16   0
  -5   0 -11    0.81    0.46   0
  -4  -6  -1    6.53    0.39   0
  -4  -5  -1    3.24    0.36   0
  -4  -3  -2    8.12    0.55   0
  -2  -8   3    1.30    0.37   0
  -2  -5   3    7.58    0.51   0
   0   4 -13  113.44    1.00   0
   1 -10   6    3.89    0.52   0
   1   2  -4   91.27    0.94   0
   1   3  -7    0.25    0.48   0
   1   4 -12    8.46    0.56   0
   2   3  -7  108.30    0.92   0
   2   4 -12    8.17    0.53   0
   3   2  -4    0.64    0.51   0
   4   3  -8    7.74    0.49   0
   4   4 -16   13.55    0.44   0
   4   4 -15    1.46    0.52   0
   6   2  -7    0.48    0.37   0
   6   3 -12   -0.34    0.37   0
   7   1  -5   13.15    0.56   0
   7   2  -9   -0.25    0.38   0
   8   0  -4    3.92    0.38   0
   8   1  -7    0.69    0.36   0
   9  -2  -1    3.07    0.40   0
   9  -1  -3    1.12    0.48   0
   9   0  -6    0.38    0.41   0
  -5  -3  -6    5.21    0.55   0
  -5   0 -12   16.83    0.72   0
  -4  -7  -2    3.25    0.42   0
  -4   1  -9   28.96    0.93   0
  -3  -7   1   11.26    0.40   0
  -3  -6   1    7.39    0.51   0
  -3  -5   1    0.54    0.45   0
  -3  -3   0    3.39    0.54   0
  -3  -1  -2    8.44    0.43   0
  -2  -7   3    8.45    0.39   0
  -2  -6   3   60.08    0.61   0
  -1  -2   2    8.85    0.51   0
  -1   4 -19    0.65    0.51   0
  -1   4 -18   -0.07    0.51   0
  -1   4 -17   12.98    0.62   0
  -1   4 -16    5.19    0.56   0
  -1   4 -15   21.73    0.63   0
   0  -9   5   24.98    0.61   0
   2  -9   7    0.23    0.38   0
   2  -8   7    4.84    0.54   0
   2  -7   7   23.65    0.51   0
   3  -6   7    0.55    0.43   0
   3   3  -7    5.96    0.51   0
   4   4 -14   15.82    0.46   0
   4   4 -13    0.53    0.49   0
   5   2  -5    0.52    0.45   0
   5   3  -9    4.58    0.37   0
   6  -3   4    0.40    0.55   0
   6  -1   1    6.28    0.49   0
   6   0  -1   -0.08    0.36   0
   6   3 -11    3.64    0.38   0
   7  -8   7    0.10    0.62   0
   7  -1   0   13.32    0.43   0
   7   0  -2   17.02    0.55   0
   7   2  -8   -0.56    0.51   0
  -5  -4  -6    0.62    0.50   0
  -5  -1  -9    3.15    0.54   0
  -5   0 -13    5.59    0.65   0
  -4  -6  -2    0.55    0.38   0
  -4  -5  -2   -0.25    0.48   0
  -3  -2  -1   67.14    0.71   0
  -3   3 -16   26.49    1.02   0
  -2  -8   2    3.32    0.53   0
  -1  -8   4    1.55    0.37   0
  -1  -7   4    1.56    0.47   0
  -1  -5   4    4.15    0.39   0
  -1   2  -5   51.20    1.07   0
  -1   4 -14    0.11    0.47   0
   0  -5   5   -0.14    0.36   0
   0   4 -12  255.18    1.29   0
   1  -9   6   -0.04    0.37   0
   1  -6   6   22.26    0.62   0
   1   4 -11   47.71    0.75   0
   2   4 -11   12.55    0.43   0
   3 -10   7   16.02    0.53   0
   4  -6   7   48.40    0.84   0
   4   2  -4   20.10    0.60   0
   4   4 -12    2.88    0.48   0
   5   0   0    4.69    0.39   0
   5   4 -15   11.49    0.47   0
   6   1  -3    2.45    0.48   0
   6   2  -6    1.39    0.37   0
   6   3 -10    0.72    0.51   0
   7  -2   2    1.73    0.45   0
   8  -1  -1    0.15    0.36   0
   8   1  -6    2.85    0.37   0
   9   0  -5    0.05    0.52   0
  -5  -5  -7    2.43    0.39   0
  -5  -4  -7    4.19    0.51   0
  -5  -3  -7    4.54    0.54   0
  -5  -2  -8    5.51    0.53   0
  -5   0 -15    0.01    0.55   0
  -5   0 -14   -0.05    0.51   0
  -4  -3  -3    0.84    0.52   0
  -4  -1  -5   85.45    0.93   0
  -3  -8  -1   10.73    0.54   0
  -3  -4   0    0.32    0.49   0
  -3   1  -6  147.23    2.03   0
  -3   3 -17   12.25    0.79   0
  -3   3 -15   38.69    1.05   0
  -2   3 -10    3.64    0.54   0
  -1  -9   3    0.10    0.37   0
  -1  -6   4   88.03    0.70   0
  -1   3  -8  124.12    1.20   0
   0  -7   5   94.27    0.84   0
   0  -6   5   25.50    0.59   0
   0   2  -4   34.57    0.87   0
   0   3  -7   17.39    0.48   0
   1 -10   5    4.38    0.54   0
   1  -8   6    6.97    0.42   0
   1  -7   6    3.72    0.47   0
   1  -4   5    4.66    0.37   0
   2 -10   6    0.28    0.39   0
   2  -5   6   16.87    0.58   0
   2   1  -1   24.16    0.77   0
   3  -9   7    2.94    0.49   0
   3  -7   7    2.70    0.53   0
   3   1  -1   39.64    0.73   0
   4 -10   7    4.29    0.59   0
   4   3  -7   63.03    0.61   0
   5   1  -2    2.33    0.37   0
   5   3  -8    0.31    0.33   0
   5   4 -14    1.95    0.38   0
   5   4 -13    7.87    0.53   0
   6  -7   7   69.18    1.21   0
   7   1  -4   23.97    0.48   0
   7   2  -7    6.58    0.56   0
   8  -2   1    1.43    0.36   0
   8   0  -3    0.58    0.37   0
   8   2  -9    1.36    0.50   0
  -5  -1 -10   28.32    0.69   0
  -4  -4  -3   -0.06    0.49   0
  -3  -6   0    0.75    0.36   0
  -3   3 -18    3.28    0.66   0
  -2  -7   2    1.87    0.36   0
  -2  -6   2   74.34    0.74   0
  -2  -5   2   17.68    0.52   0
  -1   4 -13   32.28    0.73   0
   0  -9   4    1.15    0.53   0
   0   4 -11   15.64    0.47   0
   1  -1   2  459.11    6.34   0
   2   3  -6   39.54    0.58   0
   2   4 -10   82.41    0.71   0
   3  -8   7    1.92    0.38   0
   3   3  -6    8.21    0.54   0
   4   4 -11    2.24    0.36   0
   5  -1   2   28.41    0.66   0
   5   4 -12    0.34    0.48   0
   6   2  -5    6.18    0.49   0
   6   3  -9   35.04    0.53   0
   7   3 -11    1.21    0.39   0
   8   1  -5   -0.20    0.47   0
   9  -2   0    1.80    0.52   0
   9  -1  -2    0.41    0.37   0
  10  -3   0    0.76    0.40   0
  -5  -4  -8   24.18    0.52   0
  -5  -3  -8    8.58    0.42   0
  -5  -2  -9    2.13    0.46   0
  -3  -7  -1   15.35    0.45   0
  -3  -3  -1    0.99    0.52   0
  -3   3 -14   34.89    1.04   0
  -1  -9   2    0.70    0.48   0
  -1  -8   3    1.87    0.35   0
  -1  -4   3  126.39    0.89   0
   0  -4   4  318.78    1.44   0
   1  -9   5    5.66    0.48   0
   2  -9   6    9.41    0.45   0
   2   2  -3    7.44    0.43   0
   2   5 -17    0.86    0.49   0
   3   0   1   86.19    0.99   0
   3   2  -3    4.42    0.41   0
   4  -9   7   17.01    0.61   0
   4  -7   7    8.80    0.56   0
   4   1  -1   10.94    0.44   0
   4   3  -6    8.77    0.48   0
   4   4 -10   22.59    0.57   0
   5  -7   7    5.48    0.60   0
   5   2  -4   32.06    0.51   0
   5   3  -7    3.55    0.39   0
   6  -2   3    2.28    0.47   0
   6   3  -8    5.27    0.50   0
   7   2  -6    0.83    0.49   0
   7   3 -10    1.36    0.54   0
   8   2  -8    0.16    0.37   0
   9   0  -4    0.21    0.40   0
  -5  -3  -9    9.94    0.56   0
  -5  -2 -10    2.50    0.54   0
  -5  -1 -12    8.14    0.58   0
  -4  -5  -4    3.75    0.50   0
  -4  -3  -4    2.17    0.54   0
  -3  -6  -1   56.58    0.69   0
  -2  -7   1   -0.38    0.48   0
  -2  -2   0   80.09    0.92   0
  -2  -1  -1   14.29    0.70   0
  -1  -7   3    2.63    0.38   0
  -1  -6   3  105.13    0.85   0
  -1   4 -12    0.14    0.38   0
   0   4 -10   29.31    0.69   0
   1 -10   4   19.84    0.53   0
   1  -3   4 1063.73    3.34   0
   1   4  -9   41.33    0.70   0
   1   5 -17    9.17    0.58   0
   2 -10   5   -0.28    0.52   0
   2  -8   6    3.37    0.48   0
   2  -6   6    3.14    0.47   0
   2   0   1   50.89    1.08   0
   2   4  -9    1.04    0.35   0
   2   5 -16    0.59    0.37   0
   2   5 -15    0.47    0.51   0
   3 -10   6   11.34    0.48   0
   3  -5   6    1.22    0.48   0
   3   4  -9    0.34    0.35   0
   3   5 -17    6.47    0.41   0
   3   5 -16    4.75    0.43   0
   4  -8   7    7.57    0.43   0
   4   2  -3  159.36    1.03   0
   5  -9   7    1.39    0.49   0
   5  -8   7    2.40    0.51   0
   5   4 -11    0.39    0.34   0
   6  -9   7    1.45    0.51   0
   6  -8   7    1.38    0.56   0
   6   0   0   10.01    0.41   0
   6   1  -2    3.50    0.38   0
   6   4 -13    0.56    0.39   0
   7  -1   1    1.25    0.49   0
   7   1  -3    0.17    0.38   0
   8   0  -2    6.03    0.42   0
   9  -5   4   11.06    0.73   0
   9   1  -6    4.22    0.54   0
  -5  -3 -10   15.20    0.60   0
  -5  -2 -11   13.97    0.60   0
  -4  -6  -5    4.66    0.41   0
  -4  -4  -4    7.11    0.40   0
  -4  -2  -5    9.22    0.56   0
  -4  -1  -6    0.69    0.47   0
  -3  -7  -2    0.54    0.36   0
  -3  -5  -1    1.35    0.36   0
  -3  -2  -2   62.72    0.71   0
  -3  -1  -3    4.76    0.39   0
  -2  -8   0    0.97    0.35   0
  -2  -6   1    0.39    0.46   0
  -2  -4   1    3.11    0.48   0
  -2   4 -18    2.01    0.56   0
  -2   4 -17   33.12    0.83   0
  -2   4 -16   -0.21    0.45   0
  -1  -3   2  112.42    1.00   0
   0  -9   3    4.39    0.50   0
   0  -7   4   65.37    0.75   0
   0  -5   4  154.16    1.05   0
   1  -8   5   18.21    0.46   0
   1  -5   5    1.21    0.36   0
   1   5 -15    7.42    0.44   0
   2  -7   6    7.71    0.41   0
   2   3  -5  140.10    1.01   0
   2   5 -14    4.34    0.49   0
   3   3  -5    0.42    0.48   0
   3   5 -14    9.49    0.54   0
   4   4  -9    4.32    0.49   0
   4   5 -15    2.33    0.49   0
   5   1  -1   38.44    0.68   0
   5   3  -6    6.34    0.52   0
   5   4 -10    0.28    0.48   0
   6   2  -4    1.30    0.47   0
   6   3  -7    0.07    0.46   0
   6   4 -12    3.53    0.41   0
   7   3  -9    0.10    0.37   0
   8  -3   3   -0.11    0.49   0
   8   1  -4    1.81    0.50   0
   8   2  -7    0.71    0.38   0
   9  -3   2   16.06    0.61   0
   9  -1  -1    0.98    0.49   0
   9   0  -3    2.72    0.50   0
  -5  -3 -11   17.96    0.51   0
  -5  -2 -12    0.45    0.51   0
  -4  -6  -6    1.29    0.40   0
  -3  -7  -3    1.70    0.52   0
  -3  -6  -2   -0.06    0.51   0
  -3   3 -13   12.39    0.82   0
  -2   4 -19    0.31    0.55   0
  -2   4 -15    0.80    0.49   0
  -1   4 -11    2.71    0.51   0
   0  -6   4  238.30    1.12   0
   0  -3   3  206.67    1.39   0
   0   3  -6  163.05    1.16   0
   0   5 -18    0.13    0.39   0
   0   5 -17    2.09    0.58   0
   0   5 -16    3.01    0.53   0
   1  -7   5   88.43    0.75   0
   1  -6   5   15.62    0.47   0
   1  -2   3    1.34    0.68   0
   2  -4   5   39.16    0.80   0
   2   4  -8   52.73    0.73   0
   2   5 -13   33.84    0.65   0
   3  -9   6    3.52    0.39   0
   3   4  -8    4.46    0.49   0
   3   5 -13    0.90    0.51   0
   4 -10   6   -0.25    0.40   0
   4   3  -5   24.80    0.57   0
   4   5 -14    4.55    0.55   0
   5   0   1    0.95    0.46   0
   5   2  -3   37.01    0.66   0
   6  -1   2    6.10    0.49   0
   6   4 -11    3.23    0.39   0
   7   2  -5    1.73    0.35   0
   7   3  -8    0.10    0.47   0
  -4  -6  -7    5.59    0.43   0
  -4  -5  -6   17.59    0.58   0
  -4  -4  -5   14.06    0.43   0
  -3  -5  -2   18.97    0.55   0
  -3  -3  -2    7.31    0.57   0
  -2  -8  -1    2.66    0.40   0
  -2  -7   0    7.44    0.40   0
  -2   3  -9    4.72    0.56   0
  -2   4 -14   10.08    0.55   0
  -1  -9   0    7.93    0.54   0
  -1  -7   2    0.48    0.35   0
  -1   3  -7  165.92    1.40   0
   0  -8   3    8.54    0.50   0
   0   5 -15   43.17    0.74   0
   1 -10   3   19.40    0.48   0
   1   4  -8   29.28    0.65   0
   1   5 -13   28.70    0.63   0
   2  -9   5   10.42    0.42   0
   2   5 -12   22.52    0.58   0
   3 -10   5   -0.34    0.53   0
   3  -8   6   19.38    0.60   0
   3   5 -12    0.90    0.46   0
   4  -5   6   30.72    0.88   0
   4   4  -8   57.23    0.73   0
   4   5 -13    1.61    0.53   0
   5   4  -9    0.42    0.36   0
   6   4 -10    2.81    0.52   0
   7  -6   6   12.67    1.15   0
   7   1  -2    0.04    0.45   0
   8  -2   2    4.32    0.51   0
   8   2  -6   -0.07    0.35   0
   9  -2   1   12.98    0.57   0
   9   1  -5   -0.36    0.39   0
  -4  -2  -6    9.23    0.58   0
  -4  -1  -7    2.00    0.50   0
  -3  -7  -4   15.49    0.46   0
  -3  -6  -3    3.58    0.50   0
  -2  -8  -2    0.37    0.50   0
  -2  -6   0    0.39    0.49   0
  -2  -3   0  568.61    1.82   0
  -1  -8   1   16.36    0.45   0
  -1  -4   2    2.31    0.40   0
  -1  -2   1   70.32    0.88   0
   0  -9   2    4.31    0.40   0
   0   5 -14    1.75    0.52   0
   1  -8   4    6.27    0.50   0
   1   5 -12   58.42    0.72   0
   3  -7   6   16.37    0.62   0
   3  -6   6   11.78    0.45   0
   4  -9   6   18.41    0.63   0
   4   5 -12    6.33    0.55   0
   5  -5   6   -0.18    0.61   0
   5   3  -5    8.71    0.50   0
   6   1  -1    4.70    0.54   0
   6   3  -6    8.40    0.40   0
   7   0   0    2.98    0.36   0
   7   3  -7    1.11    0.49   0
   8   0  -1    1.50    0.40   0
   8   1  -3    1.03    0.49   0
  -4  -5  -7    1.56    0.39   0
  -4  -3  -6    2.85    0.37   0
  -4   1 -11    7.90    0.66   0
  -3  -7  -5    0.72    0.52   0
  -3  -2  -3    7.97    0.52   0
  -2  -7  -1    1.78    0.36   0
  -2  -5   0    0.27    0.44   0
  -2   4 -13   10.67    0.64   0
  -1  -9  -1   -0.10    0.54   0
  -1  -1   0  238.80    1.85   0
  -1   4 -10    4.25    0.51   0
   0  -7   3  110.62    0.78   0
   0   5 -13    2.52    0.53   0
   1  -9   3   15.12    0.58   0
   2  -8   5    0.45    0.34   0
   2   2  -2   43.73    0.66   0
   2   4  -7   54.16    0.63   0
   2   5 -11    4.61    0.40   0
   3   1   0    0.41    0.36   0
   3   4  -7    3.13    0.34   0
   3   5 -11    0.40    0.33   0
   4   1   0   48.75    0.72   0
   4   2  -2    2.08    0.39   0
   4   4  -7    0.26    0.46   0
   5   4  -8   12.89    0.42   0
   5   5 -13    0.13    0.40   0
   6   4  -9    4.70    0.40   0
   7  -2   3   42.39    0.75   0
   7   2  -4    2.53    0.37   0
   8  -1   1   73.14    0.87   0
   8   2  -5    3.95    0.50   0
   9   0  -2    1.92    0.41   0
   9   1  -4   -0.32    0.52   0
  -4  -5  -8    0.85    0.40   0
  -4  -4  -7   -0.00    0.50   0
  -3  -7  -6    5.40    0.52   0
  -3  -6  -4    2.05    0.47   0
  -3  -1  -4   50.61    0.81   0
  -2  -8  -3    1.82    0.39   0
  -1  -8   0   18.33    0.51   0
  -1  -7   1   13.47    0.43   0
  -1   5 -18    7.11    0.45   0
  -1   5 -17   -0.60    0.51   0
  -1   5 -16   19.80    0.66   0
   0  -9   1    0.08    0.46   0
   0  -8   2   19.17    0.55   0
   0  -4   3    3.88    0.40   0
   0   4  -8   68.31    0.83   0
   1  -7   4    0.28    0.49   0
   1  -4   4    8.39    0.42   0
   2 -10   3    7.01    0.55   0
   2  -9   4    0.18    0.51   0
   2  -5   5   68.25    0.85   0
   2   3  -4   26.09    0.52   0
   3  -9   5    5.21    0.51   0
   4 -10   5   -0.55    0.50   0
   4  -8   6    0.65    0.46   0
   4   3  -4   -0.40    0.34   0
   4   5 -11    9.38    0.41   0
   5  -9   6    3.15    0.50   0
   5   2  -2    2.90    0.51   0
   5   5 -12    2.07    0.39   0
   6   0   1   26.57    0.53   0
   6   3  -5   10.52    0.52   0
   7  -4   5    0.04    0.69   0
   9  -1   0    8.50    0.45   0
  -4  -5  -9    5.05    0.40   0
  -4  -3  -7   16.31    0.44   0
  -4  -2  -7  128.31    0.94   0
  -4  -1  -8    2.26    0.52   0
  -3  -4  -3    9.48    0.40   0
  -3  -3  -3   67.11    0.69   0
  -2  -8  -4    0.04    0.51   0
  -2  -7  -2    5.35    0.38   0
  -2  -6  -1   35.46    0.53   0
  -2  -2  -1   23.63    0.53   0
  -2   2  -6   46.56    1.53   0
  -1   5 -15    0.56    0.53   0
   0  -5   3  128.08    0.89   0
   0   2  -3  386.82    2.18   0
   0   5 -12    4.86    0.55   0
   1  -6   4   27.18    0.66   0
   1  -5   4   85.54    0.87   0
   1   4  -7   18.22    0.49   0
   2  -6   5   16.02    0.47   0
   2   1   0  425.63    2.03   0
   2   5 -10    4.33    0.38   0
   3 -10   4   19.52    0.49   0
   4  -7   6   31.79    0.73   0
   4  -6   6   50.45    0.83   0
   4  -2   4    4.22    0.67   0
   4  -1   3    2.85    0.51   0
   4   5 -10    4.70    0.53   0
   5   1   0    8.58    0.42   0
   5   3  -4   25.75    0.60   0
   5   4  -7    6.58    0.39   0
   5   5 -11    1.70    0.37   0
   6  -9   6    0.37    0.50   0
   6   4  -8   21.42    0.48   0
   7  -1   2   31.81    0.58   0
   7   1  -1   12.01    0.48   0
   7   3  -6    7.43    0.40   0
   7   4  -9    1.27    0.50   0
   8   3  -7    2.70    0.50   0
  -3  -6  -5    6.81    0.39   0
  -3  -5  -4  209.86    1.03   0
  -3   3 -12   44.92    1.40   0
  -2  -5  -1    0.42    0.47   0
  -2   4 -12   65.07    0.96   0
  -1  -8  -1    0.30    0.48   0
  -1  -7   0   15.46    0.54   0
  -1  -3   1    5.17    0.42   0
  -1   5 -14   63.05    0.87   0
   0  -9   0    0.54    0.50   0
   0  -7   2   -0.32    0.48   0
   0   3  -5   27.13    0.58   0
   1  -8   3    1.49    0.35   0
   1   3  -4    5.14    0.53   0
   1   5 -10    5.78    0.54   0
   2   4  -6  133.48    0.97   0
   2   6 -16    4.95    0.41   0
   2   6 -15    0.43    0.54   0
   3  -8   5    0.32    0.49   0
   3  -4   5    3.26    0.53   0
   3   4  -6    0.39    0.32   0
   3   6 -15   16.31    0.62   0
   4   4  -6   12.72    0.54   0
   5 -10   5   17.30    0.61   0
   5  -8   6    0.59    0.51   0
   5  -2   4    7.59    0.58   0
   5  -1   3   45.65    0.81   0
   5   5 -10    1.60    0.49   0
   6   2  -2   10.74    0.53   0
   8   0   0   16.98    0.58   0
   8   2  -4   11.58    0.42   0
   9  -3   3    0.19    0.48   0
   9   0  -1    1.42    0.52   0
   9   1  -3    5.34    0.55   0
  -4  -4 -10    1.92    0.51   0
  -4  -4  -9    2.28    0.38   0
  -4  -3  -8   20.73    0.49   0
  -4  -2  -8  129.59    0.96   0
  -4   1 -12   16.79    0.76   0
  -3  -6  -6    0.74    0.48   0
  -3  -4  -4   71.26    0.76   0
  -3  -2  -4    4.35    0.54   0
  -2  -7  -3    1.53    0.36   0
  -2  -6  -2   29.79    0.59   0
  -2  -4  -1  141.02    0.90   0
  -2  -3  -1   99.05    0.83   0
  -2  -1  -2    3.44    0.45   0
  -1  -5   1  273.78    1.17   0
  -1  -4   1  224.31    1.20   0
  -1   4  -9   74.79    0.90   0
   0  -8   1    0.91    0.37   0
   1   2  -2    9.07    0.52   0
   1   6 -16    5.07    0.42   0
   2 -10   2    1.09    0.49   0
   2  -8   4   29.13    0.52   0
   2  -3   4  449.36    2.64   0
   2   5  -9   30.22    0.48   0
   2   6 -14   -1.22    0.56   0
   3   5  -9    1.53    0.34   0
   3   6 -14    6.83    0.44   0
   4  -9   5   -0.59    0.48   0
   4   0   2   48.00    0.78   0
   4   5  -9    1.32    0.38   0
   5  -7   6    3.09    0.50   0
   5  -6   6   39.07    0.87   0
   5   4  -6    1.79    0.48   0
   6  -8   6   25.39    0.71   0
   6   1   0    3.02    0.50   0
   6   3  -4   37.97    0.65   0
   6   4  -7    1.02    0.38   0
   6   5 -11    0.20    0.40   0
   7  -8   6    8.26    0.59   0
   7  -7   6   11.01    0.77   0
   7   0   1    6.85    0.54   0
   7   3  -5   11.94    0.45   0
   7   4  -8   -0.95    0.55   0
   9  -2   2    6.26    0.54   0
  -4  -4 -11    9.20    0.58   0
  -4  -1  -9   55.75    0.84   0
  -3  -6  -7    8.42    0.50   0
  -3  -3  -4    4.67    0.42   0
  -3   1  -7    4.50    0.71   0
  -2  -7  -4    3.26    0.50   0
  -1  -8  -2   16.82    0.54   0
  -1   2  -4   49.49    1.12   0
  -1   3  -6  217.21    1.60   0
  -1   5 -13    8.76    0.60   0
   0  -9  -1    0.39    0.51   0
   0  -6   2    0.65    0.51   0
   0   4  -7   37.57    0.69   0
   1   6 -15   15.90    0.48   0
   2  -9   3   16.10    0.44   0
   2   6 -13   46.47    0.69   0
   3 -10   3    6.94    0.42   0
   3  -7   5    4.09    0.53   0
   3  -1   3   10.06    0.75   0
   3   2  -1   43.50    0.62   0
   4 -10   4   -0.04    0.42   0
   4   2  -1    7.49    0.43   0
   4   3  -3    0.46    0.36   0
   4   6 -13    2.64    0.52   0
   5   0   2    1.28    0.48   0
   5   5  -9    4.84    0.55   0
   6  -6   6   26.05    0.89   0
   6   5 -10    1.36    0.52   0
   8  -2   3    6.34    0.55   0
   8   3  -6    2.72    0.37   0
   9  -4   4    0.19    0.50   0
   9  -1   1    0.99    0.50   0
  -4  -3 -10    2.72    0.50   0
  -4   1 -13   17.73    0.78   0
  -3  -6  -8    4.78    0.50   0
  -3  -5  -6    2.61    0.49   0
  -3  -4  -5   18.29    0.57   0
  -2  -6  -3   11.42    0.55   0
  -2   3  -8   50.47    1.02   0
  -1  -7  -1   10.70    0.40   0
  -1  -6   0    1.65    0.34   0
   0  -8   0    3.06    0.48   0
   0  -3   2  133.22    1.09   0
   0   5 -10    1.61    0.51   0
   0   6 -17   24.51    0.68   0
   0   6 -16    8.43    0.56   0
   1  -9   1    0.49    0.37   0
   1  -8   2    7.18    0.51   0
   1   6 -14   14.56    0.50   0
   2  -7   4   80.56    0.82   0
   2   3  -3    0.92    0.37   0
   2   5  -8    0.05    0.47   0
   3   0   2   36.59    0.80   0
   3   4  -5  113.17    0.78   0
   3   5  -8   38.56    0.54   0
   3   6 -12    0.28    0.51   0
   4   4  -5   17.73    0.44   0
   4   5  -8   15.30    0.55   0
   5  -9   5    1.23    0.54   0
   5   2  -1   13.26    0.45   0
   5   3  -3   54.41    0.60   0
   6  -7   6   10.13    0.57   0
   6  -2   4    7.66    0.55   0
   6  -1   3  168.16    1.21   0
   6   4  -6    1.14    0.51   0
   7   2  -2   -0.09    0.50   0
   7   4  -7    0.07    0.53   0
   8  -3   4    3.32    0.49   0
   8   1  -1   -0.03    0.54   0
   8   2  -3    4.79    0.40   0
   9   1  -2    0.48    0.51   0
  -4  -3 -12   38.94    0.73   0
  -3  -6  -9    0.20    0.40   0
  -2  -7  -5   -0.18    0.37   0
  -2  -4  -2   11.05    0.57   0
  -2   4 -11  208.14    1.56   0
  -1  -8  -3   14.67    0.45   0
  -1   5 -12   51.44    0.81   0
   0  -7   1    6.98    0.36   0
   0  -5   2   47.17    0.61   0
   0  -4   2    0.92    0.46   0
   0   6 -15   -0.14    0.50   0
   1  -6   3    2.22    0.54   0
   1  -3   3    0.33    0.57   0
   2   2  -1  205.76    1.23   0
   2   4  -5    6.77    0.39   0
   2   6 -12    5.18    0.38   0
   3  -6   5    2.84    0.37   0
   3  -5   5    0.26    0.34   0
   4  -8   5    3.82    0.39   0
   4   1   1    2.53    0.47   0
   4   6 -12    2.71    0.40   0
   5 -10   4    7.28    0.54   0
   5   4  -5    6.71    0.38   0
   5   5  -8    0.41    0.37   0
   6   0   2   50.25    0.76   0
   6   2  -1   43.06    0.67   0
   6   3  -3    7.50    0.51   0
   6   5  -9   20.31    0.50   0
   7   1   0    0.18    0.34   0
   7   3  -4   -0.02    0.36   0
   8   3  -5    5.49    0.39   0
   9   0   0    6.98    0.53   0
  -4  -3 -13   -0.07    0.39   0
  -4  -2 -11   30.19    0.67   0
  -4   1 -17   26.89    0.93   0
  -4   1 -16    2.88    0.63   0
  -4   1 -15   16.25    0.79   0
  -4   1 -14    7.20    0.65   0
  -3  -3  -5  173.20    1.03   0
  -2  -7  -6   24.20    0.49   0
  -2  -6  -4    1.18    0.47   0
  -2  -3  -2   17.67    0.59   0
  -2   5 -18    0.17    0.63   0
  -1  -8  -4    5.95    0.52   0
  -1   4  -8   34.96    0.72   0
   0   6 -14    3.81    0.51   0
   1  -9   0    1.94    0.48   0
   1   0   1   78.90    1.75   0
   1   5  -8   15.77    0.58   0
   1   6 -12    0.58    0.47   0
   2  -9   2    0.63    0.34   0
   2  -6   4    2.26    0.39   0
   2   6 -11    7.07    0.54   0
   3 -10   2   15.69    0.49   0
   3  -8   4   13.26    0.44   0
   3   1   1  135.48    1.14   0
   3   5  -7   52.08    0.69   0
   3   6 -11    9.94    0.41   0
   4 -10   3    0.15    0.49   0
   4  -9   4    2.13    0.52   0
   4   6 -11   13.86    0.44   0
   5   1   1   18.29    0.50   0
   6  -9   5    4.00    0.56   0
   7   4  -6    7.71    0.55   0
   8   0   1    4.11    0.39   0
  -3  -5  -8    0.33    0.36   0
  -2   5 -17    3.22    0.56   0
  -2   5 -16    0.14    0.47   0
  -1  -6  -1    8.54    0.39   0
  -1  -4   0    9.43    0.43   0
  -1  -3   0   83.22    0.91   0
  -1   5 -11   37.37    0.75   0
   0  -8  -1    1.53    0.35   0
   0  -7   0    0.08    0.47   0
   0  -6   1   51.00    0.68   0
   0   3  -4    0.57    0.55   0
   1  -8   1    6.90    0.47   0
   1  -5   3   28.03    0.52   0
   1  -4   3    0.98    0.50   0
   2 -10   0    0.26    0.36   0
   2  -4   4  166.92    1.28   0
   2   5  -7    7.79    0.52   0
   3   4  -4   29.20    0.61   0
   3   6 -10    9.18    0.56   0
   4  -7   5   46.15    0.79   0
   4   3  -2  196.57    1.03   0
   4   4  -4    0.90    0.48   0
   4   6 -10    1.45    0.48   0
   5   5  -7    6.63    0.53   0
   5   6 -11    2.52    0.41   0
   6   1   1   33.15    0.66   0
   6   4  -5    0.27    0.35   0
   6   5  -8   26.72    0.51   0
   7  -9   5    0.06    0.51   0
   7  -2   4    3.18    0.56   0
   7  -1   3    3.99    0.51   0
   8   2  -2   20.73    0.64   0
  -4  -2 -14   11.13    0.48   0
  -4  -1 -13   38.88    0.78   0
  -3  -4  -7   21.79    0.58   0
  -3  -3  -6  132.59    1.03   0
  -2  -7  -8    0.16    0.37   0
  -2  -6  -5    4.90    0.36   0
  -2   5 -15    0.45    0.46   0
  -1  -7  -3   27.58    0.58   0
  -1   6 -18    5.06    0.56   0
   0   1  -1  150.22    1.91   0
   0   4  -6  183.32    1.12   0
   1  -9  -1   35.48    0.62   0
   1   1   0  241.15    1.87   0
   1   6 -11   16.28    0.43   0
   2   6 -10    0.54    0.48   0
   4   2   0    0.16    0.52   0
   5  -8   5   -0.81    0.36   0
   5   2   0    3.14    0.50   0
   5   6 -10    3.86    0.54   0
   7   0   2    9.96    0.56   0
   7   2  -1   -0.14    0.36   0
   7   3  -3    1.37    0.36   0
   8   1   0    3.77    0.53   0
   8   3  -4    1.13    0.41   0
   9   1  -1   -0.80    0.44   0
  -4  -1 -14    5.60    0.54   0
  -3  -5 -11    4.69    0.51   0
  -3  -5 -10   17.60    0.48   0
  -3  -1  -6    0.58    0.47   0
  -2  -6  -6   10.71    0.54   0
  -2  -4  -3   13.46    0.44   0
  -2   4 -10  259.46    1.76   0
  -1  -8  -6    0.62    0.38   0
  -1  -6  -2    1.42    0.46   0
  -1   6 -16    9.88    0.59   0
   0  -8  -2    0.47    0.36   0
   0  -5   1    6.24    0.54   0
   0   6 -12   23.02    0.62   0
   2  -8   2   33.01    0.62   0
   2  -7   3  134.46    0.91   0
   2   3  -2    9.76    0.44   0
   2   4  -4   52.21    0.61   0
   2   7 -15    1.14    0.41   0
   3  -7   4    1.51    0.37   0
   3   2   0    4.42    0.50   0
   3   5  -6   11.12    0.41   0
   3   6  -9    0.13    0.50   0
   4 -10   2    8.11    0.52   0
   4  -6   5    5.19    0.50   0
   4  -4   5    0.30    0.58   0
   4   5  -6   41.85    0.56   0
   4   6  -9    1.99    0.52   0
   5 -10   3    1.47    0.41   0
   5  -9   4    0.21    0.52   0
   5   5  -6    1.46    0.47   0
   6  -3   5    4.02    0.73   0
   6   3  -2   -0.13    0.36   0
   6   4  -4    0.28    0.52   0
   6   5  -7    1.27    0.40   0
   7   4  -5   14.59    0.47   0
   8  -4   5    9.26    0.84   0
   9  -2   3    3.73    0.56   0
   9  -1   2    0.22    0.50   0
  -3  -3  -7    0.94    0.50   0
  -2  -3  -3  133.51    0.98   0
  -2  -1  -3   52.04    0.80   0
  -2   5 -14   23.21    0.70   0
  -1  -7  -4    0.24    0.36   0
  -1   5 -10   20.22    0.63   0
  -1   6 -15    0.55    0.52   0
   0  -7  -1    1.55    0.46   0
   0  -6   0  114.01    0.86   0
   0   5  -8    3.56    0.53   0
   1  -9  -2    4.37    0.39   0
   1  -8   0   13.07    0.41   0
   1  -6   2   86.85    0.75   0
   1   2  -1   71.67    1.00   0
   1   6 -10    0.66    0.34   0
   1   7 -16    9.17    0.48   0
   1   7 -15    1.16    0.50   0
   2   5  -6   15.16    0.44   0
   2   6  -9   62.77    0.76   0
   2   7 -14    3.37    0.42   0
   3 -10   0    3.19    0.55   0
   3  -8   3   16.78    0.54   0
   3   7 -13    2.08    0.51   0
   4  -9   3   11.99    0.54   0
   4  -8   4   -0.16    0.37   0
   5   6  -9    1.76    0.38   0
   6  -8   5    1.80    0.48   0
   6   2   0   24.83    0.49   0
   7   1   1    3.51    0.37   0
   8  -8   5    2.77    0.67   0
   8   3  -3    0.91    0.49   0
   9  -3   4    1.49    0.61   0
   9   0   1    2.29    0.55   0
  -3   4 -17    8.34    0.95   0
  -2  -6  -8    0.78    0.51   0
  -2  -5  -5   12.21    0.42   0
  -2  -4  -4   10.93    0.55   0
  -2  -2  -3  197.17    1.20   0
  -1  -6  -3   77.71    0.75   0
  -1  -4  -1    3.38    0.39   0
  -1  -1  -1   10.61    0.83   0
  -1   3  -5  101.62    1.18   0
  -1   4  -7    2.07    0.50   0
   0  -4   1  403.18    1.62   0
   0   2  -2  555.61    2.60   0
   0   6 -11  118.02    0.97   0
   2  -9   0    2.14    0.37   0
   2  -6   3   81.15    0.85   0
   2   1   1   14.24    0.55   0
   2   7 -13    0.55    0.41   0
   3   4  -3   29.89    0.61   0
   3   6  -8    3.94    0.51   0
   3   7 -12   -0.25    0.48   0
   4  -5   5   68.25    0.98   0
   4   4  -3    0.06    0.34   0
   4   5  -5    0.96    0.47   0
   4   6  -8   95.50    0.87   0
   5  -7   5    9.38    0.51   0
   5   3  -1    0.61    0.50   0
   5   4  -3    2.18    0.47   0
   6  -9   4    5.15    0.58   0
   6   5  -6    2.80    0.39   0
   7  -8   5    1.47    0.54   0
   7   3  -2    0.11    0.35   0
   7   4  -4    0.23    0.52   0
   8  -1   3   -0.05    0.36   0
   8   0   2    3.73    0.52   0
  -3  -4 -10   24.19    0.53   0
  -3   4 -16    0.24    0.70   0
  -2  -6  -9    0.56    0.48   0
  -2  -5  -6   19.34    0.58   0
  -2   5 -13   71.98    0.95   0
   0  -8  -4    0.31    0.35   0
   0  -7  -2   27.79    0.57   0
   0  -3   1    6.64    0.60   0
   1  -9  -3    2.97    0.40   0
   1  -8  -1   18.37    0.53   0
   1  -5   2    5.79    0.47   0
   1   4  -4    1.67    0.39   0
   2   0   2  243.59    2.07   0
   2   2   0   81.49    0.92   0
   2   6  -8    4.21    0.53   0
   2   7 -12   56.98    0.74   0
   3  -9   1   33.93    0.68   0
   3  -6   4    1.23    0.38   0
   3   3  -1  146.06    0.93   0
   3   5  -5    0.68    0.36   0
   4 -10   1    2.21    0.39   0
   5 -10   2    6.76    0.54   0
   5   0   3   21.53    0.52   0
   5   1   2   -0.34    0.51   0
   5   5  -5   80.78    0.70   0
   5   6  -8    9.79    0.44   0
   6   0   3    1.89    0.52   0
   6   3  -1    3.65    0.48   0
   6   4  -3   24.07    0.61   0
   7  -3   5    2.58    0.62   0
   7   2   0    1.82    0.38   0
   8  -2   4    5.56    0.54   0
   8   1   1   13.42    0.57   0
   9   1   0    5.26    0.46   0
  -3  -4 -13    3.14    0.44   0
  -3  -3  -9   23.47    0.60   0
  -3  -1  -7    0.15    0.35   0
  -3   1  -8   69.88    1.26   0
  -2  -6 -10   19.85    0.52   0
  -1  -6  -4   19.93    0.55   0
  -1  -3  -1  143.95    1.02   0
  -1  -2  -1  279.63    1.62   0
  -1   6 -13   14.25    0.49   0
   0  -8  -5    3.48    0.52   0
   0  -5   0   20.71    0.59   0
   0   4  -5  239.85    1.27   0
   0   5  -7   70.97    0.82   0
   0   6 -10   18.86    0.58   0
   0   7 -16    6.34    0.44   0
   0   7 -15    2.43    0.51   0
   1  -9  -4   31.86    0.53   0
   1  -7   0    8.65    0.52   0
   1   5  -6   36.61    0.55   0
   1   7 -13   13.72    0.46   0
   2  -9  -1    1.53    0.36   0
   2  -7   2   76.02    0.69   0
   2   4  -3   66.77    0.66   0
   2   5  -5   55.16    0.71   0
   3   7 -11    1.35    0.40   0
   4  -9   2    0.43    0.53   0
   4  -7   4   28.73    0.68   0
   4   0   3  213.17    1.48   0
   4   6  -7   61.00    0.75   0
   4   7 -11   -0.12    0.40   0
   5  -9   3   11.59    0.59   0
   5  -8   4   19.13    0.61   0
   5  -1   4  123.14    1.25   0
   6  -7   5    4.57    0.63   0
   6  -1   4    4.76    0.48   0
   6   1   2   12.87    0.58   0
   6   5  -5    4.79    0.52   0
   7  -9   4    0.30    0.51   0
  -3  -2  -8   28.93    0.68   0
  -2  -5  -7   37.85    0.52   0
  -2  -3  -4   56.98    0.67   0
  -2   3  -7   11.25    0.68   0
  -2   4  -9    0.03    0.49   0
  -2   5 -12    8.25    0.53   0
  -1  -7  -8   21.06    0.60   0
  -1  -7  -7    2.15    0.37   0
  -1   6 -12   -0.47    0.50   0
   0  -7  -3   10.08    0.50   0
   0   3  -3  205.46    1.39   0
   1  -8  -2    2.05    0.45   0
   1  -6   1  248.64    1.13   0
   2  -5   3   15.65    0.57   0
   2   7 -11    0.20    0.34   0
   3  -8   2   15.86    0.43   0
   3  -7   3   46.68    0.62   0
   3  -5   4   17.32    0.63   0
   3   6  -7    0.41    0.38   0
   3   7 -10    2.65    0.50   0
   4 -10   0    0.68    0.48   0
   4  -8   3    0.73    0.51   0
   4   4  -2    3.26    0.47   0
   4   7 -10    0.87    0.54   0
   5  -6   5   24.18    0.67   0
   5   2   1   12.81    0.47   0
   5   4  -2    9.98    0.51   0
   5   6  -7    5.25    0.40   0
   6   2   1    3.48    0.49   0
   7   0   3   -0.31    0.51   0
   7   3  -1    4.12    0.53   0
   7   4  -3    2.17    0.49   0
   8   2   0    0.75    0.48   0
  -1  -7  -9    0.69    0.36   0
  -1  -6  -5   14.89    0.43   0
  -1  -5  -3    4.62    0.36   0
  -1  -4  -2    0.90    0.36   0
   1  -4   2   26.53    0.55   0
   1   6  -8    6.46    0.40   0
   2  -9  -2    1.36    0.37   0
   2  -8   0    2.20    0.35   0
   2   3  -1    0.67    0.39   0
   2   6  -7   33.36    0.52   0
   3  -9   0   11.50    0.40   0
   3   5  -4    0.86    0.36   0
   5   5  -4    8.25    0.42   0
   7   1   2    4.53    0.39   0
;
_shelx_hkl_checksum              63888
_shelx_res_file
;
    dl099.res created by SHELXL-2014/7
TITL  dl099 in P -1
CELL   0.71073      7.5691   7.7907  14.9040 101.911  91.311 107.224
ZERR         2      0.0005   0.0005   0.0010   0.005   0.005   0.005
REM Gitterkonstanten aus 8906 Reflexen mit 2.6-28.2 Grad V=818.06(9)
REM farblose Platte
LATT  1
SFAC        C       H       N       O       CL
UNIT 34 28 6 8 2
L.S.      4
FMAP      2
PLAN     -15 .5 -.5
SIZE 0.080  0.280  0.440
TEMP -80
ACTA
CONF
BOND $H
WGHT    0.050900    0.204100
FVAR       0.47466
CL1   5    0.997137    1.194808    0.780941    11.00000    0.05766    0.03927 =
         0.02601    0.00578   -0.01008    0.00562
C1    1    0.742649    0.982855    0.486564    11.00000    0.02365    0.02231 =
         0.02388    0.00540    0.00226    0.00540
C2    1    0.768717    0.863004    0.539838    11.00000    0.03002    0.02156 =
         0.02775    0.00588    0.00253    0.00687
AFIX  43
H2    2    0.731362    0.734318    0.513735    11.00000   -1.20000
AFIX   0
C3    1    0.847634    0.927305    0.629691    11.00000    0.03267    0.02894 =
         0.02711    0.01095    0.00291    0.00905
AFIX  43
H3    2    0.865789    0.843790    0.664609    11.00000   -1.20000
AFIX   0
C4    1    0.900059    1.114791    0.668401    11.00000    0.03136    0.02955 =
         0.02116    0.00436   -0.00011    0.00559
C5    1    0.876515    1.238888    0.618217    11.00000    0.03420    0.02275 =
         0.02640    0.00353    0.00060    0.00364
AFIX  43
H5    2    0.912402    1.367272    0.644935    11.00000   -1.20000
AFIX   0
C6    1    0.799572    1.170763    0.528463    11.00000    0.02673    0.02201 =
         0.02594    0.00750    0.00258    0.00519
C7    1    0.654233    0.910117    0.393041    11.00000    0.02565    0.01960 =
         0.02638    0.00442    0.00223    0.00518
O8    4    0.618194    0.726411    0.356573    11.00000    0.03235    0.02073 =
         0.02188    0.00373   -0.00155    0.00713
C9    1    0.532020    0.705285    0.271885    11.00000    0.02570    0.02588 =
         0.02162    0.00593   -0.00091    0.00653
N10   3    0.517510    0.858821    0.257657    11.00000    0.04240    0.02424 =
         0.02986    0.00363   -0.00929    0.00897
N11   3    0.597437    0.993629    0.337683    11.00000    0.04102    0.02434 =
         0.03058    0.00374   -0.00757    0.00864
C12   1    0.467977    0.523103    0.211186    11.00000    0.02613    0.02408 =
         0.02312    0.00507    0.00067    0.00597
C13   1    0.473898    0.366653    0.242293    11.00000    0.03028    0.02715 =
         0.02061    0.00546   -0.00242    0.00858
AFIX  43
H13   2    0.521834    0.379128    0.303571    11.00000   -1.20000
AFIX   0
C14   1    0.410075    0.194645    0.183861    11.00000    0.03265    0.02506 =
         0.02469    0.00685   -0.00036    0.00956
AFIX  43
H14   2    0.412881    0.088689    0.205273    11.00000   -1.20000
AFIX   0
C15   1    0.341369    0.175545    0.093391    11.00000    0.02810    0.02642 =
         0.02283    0.00343    0.00094    0.00727
C16   1    0.336577    0.330777    0.061525    11.00000    0.03241    0.03095 =
         0.01963    0.00677   -0.00197    0.00732
AFIX  43
H16   2    0.291688    0.318470   -0.000258    11.00000   -1.20000
AFIX   0
C17   1    0.398004    0.503001    0.120993    11.00000    0.03312    0.02658 =
         0.02561    0.00973   -0.00034    0.00700
AFIX  43
H17   2    0.392337    0.608574    0.100017    11.00000   -1.20000
AFIX   0
O18   4    0.283447    0.000309    0.042408    11.00000    0.04588    0.02597 =
         0.02294    0.00180   -0.00534    0.00822
C19   1    0.220639   -0.030937   -0.052832    11.00000    0.03553    0.03059 =
         0.02177    0.00283   -0.00099    0.00832
AFIX  23
H19A  2    0.322668    0.030401   -0.086791    11.00000   -1.20000
H19B  2    0.116319    0.019347   -0.058991    11.00000   -1.20000
AFIX   0
C20   1    0.158208   -0.236348   -0.090843    11.00000    0.03198    0.02884 =
         0.02678    0.00178   -0.00243    0.00653
AFIX  23
H20A  2    0.060500   -0.296621   -0.054418    11.00000   -1.20000
H20B  2    0.264309   -0.284534   -0.085518    11.00000   -1.20000
AFIX   0
C21   1    0.082504   -0.282565   -0.191560    11.00000    0.04792    0.03581 =
         0.02900   -0.00292   -0.00713    0.00997
AFIX 137
H21A  2    0.175939   -0.215340   -0.226743    11.00000   -1.50000
H21B  2   -0.030429   -0.246643   -0.196094    11.00000   -1.50000
H21C  2    0.053361   -0.415407   -0.216552    11.00000   -1.50000
AFIX   0
N22   3    0.785831    1.309944    0.477008    11.00000    0.03397    0.02060 =
         0.02793    0.00565   -0.00247    0.00406
O23   4    0.896712    1.344458    0.420364    11.00000    0.05107    0.03099 =
         0.03131    0.01249    0.00743    0.00674
O24   4    0.668220    1.385927    0.497206    11.00000    0.04830    0.03971 =
         0.06480    0.02136    0.01079    0.02337
HKLF 4
REM   dl099 in P -1
REM R1 =  0.0358 for    3221 Fo > 4sig(Fo)  and  0.0464 for all    3942 data
REM    227 parameters refined using      0 restraints
END
WGHT      0.0503      0.2075
REM Highest difference peak  0.347,  deepest hole -0.384,  1-sigma level  0.050
Q1    1   0.4982  0.6170  0.2405  11.00000  0.05    0.35
Q2    1   0.1816 -0.1387 -0.0715  11.00000  0.05    0.32
Q3    1   0.4061  0.2809  0.2121  11.00000  0.05    0.31
Q4    1   0.4275  0.5149  0.1678  11.00000  0.05    0.30
Q5    1   0.7012  0.9581  0.4394  11.00000  0.05    0.30
Q6    1   0.3283  0.2554  0.0830  11.00000  0.05    0.30
Q7    1   0.4443  0.4445  0.2306  11.00000  0.05    0.30
Q8    1   0.8394  1.1962  0.5719  11.00000  0.05    0.29
Q9    1   0.3602  0.1984  0.1428  11.00000  0.05    0.29
Q10   1   0.8821  1.0234  0.6461  11.00000  0.05    0.29
Q11   1   0.7848  1.0798  0.5017  11.00000  0.05    0.29
Q12   1   0.7502  0.9240  0.5110  11.00000  0.05    0.26
Q13   1   0.3654  0.4114  0.0982  11.00000  0.05    0.26
Q14   1   0.1274 -0.2642 -0.1406  11.00000  0.05    0.25
Q15   1   0.9353  1.1439  0.7164  11.00000  0.05    0.25
;
_shelx_res_checksum              64187
loop_
_space_group_symop_operation_xyz
'x, y, z'
'-x, -y, -z'
loop_
_atom_site_type_symbol
_atom_site_label
_atom_site_fract_x
_atom_site_fract_y
_atom_site_fract_z
_atom_site_U_iso_or_equiv
_atom_site_adp_type
_atom_site_calc_flag
_atom_site_occupancy
Cl Cl1 0.99714(6) 1.19481(5) 0.78094(3) 0.04350(12) Uani d 1
C C1 0.74265(17) 0.98285(17) 0.48656(9) 0.0236(2) Uani d 1
C C2 0.76872(19) 0.86300(17) 0.53984(9) 0.0266(3) Uani d 1
H H2 0.7314 0.7343 0.5137 0.032 Uiso calc 1
C C3 0.84763(19) 0.92731(19) 0.62969(9) 0.0290(3) Uani d 1
H H3 0.8658 0.8438 0.6646 0.035 Uiso calc 1
C C4 0.90006(19) 1.11479(19) 0.66840(9) 0.0284(3) Uani d 1
C C5 0.87652(19) 1.23889(18) 0.61822(9) 0.0293(3) Uani d 1
H H5 0.9124 1.3673 0.6449 0.035 Uiso calc 1
C C6 0.79957(18) 1.17076(17) 0.52846(9) 0.0251(3) Uani d 1
C C7 0.65423(18) 0.91012(17) 0.39304(9) 0.0244(3) Uani d 1
O O8 0.61819(13) 0.72641(12) 0.35657(6) 0.0254(2) Uani d 1
C C9 0.53202(18) 0.70529(17) 0.27188(9) 0.0247(3) Uani d 1
N N10 0.51751(18) 0.85882(16) 0.25766(8) 0.0330(3) Uani d 1
N N11 0.59744(18) 0.99363(16) 0.33768(8) 0.0328(3) Uani d 1
C C12 0.46798(18) 0.52310(17) 0.21119(9) 0.0249(3) Uani d 1
C C13 0.47390(18) 0.36665(18) 0.24229(9) 0.0261(3) Uani d 1
H H13 0.5218 0.3791 0.3036 0.031 Uiso calc 1
C C14 0.41008(19) 0.19464(18) 0.18386(9) 0.0272(3) Uani d 1
H H14 0.4129 0.0887 0.2053 0.033 Uiso calc 1
C C15 0.34137(19) 0.17554(18) 0.09339(9) 0.0264(3) Uani d 1
C C16 0.33658(19) 0.33078(18) 0.06153(9) 0.0281(3) Uani d 1
H H16 0.2917 0.3185 -0.0003 0.034 Uiso calc 1
C C17 0.39800(19) 0.50300(18) 0.12099(9) 0.0284(3) Uani d 1
H H17 0.3923 0.6086 0.1000 0.034 Uiso calc 1
O O18 0.28345(15) 0.00031(13) 0.04241(7) 0.0329(2) Uani d 1
C C19 0.2206(2) -0.03094(19) -0.05283(9) 0.0302(3) Uani d 1
H H19A 0.3227 0.0304 -0.0868 0.036 Uiso calc 1
H H19B 0.1163 0.0193 -0.0590 0.036 Uiso calc 1
C C20 0.1582(2) -0.23635(19) -0.09084(10) 0.0306(3) Uani d 1
H H20A 0.0605 -0.2966 -0.0544 0.037 Uiso calc 1
H H20B 0.2643 -0.2845 -0.0855 0.037 Uiso calc 1
C C21 0.0825(2) -0.2826(2) -0.19156(10) 0.0399(4) Uani d 1
H H21A 0.1759 -0.2153 -0.2267 0.060 Uiso calc 1
H H21B -0.0304 -0.2466 -0.1961 0.060 Uiso calc 1
H H21C 0.0534 -0.4154 -0.2166 0.060 Uiso calc 1
N N22 0.78583(16) 1.30994(15) 0.47701(8) 0.0285(2) Uani d 1
O O23 0.89671(16) 1.34446(14) 0.42036(7) 0.0382(3) Uani d 1
O O24 0.66822(17) 1.38593(16) 0.49721(9) 0.0472(3) Uani d 1
loop_
_atom_site_aniso_label
_atom_site_aniso_U_11
_atom_site_aniso_U_22
_atom_site_aniso_U_33
_atom_site_aniso_U_12
_atom_site_aniso_U_13
_atom_site_aniso_U_23
Cl1 0.0577(3) 0.0393(2) 0.02601(18) 0.00562(17) -0.01008(15) 0.00578(14)
C1 0.0236(6) 0.0223(6) 0.0239(6) 0.0054(5) 0.0023(5) 0.0054(5)
C2 0.0300(6) 0.0216(6) 0.0277(6) 0.0069(5) 0.0025(5) 0.0059(5)
C3 0.0327(7) 0.0289(6) 0.0271(6) 0.0090(5) 0.0029(5) 0.0110(5)
C4 0.0314(7) 0.0295(7) 0.0212(6) 0.0056(5) -0.0001(5) 0.0044(5)
C5 0.0342(7) 0.0227(6) 0.0264(6) 0.0036(5) 0.0006(5) 0.0035(5)
C6 0.0267(6) 0.0220(6) 0.0259(6) 0.0052(5) 0.0026(5) 0.0075(5)
C7 0.0256(6) 0.0196(5) 0.0264(6) 0.0052(5) 0.0022(5) 0.0044(5)
O8 0.0323(5) 0.0207(4) 0.0219(4) 0.0071(3) -0.0015(4) 0.0037(3)
C9 0.0257(6) 0.0259(6) 0.0216(6) 0.0065(5) -0.0009(5) 0.0059(5)
N10 0.0424(7) 0.0242(5) 0.0299(6) 0.0090(5) -0.0093(5) 0.0036(4)
N11 0.0410(7) 0.0243(5) 0.0306(6) 0.0086(5) -0.0076(5) 0.0037(5)
C12 0.0261(6) 0.0241(6) 0.0231(6) 0.0060(5) 0.0007(5) 0.0051(5)
C13 0.0303(6) 0.0272(6) 0.0206(6) 0.0086(5) -0.0024(5) 0.0055(5)
C14 0.0327(7) 0.0251(6) 0.0247(6) 0.0096(5) -0.0004(5) 0.0069(5)
C15 0.0281(6) 0.0264(6) 0.0228(6) 0.0073(5) 0.0009(5) 0.0034(5)
C16 0.0324(7) 0.0309(7) 0.0196(6) 0.0073(5) -0.0020(5) 0.0068(5)
C17 0.0331(7) 0.0266(6) 0.0256(6) 0.0070(5) -0.0003(5) 0.0097(5)
O18 0.0459(6) 0.0260(5) 0.0229(5) 0.0082(4) -0.0053(4) 0.0018(4)
C19 0.0355(7) 0.0306(7) 0.0218(6) 0.0083(5) -0.0010(5) 0.0028(5)
C20 0.0320(7) 0.0288(6) 0.0268(6) 0.0065(5) -0.0024(5) 0.0018(5)
C21 0.0479(9) 0.0358(8) 0.0290(7) 0.0100(7) -0.0071(6) -0.0029(6)
N22 0.0340(6) 0.0206(5) 0.0279(6) 0.0041(4) -0.0025(5) 0.0056(4)
O23 0.0511(6) 0.0310(5) 0.0313(5) 0.0067(5) 0.0074(5) 0.0125(4)
O24 0.0483(7) 0.0397(6) 0.0648(8) 0.0234(5) 0.0108(6) 0.0214(6)
loop_
_atom_type_symbol
_atom_type_description
_atom_type_scat_dispersion_real
_atom_type_scat_dispersion_imag
_atom_type_scat_source
C C 0.0033 0.0016 'International Tables Vol C Tables 4.2.6.8 and 6.1.1.4'
H H 0.0000 0.0000 'International Tables Vol C Tables 4.2.6.8 and 6.1.1.4'
N N 0.0061 0.0033 'International Tables Vol C Tables 4.2.6.8 and 6.1.1.4'
O O 0.0106 0.0060 'International Tables Vol C Tables 4.2.6.8 and 6.1.1.4'
Cl Cl 0.1484 0.1585 'International Tables Vol C Tables 4.2.6.8 and 6.1.1.4'
loop_
_geom_angle_atom_site_label_1
_geom_angle_atom_site_label_2
_geom_angle_atom_site_label_3
_geom_angle
C2 C1 C6 116.88(12)
C2 C1 C7 120.09(11)
C6 C1 C7 123.00(11)
C3 C2 C1 121.50(12)
C3 C2 H2 119.2
C1 C2 H2 119.2
C2 C3 C4 119.40(12)
C2 C3 H3 120.3
C4 C3 H3 120.3
C5 C4 C3 121.12(12)
C5 C4 Cl1 119.52(10)
C3 C4 Cl1 119.36(11)
C6 C5 C4 118.10(12)
C6 C5 H5 120.9
C4 C5 H5 120.9
C5 C6 C1 122.98(12)
C5 C6 N22 115.73(11)
C1 C6 N22 121.25(11)
N11 C7 O8 112.64(11)
N11 C7 C1 129.40(12)
O8 C7 C1 117.93(11)
C9 O8 C7 102.51(10)
N10 C9 O8 112.22(11)
N10 C9 C12 128.58(12)
O8 C9 C12 119.19(11)
C9 N10 N11 106.49(11)
C7 N11 N10 106.13(11)
C17 C12 C13 119.45(12)
C17 C12 C9 119.63(12)
C13 C12 C9 120.92(11)
C14 C13 C12 119.97(12)
C14 C13 H13 120.0
C12 C13 H13 120.0
C13 C14 C15 120.31(12)
C13 C14 H14 119.8
C15 C14 H14 119.8
O18 C15 C14 115.03(12)
O18 C15 C16 124.85(12)
C14 C15 C16 120.13(12)
C17 C16 C15 119.33(12)
C17 C16 H16 120.3
C15 C16 H16 120.3
C16 C17 C12 120.80(12)
C16 C17 H17 119.6
C12 C17 H17 119.6
C15 O18 C19 118.75(11)
O18 C19 C20 107.23(11)
O18 C19 H19A 110.3
C20 C19 H19A 110.3
O18 C19 H19B 110.3
C20 C19 H19B 110.3
H19A C19 H19B 108.5
C19 C20 C21 110.74(12)
C19 C20 H20A 109.5
C21 C20 H20A 109.5
C19 C20 H20B 109.5
C21 C20 H20B 109.5
H20A C20 H20B 108.1
C20 C21 H21A 109.5
C20 C21 H21B 109.5
H21A C21 H21B 109.5
C20 C21 H21C 109.5
H21A C21 H21C 109.5
H21B C21 H21C 109.5
O23 N22 O24 125.20(12)
O23 N22 C6 117.67(11)
O24 N22 C6 117.08(12)
loop_
_geom_bond_atom_site_label_1
_geom_bond_atom_site_label_2
_geom_bond_distance
Cl1 C4 1.7270(14)
C1 C2 1.3961(18)
C1 C6 1.3984(17)
C1 C7 1.4555(17)
C2 C3 1.3822(19)
C2 H2 0.9500
C3 C4 1.3864(19)
C3 H3 0.9500
C4 C5 1.3857(19)
C5 C6 1.3779(18)
C5 H5 0.9500
C6 N22 1.4768(16)
C7 N11 1.2883(17)
C7 O8 1.3635(14)
O8 C9 1.3633(15)
C9 N10 1.2920(17)
C9 C12 1.4527(17)
N10 N11 1.4019(16)
C12 C17 1.3941(18)
C12 C13 1.4026(17)
C13 C14 1.3796(18)
C13 H13 0.9500
C14 C15 1.3964(18)
C14 H14 0.9500
C15 O18 1.3548(16)
C15 C16 1.3970(19)
C16 C17 1.3867(18)
C16 H16 0.9500
C17 H17 0.9500
O18 C19 1.4346(16)
C19 C20 1.5069(18)
C19 H19A 0.9900
C19 H19B 0.9900
C20 C21 1.5253(19)
C20 H20A 0.9900
C20 H20B 0.9900
C21 H21A 0.9800
C21 H21B 0.9800
C21 H21C 0.9800
N22 O23 1.2173(16)
N22 O24 1.2183(17)
loop_
_geom_hbond_atom_site_label_D
_geom_hbond_atom_site_label_H
_geom_hbond_atom_site_label_A
_geom_hbond_site_symmetry_A
_geom_hbond_distance_DH
_geom_hbond_distance_HA
_geom_hbond_distance_DA
_geom_hbond_angle_DHA
C2 H2 O24 1_545 0.95 2.57 3.4821(18) 161
C14 H14 N10 1_545 0.95 2.41 3.3351(19) 163
C20 H20B Cg 2_655 0.99 2.86 3.7524(17) 151
C21 H21B Cg 2_555 0.99 2.84 3.6473(17) 140
loop_
_geom_torsion_atom_site_label_1
_geom_torsion_atom_site_label_2
_geom_torsion_atom_site_label_3
_geom_torsion_atom_site_label_4
_geom_torsion
C6 C1 C2 C3 -0.19(19)
C7 C1 C2 C3 -178.23(13)
C1 C2 C3 C4 0.8(2)
C2 C3 C4 C5 -0.7(2)
C2 C3 C4 Cl1 179.54(11)
C3 C4 C5 C6 -0.1(2)
Cl1 C4 C5 C6 179.66(11)
C4 C5 C6 C1 0.8(2)
C4 C5 C6 N22 -177.27(12)
C2 C1 C6 C5 -0.6(2)
C7 C1 C6 C5 177.33(13)
C2 C1 C6 N22 177.30(12)
C7 C1 C6 N22 -4.7(2)
C2 C1 C7 N11 170.45(14)
C6 C1 C7 N11 -7.5(2)
C2 C1 C7 O8 -7.31(18)
C6 C1 C7 O8 174.78(11)
N11 C7 O8 C9 -0.04(15)
C1 C7 O8 C9 178.09(11)
C7 O8 C9 N10 0.30(15)
C7 O8 C9 C12 -179.01(11)
O8 C9 N10 N11 -0.42(16)
C12 C9 N10 N11 178.80(13)
O8 C7 N11 N10 -0.20(16)
C1 C7 N11 N10 -178.06(13)
C9 N10 N11 C7 0.37(16)
N10 C9 C12 C17 7.7(2)
O8 C9 C12 C17 -173.09(12)
N10 C9 C12 C13 -171.67(14)
O8 C9 C12 C13 7.51(19)
C17 C12 C13 C14 -0.3(2)
C9 C12 C13 C14 179.14(12)
C12 C13 C14 C15 0.7(2)
C13 C14 C15 O18 179.73(12)
C13 C14 C15 C16 -0.1(2)
O18 C15 C16 C17 179.22(13)
C14 C15 C16 C17 -1.0(2)
C15 C16 C17 C12 1.4(2)
C13 C12 C17 C16 -0.8(2)
C9 C12 C17 C16 179.77(13)
C14 C15 O18 C19 -176.50(12)
C16 C15 O18 C19 3.3(2)
C15 O18 C19 C20 -177.75(12)
O18 C19 C20 C21 178.03(12)
C5 C6 N22 O23 104.46(14)
C1 C6 N22 O23 -73.63(16)
C5 C6 N22 O24 -72.95(16)
C1 C6 N22 O24 108.97(15)

_cod_database_fobs_code 1544546
