#------------------------------------------------------------------------------
#$Date: 2016-10-22 04:20:31 +0300 (Sat, 22 Oct 2016) $
#$Revision: 187494 $
#$URL: file:///home/coder/svn-repositories/cod/cif/1/54/43/1544340.cif $
#------------------------------------------------------------------------------
#
# This file is available in the Crystallography Open Database (COD),
# http://www.crystallography.net/. The original data for this entry
# were provided by IUCr Journals, http://journals.iucr.org/.
#
# The file may be used within the scientific community so long as
# proper attribution is given to the journal article from which the
# data were obtained.
#
data_1544340
loop_
_publ_author_name
'El-Khatatneh, Nasseem'
Chandra
'Shamala, D.'
'Shivashankar, K.'
'Mahendra, M.'
_publ_section_title
;
 4-[(4-Hydroxymethyl-2<i>H</i>-1,2,3-triazol-2-yl)methyl]-6,8-dimethyl-2<i>H</i>-chromen-2-one
;
_journal_coeditor_code           HB4087
_journal_issue                   10
_journal_name_full               IUCrData
_journal_page_first              x161644
_journal_paper_doi               10.1107/S2414314616016448
_journal_volume                  1
_journal_year                    2016
_chemical_formula_iupac          'C15 H15 N3 O3'
_chemical_formula_moiety         'C15 H15 N3 O3'
_chemical_formula_sum            'C15 H15 N3 O3'
_chemical_formula_weight         285.30
_chemical_name_systematic
4-[(4-Hydroxymethyl-2<i>H</i>-1,2,3-triazol-2-yl)methyl]-6,8-dimethyl-2<i>H</i>-chromen-2-one
_space_group_crystal_system      triclinic
_space_group_IT_number           2
_space_group_name_Hall           '-P 1'
_space_group_name_H-M_alt        'P -1'
_symmetry_space_group_name_Hall  '-P 1'
_symmetry_space_group_name_H-M   'P -1'
_atom_sites_solution_hydrogens   geom
_atom_sites_solution_primary     direct
_atom_sites_solution_secondary   difmap
_audit_creation_method           SHELXL-2016/4
_cell_angle_alpha                108.812(7)
_cell_angle_beta                 103.950(8)
_cell_angle_gamma                100.848(8)
_cell_formula_units_Z            2
_cell_length_a                   6.0265(16)
_cell_length_b                   11.062(3)
_cell_length_c                   11.848(3)
_cell_measurement_reflns_used    2217
_cell_measurement_temperature    293(2)
_cell_measurement_theta_max      64.736
_cell_measurement_theta_min      7.154
_cell_volume                     694.5(3)
_computing_cell_refinement
;
SAINT (Bruker, 2009)
;
_computing_data_collection
;
APEX2 (Bruker, 2009)
;
_computing_data_reduction
;
SAINT (Bruker, 2009)
;
_computing_molecular_graphics
;
PLATON (Spek, 2009) and Mercury (Macrae <i>et al.</i>, 2008)
;
_computing_publication_material
;
<i>SHELXL2016/4</i>  (Sheldrick, 2015) and PLATON (Spek, 2009)
;
_computing_structure_refinement
;
<i>SHELXL2016/4</i> (Sheldrick, 2015)
;
_computing_structure_solution
;
<i>SHELXS2016/4</i> (Sheldrick, 2008)
;
_diffrn_ambient_temperature      293(2)
_diffrn_detector_area_resol_mean 18.4
_diffrn_measured_fraction_theta_full 0.947
_diffrn_measured_fraction_theta_max 0.947
_diffrn_measurement_device_type  'Bruker X8 Proteum'
_diffrn_measurement_method       '\f and \w scans'
_diffrn_radiation_monochromator  'Helios multilayer optics'
_diffrn_radiation_source         'Bruker MicroStar microfocus rotating anode'
_diffrn_radiation_type           CuK\a
_diffrn_radiation_wavelength     1.54178
_diffrn_reflns_av_R_equivalents  0.0297
_diffrn_reflns_limit_h_max       7
_diffrn_reflns_limit_h_min       -6
_diffrn_reflns_limit_k_max       12
_diffrn_reflns_limit_k_min       -12
_diffrn_reflns_limit_l_max       13
_diffrn_reflns_limit_l_min       -13
_diffrn_reflns_number            8218
_diffrn_reflns_theta_full        64.736
_diffrn_reflns_theta_max         64.736
_diffrn_reflns_theta_min         7.154
_exptl_absorpt_coefficient_mu    0.803
_exptl_absorpt_correction_type   none
_exptl_crystal_colour            colourless
_exptl_crystal_density_diffrn    1.364
_exptl_crystal_description       Block
_exptl_crystal_F_000             300
_exptl_crystal_size_max          0.30
_exptl_crystal_size_mid          0.20
_exptl_crystal_size_min          0.10
_refine_diff_density_max         0.144
_refine_diff_density_min         -0.139
_refine_ls_extinction_method     none
_refine_ls_goodness_of_fit_ref   1.039
_refine_ls_hydrogen_treatment    constr
_refine_ls_matrix_type           full
_refine_ls_number_parameters     194
_refine_ls_number_reflns         2217
_refine_ls_number_restraints     0
_refine_ls_restrained_S_all      1.039
_refine_ls_R_factor_all          0.0423
_refine_ls_R_factor_gt           0.0416
_refine_ls_shift/su_max          0.000
_refine_ls_shift/su_mean         0.000
_refine_ls_structure_factor_coef Fsqd
_refine_ls_weighting_details
'w=1/[\s^2^(Fo^2^)+(0.0622P)^2^+0.1260P] where P=(Fo^2^+2Fc^2^)/3'
_refine_ls_weighting_scheme      calc
_refine_ls_wR_factor_gt          0.1134
_refine_ls_wR_factor_ref         0.1143
_reflns_number_gt                2142
_reflns_number_total             2217
_reflns_threshold_expression     'I > 2\s(I)'
_cod_data_source_file            hb4087sup1.cif
_cod_data_source_block           I
_cod_database_code               1544340
_shelx_space_group_comment
;
The symmetry employed for this shelxl refinement is uniquely defined
by the following loop, which should always be used as a source of
symmetry information in preference to the above space-group names.
They are only intended as comments.
;
_shelx_estimated_absorpt_t_min   0.795
_shelx_estimated_absorpt_t_max   0.924
_shelx_hkl_file
;
  -2   0   0    0.12    0.02
   3   0   0   15.30    0.82
   4   0   0   15.72    0.83
   4   0   0   14.72    0.83
   4   0   0   14.84    0.64
   4   0   0   14.29    0.80
   4   0   0   14.52    0.71
   4   0   0   15.09    0.78
   5   0   0    0.23    0.10
   5   0   0    0.02    0.09
   5   0   0    0.58    0.12
   5   0   0    0.26    0.08
   6   0   0    1.66    0.21
   6   0   0    1.66    0.17
   6   0   0    1.44    0.16
   6  -1   0   17.67    0.78
   6  -1   0   16.73    0.85
   6  -1   0   14.96    0.91
   5  -1   0    1.13    0.19
   5  -1   0    0.97    0.14
   5  -1   0    1.57    0.18
   5  -1   0    1.53    0.19
   4  -1   0  132.33    6.75
   4  -1   0  127.31    5.44
   4  -1   0  145.34    6.30
   4  -1   0  136.63    6.53
   4  -1   0  143.48    5.86
   4  -1   0  139.79    6.88
   3  -1   0   32.06    1.64
  -2   1   0  215.23    9.84
  -1   1   0    6.91    0.33
  -2  -1   0   25.94    0.94
   2   1   0   24.68    1.29
   2   1   0   25.30    0.95
   3   1   0    0.30    0.08
   3   1   0    0.22    0.08
   3   1   0    0.28    0.06
   3   1   0    0.30    0.09
   3   1   0    0.31    0.06
   4   1   0  193.11    8.60
   4   1   0  197.50    8.91
   4   1   0  196.84    9.65
   4   1   0  198.82    8.36
   4   1   0  199.52    9.33
   4   1   0  183.57    7.77
   4   1   0  205.55    8.99
   4   1   0  200.94    9.83
   5   1   0    6.82    0.48
   5   1   0    7.06    0.46
   5   1   0    6.97    0.42
   5   1   0    7.16    0.43
   5   1   0    6.92    0.46
   5   1   0    7.40    0.40
   6   1   0    3.05    0.22
   6   1   0    2.74    0.27
   6   1   0    3.73    0.22
   6  -2   0    6.41    0.41
   6  -2   0    6.50    0.45
   6  -2   0    7.23    0.38
   5  -2   0    8.13    0.43
   5  -2   0    8.08    0.49
   5  -2   0    6.36    0.46
   5  -2   0    7.99    0.51
   5  -2   0    8.27    0.50
   4  -2   0    3.11    0.24
   4  -2   0    3.08    0.19
   4  -2   0    3.31    0.24
   4  -2   0    3.48    0.25
   4  -2   0    3.40    0.25
   4  -2   0    3.18    0.22
   3  -2   0   72.19    3.62
   2  -2   0    1.32    0.11
  -2   2   0    1.47    0.11
  -1  -2   0    2.07    0.11
   1   2   0    2.30    0.12
   2   2   0    1.07    0.09
   3   2   0    2.65    0.20
   3   2   0    3.52    0.23
   3   2   0    3.08    0.22
   3   2   0    3.24    0.22
   3   2   0    2.86    0.24
   3   2   0    2.57    0.19
   3   2   0    2.72    0.21
   4   2   0   46.94    2.48
   4   2   0   53.81    2.49
   4   2   0   47.61    2.37
   4   2   0   46.00    2.10
   4   2   0   49.64    2.27
   4   2   0   46.78    2.28
   4   2   0   46.69    2.17
   5   2   0    8.30    0.45
   5   2   0    8.94    0.56
   5   2   0    8.03    0.48
   5   2   0    8.98    0.52
   5   2   0    8.03    0.48
   6  -3   0    5.38    0.34
   6  -3   0    5.69    0.31
   6  -3   0    4.77    0.36
   6  -3   0    4.38    0.36
   5  -3   0  177.82    8.37
   5  -3   0  192.32    7.80
   5  -3   0  181.86    9.16
   5  -3   0  180.81    8.99
   4  -3   0   14.65    0.78
   4  -3   0   12.62    0.73
   4  -3   0   13.51    0.77
   4  -3   0   14.87    0.68
   4  -3   0   14.76    0.73
   4  -3   0   13.62    0.61
   3  -3   0   54.13    2.73
   2  -3   0    2.21    0.16
  -2   3   0    2.39    0.15
   1  -3   0  226.25   10.33
   0  -3   0    2.85    0.13
   0  -3   0    3.05    0.14
   0   3   0    2.66    0.13
  -1  -3   0    5.47    0.26
   1   3   0    5.98    0.27
   3   3   0   49.06    2.48
   3   3   0   55.63    2.40
   3   3   0   53.62    2.62
   3   3   0   47.90    2.39
   3   3   0   53.56    2.31
   3   3   0   47.40    2.21
   4   3   0    9.99    0.53
   4   3   0   10.61    0.57
   4   3   0   10.16    0.59
   4   3   0    9.30    0.55
   4   3   0    9.79    0.60
   4   3   0   10.24    0.63
   4   3   0    9.73    0.50
   5   3   0    0.48    0.10
   5   3   0    0.45    0.09
   5   3   0    0.34    0.08
   5   3   0    0.58    0.13
   5   3   0    0.31    0.13
   6  -4   0   29.27    1.35
   6  -4   0   29.70    1.24
   6  -4   0   27.15    1.43
   6  -4   0   23.58    1.44
   5  -4   0    6.01    0.40
   5  -4   0    5.93    0.38
   5  -4   0    5.24    0.41
   5  -4   0    6.42    0.36
   4  -4   0   83.98    3.88
   4  -4   0   83.49    3.43
   4  -4   0   85.56    3.62
   4  -4   0   82.02    3.36
   4  -4   0   83.48    4.16
   4  -4   0   85.33    4.24
   3  -4   0   40.92    2.14
   3  -4   0   40.44    1.77
   3  -4   0   46.81    2.18
   2  -4   0   30.32    1.52
  -2   4   0   29.28    1.39
   0  -4   0  194.21    6.96
   0  -4   0  192.71    8.79
   0   4   0  190.82    6.97
  -1  -4   0   94.58    4.34
  -2  -4   0   36.53    1.73
  -2  -4   0   32.80    1.48
   2   4   0   39.31    1.76
   2   4   0   41.02    1.81
   2   4   0   36.31    1.70
   3   4   0   21.06    1.16
   3   4   0   23.66    1.14
   3   4   0   23.30    1.23
   3   4   0   23.57    1.10
   4   4   0   41.73    1.99
   4   4   0   41.69    2.06
   4   4   0   41.83    2.16
   4   4   0   40.38    2.16
   4   4   0   42.05    1.91
   5   4   0    8.77    0.44
   5   4   0    8.00    0.47
   5   4   0    7.99    0.53
   5   4   0    9.07    0.50
   6  -5   0    2.15    0.22
   6  -5   0    2.25    0.19
   6  -5   0    2.29    0.21
   6  -5   0    2.63    0.20
   5  -5   0  900.98   40.45
   5  -5   0  893.55   43.44
   5  -5   0  885.61   44.32
   5  -5   0  902.08   37.72
   4  -5   0    5.73    0.31
   4  -5   0    5.12    0.29
   4  -5   0    5.68    0.34
   4  -5   0    5.95    0.38
   4  -5   0    5.22    0.32
   4  -5   0    5.80    0.37
   3  -5   0   16.34    0.90
   3  -5   0   20.16    0.95
   3  -5   0   17.51    0.78
   3  -5   0   16.98    0.74
   3  -5   0   15.86    0.85
   3  -5   0   18.64    0.95
   3  -5   0   18.37    0.76
   2  -5   0  330.45   16.37
   0  -5   0    3.39    0.18
   0   5   0    3.82    0.19
  -1  -5   0   40.42    1.84
  -1  -5   0   39.64    1.58
   1   5   0   38.90    1.85
  -2  -5   0   47.90    1.94
  -2  -5   0   50.83    2.27
   2   5   0   51.47    2.29
   2   5   0   42.64    2.35
   2   5   0   51.37    2.23
   3   5   0    7.77    0.46
   3   5   0    7.85    0.48
   3   5   0    6.95    0.45
   3   5   0    7.64    0.45
   4   5   0   21.09    1.14
   4   5   0   22.09    1.12
   4   5   0   22.39    1.21
   4   5   0   23.34    1.07
   5   5   0    1.21    0.18
   5   5   0    1.45    0.15
   5   5   0    1.83    0.16
   6  -6   0    2.31    0.21
   6  -6   0    1.87    0.18
   6  -6   0    2.21    0.18
   5  -6   0    0.93    0.16
   5  -6   0    1.17    0.14
   5  -6   0    0.93    0.15
   5  -6   0    1.28    0.14
   5  -6   0    1.41    0.20
   4  -6   0  127.88    6.30
   4  -6   0  137.98    5.61
   4  -6   0  148.39    6.79
   4  -6   0  134.48    5.50
   4  -6   0  142.00    6.92
   3  -6   0   65.88    2.78
   3  -6   0   73.09    3.50
   3  -6   0   68.80    3.40
   3  -6   0   75.51    3.57
   3  -6   0   69.83    2.90
   3  -6   0   69.94    2.84
   2  -6   0  163.37    8.13
   2  -6   0  175.81    8.30
   2  -6   0  160.09    7.91
   2  -6   0  166.19    6.72
   2  -6   0  169.07    6.49
   2  -6   0  165.74    6.60
   1  -6   0  188.25    8.38
   1  -6   0  191.66    9.04
   1  -6   0  173.57    7.46
   1  -6   0  186.25    7.33
   1  -6   0  173.42    8.79
   1  -6   0  200.79    7.22
   0  -6   0   18.65    0.76
   0  -6   0   16.49    0.91
   0  -6   0   19.28    0.89
  -1  -6   0  156.75    6.84
  -1  -6   0  150.99    5.88
   1   6   0  153.35    6.85
   1   6   0  142.36    6.63
  -2  -6   0  171.70    7.25
  -2  -6   0  188.38    8.44
   2   6   0  185.87    8.19
   2   6   0  199.57    8.47
   3   6   0   11.43    0.63
   3   6   0   11.59    0.64
   3   6   0   11.06    0.67
   4   6   0    0.08    0.07
   4   6   0    0.07    0.10
   4   6   0    0.14    0.08
   5  -7   0   84.89    4.14
   5  -7   0   86.31    3.42
   5  -7   0   78.98    4.22
   4  -7   0    0.16    0.08
   4  -7   0    0.12    0.06
   4  -7   0    0.05    0.06
   3  -7   0   99.07    4.00
   3  -7   0   96.67    3.93
   3  -7   0  102.96    4.92
   3  -7   0   91.57    5.00
   3  -7   0  103.53    4.79
   3  -7   0  104.67    4.08
   2  -7   0   21.74    0.95
   2  -7   0   22.63    0.97
   2  -7   0   22.17    0.93
   2  -7   0   22.07    1.07
   2  -7   0   21.99    1.15
   2  -7   0   22.64    1.14
   1  -7   0   11.06    0.53
   1  -7   0   12.27    0.64
   1  -7   0   11.97    0.61
   1  -7   0   12.01    0.54
   1  -7   0   12.21    0.53
   0  -7   0    2.38    0.19
   0  -7   0    2.40    0.16
   0  -7   0    2.58    0.19
  -1  -7   0   14.19    0.71
  -1  -7   0   14.17    0.61
   1   7   0   13.53    0.72
   1   7   0   13.38    0.72
  -2  -7   0   19.45    0.86
  -2  -7   0   20.84    1.01
   2   7   0   20.70    1.02
   2   7   0   20.61    1.04
   3   7   0    3.80    0.28
   3   7   0    4.07    0.30
   3   7   0    3.54    0.30
   4   7   0    1.57    0.16
   4   7   0    2.06    0.21
   4   7   0    2.15    0.20
   5  -8   0    0.26    0.07
   5  -8   0    0.25    0.09
   3  -8   0    1.54    0.18
   3  -8   0    1.81    0.16
   3  -8   0    1.69    0.16
   2  -8   0   55.56    2.73
   2  -8   0   60.16    2.89
   2  -8   0   59.57    2.45
   2  -8   0   59.86    2.43
   2  -8   0   60.09    2.38
   2  -8   0   60.49    2.95
   1  -8   0    1.64    0.15
   1  -8   0    1.50    0.13
   1  -8   0    1.50    0.16
   1  -8   0    1.34    0.13
   1  -8   0    1.57    0.14
   0  -8   0   16.57    0.74
   0  -8   0   16.55    0.88
   0  -8   0   16.91    0.85
   0  -8   0   17.28    0.74
  -1  -8   0   -0.02    0.05
  -1  -8   0    0.16    0.07
  -2  -8   0    7.52    0.43
  -2  -8   0    7.31    0.37
   2   8   0    7.34    0.44
   2   8   0    7.45    0.45
   3   8   0    0.24    0.10
   3   8   0    0.27    0.09
   3   8   0    0.30    0.12
   5  -9   0    1.70    0.17
   5  -9   0    1.20    0.13
   4  -9   0   22.42    1.18
   4  -9   0   21.95    0.98
   4  -9   0   23.28    0.99
   3  -9   0   38.27    1.58
   3  -9   0   37.00    1.89
   3  -9   0   37.01    1.57
   3  -9   0   36.44    1.54
   2  -9   0    0.45    0.11
   2  -9   0    0.52    0.10
   2  -9   0    0.54    0.10
   2  -9   0    0.52    0.09
   2  -9   0    0.47    0.10
   1  -9   0  101.85    4.05
   1  -9   0  108.30    4.62
   1  -9   0   97.66    4.08
   1  -9   0  109.20    4.85
   1  -9   0   86.84    3.97
   0  -9   0   23.44    1.19
   0  -9   0   25.66    1.03
   0  -9   0   23.46    1.04
   0  -9   0   24.33    1.23
  -1  -9   0    0.07    0.07
  -1  -9   0    0.02    0.06
  -1  -9   0   -0.06    0.05
  -2  -9   0    8.53    0.48
  -2  -9   0    9.14    0.43
   2   9   0    9.06    0.51
   5 -10   0   10.25    0.47
   4 -10   0    0.10    0.07
   4 -10   0    0.06    0.08
   4 -10   0    0.01    0.05
   3 -10   0    3.54    0.25
   3 -10   0    3.75    0.23
   3 -10   0    3.62    0.24
   2 -10   0   49.11    2.10
   2 -10   0   50.05    2.09
   2 -10   0   48.81    2.35
   2 -10   0   51.82    2.49
   2 -10   0   53.36    2.06
   1 -10   0    0.38    0.10
   1 -10   0    0.48    0.10
   1 -10   0    0.44    0.12
   1 -10   0    0.41    0.09
   0 -10   0   56.00    2.67
   0 -10   0   56.89    2.35
   0 -10   0   59.68    2.31
  -1 -10   0   49.82    2.02
  -1 -10   0   49.91    2.30
  -1 -10   0   48.50    1.98
  -2 -10   0    2.32    0.16
   4 -11   0   12.66    0.57
   3 -11   0   22.82    1.04
   3 -11   0   25.22    1.03
   3 -11   0   24.39    1.02
   2 -11   0    1.05    0.12
   2 -11   0    1.03    0.13
   2 -11   0    0.82    0.10
   2 -11   0    0.95    0.12
   1 -11   0   23.86    1.18
   1 -11   0   24.63    1.03
   1 -11   0   24.75    1.05
   0 -11   0    3.16    0.21
   0 -11   0    3.14    0.22
   0 -11   0    3.11    0.20
   2 -12   0    0.15    0.06
   2 -12   0    0.21    0.06
   1 -12   0    6.94    0.32
   1 -12   0    6.33    0.33
   1 -12   0    7.01    0.37
   0 -12   1    5.33    0.30
   0 -12   1    5.09    0.27
   1 -12   1    1.11    0.12
   1 -12   1    1.03    0.11
   2 -12   1   10.03    0.54
   2 -12   1   10.68    0.50
   2 -12   1   11.51    0.49
   3 -12   1   10.69    0.47
  -1 -11   1    0.12    0.07
  -1 -11   1    0.13    0.06
  -1 -11   1    0.10    0.07
   0 -11   1    1.32    0.14
   0 -11   1    1.05    0.12
   0 -11   1    0.95    0.13
   1 -11   1    7.26    0.42
   1 -11   1    7.58    0.45
   1 -11   1    6.99    0.36
   1 -11   1    7.27    0.38
   2 -11   1   38.63    1.87
   2 -11   1   37.04    1.57
   2 -11   1   39.34    1.55
   2 -11   1   36.53    1.76
   2 -11   1   35.81    1.55
   3 -11   1   11.25    0.56
   3 -11   1   12.85    0.56
   3 -11   1   12.23    0.56
   4 -11   1    0.85    0.10
  -2 -10   1   15.34    0.68
  -2 -10   1   17.28    0.70
  -2 -10   1   15.14    0.78
  -1 -10   1    0.14    0.08
  -1 -10   1    0.26    0.08
  -1 -10   1    0.03    0.07
   0 -10   1   12.15    0.64
   0 -10   1   12.29    0.56
   0 -10   1   11.69    0.66
   0 -10   1   11.45    0.56
   1 -10   1   26.18    1.33
   1 -10   1   26.43    1.26
   1 -10   1   24.12    1.09
   1 -10   1   26.35    1.12
   2 -10   1   22.45    0.97
   2 -10   1   20.97    1.08
   2 -10   1   22.77    0.98
   2 -10   1   22.09    1.16
   2 -10   1   22.50    0.96
   3 -10   1   87.41    3.61
   3 -10   1   90.33    4.33
   3 -10   1   91.12    3.67
   3 -10   1   89.50    3.56
   4 -10   1    4.02    0.29
   4 -10   1    3.98    0.25
   5 -10   1    6.33    0.38
   5 -10   1    6.65    0.32
   3   9  -1    2.46    0.22
   3   9  -1    2.56    0.23
  -3  -9   1    2.50    0.17
   2   9  -1    0.88    0.16
  -2  -9   1    0.93    0.13
  -2  -9   1    0.89    0.12
  -1  -9   1    0.34    0.09
  -1  -9   1    0.19    0.08
  -1  -9   1    0.28    0.08
   0  -9   1   32.52    1.40
   0  -9   1   34.70    1.68
   0  -9   1   33.34    1.61
   1  -9   1    5.03    0.29
   1  -9   1    5.48    0.30
   1  -9   1    5.07    0.28
   1  -9   1    4.92    0.33
   2  -9   1   24.42    1.29
   2  -9   1   25.12    1.05
   2  -9   1   24.89    1.08
   2  -9   1   24.01    1.20
   2  -9   1   25.47    1.08
   3  -9   1   51.30    2.10
   3  -9   1   52.10    2.61
   3  -9   1   51.70    2.55
   3  -9   1   53.26    2.18
   3  -9   1   50.87    2.14
   4  -9   1    2.41    0.23
   4  -9   1    2.08    0.19
   5  -9   1    6.40    0.34
   5  -9   1    6.51    0.40
   3   8  -1    9.55    0.51
   3   8  -1    8.59    0.50
   3   8  -1    8.40    0.55
   2   8  -1    1.63    0.22
   2   8  -1    1.73    0.19
  -2  -8   1    1.72    0.17
  -2  -8   1    1.64    0.15
  -1  -8   1   14.20    0.74
  -1  -8   1   14.11    0.63
   0  -8   1   12.15    0.66
   0  -8   1   12.23    0.56
   0  -8   1   13.09    0.68
   0  -8   1   12.31    0.57
   1  -8   1    0.47    0.08
   1  -8   1    0.43    0.09
   1  -8   1    0.58    0.10
   2  -8   1  107.41    5.36
   2  -8   1  113.76    4.48
   2  -8   1  114.06    5.50
   2  -8   1  109.12    5.09
   2  -8   1  111.84    4.40
   2  -8   1  114.77    4.56
   3  -8   1    2.94    0.25
   3  -8   1    2.69    0.20
   3  -8   1    2.73    0.19
   3  -8   1    3.04    0.22
   4  -8   1   26.32    1.37
   4  -8   1   26.75    1.15
   4  -8   1   25.04    1.38
   5  -8   1    5.55    0.38
   5  -8   1    6.39    0.33
   5  -8   1    6.15    0.40
   4   7  -1    0.32    0.09
   4   7  -1    0.27    0.10
   4   7  -1    0.28    0.12
   3   7  -1    1.28    0.19
   3   7  -1    1.38    0.21
   3   7  -1    1.75    0.19
  -3  -7   1    1.63    0.15
   2   7  -1   25.49    1.25
   2   7  -1   26.16    1.28
  -2  -7   1   25.29    1.08
  -2  -7   1   26.29    1.26
   1   7  -1   19.43    1.02
   1   7  -1   19.85    1.03
  -1  -7   1   21.30    0.88
  -1  -7   1   22.16    1.03
   0  -7   1  145.85    7.18
   0  -7   1  153.72    5.89
   0  -7   1  153.37    6.85
   1  -7   1  359.23   14.19
   1  -7   1  335.33   14.44
   1  -7   1  363.51   16.22
   1  -7   1  366.28   14.56
   1  -7   1  346.21   17.03
   1  -7   1  374.31   17.51
   1  -7   1  378.91   13.97
   2  -7   1   31.18    1.57
   2  -7   1   30.29    1.32
   2  -7   1   30.71    1.31
   2  -7   1   29.76    1.53
   2  -7   1   31.32    1.26
   2  -7   1   30.62    1.28
   3  -7   1   11.57    0.56
   3  -7   1   11.87    0.52
   3  -7   1   11.72    0.65
   3  -7   1   11.17    0.63
   3  -7   1   11.31    0.53
   3  -7   1   11.67    0.66
   4  -7   1   12.05    0.57
   4  -7   1   10.99    0.61
   4  -7   1   11.43    0.67
   4  -7   1   12.22    0.68
   5  -7   1    1.43    0.15
   5  -7   1    1.68    0.17
   5  -7   1    1.47    0.16
   5  -7   1    1.85    0.20
   6  -7   1   31.49    1.52
   6  -7   1   33.00    1.64
   5   6  -1    2.19    0.17
   4   6  -1    0.09    0.11
   4   6  -1    0.18    0.09
   4   6  -1    0.13    0.08
   4   6  -1    0.23    0.10
   4   6  -1    0.13    0.11
   3   6  -1    4.37    0.34
   3   6  -1    5.05    0.34
   3   6  -1    4.99    0.34
   3   6  -1    4.52    0.32
  -3  -6   1    4.41    0.25
   2   6  -1    6.52    0.39
   2   6  -1    5.01    0.36
   2   6  -1    6.27    0.39
  -2  -6   1    6.22    0.31
  -2  -6   1    6.09    0.35
   1   6  -1    0.49    0.11
  -1  -6   1    0.54    0.07
  -1  -6   1    0.43    0.08
   0  -6   1   42.39    2.04
   0  -6   1   37.96    1.99
   0  -6   1   42.64    1.64
   0  -6   1   41.11    1.91
   1  -6   1  903.47   36.39
   1  -6   1  941.95   34.93
   1  -6   1  879.94   42.60
   1  -6   1  893.68   43.82
   2  -6   1   73.01    3.64
   2  -6   1   79.23    3.71
   2  -6   1   69.81    2.95
   2  -6   1   70.39    3.54
   2  -6   1   76.82    3.05
   2  -6   1   74.57    2.91
   2  -6   1   73.37    3.02
   3  -6   1   55.15    2.61
   3  -6   1   48.20    2.04
   3  -6   1   52.11    2.14
   3  -6   1   50.31    2.37
   3  -6   1   50.33    2.49
   3  -6   1   49.26    2.07
   3  -6   1   52.60    2.15
   3  -6   1   51.56    2.57
   4  -6   1   20.75    1.12
   4  -6   1   20.56    0.93
   4  -6   1   20.54    1.12
   4  -6   1   21.26    1.03
   5  -6   1   57.13    2.38
   5  -6   1   59.17    2.68
   5  -6   1   54.73    2.92
   5  -6   1   57.66    2.89
   6  -6   1   18.22    0.92
   6  -6   1   18.88    1.00
   5   5  -1    1.81    0.17
   5   5  -1    2.14    0.21
   5   5  -1    1.86    0.17
   5   5  -1    1.57    0.21
   4   5  -1    3.05    0.26
   4   5  -1    3.18    0.26
   4   5  -1    3.16    0.28
   4   5  -1    3.32    0.30
   4   5  -1    3.59    0.29
   3   5  -1    6.79    0.44
   3   5  -1    7.34    0.43
   3   5  -1    7.42    0.44
  -3  -5   1    6.82    0.34
   2   5  -1  110.82    4.83
   2   5  -1  100.95    5.18
   2   5  -1  119.19    5.00
  -2  -5   1  107.75    4.27
  -2  -5   1  107.66    4.97
   0   5  -1    4.94    0.24
   0  -5   1    5.30    0.23
  -1   5  -1  715.43   25.77
   2  -5   1   23.82    1.23
   3  -5   1  159.09    7.42
   3  -5   1  153.71    6.03
   3  -5   1  146.16    6.06
   3  -5   1  156.42    7.30
   3  -5   1  149.61    6.78
   3  -5   1  134.68    7.06
   3  -5   1  142.94    5.89
   4  -5   1  137.44    5.51
   4  -5   1  126.92    5.77
   4  -5   1  137.80    6.20
   4  -5   1  135.83    6.67
   4  -5   1  139.83    6.79
   5  -5   1  135.94    7.30
   5  -5   1  146.13    6.69
   5  -5   1  148.40    6.22
   5  -5   1  153.56    7.20
   6  -5   1   32.47    1.55
   6  -5   1   32.17    1.67
   6  -5   1   32.20    1.43
   5   4  -1   19.91    1.11
   5   4  -1   22.16    1.07
   5   4  -1   20.76    0.97
   5   4  -1   19.30    1.02
   4   4  -1   31.52    1.63
   4   4  -1   30.93    1.50
   4   4  -1   29.94    1.43
   4   4  -1   29.89    1.55
   4   4  -1   30.83    1.64
   3   4  -1    1.08    0.16
   3   4  -1    0.95    0.14
   3   4  -1    1.19    0.15
   3   4  -1    1.24    0.16
   3   4  -1    0.95    0.14
  -3  -4   1    1.07    0.10
   2   4  -1    9.42    0.49
   2   4  -1    8.98    0.48
   2   4  -1    8.58    0.50
   1   4  -1   86.46    3.13
  -1  -4   1   83.26    3.91
  -1  -4   1   86.16    3.12
   0   4  -1   86.33    3.22
   0  -4   1   90.63    3.22
  -1   4  -1   18.63    0.70
   1  -4   1   18.95    0.96
  -2   4  -1   12.87    0.55
   2  -4   1    9.59    0.59
   3  -4   1  212.27   10.31
   3  -4   1  217.86   10.51
   3  -4   1  207.46    8.51
   3  -4   1  208.43    9.59
   4  -4   1   66.77    3.05
   4  -4   1   65.04    3.28
   4  -4   1   61.93    2.70
   4  -4   1   65.66    3.32
   4  -4   1   68.79    2.85
   5  -4   1   42.62    2.15
   5  -4   1   41.70    2.00
   5  -4   1   38.87    2.15
   5  -4   1   43.52    1.85
   6  -4   1    2.75    0.20
   6  -4   1    2.54    0.21
   6  -4   1    2.44    0.25
   5   3  -1    1.42    0.16
   4   3  -1    2.63    0.20
   4   3  -1    2.86    0.22
   4   3  -1    2.69    0.25
   4   3  -1    2.84    0.27
   4   3  -1    2.84    0.24
   4   3  -1    2.74    0.23
   3   3  -1  133.46    6.50
   3   3  -1  138.35    6.27
   3   3  -1  126.76    5.82
   3   3  -1  145.10    6.87
   3   3  -1  150.69    6.24
   3   3  -1  141.45    6.03
  -3  -3   1  123.99    5.33
   1   3  -1  621.79   22.11
  -1  -3   1  605.24   22.11
   0   3  -1  224.13    8.05
   0  -3   1  221.46    8.05
  -2   3  -1  300.54   13.54
   2  -3   1  292.19   14.67
   3  -3   1   24.76    1.29
   3  -3   1   24.81    1.20
   3  -3   1   25.69    1.30
   4  -3   1   41.25    2.15
   4  -3   1   42.77    2.00
   4  -3   1   43.09    1.86
   4  -3   1   41.66    2.17
   5  -3   1   17.46    0.79
   5  -3   1   16.15    0.90
   5  -3   1   15.43    0.85
   5  -3   1   16.33    0.93
   6  -3   1   12.20    0.57
   6  -3   1   11.68    0.62
   6  -3   1   10.80    0.68
   6   2  -1    0.65    0.14
   6   2  -1    0.48    0.09
   6   2  -1    0.42    0.08
   5   2  -1    9.11    0.54
   5   2  -1    9.82    0.56
   5   2  -1    9.60    0.61
   5   2  -1    9.80    0.50
   5   2  -1   10.08    0.61
   5   2  -1   10.34    0.60
   4   2  -1   86.03    3.77
   4   2  -1   85.29    4.32
   4   2  -1   88.87    3.92
   4   2  -1   83.57    4.10
   4   2  -1   85.22    3.95
   4   2  -1   81.87    3.66
   3   2  -1    9.56    0.57
   3   2  -1    9.76    0.44
   3   2  -1    9.93    0.51
   3   2  -1    9.63    0.55
   3   2  -1   10.50    0.54
   3   2  -1   10.47    0.58
   3   2  -1   10.38    0.53
   2   2  -1   -0.03    0.03
  -2  -2   1   -0.02    0.03
   3  -2   1  379.48   17.40
   3  -2   1  390.03   19.05
   4  -2   1   42.33    2.25
   4  -2   1   42.62    2.16
   4  -2   1   46.25    2.10
   4  -2   1   44.36    2.27
   4  -2   1   46.06    1.95
   5  -2   1   43.86    2.14
   5  -2   1   43.79    1.98
   5  -2   1   46.83    2.32
   5  -2   1   44.69    2.31
   6  -2   1    6.90    0.48
   6  -2   1    7.83    0.40
   6  -2   1    7.36    0.43
   6   1  -1   10.70    0.59
   6   1  -1    9.38    0.54
   6   1  -1   10.27    0.51
   5   1  -1   11.47    0.66
   5   1  -1   12.04    0.72
   5   1  -1   12.92    0.75
   5   1  -1   12.14    0.74
   5   1  -1   13.75    0.71
   5   1  -1   13.32    0.63
   4   1  -1   81.76    3.45
   4   1  -1   77.01    3.53
   4   1  -1   81.01    4.06
   4   1  -1   79.20    3.85
   4   1  -1   84.81    3.73
   4   1  -1   78.33    3.20
   4   1  -1   82.24    3.68
   4   1  -1   76.24    3.98
   3   1  -1   20.83    1.06
   3   1  -1   18.98    1.00
   2   1  -1   49.55    2.65
   2   1  -1   55.55    1.93
  -2  -1   1   51.32    2.46
  -2  -1   1   55.25    1.93
   0   1  -1   12.45    0.46
   3  -1   1  342.20   16.77
   3  -1   1  333.37   16.20
   3  -1   1  350.45   15.61
   3  -1   1  344.75   14.55
   3  -1   1  353.64   17.08
   4  -1   1   16.36    0.87
   4  -1   1   16.16    0.90
   4  -1   1   15.94    0.91
   4  -1   1   16.27    0.77
   4  -1   1   17.88    0.86
   5  -1   1   17.05    0.99
   5  -1   1   16.41    0.83
   5  -1   1   19.30    0.92
   6  -1   1    1.62    0.21
   6  -1   1    1.58    0.17
   6  -1   1    1.56    0.16
   6   0  -1   28.60    1.35
   6   0  -1   29.73    1.25
   6   0  -1   24.00    1.47
   5   0  -1    1.66    0.20
   5   0  -1    1.59    0.21
   5   0  -1    1.98    0.21
   5   0  -1    1.75    0.18
   5   0  -1    2.00    0.21
   5   0  -1    1.77    0.15
   4   0  -1  174.08    8.25
   4   0  -1  173.74    7.40
   4   0  -1  176.56    8.70
   4   0  -1  169.31    6.88
   4   0  -1  187.01    7.97
   4   0  -1  164.48    8.52
   3   0  -1    5.09    0.31
   2   0  -1   55.08    2.85
  -2   0   1   58.76    2.64
   1   0  -1  174.57    7.97
  -1   0  -1  256.35    9.25
  -2   0  -1  339.94   12.27
   2   0   1  340.92   12.28
   3   0   1  481.34   22.91
   3   0   1  489.28   20.56
   3   0   1  504.22   24.16
   3   0   1  453.12   23.69
   3   0   1  512.59   22.06
   4   0   1   17.38    0.93
   4   0   1   19.59    0.96
   4   0   1   18.37    1.02
   4   0   1   19.50    0.88
   4   0   1   18.90    0.99
   4   0   1   19.48    1.05
   5   0   1    3.81    0.25
   5   0   1    3.79    0.32
   5   0   1    3.71    0.33
   5   0   1    3.90    0.28
   6   0   1   30.08    1.22
   6   0   1   25.55    1.30
   6   0   1   26.52    1.44
   6  -1  -1    3.23    0.29
   6  -1  -1    3.46    0.27
   6  -1  -1    3.42    0.24
   5  -1  -1    7.47    0.48
   5  -1  -1    8.37    0.50
   5  -1  -1    6.18    0.45
   5  -1  -1    6.91    0.41
   5  -1  -1    8.19    0.38
   5  -1  -1    7.95    0.48
   4  -1  -1   18.78    0.78
   4  -1  -1   18.75    0.99
   4  -1  -1   18.45    0.86
   4  -1  -1   17.51    0.95
   4  -1  -1   19.16    0.94
   4  -1  -1   17.51    0.98
   3  -1  -1    0.08    0.04
  -2   1   1   19.29    0.92
   1  -1  -1    3.42    0.22
  -1   1   1    3.40    0.21
   0  -1  -1   76.19    3.65
   0  -1  -1   79.87    2.89
   0   1   1   82.73    2.89
   0   1   1   80.86    3.65
   2   1   1  101.03    5.17
   2   1   1  106.65    3.78
   3   1   1   34.26    1.52
   3   1   1   33.32    1.72
   3   1   1   32.68    1.72
   3   1   1   33.97    1.57
   3   1   1   33.50    1.47
   3   1   1   32.76    1.59
   3   1   1   33.72    1.65
   4   1   1   69.55    3.25
   4   1   1   70.10    3.38
   4   1   1   64.38    3.09
   4   1   1   63.59    3.39
   4   1   1   66.40    2.89
   4   1   1   68.00    3.12
   4   1   1   66.19    2.97
   5   1   1    1.98    0.24
   5   1   1    2.55    0.21
   5   1   1    2.31    0.20
   5   1   1    2.77    0.27
   5   1   1    2.16    0.20
   6   1   1    4.82    0.34
   6  -2  -1  106.40    4.32
   6  -2  -1  101.01    4.64
   6  -2  -1   93.52    5.06
   5  -2  -1   16.70    0.87
   5  -2  -1   14.78    0.89
   5  -2  -1   16.96    0.92
   5  -2  -1   15.87    0.71
   5  -2  -1   16.50    0.86
   5  -2  -1   16.13    0.78
   4  -2  -1   85.13    4.18
   4  -2  -1   91.94    4.42
   4  -2  -1   89.22    4.05
   4  -2  -1   90.65    3.77
   4  -2  -1   81.39    4.32
   4  -2  -1   87.45    3.50
   3  -2  -1   52.43    2.65
   2  -2  -1   27.44    1.45
  -2   2   1   29.69    1.34
   0  -2  -1   -0.12    0.02
   0   2   1   -0.11    0.03
   0   2   1   -0.16    0.02
   1   2   1  642.20   23.14
   3   2   1    6.75    0.37
   3   2   1    7.28    0.43
   3   2   1    7.25    0.42
   3   2   1    8.03    0.42
   3   2   1    7.58    0.47
   3   2   1    6.86    0.43
   3   2   1    7.28    0.40
   4   2   1   24.69    1.24
   4   2   1   24.07    1.12
   4   2   1   25.59    1.31
   4   2   1   22.89    1.08
   4   2   1   22.44    1.17
   4   2   1   23.43    1.18
   5   2   1    6.19    0.39
   5   2   1    5.22    0.35
   5   2   1    5.76    0.42
   5   2   1    5.48    0.32
   6  -3  -1  160.49    8.66
   6  -3  -1  175.99    7.93
   6  -3  -1  183.93    7.38
   5  -3  -1  121.30    5.17
   5  -3  -1  126.89    5.56
   5  -3  -1  113.28    5.93
   5  -3  -1  123.74    6.07
   5  -3  -1  117.21    4.80
   4  -3  -1   16.59    0.92
   4  -3  -1   16.30    0.89
   4  -3  -1   18.19    0.88
   4  -3  -1   17.46    0.82
   4  -3  -1   18.32    0.95
   4  -3  -1   16.99    0.75
   3  -3  -1  116.45    5.81
   2  -3  -1  354.03   17.75
  -2   3   1  363.10   16.36
   1  -3  -1  253.77   11.86
  -1   3   1  266.02    9.37
   0   3   1  449.07   16.19
  -1  -3  -1  392.23   13.93
  -1  -3  -1  369.50   17.60
   1   3   1  396.19   13.94
   2   3   1    2.05    0.17
   2   3   1    2.36    0.18
   3   3   1    6.89    0.37
   3   3   1    6.93    0.43
   3   3   1    7.33    0.41
   3   3   1    7.60    0.48
   3   3   1    7.38    0.43
   3   3   1    7.04    0.43
   4   3   1    0.21    0.10
   4   3   1    0.25    0.09
   4   3   1    0.23    0.09
   5   3   1    2.16    0.19
   5   3   1    2.52    0.25
   6  -4  -1   51.46    2.36
   6  -4  -1   50.69    2.18
   6  -4  -1   46.86    2.56
   5  -4  -1   39.11    2.06
   5  -4  -1   41.33    1.81
   5  -4  -1   42.12    1.94
   5  -4  -1   39.53    1.67
   5  -4  -1   40.15    2.11
   4  -4  -1    3.12    0.23
   4  -4  -1    3.13    0.20
   4  -4  -1    2.93    0.22
   4  -4  -1    3.25    0.20
   3  -4  -1    3.71    0.20
   3  -4  -1    3.52    0.24
   1  -4  -1   73.99    2.69
   1  -4  -1   69.78    3.41
   1  -4  -1   78.98    3.70
  -1   4   1   74.68    3.40
  -1   4   1   73.51    2.71
   0  -4  -1   75.14    3.43
   0  -4  -1   76.57    2.73
   0   4   1   72.30    2.74
  -1  -4  -1  178.25    8.15
  -2  -4  -1    6.75    0.38
   2   4   1    7.14    0.41
   2   4   1    6.90    0.40
   3   4   1   31.91    1.45
   3   4   1   29.47    1.54
   3   4   1   32.45    1.50
   3   4   1   29.27    1.61
   4   4   1    0.42    0.12
   4   4   1    0.45    0.10
   4   4   1    0.42    0.14
   4   4   1    0.46    0.11
   5   4   1    0.04    0.06
   5   4   1    0.16    0.10
   6  -5  -1    5.86    0.33
   6  -5  -1    5.08    0.37
   6  -5  -1    5.70    0.35
   5  -5  -1   36.71    1.61
   5  -5  -1   38.05    1.74
   5  -5  -1   39.36    1.99
   5  -5  -1   40.61    1.87
   5  -5  -1   40.23    2.05
   4  -5  -1    5.11    0.31
   4  -5  -1    5.44    0.29
   4  -5  -1    5.41    0.29
   4  -5  -1    4.65    0.34
   4  -5  -1    5.17    0.35
   3  -5  -1  112.54    4.68
   3  -5  -1  112.16    4.60
   3  -5  -1  112.12    4.52
   3  -5  -1  121.28    5.78
   3  -5  -1  119.36    5.66
   2  -5  -1  763.19   35.88
   2  -5  -1  744.78   30.44
   2  -5  -1  777.68   29.42
   0  -5  -1   31.00    1.36
   0   5   1   26.95    1.11
  -1  -5  -1   77.80    3.35
  -1  -5  -1   69.92    2.87
   1   5   1   70.13    3.26
   1   5   1   74.85    3.36
  -2  -5  -1    2.62    0.20
   2   5   1    2.97    0.23
   3   5   1    2.84    0.23
   3   5   1    2.46    0.22
   4   5   1   35.83    1.60
   4   5   1   34.90    1.81
   4   5   1   33.41    1.66
   6  -6  -1    1.35    0.13
   6  -6  -1    0.84    0.14
   5  -6  -1    0.03    0.05
   5  -6  -1    0.13    0.09
   5  -6  -1    0.29    0.10
   5  -6  -1    0.06    0.07
   5  -6  -1    0.06    0.06
   4  -6  -1  168.60    6.57
   4  -6  -1  156.84    8.25
   4  -6  -1  166.67    8.08
   4  -6  -1  168.51    6.68
   3  -6  -1   27.12    1.42
   3  -6  -1   26.27    1.12
   3  -6  -1   27.63    1.39
   3  -6  -1   26.62    1.36
   3  -6  -1   26.73    1.15
   3  -6  -1   27.91    1.16
   2  -6  -1   89.46    4.14
   2  -6  -1   84.81    3.46
   2  -6  -1   83.12    4.24
   2  -6  -1   85.18    3.51
   2  -6  -1   89.51    4.33
   2  -6  -1   86.52    3.40
   1  -6  -1  158.57    6.81
   1  -6  -1  173.70    6.71
   1  -6  -1  169.64    8.26
   1  -6  -1  170.04    7.66
   1  -6  -1  168.13    8.05
   1  -6  -1  177.82    6.60
   0  -6  -1   22.75    1.24
   0  -6  -1   26.39    1.20
   0  -6  -1   26.07    1.03
  -1  -6  -1    1.93    0.17
  -1  -6  -1    2.40    0.14
   1   6   1    1.79    0.17
   1   6   1    1.84    0.19
  -2  -6  -1   49.01    2.30
   2   6   1   48.55    2.26
   2   6   1   50.34    2.33
   3   6   1    0.24    0.11
   3   6   1    0.40    0.10
   3   6   1    0.25    0.10
   4   6   1    3.08    0.23
   4   6   1    3.05    0.27
   4   6   1    2.74    0.22
   5  -7  -1    2.93    0.25
   5  -7  -1    2.94    0.25
   5  -7  -1    2.78    0.20
   5  -7  -1    3.06    0.20
   4  -7  -1    3.85    0.24
   4  -7  -1    3.76    0.29
   4  -7  -1    3.80    0.29
   4  -7  -1    3.64    0.24
   3  -7  -1    3.19    0.20
   3  -7  -1    2.97    0.21
   3  -7  -1    3.02    0.20
   3  -7  -1    2.67    0.22
   3  -7  -1    3.10    0.24
   2  -7  -1   31.28    1.57
   2  -7  -1   32.76    1.30
   2  -7  -1   32.24    1.33
   2  -7  -1   31.40    1.60
   2  -7  -1   31.94    1.34
   2  -7  -1   30.01    1.48
   1  -7  -1   71.15    3.50
   1  -7  -1   69.63    2.96
   1  -7  -1   75.71    2.88
   1  -7  -1   74.10    2.93
   1  -7  -1   72.94    3.34
   0  -7  -1   41.68    2.27
   0  -7  -1   48.89    1.89
   0  -7  -1   48.29    1.91
   0  -7  -1   48.39    2.18
  -1  -7  -1    6.81    0.39
  -1  -7  -1    6.66    0.33
   1   7   1    5.75    0.40
   1   7   1    7.24    0.40
  -2  -7  -1    4.82    0.31
   2   7   1    5.21    0.34
   2   7   1    4.88    0.34
   3   7   1    3.49    0.26
   3   7   1    3.66    0.27
   3   7   1    3.48    0.30
   5  -8  -1    0.14    0.06
   5  -8  -1    0.19    0.07
   5  -8  -1    0.11    0.08
   4  -8  -1  108.96    4.46
   4  -8  -1  111.31    5.45
   4  -8  -1  112.71    5.58
   4  -8  -1  110.44    4.51
   3  -8  -1    4.64    0.33
   3  -8  -1    4.87    0.28
   3  -8  -1    4.97    0.28
   3  -8  -1    4.59    0.29
   2  -8  -1  165.16    6.39
   2  -8  -1  161.50    7.64
   2  -8  -1  149.29    7.25
   2  -8  -1  162.97    6.27
   2  -8  -1  162.69    6.47
   1  -8  -1    1.20    0.15
   1  -8  -1    1.18    0.13
   1  -8  -1    1.22    0.13
   1  -8  -1    1.15    0.11
   1  -8  -1    1.21    0.13
   0  -8  -1   16.89    0.74
   0  -8  -1   17.08    0.86
   0  -8  -1   17.06    0.76
  -1  -8  -1   29.14    1.25
  -1  -8  -1   30.00    1.45
  -1  -8  -1   31.65    1.28
  -2  -8  -1    6.28    0.31
  -2  -8  -1    5.61    0.35
   2   8   1    6.03    0.38
   2   8   1    5.12    0.35
  -3  -8  -1    1.51    0.13
   3   8   1    2.02    0.21
   3   8   1    1.24    0.15
   3   8   1    1.79    0.19
   5  -9  -1   10.15    0.50
   5  -9  -1   11.31    0.50
   4  -9  -1   42.77    1.84
   4  -9  -1   45.27    1.84
   3  -9  -1    9.79    0.47
   3  -9  -1    9.09    0.48
   3  -9  -1    9.54    0.47
   2  -9  -1   52.23    2.10
   2  -9  -1   53.42    2.10
   2  -9  -1   47.43    2.05
   2  -9  -1   49.63    2.35
   1  -9  -1    6.68    0.41
   1  -9  -1    6.92    0.40
   1  -9  -1    6.14    0.35
   1  -9  -1    6.53    0.34
   0  -9  -1    0.87    0.13
   0  -9  -1    0.82    0.13
  -1  -9  -1    0.90    0.13
  -1  -9  -1    0.84    0.12
  -1  -9  -1    0.83    0.13
  -2  -9  -1   12.51    0.55
   2   9   1   11.74    0.63
   5 -10  -1    2.08    0.14
   4 -10  -1   26.91    1.10
   4 -10  -1   24.68    1.11
   3 -10  -1   10.49    0.49
   3 -10  -1   10.34    0.50
   3 -10  -1   10.01    0.51
   2 -10  -1   13.46    0.61
   2 -10  -1   12.61    0.59
   2 -10  -1   12.98    0.67
   2 -10  -1   13.74    0.63
   1 -10  -1   64.34    2.99
   1 -10  -1   65.04    2.63
   1 -10  -1   64.46    2.58
   0 -10  -1  146.92    5.74
   0 -10  -1  142.62    5.64
   0 -10  -1  143.37    6.56
  -1 -10  -1    0.29    0.08
  -1 -10  -1    0.33    0.08
  -1 -10  -1    0.31    0.07
   4 -11  -1    0.03    0.04
   3 -11  -1   25.02    1.05
   3 -11  -1   25.24    1.04
   3 -11  -1   24.51    1.07
   2 -11  -1    3.33    0.21
   2 -11  -1    3.53    0.21
   2 -11  -1    3.02    0.21
   1 -11  -1    0.39    0.08
   1 -11  -1    0.46    0.09
   1 -11  -1    0.52    0.09
   0 -11  -1   33.33    1.37
   0 -11  -1   34.89    1.60
   0 -12   2    0.64    0.09
   0 -12   2    0.79    0.10
   0 -12   2    0.75    0.10
   1 -12   2    0.04    0.05
   1 -12   2    0.05    0.06
   1 -12   2    0.02    0.07
   2 -12   2    0.91    0.11
   2 -12   2    1.09    0.12
   3 -12   2    0.22    0.05
  -1 -11   2   16.82    0.71
  -1 -11   2   16.72    0.72
  -1 -11   2   15.63    0.81
   0 -11   2    3.30    0.24
   0 -11   2    3.38    0.26
   0 -11   2    3.35    0.22
   1 -11   2    1.68    0.19
   1 -11   2    1.49    0.14
   1 -11   2    1.98    0.17
   1 -11   2    1.34    0.15
   2 -11   2    1.78    0.16
   2 -11   2    1.44    0.14
   2 -11   2    1.34    0.15
   2 -11   2    1.58    0.15
   2 -11   2    1.76    0.19
   3 -11   2   22.68    0.97
   3 -11   2   21.48    0.94
   4 -11   2    1.67    0.17
   4 -11   2    1.83    0.14
   2  10  -2    4.39    0.34
  -2 -10   2    4.78    0.26
  -2 -10   2    4.46    0.29
  -2 -10   2    4.93    0.27
  -1 -10   2    1.04    0.14
  -1 -10   2    0.97    0.12
   0 -10   2   11.97    0.66
   0 -10   2   11.89    0.56
   0 -10   2   11.82    0.64
   0 -10   2   10.97    0.54
   1 -10   2    9.86    0.56
   1 -10   2    9.07    0.47
   1 -10   2    9.45    0.47
   1 -10   2    9.09    0.53
   2 -10   2    0.93    0.16
   2 -10   2    1.06    0.13
   2 -10   2    0.85    0.13
   2 -10   2    1.25    0.14
   2 -10   2    1.33    0.16
   2 -10   2    1.00    0.13
   3 -10   2    0.30    0.11
   3 -10   2    0.38    0.09
   3 -10   2    0.18    0.08
   3 -10   2    0.63    0.13
   4 -10   2   12.70    0.71
   4 -10   2   12.65    0.60
   5 -10   2    0.51    0.10
   5 -10   2    0.45    0.08
   3   9  -2    4.18    0.30
   3   9  -2    3.52    0.26
   3   9  -2    4.42    0.31
  -3  -9   2    3.71    0.22
   2   9  -2    0.58    0.13
  -2  -9   2    0.44    0.09
  -2  -9   2    0.65    0.12
  -1  -9   2   19.67    0.99
  -1  -9   2   19.41    0.85
   0  -9   2   14.17    0.77
   0  -9   2   14.43    0.75
   0  -9   2   14.18    0.64
   0  -9   2   13.94    0.64
   1  -9   2    4.25    0.29
   1  -9   2    3.83    0.25
   1  -9   2    3.86    0.24
   1  -9   2    3.85    0.29
   1  -9   2    4.46    0.25
   2  -9   2  157.59    6.18
   2  -9   2  146.08    7.27
   2  -9   2  151.89    6.92
   2  -9   2  152.23    7.45
   2  -9   2  155.09    5.97
   2  -9   2  150.31    6.06
   3  -9   2   33.54    1.72
   3  -9   2   33.95    1.69
   3  -9   2   31.73    1.38
   3  -9   2   34.15    1.45
   4  -9   2   19.36    1.06
   4  -9   2   19.87    0.90
   5  -9   2    4.09    0.25
   5  -9   2    4.21    0.30
   4   8  -2   15.11    0.74
   3   8  -2   35.35    1.70
   3   8  -2   33.33    1.85
   3   8  -2   38.04    1.66
  -3  -8   2   33.83    1.43
   2   8  -2   41.93    2.00
   2   8  -2   41.83    1.96
  -2  -8   2   41.72    1.98
  -2  -8   2   41.92    1.71
  -1  -8   2    0.39    0.09
  -1  -8   2    0.46    0.10
  -1  -8   2    0.24    0.08
   0  -8   2   16.77    0.89
   0  -8   2   17.38    0.87
   0  -8   2   16.36    0.73
   1  -8   2    0.04    0.06
   1  -8   2    0.02    0.05
   1  -8   2    0.05    0.07
   1  -8   2    0.11    0.06
   1  -8   2    0.08    0.06
   1  -8   2    0.17    0.06
   1  -8   2    0.06    0.05
   2  -8   2   34.93    1.46
   2  -8   2   33.08    1.68
   2  -8   2   34.40    1.38
   2  -8   2   34.24    1.44
   2  -8   2   32.88    1.40
   2  -8   2   31.31    1.59
   2  -8   2   33.74    1.71
   3  -8   2    0.35    0.09
   3  -8   2    0.20    0.10
   3  -8   2    0.18    0.07
   4  -8   2   24.46    1.25
   4  -8   2   26.93    1.16
   4  -8   2   26.81    1.38
   5  -8   2    7.80    0.44
   5  -8   2    8.01    0.41
   4   7  -2    4.16    0.32
   4   7  -2    4.47    0.31
   4   7  -2    4.28    0.32
   4   7  -2    4.13    0.30
   3   7  -2   35.62    1.70
   3   7  -2   36.40    1.65
   3   7  -2   34.12    1.74
   3   7  -2   33.89    1.84
  -3  -7   2   34.23    1.43
   2   7  -2    5.60    0.37
   2   7  -2    5.45    0.37
   2   7  -2    5.11    0.36
  -2  -7   2    5.54    0.29
  -2  -7   2    5.37    0.34
   1   7  -2    2.69    0.22
   1   7  -2    2.62    0.24
   1   7  -2    2.76    0.22
  -1  -7   2    3.26    0.23
  -1  -7   2    3.05    0.22
   0  -7   2   12.48    0.66
   0  -7   2   11.38    0.56
   0  -7   2   13.09    0.55
   1  -7   2   61.08    2.49
   1  -7   2   60.17    2.76
   1  -7   2   60.65    2.97
   1  -7   2   62.18    2.38
   1  -7   2   58.57    2.90
   1  -7   2   59.51    2.41
   1  -7   2   56.81    2.46
   2  -7   2   64.42    3.17
   2  -7   2   67.52    3.25
   2  -7   2   60.65    2.63
   2  -7   2   65.56    2.73
   2  -7   2   66.75    2.71
   2  -7   2   68.00    2.60
   3  -7   2    4.20    0.26
   3  -7   2    4.65    0.28
   3  -7   2    3.96    0.26
   3  -7   2    4.11    0.29
   3  -7   2    3.92    0.26
   3  -7   2    3.99    0.31
   4  -7   2  653.79   24.99
   4  -7   2  586.13   30.86
   4  -7   2  614.35   30.27
   4  -7   2  639.44   28.17
   5  -7   2    0.88    0.13
   5  -7   2    0.78    0.12
   5  -7   2    0.88    0.16
   6  -7   2    3.45    0.26
   6  -7   2    3.46    0.22
   5   6  -2    0.02    0.07
   5   6  -2   -0.08    0.09
   5   6  -2    0.05    0.06
   4   6  -2    1.67    0.22
   4   6  -2    1.55    0.20
   4   6  -2    1.53    0.18
   4   6  -2    1.45    0.21
   3   6  -2    0.10    0.09
   3   6  -2    0.33    0.11
  -3  -6   2    0.15    0.06
   2   6  -2   42.31    1.83
   2   6  -2   37.39    1.76
   2   6  -2   34.44    1.86
  -2  -6   2   37.99    1.54
  -2  -6   2   37.95    1.79
   1   6  -2   19.01    1.05
   1   6  -2   20.36    1.01
   1   6  -2   22.59    1.05
  -1  -6   2   21.99    0.88
  -1  -6   2   22.36    1.04
  -1  -6   2   20.82    1.07
   0  -6   2  177.71    7.11
   0  -6   2  178.96    8.91
   0  -6   2  166.68    8.67
   0  -6   2  208.99    8.28
   1  -6   2   15.11    0.66
   1  -6   2   14.81    0.77
   1  -6   2   13.45    0.75
   2  -6   2   59.03    2.37
   2  -6   2   54.34    2.74
   2  -6   2   56.30    2.82
   2  -6   2   56.95    2.85
   2  -6   2   56.89    2.35
   3  -6   2   28.97    1.48
   3  -6   2   28.08    1.24
   3  -6   2   30.37    1.49
   3  -6   2   28.31    1.24
   3  -6   2   27.57    1.35
   3  -6   2   27.70    1.42
   4  -6   2   15.23    0.88
   4  -6   2   17.38    0.92
   4  -6   2   16.84    0.77
   4  -6   2   15.91    0.83
   5  -6   2   38.13    1.94
   5  -6   2   35.49    1.59
   5  -6   2   38.43    1.79
   6  -6   2    5.21    0.31
   6  -6   2    5.00    0.35
   5   5  -2   16.04    0.86
   5   5  -2   17.85    0.90
   5   5  -2   17.00    0.81
   4   5  -2    0.14    0.09
   4   5  -2    0.13    0.10
   4   5  -2    0.38    0.13
   4   5  -2    0.08    0.08
   4   5  -2    0.22    0.11
   3   5  -2    0.70    0.12
   3   5  -2    0.42    0.11
  -3  -5   2    0.67    0.09
   2   5  -2    4.30    0.29
   2   5  -2    5.22    0.31
   2   5  -2    3.72    0.29
  -2  -5   2    4.38    0.23
  -2  -5   2    4.25    0.28
   0   5  -2    1.58    0.10
   0  -5   2    1.60    0.11
  -1   5  -2   26.91    1.00
   2  -5   2  104.35    5.20
   3  -5   2  229.35    9.42
   3  -5   2  231.59    9.36
   3  -5   2  236.72   11.34
   3  -5   2  237.82   11.54
   3  -5   2  226.41   10.54
   4  -5   2  404.18   17.95
   4  -5   2  363.08   16.71
   4  -5   2  390.75   19.64
   4  -5   2  402.47   15.91
   4  -5   2  421.05   19.30
   5  -5   2   21.61    1.10
   5  -5   2   22.16    1.01
   5  -5   2   22.06    1.20
   6  -5   2   20.12    0.91
   6  -5   2   19.53    1.07
   6  -5   2   20.02    0.99
   5   4  -2    8.55    0.49
   5   4  -2    7.44    0.45
   5   4  -2    7.31    0.50
   5   4  -2    6.92    0.44
   5   4  -2    7.88    0.43
   4   4  -2   45.37    2.23
   4   4  -2   47.99    2.46
   4   4  -2   44.68    2.31
   4   4  -2   50.09    2.24
   4   4  -2   47.40    2.40
   4   4  -2   46.32    2.15
   3   4  -2    6.28    0.40
   3   4  -2    6.66    0.39
   3   4  -2    6.40    0.39
   3   4  -2    6.97    0.40
  -3  -4   2    6.57    0.32
   2   4  -2  161.62    7.07
   2   4  -2  150.38    6.83
   1   4  -2   63.04    2.33
  -1  -4   2   63.17    2.91
  -1  -4   2   63.56    2.33
   0   4  -2  829.41   29.87
  -1   4  -2   68.44    2.50
   1  -4   2   69.37    3.43
  -2   4  -2   18.12    0.88
   2  -4   2   18.49    0.94
   3  -4   2    2.10    0.15
   3  -4   2    1.99    0.18
   3  -4   2    1.67    0.15
   3  -4   2    1.53    0.14
   3  -4   2    1.49    0.13
   4  -4   2   12.98    0.74
   4  -4   2   12.74    0.63
   4  -4   2   13.59    0.77
   4  -4   2   13.80    0.64
   4  -4   2   13.79    0.70
   5  -4   2   85.16    4.36
   5  -4   2   99.19    4.07
   5  -4   2   99.37    4.73
   6  -4   2    9.57    0.61
   6  -4   2   10.23    0.55
   6  -4   2   10.54    0.50
   6   3  -2    0.31    0.11
   6   3  -2    0.19    0.07
   6   3  -2    0.18    0.07
   5   3  -2   10.83    0.61
   5   3  -2   10.58    0.64
   5   3  -2    9.73    0.51
   5   3  -2   10.16    0.53
   5   3  -2    9.86    0.57
   5   3  -2   10.03    0.57
   4   3  -2   19.13    1.03
   4   3  -2   17.75    1.00
   4   3  -2   18.50    0.94
   4   3  -2   17.99    0.97
   4   3  -2   17.85    0.85
   4   3  -2   19.02    0.94
   4   3  -2   19.05    0.90
  -4  -3   2   16.77    0.76
   3   3  -2   36.19    1.81
   3   3  -2   45.30    2.16
   3   3  -2   39.06    2.03
   3   3  -2   42.82    1.90
   3   3  -2   41.65    1.97
   3   3  -2   45.20    1.97
   3   3  -2   42.61    1.69
  -3  -3   2   41.22    1.66
  -2  -3   2  154.18    7.08
  -1  -3   2    1.33    0.09
  -1  -3   2    1.38    0.09
   2  -3   2   60.15    3.01
   3  -3   2  129.23    6.14
   3  -3   2  120.96    5.24
   3  -3   2  124.26    5.62
   3  -3   2  118.46    6.04
   5  -3   2   13.04    0.71
   5  -3   2   14.00    0.66
   5  -3   2   12.59    0.78
   6  -3   2    0.15    0.07
   6  -3   2    0.16    0.07
   6  -3   2    0.20    0.10
   6   2  -2    0.11    0.07
   6   2  -2   -0.07    0.10
   6   2  -2    0.06    0.07
   5   2  -2    0.58    0.12
   5   2  -2    1.01    0.18
   5   2  -2    0.62    0.14
   5   2  -2    0.65    0.11
   5   2  -2    0.58    0.13
   4   2  -2    3.96    0.29
   4   2  -2    3.41    0.24
   4   2  -2    3.31    0.20
   4   2  -2    3.48    0.27
   4   2  -2    3.01    0.27
   4   2  -2    3.47    0.24
   4   2  -2    3.67    0.27
   4   2  -2    3.00    0.23
  -4  -2   2    3.01    0.19
   3   2  -2  116.67    6.03
   3   2  -2  126.84    5.59
   3   2  -2  129.36    5.79
   3   2  -2  132.46    6.37
   3   2  -2  128.27    5.82
   3   2  -2  130.73    5.04
   2   2  -2   92.48    3.34
  -2  -2   2   89.93    4.23
  -2  -2   2   92.70    3.34
  -1   2  -2  291.21   13.30
   3  -2   2  304.54   14.97
   3  -2   2  313.05   15.24
   3  -2   2  295.58   14.46
   3  -2   2  320.38   13.93
   3  -2   2  304.61   12.98
   4  -2   2    0.50    0.12
   4  -2   2    0.61    0.10
   4  -2   2    0.40    0.08
   5  -2   2    9.61    0.60
   5  -2   2    8.59    0.47
   5  -2   2    9.07    0.52
   6  -2   2    1.15    0.19
   6  -2   2    1.06    0.13
   6  -2   2    0.95    0.13
   6   1  -2    0.19    0.12
   6   1  -2    0.25    0.08
   6   1  -2    0.32    0.10
   5   1  -2   39.49    1.85
   5   1  -2   35.79    1.90
   5   1  -2   39.30    2.01
   5   1  -2   38.14    1.56
   5   1  -2   38.99    1.69
   5   1  -2   35.45    1.79
   4   1  -2   17.56    0.83
   4   1  -2   16.49    0.92
   4   1  -2   18.51    0.97
   4   1  -2   17.24    0.82
   4   1  -2   17.20    0.87
   4   1  -2   18.15    0.76
   4   1  -2   17.63    0.95
   4   1  -2   19.05    0.91
  -4  -1   2   15.81    0.73
   3   1  -2   26.73    1.39
   2   1  -2   36.94    1.33
   2   1  -2   33.70    1.82
  -2  -1   2   38.23    1.34
  -2  -1   2   35.81    1.69
  -2   1  -2    0.41    0.04
   3  -1   2  202.48    9.56
   3  -1   2  210.91    8.58
   3  -1   2  210.08    9.21
   3  -1   2  212.58    9.91
   3  -1   2  197.36   10.06
   3  -1   2  183.09    8.82
   4  -1   2    8.87    0.57
   4  -1   2    9.38    0.54
   4  -1   2    9.57    0.52
   4  -1   2    9.10    0.47
   5  -1   2    4.56    0.37
   5  -1   2    5.19    0.33
   5  -1   2    4.60    0.29
   6  -1   2   16.21    0.86
   6  -1   2   18.79    0.80
   6  -1   2   17.43    0.96
   6   0  -2   16.85    0.97
   6   0  -2   18.25    0.93
   6   0  -2   17.14    0.82
   6   0  -2   16.17    0.89
   5   0  -2    1.71    0.20
   5   0  -2    1.10    0.19
   5   0  -2    1.00    0.16
   5   0  -2    1.44    0.16
   4   0  -2   50.32    2.50
   4   0  -2   48.91    2.13
   4   0  -2   51.72    2.31
   4   0  -2   48.60    1.97
   4   0  -2   43.65    2.36
   2   0   2  196.05    7.09
   3   0   2   74.25    3.35
   3   0   2   75.71    3.64
   3   0   2   74.58    3.82
   3   0   2   76.15    3.78
   3   0   2   76.95    3.48
   3   0   2   78.46    3.27
   3   0   2   77.10    3.51
   4   0   2   26.97    1.32
   4   0   2   24.73    1.24
   4   0   2   23.82    1.17
   4   0   2   26.78    1.39
   4   0   2   26.31    1.27
   4   0   2   25.92    1.17
   5   0   2    4.55    0.31
   5   0   2    5.19    0.30
   5   0   2    4.81    0.32
   5   0   2    5.08    0.39
   6   0   2    7.50    0.47
   6  -1  -2   35.13    1.70
   6  -1  -2   35.08    1.56
   6  -1  -2   33.16    1.84
   6  -1  -2   36.14    1.75
   6  -1  -2   34.30    1.43
   5  -1  -2   23.24    1.25
   5  -1  -2   22.78    1.07
   5  -1  -2   22.22    0.97
   5  -1  -2   22.90    1.19
   5  -1  -2   22.83    1.16
   4  -1  -2   34.49    1.54
   4  -1  -2   35.52    1.66
   4  -1  -2   35.83    1.79
   4  -1  -2   31.73    1.69
   4  -1  -2   34.45    1.41
   3  -1  -2   70.63    3.55
   2  -1  -2   78.75    3.56
   2  -1  -2   70.76    3.84
  -2   1   2   81.55    3.55
   1  -1  -2   15.96    0.77
   1  -1  -2   15.82    0.60
  -1   1   2   16.50    0.60
  -1   1   2   15.82    0.76
  -1  -1  -2   48.08    2.25
  -1  -1  -2   49.14    1.78
   1   1   2   48.93    1.79
   2   1   2   33.97    1.72
   3   1   2   64.88    3.26
   3   1   2   65.10    3.14
   3   1   2   65.51    2.90
   3   1   2   68.07    3.01
   3   1   2   63.61    3.02
   3   1   2   64.38    2.81
   4   1   2   44.35    2.24
   4   1   2   49.21    2.34
   4   1   2   47.60    2.09
   4   1   2   45.92    2.14
   4   1   2   51.00    2.46
   4   1   2   47.61    2.24
   5   1   2    6.38    0.45
   5   1   2    6.38    0.34
   5   1   2    5.75    0.36
   5   1   2    5.15    0.36
   7  -2  -2    0.00    0.06
   7  -2  -2    0.04    0.06
   6  -2  -2   26.75    1.20
   6  -2  -2   25.47    1.09
   6  -2  -2   25.07    1.41
   6  -2  -2   26.66    1.31
   5  -2  -2    0.14    0.09
   5  -2  -2    0.15    0.09
   5  -2  -2    0.00    0.07
   5  -2  -2    0.03    0.06
   5  -2  -2    0.06    0.06
   4  -2  -2   36.07    1.72
   4  -2  -2   35.58    1.61
   4  -2  -2   33.66    1.76
   4  -2  -2   36.04    1.48
   4  -2  -2   38.80    1.87
   3  -2  -2  223.92   11.12
   2  -2  -2  566.44   28.74
   2  -2  -2  596.15   26.51
   1  -2  -2   90.59    3.28
   1  -2  -2   89.66    4.16
  -1   2   2   92.68    3.28
  -1   2   2   89.14    4.15
   0  -2  -2   27.78    0.99
   0  -2  -2   25.67    1.25
   0   2   2   25.89    1.25
   0   2   2   28.25    1.00
  -1  -2  -2  380.79   13.51
  -1  -2  -2  375.03   17.08
   1   2   2  367.47   13.52
   2   2   2   98.43    4.22
   2   2   2   91.00    4.07
   2   2   2   87.93    3.95
   3   2   2   33.70    1.55
   3   2   2   33.32    1.69
   3   2   2   31.33    1.43
   3   2   2   30.07    1.59
   3   2   2   32.94    1.49
   4   2   2    1.58    0.21
   4   2   2    1.08    0.15
   4   2   2    1.26    0.15
   4   2   2    1.06    0.14
   4   2   2    1.04    0.19
   5   2   2    1.81    0.18
   5   2   2    2.29    0.24
   7  -3  -2    0.97    0.12
   7  -3  -2    0.63    0.12
   6  -3  -2  153.15    6.88
   6  -3  -2  156.16    6.41
   6  -3  -2  149.43    5.95
   6  -3  -2  141.04    7.51
   5  -3  -2   16.60    0.86
   5  -3  -2   16.13    0.93
   5  -3  -2   16.07    0.80
   5  -3  -2   16.74    0.73
   4  -3  -2    1.84    0.18
   4  -3  -2    1.95    0.18
   4  -3  -2    2.07    0.15
   4  -3  -2    2.42    0.18
   3  -3  -2  740.81   36.64
   2  -3  -2  861.61   39.28
   1  -3  -2  127.53    5.94
   1  -3  -2  128.93    4.68
   1  -3  -2  123.32    6.43
  -1   3   2  127.86    5.93
  -1   3   2  133.66    4.70
   0  -3  -2   15.23    0.70
   0  -3  -2   14.89    0.56
   0   3   2   14.37    0.58
   0   3   2   14.49    0.71
  -2  -3  -2    1.85    0.16
   2   3   2    2.54    0.18
   2   3   2    1.90    0.17
   2   3   2    2.27    0.15
   3   3   2   36.69    1.69
   3   3   2   41.04    1.85
   3   3   2   35.46    1.89
   3   3   2   40.40    1.78
   3   3   2   39.71    2.01
   4   3   2   14.82    0.77
   4   3   2   14.62    0.72
   4   3   2   13.69    0.84
   4   3   2   14.37    0.78
   5   3   2    0.37    0.09
   5   3   2    0.71    0.14
   6  -4  -2    2.18    0.23
   6  -4  -2    1.74    0.17
   6  -4  -2    1.95    0.20
   5  -4  -2   20.97    1.05
   5  -4  -2   20.78    0.91
   5  -4  -2   21.41    1.14
   5  -4  -2   19.82    0.98
   4  -4  -2    0.74    0.10
   4  -4  -2    0.78    0.11
   4  -4  -2    0.70    0.11
   4  -4  -2    0.82    0.10
   3  -4  -2  184.26    7.51
   3  -4  -2  186.09    7.39
   3  -4  -2  183.47    7.26
   3  -4  -2  182.23    7.94
   3  -4  -2  198.48    9.30
   2  -4  -2   10.66    0.54
   2  -4  -2   10.87    0.57
  -2   4   2    9.65    0.51
   1  -4  -2    9.66    0.38
   1  -4  -2   10.85    0.52
   1  -4  -2    9.44    0.49
  -1   4   2    9.21    0.39
  -1   4   2    9.36    0.47
   0  -4  -2  184.24    6.53
   0  -4  -2  173.48    8.25
   0   4   2  183.24    6.55
  -1  -4  -2  615.51   26.35
   1   4   2  581.81   26.36
   1   4   2  563.96   25.51
  -2  -4  -2   43.43    2.14
   2   4   2   45.58    2.10
   2   4   2   49.32    2.17
   3   4   2   17.13    0.92
   3   4   2   17.91    0.96
   3   4   2   22.00    1.08
   4   4   2    3.45    0.25
   4   4   2    3.22    0.25
   4   4   2    2.86    0.30
   5   4   2    0.19    0.07
   6  -5  -2   45.29    2.11
   6  -5  -2   47.13    1.99
   6  -5  -2   44.12    1.83
   6  -5  -2   42.99    2.32
   5  -5  -2   11.06    0.52
   5  -5  -2   11.10    0.65
   5  -5  -2   10.22    0.58
   5  -5  -2   10.43    0.56
   4  -5  -2    0.89    0.15
   4  -5  -2    1.26    0.13
   4  -5  -2    0.94    0.11
   4  -5  -2    0.91    0.13
   3  -5  -2   59.90    2.87
   3  -5  -2   67.43    2.72
   3  -5  -2   67.99    2.63
   3  -5  -2   69.18    2.68
   3  -5  -2   63.63    3.27
   3  -5  -2   69.87    3.36
   2  -5  -2    0.18    0.06
   2  -5  -2    0.21    0.05
   2  -5  -2    0.16    0.04
   1  -5  -2   18.88    0.85
   1  -5  -2   21.20    0.84
   1  -5  -2   20.28    0.96
   1  -5  -2   20.40    0.85
   0  -5  -2   40.37    1.79
   0  -5  -2   36.67    1.54
  -1  -5  -2   28.58    1.21
  -1  -5  -2   31.38    1.42
   1   5   2   29.38    1.40
   1   5   2   30.73    1.43
  -2  -5  -2   22.95    1.12
   2   5   2   23.23    1.14
   2   5   2   22.76    1.11
   3   5   2    1.89    0.20
   3   5   2    1.77    0.22
   3   5   2    2.37    0.21
   4   5   2    1.42    0.21
   4   5   2    1.84    0.19
   4   5   2    1.35    0.16
   6  -6  -2    9.47    0.48
   6  -6  -2    9.34    0.44
   5  -6  -2   22.34    1.18
   5  -6  -2   21.41    0.95
   5  -6  -2   20.28    1.01
   5  -6  -2   22.51    0.94
   4  -6  -2   19.75    0.84
   4  -6  -2   19.04    0.83
   4  -6  -2   17.50    0.90
   3  -6  -2   24.61    1.04
   3  -6  -2   24.79    1.07
   3  -6  -2   25.12    1.07
   3  -6  -2   23.86    1.27
   3  -6  -2   26.09    1.32
   2  -6  -2   30.42    1.26
   2  -6  -2   27.85    1.51
   2  -6  -2   28.67    1.41
   2  -6  -2   30.91    1.27
   2  -6  -2   30.14    1.50
   2  -6  -2   32.04    1.56
   2  -6  -2   30.77    1.24
   1  -6  -2  212.83   10.38
   1  -6  -2  208.48    8.79
   1  -6  -2  226.58    9.89
   1  -6  -2  217.92    8.66
   1  -6  -2  230.26    8.52
   0  -6  -2   39.32    1.74
   0  -6  -2   35.53    1.49
   0  -6  -2   36.01    1.51
  -1  -6  -2   13.89    0.68
  -1  -6  -2   12.77    0.57
   1   6   2   12.40    0.67
   1   6   2   13.21    0.68
  -2  -6  -2    3.88    0.27
   2   6   2    3.99    0.30
   2   6   2    4.15    0.29
   3   6   2    4.82    0.37
   3   6   2    4.52    0.32
   3   6   2    5.15    0.33
   4   6   2    1.00    0.16
   4   6   2    0.81    0.14
   4   6   2    0.85    0.11
   6  -7  -2    2.27    0.16
   5  -7  -2   25.10    1.11
   5  -7  -2   26.78    1.10
   5  -7  -2   25.19    1.37
   4  -7  -2    7.09    0.38
   4  -7  -2    7.55    0.40
   3  -7  -2    5.91    0.38
   3  -7  -2    6.28    0.33
   3  -7  -2    6.13    0.33
   3  -7  -2    6.21    0.39
   3  -7  -2    5.94    0.34
   2  -7  -2   52.75    2.11
   2  -7  -2   51.85    2.07
   2  -7  -2   49.13    2.37
   2  -7  -2   50.68    2.50
   2  -7  -2   52.20    2.12
   1  -7  -2    7.13    0.39
   1  -7  -2    6.65    0.33
   1  -7  -2    6.38    0.40
   1  -7  -2    6.92    0.35
   1  -7  -2    6.96    0.34
   0  -7  -2   30.83    1.26
   0  -7  -2   29.78    1.28
   0  -7  -2   31.36    1.47
  -1  -7  -2   10.05    0.52
  -1  -7  -2    9.80    0.45
  -1  -7  -2    9.02    0.44
   1   7   2    8.72    0.52
  -2  -7  -2    0.26    0.07
  -2  -7  -2    0.17    0.07
   2   7   2    0.47    0.11
   3   7   2    0.27    0.11
   3   7   2    0.23    0.09
   3   7   2    0.21    0.08
   5  -8  -2    0.04    0.08
   5  -8  -2   -0.02    0.06
   4  -8  -2    1.21    0.12
   4  -8  -2    0.68    0.12
   3  -8  -2   26.60    1.15
   3  -8  -2   26.21    1.12
   2  -8  -2   12.07    0.57
   2  -8  -2   12.57    0.55
   2  -8  -2   11.28    0.55
   2  -8  -2   11.92    0.62
   1  -8  -2  279.91   12.85
   1  -8  -2  279.08   11.43
   1  -8  -2  296.67   11.27
   1  -8  -2  284.49   11.07
   0  -8  -2   25.53    1.31
   0  -8  -2   29.08    1.16
   0  -8  -2   26.98    1.13
  -1  -8  -2    0.30    0.07
  -1  -8  -2    0.31    0.08
  -1  -8  -2    0.36    0.09
  -2  -8  -2   14.46    0.63
   2   8   2   13.82    0.72
   5  -9  -2    1.70    0.15
   5  -9  -2    1.77    0.14
   4  -9  -2   25.23    1.12
   4  -9  -2   26.16    1.10
   3  -9  -2    0.24    0.08
   3  -9  -2    0.25    0.08
   3  -9  -2    0.22    0.07
   2  -9  -2  134.21    5.42
   2  -9  -2  135.00    5.38
   2  -9  -2  133.76    5.28
   2  -9  -2  134.13    6.10
   1  -9  -2   63.96    2.55
   1  -9  -2   63.93    2.60
   1  -9  -2   63.57    2.96
   0  -9  -2   95.61    3.82
   0  -9  -2   93.43    3.75
   0  -9  -2   96.55    4.36
  -1  -9  -2   10.61    0.49
  -1  -9  -2   10.11    0.55
   2   9   2    6.95    0.43
   5 -10  -2    4.33    0.22
   4 -10  -2    1.11    0.11
   4 -10  -2    1.15    0.13
   3 -10  -2    0.06    0.06
   3 -10  -2    0.01    0.06
   3 -10  -2    0.05    0.05
   2 -10  -2   16.78    0.69
   2 -10  -2   15.01    0.68
   2 -10  -2   15.39    0.71
   2 -10  -2   14.74    0.77
   1 -10  -2   15.38    0.67
   1 -10  -2   14.76    0.76
   1 -10  -2   14.89    0.68
   0 -10  -2    4.42    0.24
   0 -10  -2    4.52    0.26
   0 -10  -2    4.39    0.29
  -1 -10  -2    0.23    0.07
  -1 -10  -2    0.26    0.07
   3 -11  -2    6.43    0.31
   3 -11  -2    6.45    0.33
   2 -11  -2    1.35    0.13
   2 -11  -2    1.08    0.11
   2 -11  -2    1.13    0.11
   1 -11  -2    1.14    0.11
   1 -11  -2    1.05    0.11
   1 -11  -2    1.23    0.12
   0 -12   3    0.49    0.09
   0 -12   3    0.44    0.08
   0 -12   3    0.67    0.10
   0 -12   3    0.73    0.12
   1 -12   3    1.10    0.15
   1 -12   3    0.98    0.12
   1 -12   3    1.04    0.11
   1 -12   3    0.98    0.12
   2 -12   3   31.82    1.48
   2 -12   3   29.16    1.21
   2 -12   3   27.28    1.38
   3 -12   3    0.01    0.04
  -2 -11   3    0.02    0.05
  -2 -11   3   -0.01    0.06
  -1 -11   3   17.73    0.77
  -1 -11   3   17.89    0.76
  -1 -11   3   17.33    0.88
   0 -11   3    1.04    0.12
   0 -11   3    1.09    0.14
   0 -11   3    1.19    0.17
   0 -11   3    1.20    0.13
   1 -11   3    2.37    0.20
   1 -11   3    2.48    0.23
   1 -11   3    2.11    0.18
   1 -11   3    2.68    0.19
   2 -11   3    3.57    0.26
   2 -11   3    4.18    0.25
   2 -11   3    4.00    0.24
   2 -11   3    4.42    0.31
   3 -11   3    0.14    0.09
   3 -11   3    0.18    0.09
   3 -11   3    0.06    0.06
   4 -11   3    6.17    0.37
   4 -11   3    5.87    0.31
  -3 -10   3    1.35    0.12
   2  10  -3    7.82    0.49
  -2 -10   3    7.99    0.45
  -2 -10   3    8.46    0.40
  -2 -10   3    8.62    0.41
  -1 -10   3    0.07    0.07
  -1 -10   3    0.05    0.08
  -1 -10   3    0.16    0.10
  -1 -10   3    0.12    0.07
   0 -10   3   16.86    0.83
   0 -10   3   20.58    1.03
   0 -10   3   19.40    0.99
   0 -10   3   20.49    0.86
   1 -10   3   31.84    1.53
   1 -10   3   30.54    1.59
   1 -10   3   30.58    1.32
   1 -10   3   32.59    1.32
   2 -10   3   15.37    0.71
   2 -10   3   14.98    0.82
   2 -10   3   15.05    0.78
   2 -10   3   13.93    0.82
   2 -10   3   16.07    0.69
   3 -10   3   29.24    1.51
   3 -10   3   30.07    1.54
   3 -10   3   29.59    1.29
   4 -10   3    0.11    0.07
   4 -10   3    0.21    0.10
   5 -10   3    0.00    0.07
   5 -10   3    0.07    0.05
   3   9  -3    1.63    0.18
   3   9  -3    2.01    0.23
  -3  -9   3    1.73    0.14
   2   9  -3   10.16    0.62
   2   9  -3   11.35    0.64
  -2  -9   3   11.39    0.60
  -2  -9   3   11.72    0.53
  -1  -9   3  103.34    4.44
  -1  -9   3  121.11    5.18
  -1  -9   3  114.09    5.41
   0  -9   3   19.82    0.89
   0  -9   3   20.80    1.08
   0  -9   3   20.31    1.05
   0  -9   3   21.18    0.89
   1  -9   3    0.17    0.08
   1  -9   3    0.30    0.08
   1  -9   3    0.28    0.07
   1  -9   3    0.44    0.10
   1  -9   3    0.26    0.09
   1  -9   3    0.24    0.07
   2  -9   3   78.56    3.09
   2  -9   3   78.44    3.86
   2  -9   3   79.24    3.25
   2  -9   3   77.54    3.21
   2  -9   3   75.88    3.58
   2  -9   3   76.76    3.77
   3  -9   3   26.30    1.54
   3  -9   3   29.31    1.52
   3  -9   3   33.83    1.32
   4  -9   3   32.81    1.43
   4  -9   3   33.12    1.71
   5  -9   3   28.61    1.49
   5  -9   3   28.99    1.24
   4   8  -3    0.22    0.09
   4   8  -3    0.21    0.10
   3   8  -3    1.78    0.20
   3   8  -3    1.89    0.24
   3   8  -3    1.77    0.23
   3   8  -3    1.61    0.21
  -3  -8   3    1.82    0.16
   2   8  -3    0.22    0.11
   2   8  -3    0.26    0.12
   2   8  -3    0.12    0.09
  -2  -8   3    0.13    0.07
  -2  -8   3    0.18    0.08
   1   8  -3    1.01    0.17
  -1  -8   3    1.29    0.16
  -1  -8   3    0.96    0.14
  -1  -8   3    0.68    0.10
   0   8  -3  326.39   16.95
   0  -8   3  377.64   13.99
   0  -8   3  347.75   14.57
   0  -8   3  361.12   17.06
   0  -8   3  390.91   16.27
  -1   8  -3    1.41    0.16
   1  -8   3    0.94    0.12
   1  -8   3    1.02    0.11
   1  -8   3    0.98    0.13
   1  -8   3    0.88    0.12
   1  -8   3    0.93    0.10
  -2   8  -3   96.41    4.87
   2  -8   3  105.54    5.07
   2  -8   3  103.04    4.05
   2  -8   3  101.63    4.70
   2  -8   3  103.67    4.94
   2  -8   3  104.97    4.25
   2  -8   3  104.11    4.21
   3  -8   3  260.93   10.31
   3  -8   3  243.73   11.49
   3  -8   3  254.18   10.23
   3  -8   3  251.17   12.03
   3  -8   3  257.41   12.38
   4  -8   3   26.91    1.17
   4  -8   3   23.97    1.38
   4  -8   3   27.66    1.27
   5  -8   3    1.69    0.15
   5  -8   3    1.67    0.20
   5  -8   3    1.57    0.16
   4   7  -3    7.41    0.45
   4   7  -3    7.97    0.47
   4   7  -3    7.21    0.49
   4   7  -3    7.72    0.45
  -4  -7   3    6.84    0.35
   3   7  -3    4.55    0.34
   3   7  -3    4.54    0.36
   3   7  -3    4.31    0.33
  -3  -7   3    4.47    0.26
   2   7  -3   25.79    1.40
   2   7  -3   26.52    1.33
   2   7  -3   27.69    1.38
  -2  -7   3   29.24    1.36
  -2  -7   3   29.59    1.16
   1   7  -3   17.10    0.92
   1   7  -3   16.55    0.90
   1   7  -3   19.79    0.95
  -1  -7   3   19.72    0.93
  -1  -7   3   18.26    0.78
  -1  -7   3   17.77    0.95
   0   7  -3  110.99    5.50
   0  -7   3  109.51    5.68
   0  -7   3  116.19    5.30
   0  -7   3  128.02    4.76
   0  -7   3  119.48    4.55
   0  -7   3  112.71    5.55
   1  -7   3    0.42    0.09
   1  -7   3    0.66    0.10
   1  -7   3    0.40    0.09
   1  -7   3    0.60    0.08
   1  -7   3    0.43    0.09
   1  -7   3    0.32    0.08
   1  -7   3    0.52    0.07
   2  -7   3    3.46    0.24
   2  -7   3    3.66    0.26
   2  -7   3    3.61    0.24
   2  -7   3    3.76    0.27
   3  -7   3  444.61   20.24
   3  -7   3  466.51   21.76
   3  -7   3  445.63   22.17
   3  -7   3  420.56   21.13
   3  -7   3  458.88   17.97
   3  -7   3  449.20   18.09
   4  -7   3  358.17   17.66
   4  -7   3  387.23   14.59
   4  -7   3  324.76   17.96
   4  -7   3  384.76   16.42
   4  -7   3  357.15   14.66
   5  -7   3   11.95    0.71
   5  -7   3   11.90    0.59
   5  -7   3   12.69    0.65
   6  -7   3    7.07    0.44
   6  -7   3    7.54    0.39
   5   6  -3   -0.06    0.07
   5   6  -3    0.03    0.10
   5   6  -3    0.01    0.08
   4   6  -3    7.21    0.50
   4   6  -3    8.01    0.48
   4   6  -3    7.65    0.47
   4   6  -3    7.41    0.46
  -4  -6   3    7.59    0.37
   3   6  -3    4.86    0.35
   3   6  -3    4.00    0.35
   3   6  -3    4.87    0.34
  -3  -6   3    4.95    0.26
   2   6  -3    7.10    0.44
   2   6  -3    6.99    0.44
   2   6  -3    8.13    0.46
  -2  -6   3    7.23    0.35
  -2  -6   3    7.83    0.43
   1   6  -3   11.18    0.60
   1   6  -3   10.21    0.58
   1   6  -3   11.84    0.61
  -1  -6   3   12.09    0.61
  -1  -6   3   11.11    0.61
  -1  -6   3   11.35    0.49
   0  -6   3  105.43    4.70
   0  -6   3  100.05    4.92
   0  -6   3  103.84    4.03
   1  -6   3   69.54    3.54
   1  -6   3   75.20    2.98
   1  -6   3   71.23    3.46
   2  -6   3    9.42    0.47
   2  -6   3    8.37    0.50
   2  -6   3    8.91    0.53
   2  -6   3    9.47    0.46
   2  -6   3    9.39    0.51
   2  -6   3    9.38    0.46
   3  -6   3   41.14    1.81
   3  -6   3   43.95    1.81
   3  -6   3   42.79    2.17
   3  -6   3   43.05    2.17
   3  -6   3   41.79    2.00
   4  -6   3  117.78    5.91
   4  -6   3  120.78    4.89
   4  -6   3  119.80    5.48
   5  -6   3   10.35    0.55
   5  -6   3    9.24    0.49
   5  -6   3    9.92    0.61
   6  -6   3    1.42    0.18
   6  -6   3    1.53    0.14
   5   5  -3   26.07    1.30
   5   5  -3   26.88    1.23
   5   5  -3   29.17    1.36
   5   5  -3   23.65    1.41
   4   5  -3   11.18    0.65
   4   5  -3    8.91    0.57
   4   5  -3   11.15    0.62
   4   5  -3   10.31    0.58
   4   5  -3    9.43    0.59
  -4  -5   3   10.88    0.48
   3   5  -3   25.73    1.24
   3   5  -3   24.37    1.20
   3   5  -3   24.59    1.26
   3   5  -3   23.75    1.21
  -3  -5   3   24.81    1.02
   2   5  -3  180.88    8.74
   2   5  -3  188.15    8.12
   2   5  -3  205.26    8.40
  -2  -5   3  159.36    8.76
  -2  -5   3  191.50    8.38
  -2  -5   3  185.89    7.19
   0   5  -3    8.19    0.35
   0  -5   3    9.15    0.37
   1  -5   3   11.12    0.43
   2  -5   3   36.85    1.72
   2  -5   3   36.41    1.56
   2  -5   3   35.58    1.86
   2  -5   3   35.79    1.55
   2  -5   3   39.65    1.87
   3  -5   3    9.01    0.45
   3  -5   3    9.04    0.53
   3  -5   3    8.70    0.49
   3  -5   3    8.44    0.44
   3  -5   3    8.78    0.47
   4  -5   3   97.51    4.73
   4  -5   3   94.72    3.91
   4  -5   3   97.66    4.38
   4  -5   3   90.25    4.06
   5  -5   3   41.88    1.85
   5  -5   3   42.02    2.18
   5  -5   3   42.38    2.01
   6  -5   3    5.53    0.31
   6  -5   3    6.03    0.40
   6  -5   3    6.08    0.34
   6   4  -3   11.84    0.64
   5   4  -3    0.62    0.13
   5   4  -3    0.87    0.17
   5   4  -3    0.58    0.13
   5   4  -3    0.51    0.12
   5   4  -3    0.58    0.14
   4   4  -3   16.32    0.93
   4   4  -3   16.53    0.82
   4   4  -3   16.14    0.89
   4   4  -3   15.88    0.85
   4   4  -3   16.55    0.86
  -4  -4   3   15.77    0.70
   3   4  -3   28.85    1.38
   3   4  -3   29.12    1.50
   3   4  -3   28.15    1.38
   3   4  -3   27.81    1.33
   3   4  -3   28.00    1.42
  -3  -4   3   27.95    1.16
   2   4  -3  512.85   25.86
   2   4  -3  611.39   24.76
  -2  -4   3  528.75   21.29
   1   4  -3  990.13   35.84
  -1  -4   3 1000.00   35.85
   0   4  -3  113.18    4.23
   0  -4   3  119.91    4.24
   1  -4   3  185.96    6.81
   1  -4   3  197.92    6.82
   1  -4   3  181.78    9.34
  -2   4  -3  297.66   14.20
   2  -4   3  324.24   15.40
   3  -4   3   11.38    0.56
   3  -4   3   11.30    0.62
   3  -4   3    9.92    0.52
   3  -4   3   10.89    0.52
   3  -4   3   10.28    0.51
   4  -4   3   79.26    3.58
   4  -4   3   74.85    3.19
   4  -4   3   77.93    3.32
   4  -4   3   76.49    3.86
   5  -4   3   65.32    3.35
   5  -4   3   64.82    3.09
   5  -4   3   68.64    2.87
   6  -4   3    0.37    0.08
   6  -4   3    0.50    0.08
   6  -4   3    0.40    0.12
   6   3  -3    0.15    0.07
   6   3  -3    0.09    0.07
   6   3  -3    0.04    0.09
   5   3  -3   52.01    2.44
   5   3  -3   53.00    2.57
   5   3  -3   53.74    2.71
   5   3  -3   51.53    2.47
   5   3  -3   52.07    2.33
   5   3  -3   48.75    2.26
   4   3  -3   10.10    0.51
   4   3  -3    8.55    0.47
   4   3  -3    9.18    0.58
   4   3  -3    9.45    0.56
   4   3  -3    9.14    0.44
   4   3  -3    9.31    0.53
   4   3  -3    9.47    0.55
  -4  -3   3    9.57    0.43
   3   3  -3    2.91    0.20
   3   3  -3    2.28    0.19
   3   3  -3    2.21    0.15
   3   3  -3    2.12    0.20
  -3  -3   3    2.29    0.15
  -2  -3   3   35.35    1.66
   1   3  -3    6.70    0.29
  -1  -3   3    6.85    0.30
  -1  -3   3    7.40    0.34
   0   3  -3  425.20   15.78
   0  -3   3  446.32   15.78
   0  -3   3  442.62   15.79
  -1   3  -3   31.69    1.48
   1  -3   3   32.19    1.17
   1  -3   3   32.05    1.18
  -2   3  -3  404.90   17.65
   2  -3   3  368.71   19.13
   3  -3   3    5.28    0.29
   3  -3   3    5.42    0.32
   3  -3   3    6.23    0.32
   4  -3   3   70.31    3.18
   4  -3   3   67.13    2.94
   4  -3   3   66.85    3.43
   5  -3   3   17.66    0.84
   5  -3   3   17.95    0.91
   5  -3   3   17.87    1.01
   6  -3   3    0.17    0.06
   6  -3   3    0.02    0.09
   6  -3   3    0.08    0.05
   6   2  -3    0.21    0.08
   6   2  -3    0.14    0.09
   6   2  -3    0.07    0.10
   5   2  -3   11.19    0.73
   5   2  -3   13.69    0.78
   5   2  -3   12.94    0.69
   5   2  -3   13.49    0.72
   5   2  -3   12.85    0.64
   3   2  -3  183.66    7.36
   3   2  -3  177.62    8.81
   3   2  -3  188.32    8.43
   3   2  -3  189.06    9.28
   3   2  -3  197.04    8.50
   3   2  -3  183.60    8.15
   2   2  -3  722.80   25.91
  -2  -2   3  718.45   32.79
  -2  -2   3  716.91   25.92
   0   2  -3   13.07    0.59
   0  -2   3   11.98    0.48
   0  -2   3   13.03    0.59
   0  -2   3   12.12    0.47
  -1   2  -3  147.82    6.74
  -1   2  -3  147.56    5.33
   1  -2   3  150.64    5.33
   1  -2   3  144.19    5.33
   3  -2   3    2.07    0.18
   3  -2   3    1.42    0.12
   3  -2   3    1.73    0.14
   3  -2   3    1.81    0.14
   3  -2   3    1.57    0.15
   3  -2   3    1.88    0.14
   4  -2   3    0.80    0.12
   4  -2   3    0.73    0.11
   4  -2   3    0.84    0.16
   5  -2   3   55.76    2.86
   5  -2   3   56.27    2.44
   5  -2   3   55.89    2.63
   6  -2   3    6.53    0.36
   6  -2   3    6.74    0.44
   6   1  -3    4.88    0.30
   6   1  -3    4.80    0.36
   6   1  -3    4.78    0.34
   6   1  -3    4.84    0.37
   5   1  -3    2.26    0.18
   5   1  -3    2.37    0.24
   5   1  -3    2.20    0.24
   5   1  -3    2.16    0.21
   4   1  -3   11.53    0.66
   4   1  -3   10.50    0.63
   4   1  -3   11.34    0.57
   4   1  -3   10.90    0.59
   4   1  -3   11.81    0.58
   4   1  -3   12.35    0.64
   3   1  -3  115.39    5.76
   2   1  -3    6.22    0.31
  -2  -1   3    4.95    0.29
  -2  -1   3    5.11    0.23
   1   1  -3  212.79    9.87
  -1  -1   3  218.13    9.86
  -1  -1   3  217.60    7.80
  -1  -1   3  216.28    7.80
   3  -1   3   20.15    1.04
   3  -1   3   19.84    0.88
   3  -1   3   19.06    0.97
   3  -1   3   19.25    0.93
   3  -1   3   18.95    0.94
   3  -1   3   18.39    0.89
   4  -1   3   23.07    1.14
   4  -1   3   18.94    0.99
   4  -1   3   19.60    1.01
   4  -1   3   19.63    0.94
   5  -1   3   25.39    1.16
   5  -1   3   26.18    1.39
   5  -1   3   25.19    1.25
   6  -1   3   28.33    1.47
   6   0  -3   29.81    1.49
   6   0  -3   28.45    1.56
   6   0  -3   28.92    1.32
   6   0  -3   28.32    1.44
   6   0  -3   29.17    1.21
   5   0  -3   33.69    1.70
   5   0  -3   33.84    1.66
   5   0  -3   33.58    1.78
   5   0  -3   34.29    1.52
   5   0  -3   34.22    1.40
  -5   0   3   31.36    1.36
   4   0  -3    1.35    0.16
   4   0  -3    1.45    0.13
   4   0  -3    1.31    0.15
   4   0  -3    1.52    0.16
   4   0  -3    1.30    0.15
   3   0  -3  125.63    6.26
   2   0  -3   28.34    1.37
   2   0  -3   26.58    1.46
  -2   0   3   30.43    1.06
  -2   0   3   29.65    1.07
  -2   0   3   29.58    1.36
   1   0  -3  499.76   18.02
  -1   0  -3  673.70   24.26
   3   0   3  150.37    7.33
   3   0   3  148.78    7.06
   3   0   3  151.73    6.76
   3   0   3  149.00    6.34
   3   0   3  143.54    6.79
   3   0   3  151.47    6.53
   4   0   3   13.05    0.64
   4   0   3   13.46    0.78
   4   0   3   13.15    0.68
   4   0   3   12.00    0.63
   4   0   3   12.94    0.68
   5   0   3    0.11    0.06
   5   0   3    0.11    0.07
   5   0   3    0.06    0.06
   5   0   3    0.06    0.10
   7  -1  -3   33.08    1.57
   6  -1  -3  113.60    5.41
   6  -1  -3  115.10    5.92
   6  -1  -3  114.90    4.66
   6  -1  -3  121.68    5.03
   6  -1  -3  120.38    5.60
   5  -1  -3   36.43    1.99
   5  -1  -3   37.92    1.89
   5  -1  -3   38.59    1.85
   5  -1  -3   39.71    1.58
   5  -1  -3   36.96    1.71
   4  -1  -3   55.36    2.35
   4  -1  -3   53.53    2.52
   4  -1  -3   53.86    2.73
   4  -1  -3   53.24    2.17
   4  -1  -3   51.42    2.59
   3  -1  -3  123.06    6.14
   2  -1  -3   34.44    1.64
   2  -1  -3   33.85    1.75
  -2   1   3   35.78    1.62
  -1  -1  -3   42.79    1.81
  -1  -1  -3   37.00    1.43
   1   1   3   36.73    1.45
   2   1   3  160.87    7.20
   2   1   3  163.88    6.97
   2   1   3  172.99    7.45
   2   1   3  161.33    8.05
   3   1   3    9.33    0.54
   3   1   3    8.36    0.49
   3   1   3    8.83    0.48
   3   1   3    8.54    0.44
   3   1   3    8.67    0.46
   4   1   3    5.58    0.36
   4   1   3    5.73    0.33
   4   1   3    5.58    0.32
   4   1   3    5.63    0.42
   5   1   3    3.02    0.23
   5   1   3    3.65    0.30
   7  -2  -3    0.46    0.09
   7  -2  -3    0.40    0.08
   6  -2  -3   11.19    0.62
   6  -2  -3   10.82    0.51
   6  -2  -3   10.34    0.67
   6  -2  -3   10.46    0.56
   5  -2  -3   40.17    1.98
   5  -2  -3   42.12    1.67
   5  -2  -3   40.61    1.81
   5  -2  -3   37.25    2.10
   5  -2  -3   40.85    1.94
   2  -2  -3   39.89    2.04
   2  -2  -3   40.62    1.90
  -2   2   3   40.76    1.88
   1  -2  -3  112.65    5.28
   1  -2  -3  114.47    4.16
  -1   2   3  117.19    5.27
  -1   2   3  115.48    4.17
   2   2   3   24.10    1.13
   2   2   3   22.68    1.09
   2   2   3   23.51    1.04
   3   2   3   18.18    0.87
   3   2   3   16.92    0.97
   3   2   3   20.09    0.92
   3   2   3   19.23    0.96
   3   2   3   20.32    1.05
   4   2   3   11.63    0.57
   4   2   3   10.93    0.60
   4   2   3   10.20    0.67
   5   2   3    0.96    0.12
   5   2   3    1.19    0.19
   7  -3  -3   12.21    0.58
   6  -3  -3    1.15    0.19
   6  -3  -3    1.04    0.16
   5  -3  -3    0.33    0.10
   5  -3  -3    0.17    0.09
   5  -3  -3    0.38    0.10
   5  -3  -3    0.30    0.08
   4  -3  -3   11.83    0.54
   4  -3  -3   11.52    0.67
   4  -3  -3   11.51    0.61
   3  -3  -3  339.38   16.15
   3  -3  -3  305.90   13.04
   3  -3  -3  321.84   12.82
   3  -3  -3  335.39   13.78
   2  -3  -3    5.75    0.32
  -2   3   3    4.97    0.29
   1  -3  -3   75.58    2.74
   1  -3  -3   76.71    3.75
   1  -3  -3   73.09    3.48
  -1   3   3   78.31    2.75
  -1   3   3   72.51    3.46
   0  -3  -3  157.42    5.48
   0   3   3  150.02    5.49
   0   3   3  145.75    6.93
  -1  -3  -3  102.27    4.45
   1   3   3   92.21    4.31
   1   3   3   99.13    4.45
   2   3   3    3.11    0.22
   3   3   3   63.88    2.97
   3   3   3   63.27    3.22
   3   3   3   63.63    2.86
   4   3   3  152.97    7.33
   4   3   3  141.93    6.76
   4   3   3  150.68    6.52
   5   3   3    1.85    0.16
   5   3   3    2.16    0.20
   6  -4  -3   15.88    0.77
   6  -4  -3   15.85    0.90
   6  -4  -3   15.56    0.70
   6  -4  -3   15.31    0.80
   5  -4  -3   43.32    1.97
   5  -4  -3   48.43    2.29
   5  -4  -3   42.29    1.82
   5  -4  -3   41.65    2.09
   4  -4  -3   78.69    3.01
   4  -4  -3   74.77    3.23
   4  -4  -3   77.21    3.03
   4  -4  -3   66.16    3.75
   3  -4  -3  200.77    8.22
   3  -4  -3  198.84    8.70
   3  -4  -3  203.45    8.10
   3  -4  -3  215.95   10.19
   2  -4  -3    1.50    0.12
   2  -4  -3    1.38    0.11
   2  -4  -3    1.27    0.10
  -1   4   3    8.35    0.43
   0  -4  -3   83.10    3.59
   0  -4  -3   74.51    3.14
  -1  -4  -3   87.20    3.85
   1   4   3   79.77    3.74
   1   4   3   86.14    3.86
  -2  -4  -3    5.74    0.34
   2   4   3    5.84    0.36
   2   4   3    5.74    0.35
   3   4   3    0.23    0.09
   3   4   3    0.19    0.11
   3   4   3    0.22    0.09
   4   4   3   83.74    4.07
   4   4   3   76.04    3.75
   4   4   3   84.88    3.62
   6  -5  -3   15.14    0.67
   6  -5  -3   15.48    0.74
   6  -5  -3   14.63    0.85
   5  -5  -3    0.06    0.05
   5  -5  -3    0.11    0.08
   5  -5  -3    0.02    0.07
   4  -5  -3   35.61    1.47
   4  -5  -3   35.53    1.83
   4  -5  -3   36.20    1.48
   4  -5  -3   32.86    1.59
   3  -5  -3    8.64    0.47
   3  -5  -3    7.31    0.43
   3  -5  -3    7.76    0.39
   3  -5  -3    7.72    0.38
   2  -5  -3  376.95   14.84
   2  -5  -3  349.70   15.93
   2  -5  -3  381.86   16.94
   2  -5  -3  391.60   14.61
   2  -5  -3  385.60   18.68
   1  -5  -3   24.23    1.12
   1  -5  -3   23.08    0.98
   1  -5  -3   23.06    0.96
   1  -5  -3   23.56    0.98
   0  -5  -3    9.54    0.44
   0  -5  -3    9.98    0.52
   0  -5  -3   11.32    0.45
   0  -5  -3    9.13    0.44
  -1  -5  -3    5.72    0.38
   1   5   3    7.30    0.41
   1   5   3    7.94    0.41
  -2  -5  -3   20.83    1.08
   2   5   3   23.01    1.11
   2   5   3   22.93    1.08
   3   5   3    6.65    0.39
   3   5   3    6.19    0.44
   3   5   3    6.42    0.40
   4   5   3    3.83    0.26
   4   5   3    3.23    0.24
   4   5   3    3.69    0.29
   6  -6  -3    6.99    0.39
   6  -6  -3    7.16    0.36
   5  -6  -3  195.44    7.87
   5  -6  -3  185.80    8.33
   5  -6  -3  196.15    9.77
   5  -6  -3  205.15    7.77
   4  -6  -3    0.91    0.12
   4  -6  -3    0.95    0.13
   4  -6  -3    0.57    0.12
   4  -6  -3    0.99    0.11
   3  -6  -3    1.67    0.16
   3  -6  -3    1.51    0.14
   3  -6  -3    1.66    0.14
   2  -6  -3   10.03    0.52
   2  -6  -3   10.14    0.47
   2  -6  -3    9.72    0.47
   2  -6  -3   11.10    0.49
   1  -6  -3    2.12    0.14
   1  -6  -3    2.03    0.16
   1  -6  -3    2.15    0.15
   1  -6  -3    2.11    0.15
   0  -6  -3   36.40    1.53
   0  -6  -3   38.37    1.75
   0  -6  -3   36.66    1.50
  -1  -6  -3   29.27    1.28
  -1  -6  -3   32.54    1.48
   1   6   3   31.54    1.49
   1   6   3   29.98    1.44
  -2  -6  -3    1.54    0.16
  -2  -6  -3    1.53    0.13
   2   6   3    1.81    0.18
   2   6   3    1.90    0.20
   3   6   3   15.93    0.88
   3   6   3   17.91    0.96
   3   6   3   19.04    0.87
   6  -7  -3    3.02    0.19
   5  -7  -3   71.29    2.83
   5  -7  -3   65.82    3.51
   5  -7  -3   70.56    2.82
   4  -7  -3   65.50    2.69
   4  -7  -3   67.96    2.70
   4  -7  -3   63.73    3.34
   3  -7  -3   39.67    1.61
   3  -7  -3   38.68    1.65
   2  -7  -3   34.26    1.38
   2  -7  -3   32.84    1.40
   2  -7  -3   33.98    1.40
   2  -7  -3   32.00    1.57
   1  -7  -3    1.23    0.12
   1  -7  -3    1.64    0.15
   1  -7  -3    1.23    0.13
   1  -7  -3    1.16    0.14
   0  -7  -3    0.24    0.07
   0  -7  -3    0.13    0.06
  -1  -7  -3    6.76    0.35
  -1  -7  -3    6.97    0.40
   1   7   3    6.31    0.40
  -2  -7  -3    8.55    0.42
   2   7   3    9.34    0.50
   2   7   3    9.34    0.56
   2   7   3    8.41    0.49
   3   7   3    0.57    0.10
   3   7   3    0.64    0.12
   5  -8  -3   22.09    0.94
   5  -8  -3   21.94    0.96
   4  -8  -3   49.67    1.99
   4  -8  -3   46.09    1.99
   3  -8  -3    5.18    0.31
   3  -8  -3    4.99    0.29
   2  -8  -3   78.53    3.51
   2  -8  -3   82.76    3.05
   2  -8  -3   79.87    3.12
   2  -8  -3   64.86    3.09
   1  -8  -3  348.57   14.46
   1  -8  -3  361.93   16.26
   1  -8  -3  368.00   14.24
   1  -8  -3  365.69   14.01
   0  -8  -3    6.71    0.35
   0  -8  -3    6.73    0.40
   0  -8  -3    6.38    0.33
  -1  -8  -3    1.76    0.16
  -1  -8  -3    1.70    0.15
   2   8   3    0.69    0.12
   2   8   3    0.75    0.14
   5  -9  -3    4.08    0.22
   5  -9  -3    3.89    0.23
   4  -9  -3   16.50    0.77
   4  -9  -3   17.70    0.75
   3  -9  -3    4.26    0.24
   3  -9  -3    4.01    0.25
   3  -9  -3    4.24    0.27
   2  -9  -3   19.10    0.98
   2  -9  -3   20.50    0.89
   2  -9  -3   20.22    0.87
   2  -9  -3   20.42    0.87
   1  -9  -3   87.03    3.39
   1  -9  -3   83.60    3.45
   1  -9  -3   86.39    3.94
   0  -9  -3   41.20    1.65
   0  -9  -3   38.85    1.61
   0  -9  -3   39.65    1.88
  -1  -9  -3    1.99    0.16
  -1  -9  -3    2.10    0.15
   4 -10  -3    0.11    0.05
   4 -10  -3    0.14    0.06
   3 -10  -3    0.34    0.07
   3 -10  -3    0.13    0.06
   2 -10  -3    2.25    0.17
   2 -10  -3    2.60    0.16
   2 -10  -3    2.19    0.17
   2 -10  -3    2.28    0.18
   1 -10  -3   43.90    1.77
   1 -10  -3   43.69    1.73
   1 -10  -3   41.61    2.00
   0 -10  -3    0.26    0.07
   0 -10  -3    0.17    0.06
   2 -11  -3    1.37    0.12
  -1 -12   4    0.03    0.05
  -1 -12   4    0.05    0.05
   0 -12   4    0.13    0.06
   0 -12   4    0.11    0.06
   0 -12   4    0.29    0.09
   0 -12   4    0.08    0.07
   1 -12   4    8.72    0.48
   1 -12   4    7.73    0.38
   1 -12   4    7.71    0.44
   2 -12   4    9.56    0.50
   2 -12   4    7.76    0.44
   2 -12   4    7.66    0.39
   3 -12   4    0.88    0.11
  -2 -11   4    0.76    0.10
  -2 -11   4    0.41    0.09
  -2 -11   4    0.62    0.09
  -1 -11   4    0.18    0.11
  -1 -11   4    0.31    0.08
  -1 -11   4    0.09    0.07
  -1 -11   4    0.20    0.08
   0 -11   4    0.18    0.07
   0 -11   4    0.24    0.09
   0 -11   4    0.15    0.09
   0 -11   4    0.15    0.07
   1 -11   4    0.55    0.12
   1 -11   4    0.36    0.11
   1 -11   4    0.34    0.09
   2 -11   4    7.04    0.43
   2 -11   4    8.05    0.48
   2 -11   4    7.38    0.37
   2 -11   4    7.24    0.38
   3 -11   4   22.80    1.02
   3 -11   4   24.02    1.22
   3 -11   4   23.27    1.21
   4 -11   4    4.61    0.26
   4 -11   4    4.76    0.31
   3  10  -4    7.56    0.43
  -3 -10   4    7.10    0.34
   2  10  -4    0.06    0.11
  -2 -10   4    0.06    0.07
  -2 -10   4    0.10    0.07
  -1 -10   4    0.28    0.08
  -1 -10   4    0.48    0.09
  -1 -10   4    0.38    0.12
  -1 -10   4    0.22    0.11
   0 -10   4    7.28    0.46
   0 -10   4    7.46    0.39
   0 -10   4    8.05    0.48
   0 -10   4    7.71    0.39
   1 -10   4    0.68    0.13
   1 -10   4    0.69    0.14
   2 -10   4   39.43    1.69
   2 -10   4   41.76    2.01
   2 -10   4   38.31    1.88
   2 -10   4   38.56    1.98
   2 -10   4   41.25    1.72
   2 -10   4   38.10    1.61
   3 -10   4   40.30    2.04
   3 -10   4   40.40    1.74
   3 -10   4   41.87    2.08
   4 -10   4    0.84    0.13
   4 -10   4    0.95    0.16
   5 -10   4    6.39    0.33
   5 -10   4    6.50    0.39
   3   9  -4    3.89    0.31
   3   9  -4    3.38    0.26
   3   9  -4    3.46    0.30
   3   9  -4    3.24    0.31
  -3  -9   4    3.88    0.22
   2   9  -4    4.13    0.32
   2   9  -4    4.68    0.35
   2   9  -4    4.53    0.37
  -2  -9   4    4.82    0.27
  -2  -9   4    4.56    0.31
   1   9  -4    0.59    0.14
  -1  -9   4    0.27    0.08
  -1  -9   4    0.33    0.11
   0   9  -4   77.75    3.85
   0  -9   4   81.13    3.90
   0  -9   4   77.88    3.23
   0  -9   4   82.00    3.73
   0  -9   4   77.41    3.32
   0  -9   4   85.70    3.20
  -1   9  -4    2.23    0.23
   1  -9   4    2.65    0.21
   1  -9   4    2.53    0.23
   1  -9   4    2.76    0.19
   1  -9   4    2.48    0.20
   1  -9   4    2.69    0.22
  -2   9  -4   45.61    2.29
   2  -9   4   48.13    2.01
   2  -9   4   46.01    2.23
   2  -9   4   46.45    2.03
   2  -9   4   49.11    2.39
   2  -9   4   48.18    2.35
   3  -9   4  342.08   13.65
   3  -9   4  330.49   15.23
   3  -9   4  357.24   15.96
   3  -9   4  329.06   13.55
   3  -9   4  324.23   16.39
   4  -9   4    9.65    0.57
   4  -9   4    9.42    0.49
   4  -9   4    8.74    0.49
   5  -9   4    4.19    0.30
   5  -9   4    4.01    0.25
   5  -9   4    3.84    0.24
   4   8  -4    0.71    0.14
  -4  -8   4    0.62    0.09
   3   8  -4    0.39    0.13
   3   8  -4    0.48    0.13
   3   8  -4    0.42    0.13
   3   8  -4    0.16    0.14
  -3  -8   4    0.57    0.11
   2   8  -4    6.06    0.40
   2   8  -4    6.20    0.42
   2   8  -4    6.09    0.42
  -2  -8   4    6.16    0.39
   1   8  -4    7.46    0.46
  -1  -8   4    7.53    0.46
  -1  -8   4    7.50    0.38
  -1  -8   4    7.90    0.47
   0   8  -4    3.78    0.28
   0  -8   4    3.80    0.29
   0  -8   4    4.56    0.30
   0  -8   4    3.80    0.27
   0  -8   4    3.99    0.26
   0  -8   4    3.79    0.23
  -1   8  -4    1.75    0.18
   1  -8   4    1.78    0.18
   1  -8   4    2.00    0.17
   1  -8   4    1.71    0.16
   1  -8   4    1.80    0.14
   1  -8   4    1.76    0.18
   2  -8   4    0.32    0.07
   2  -8   4    0.41    0.10
   2  -8   4    0.20    0.09
   2  -8   4    0.21    0.08
   2  -8   4    0.20    0.08
   3  -8   4  184.59    7.52
   3  -8   4  176.97    8.37
   3  -8   4  181.86    8.76
   3  -8   4  192.82    9.03
   4  -8   4    0.08    0.07
   4  -8   4    0.33    0.12
   4  -8   4    0.14    0.07
   5  -8   4    0.73    0.10
   5  -8   4    0.79    0.15
   5  -8   4    0.56    0.10
   5   7  -4    1.34    0.14
   4   7  -4   19.43    1.02
   4   7  -4   20.08    0.99
   4   7  -4   21.11    1.05
   4   7  -4   18.47    1.10
  -4  -7   4   20.01    0.84
   3   7  -4    8.22    0.51
   3   7  -4    8.15    0.51
   3   7  -4    7.98    0.51
  -3  -7   4    8.40    0.41
   2   7  -4    3.06    0.27
   2   7  -4    3.10    0.25
   2   7  -4    2.97    0.25
  -2  -7   4    3.39    0.20
  -2  -7   4    2.81    0.24
  -2  -7   4    3.10    0.25
   1   7  -4    7.62    0.45
   1   7  -4    6.81    0.44
   1   7  -4    7.50    0.44
  -1  -7   4    7.66    0.36
  -1  -7   4    7.71    0.45
  -1  -7   4    7.38    0.45
   0   7  -4    1.96    0.17
   0  -7   4    1.83    0.17
   0  -7   4    1.43    0.16
   0  -7   4    1.72    0.15
   0  -7   4    1.56    0.15
   0  -7   4    1.64    0.13
  -1   7  -4   20.96    1.04
   1  -7   4   20.93    1.03
   1  -7   4   20.35    1.08
   1  -7   4   20.79    1.07
   1  -7   4   20.01    0.87
   1  -7   4   20.41    0.92
   1  -7   4   20.61    0.99
   1  -7   4   21.74    0.94
   2  -7   4  103.65    4.16
   2  -7   4  102.48    4.60
   2  -7   4   95.91    4.82
   2  -7   4  101.81    4.96
   2  -7   4   95.57    4.59
   2  -7   4  103.64    4.12
   3  -7   4   50.47    2.16
   3  -7   4   49.87    2.15
   3  -7   4   50.03    2.36
   3  -7   4   51.82    2.57
   5  -7   4    2.60    0.20
   5  -7   4    2.39    0.24
   5  -7   4    2.40    0.20
   5   6  -4    4.09    0.30
   5   6  -4    4.95    0.34
   5   6  -4    4.32    0.30
   4   6  -4   13.32    0.75
   4   6  -4   14.16    0.76
   4   6  -4   15.23    0.80
   4   6  -4   13.82    0.77
   4   6  -4   13.66    0.82
  -4  -6   4   14.25    0.63
   3   6  -4    4.54    0.34
   3   6  -4    4.13    0.34
   3   6  -4    4.62    0.33
  -3  -6   4    4.84    0.26
   2   6  -4   40.10    2.00
   2   6  -4   43.65    1.95
   2   6  -4   40.30    1.88
  -2  -6   4   40.81    1.93
  -2  -6   4   40.91    1.64
  -2  -6   4   38.47    2.00
   1   6  -4  163.94    7.16
   1   6  -4  156.55    7.44
  -1  -6   4  151.64    6.13
  -1  -6   4  163.79    7.16
  -1  -6   4  151.80    7.48
   0   6  -4  128.56    6.15
   0  -6   4  127.28    5.07
   0  -6   4  129.50    5.31
   0  -6   4  126.76    6.20
   0  -6   4  138.85    5.93
   1  -6   4   58.79    2.84
   1  -6   4   59.03    2.61
   1  -6   4   60.61    2.44
   1  -6   4   61.48    2.69
   1  -6   4   57.43    2.70
   1  -6   4   56.94    2.41
   1  -6   4   55.26    2.89
   2  -6   4    3.73    0.24
   2  -6   4    3.64    0.27
   2  -6   4    3.13    0.24
   2  -6   4    3.67    0.24
   2  -6   4    3.96    0.26
   2  -6   4    4.22    0.24
   3  -6   4   16.18    0.90
   3  -6   4   16.81    0.78
   3  -6   4   16.39    0.82
   3  -6   4   15.92    0.77
   4  -6   4   12.51    0.78
   4  -6   4   13.99    0.68
   4  -6   4   13.93    0.71
   5  -6   4   13.95    0.80
   5  -6   4   13.78    0.72
   6  -6   4    0.38    0.11
   6  -6   4    0.67    0.09
   5   5  -4    1.67    0.20
   5   5  -4    1.52    0.18
   5   5  -4    1.49    0.18
   5   5  -4    1.53    0.22
   5   5  -4    1.90    0.24
   4   5  -4   16.35    0.91
   4   5  -4   15.06    0.86
   4   5  -4   15.85    0.84
   4   5  -4   14.81    0.80
   4   5  -4   15.52    0.84
  -4  -5   4   16.24    0.69
   3   5  -4  188.08    8.71
   3   5  -4  194.74    9.04
   3   5  -4  191.51    8.38
   3   5  -4  193.61    8.67
  -3  -5   4  186.31    7.43
   2   5  -4   18.67    0.97
   2   5  -4   20.34    0.95
   2   5  -4   18.96    0.92
  -2  -5   4   19.49    0.94
  -2  -5   4   18.59    0.78
  -2  -5   4   17.32    0.95
   0   5  -4    0.17    0.04
   0  -5   4    0.22    0.05
   2  -5   4    6.03    0.35
   2  -5   4    5.21    0.29
   2  -5   4    4.80    0.29
   2  -5   4    4.88    0.29
   3  -5   4    8.50    0.52
   3  -5   4    8.35    0.44
   3  -5   4    8.79    0.46
   3  -5   4    8.05    0.44
   4  -5   4   59.46    2.54
   4  -5   4   58.72    2.48
   4  -5   4   58.35    2.75
   5  -5   4    0.79    0.10
   5  -5   4    1.06    0.13
   5  -5   4    0.84    0.17
   6  -5   4    9.33    0.55
   6  -5   4    9.45    0.49
   6   4  -4    0.35    0.08
   6   4  -4    0.39    0.12
   6   4  -4    0.27    0.08
   5   4  -4   11.29    0.62
   5   4  -4   11.83    0.66
   5   4  -4   11.95    0.66
   5   4  -4   12.46    0.70
   5   4  -4   12.13    0.73
  -5  -4   4   11.62    0.53
   4   4  -4    0.18    0.09
   4   4  -4    0.20    0.10
   4   4  -4    0.21    0.09
   4   4  -4    0.23    0.10
  -4  -4   4    0.16    0.06
   3   4  -4  243.54   10.82
   3   4  -4  234.74    9.38
   3   4  -4  234.34   10.40
   3   4  -4  219.11   11.22
   3   4  -4  242.02   10.76
   3   4  -4  252.23   11.84
  -3  -4   4  238.98    9.24
  -1  -4   4   56.03    1.98
  -1  -4   4   50.47    2.44
   0  -4   4  120.35    4.39
   0  -4   4  121.53    4.40
  -1   4  -4    6.54    0.29
   1  -4   4    5.53    0.25
   1  -4   4    5.37    0.24
   2  -4   4  316.42   14.17
   2  -4   4  299.36   15.23
   2  -4   4  323.91   12.58
   3  -4   4   37.22    1.87
   3  -4   4   37.25    1.56
   3  -4   4   34.90    1.59
   3  -4   4   36.49    1.72
   4  -4   4   11.54    0.57
   4  -4   4   11.97    0.63
   4  -4   4   11.65    0.70
   4  -4   4   11.72    0.59
   5  -4   4    0.08    0.06
   5  -4   4    0.14    0.10
   5  -4   4    0.09    0.07
   6  -4   4    1.67    0.14
   6  -4   4    1.74    0.20
   6   3  -4    0.76    0.13
   6   3  -4    0.63    0.11
   6   3  -4    0.74    0.15
   5   3  -4    5.60    0.37
   5   3  -4    5.91    0.43
   5   3  -4    6.68    0.41
   5   3  -4    6.23    0.38
   5   3  -4    7.09    0.44
   5   3  -4    6.98    0.47
  -5  -3   4    6.25    0.32
   4   3  -4   12.88    0.76
   4   3  -4   13.15    0.71
   4   3  -4   13.43    0.67
   4   3  -4   13.20    0.59
   4   3  -4   13.32    0.70
   4   3  -4   12.20    0.63
   4   3  -4   12.53    0.73
  -4  -3   4   12.88    0.57
   3   3  -4    7.47    0.36
   3   3  -4    7.96    0.44
   3   3  -4    7.84    0.45
   3   3  -4    7.32    0.42
   3   3  -4    8.14    0.45
   3   3  -4    8.11    0.47
  -3  -3   4    6.32    0.42
  -3  -3   4    8.04    0.36
  -2  -3   4  947.50   43.18
   1   3  -4    7.26    0.38
   1   3  -4    7.07    0.31
  -1  -3   4    8.65    0.37
  -1  -3   4    7.58    0.32
  -1  -3   4    7.33    0.31
   0  -3   4   25.93    0.94
   0  -3   4   25.21    0.95
   0  -3   4   25.08    1.18
  -1   3  -4  105.04    4.87
   1  -3   4  107.12    3.86
   1  -3   4  106.65    3.85
   2  -3   4  118.30    5.39
   3  -3   4    0.70    0.09
   3  -3   4    0.57    0.09
   3  -3   4    0.60    0.11
   3  -3   4    0.67    0.09
   4  -3   4   26.47    1.18
   4  -3   4   25.89    1.39
   4  -3   4   25.39    1.27
   5  -3   4   17.68    0.91
   5  -3   4   18.16    1.01
   5  -3   4   17.82    0.83
   6  -3   4    0.14    0.10
   6   2  -4    0.71    0.11
   6   2  -4    0.75    0.14
   6   2  -4    0.81    0.16
   5   2  -4    3.43    0.29
   5   2  -4    3.82    0.31
   5   2  -4    3.51    0.26
   5   2  -4    3.75    0.23
   5   2  -4    3.40    0.26
  -5  -2   4    3.64    0.22
   4   2  -4    3.26    0.24
   4   2  -4    3.51    0.26
   4   2  -4    3.64    0.28
   4   2  -4    3.84    0.28
   4   2  -4    3.42    0.24
   4   2  -4    3.51    0.22
   4   2  -4    4.02    0.29
  -4  -2   4    3.53    0.21
   3   2  -4  119.47    4.81
   3   2  -4  113.16    5.76
   3   2  -4  117.91    5.33
   3   2  -4  127.02    5.57
   3   2  -4  124.65    5.52
   3   2  -4  126.27    6.07
   1   2  -4   39.24    1.84
  -1  -2   4   39.58    1.46
  -1  -2   4   39.94    1.46
  -1  -2   4   39.56    1.83
   0   2  -4   12.63    0.60
   0  -2   4   12.86    0.60
   0  -2   4   12.04    0.48
   0  -2   4   12.78    0.48
  -1   2  -4   36.99    1.35
  -1   2  -4   36.33    1.70
   1  -2   4   36.41    1.35
   3  -2   4   40.84    1.71
   3  -2   4   39.62    1.75
   3  -2   4   39.22    1.83
   3  -2   4   38.20    1.82
   3  -2   4   40.11    2.00
   3  -2   4   35.72    1.65
   4  -2   4    0.34    0.09
   4  -2   4    0.58    0.09
   4  -2   4    0.16    0.09
   5  -2   4   18.33    0.83
   5  -2   4   18.00    1.00
   5  -2   4   16.92    0.89
   6   1  -4    2.75    0.28
   6   1  -4    2.59    0.25
   6   1  -4    2.98    0.23
   6   1  -4    2.71    0.28
   5   1  -4   19.60    1.08
   5   1  -4   17.47    1.00
   5   1  -4   20.49    1.05
   5   1  -4   19.29    0.91
   5   1  -4   19.26    0.84
  -5  -1   4   18.43    0.81
   4   1  -4   32.34    1.65
   4   1  -4   33.13    1.30
   4   1  -4   32.21    1.53
   4   1  -4   29.59    1.42
   4   1  -4   30.97    1.41
   4   1  -4   30.56    1.49
   4   1  -4   29.83    1.57
   3   1  -4   57.71    2.93
   3   1  -4   55.74    2.33
   3   1  -4   60.87    2.71
   2   1  -4   15.09    0.75
   2   1  -4   14.45    0.79
  -2  -1   4   15.24    0.59
  -2  -1   4   15.61    0.73
  -2  -1   4   15.40    0.58
   1   1  -4    3.65    0.21
  -1  -1   4    3.08    0.16
  -1  -1   4    3.41    0.19
  -1  -1   4    3.85    0.16
   0   1  -4  100.77    3.68
   0   1  -4  106.23    4.65
   0  -1   4   98.44    3.68
   0  -1   4  100.68    4.66
  -1   1  -4    8.97    0.44
   1  -1   4    8.72    0.36
   2  -1   4  441.48   19.59
   2  -1   4  420.54   21.18
   2  -1   4  449.50   18.38
   2  -1   4  433.71   18.95
   3  -1   4   32.94    1.56
   3  -1   4   33.34    1.63
   3  -1   4   37.69    1.63
   3  -1   4   33.17    1.78
   3  -1   4   35.74    1.53
   4  -1   4   21.28    0.99
   4  -1   4   17.85    1.09
   4  -1   4   20.15    0.92
   5  -1   4    1.16    0.13
   5  -1   4    1.32    0.21
   5  -1   4    1.23    0.13
   6   0  -4    4.01    0.24
   6   0  -4    3.83    0.33
   6   0  -4    3.81    0.29
   6   0  -4    3.59    0.32
   6   0  -4    3.36    0.30
   5   0  -4    7.01    0.45
   5   0  -4    6.47    0.44
   5   0  -4    6.57    0.45
   5   0  -4    6.72    0.35
   5   0  -4    6.89    0.41
   4   0  -4   54.85    2.47
   4   0  -4   52.59    2.30
   4   0  -4   53.02    2.11
   4   0  -4   47.00    2.52
   4   0  -4   52.93    2.67
   3   0  -4    2.85    0.17
   3   0  -4    3.01    0.21
   2   0  -4  128.25    6.80
   2   0  -4  135.20    6.30
  -2   0   4  135.18    4.95
  -2   0   4  144.18    4.96
  -2   0   4  141.46    6.28
   1   0  -4  650.88   23.45
   2   0   4   52.94    2.29
   2   0   4   52.57    2.36
   2   0   4   56.37    2.45
   2   0   4   50.80    2.65
   3   0   4    3.94    0.30
   3   0   4    3.72    0.25
   3   0   4    3.89    0.26
   3   0   4    4.48    0.26
   3   0   4    3.63    0.24
   4   0   4    0.58    0.11
   4   0   4    0.42    0.09
   4   0   4    0.86    0.13
   5   0   4    7.94    0.51
   5   0   4    7.83    0.44
   7  -1  -4   30.15    1.32
   7  -1  -4   29.21    1.42
   6  -1  -4   58.87    3.12
   6  -1  -4   60.42    2.88
   6  -1  -4   62.67    2.46
   6  -1  -4   59.94    2.94
   6  -1  -4   61.17    2.66
   5  -1  -4    6.08    0.38
   5  -1  -4    5.87    0.40
   5  -1  -4    5.91    0.41
   5  -1  -4    5.99    0.33
   5  -1  -4    6.12    0.41
   4  -1  -4  201.12    9.91
   4  -1  -4  202.84    7.87
   4  -1  -4  180.60    9.39
   4  -1  -4  203.86    9.08
   4  -1  -4  206.47    8.48
   3  -1  -4  358.34   17.75
   3  -1  -4  359.68   15.14
   3  -1  -4  356.59   14.09
   2  -1  -4   25.77    1.40
  -2   1   4   27.64    1.02
  -2   1   4   27.71    1.03
  -2   1   4   25.66    1.30
   1  -1  -4   48.13    2.28
   1  -1  -4   50.19    1.79
  -1   1   4   48.23    1.79
  -1   1   4   49.25    2.27
   0  -1  -4   61.87    2.81
   0  -1  -4   62.83    2.23
   0   1   4   57.47    2.81
   0   1   4   60.93    2.23
   2   1   4  471.72   21.57
   2   1   4  505.98   24.12
   2   1   4  512.03   22.32
   3   1   4  164.61    7.02
   3   1   4  170.83    7.50
   3   1   4  160.97    7.24
   3   1   4  164.20    8.12
   4   1   4    0.62    0.11
   4   1   4    0.44    0.10
   4   1   4    0.44    0.14
   5   1   4    6.34    0.38
   5   1   4    7.43    0.45
   7  -2  -4   13.15    0.63
   6  -2  -4    0.55    0.12
   6  -2  -4    0.39    0.11
   6  -2  -4    0.66    0.16
   5  -2  -4   79.42    3.98
   5  -2  -4   77.88    3.65
   5  -2  -4   78.62    3.16
   5  -2  -4   76.74    3.41
   4  -2  -4   34.66    1.55
   4  -2  -4   32.83    1.63
   4  -2  -4   34.39    1.42
   4  -2  -4   34.04    1.77
   3  -2  -4    0.64    0.11
   3  -2  -4    0.71    0.10
   3  -2  -4    0.74    0.09
   2  -2  -4  157.08    7.80
   1  -2  -4  386.71   14.10
  -1   2   4  384.65   17.84
  -1   2   4  401.72   14.11
   0  -2  -4  668.91   23.97
   0   2   4  661.05   23.98
  -1  -2  -4    7.35    0.38
   1   2   4    7.42    0.39
   1   2   4    6.74    0.38
   2   2   4    1.24    0.13
   2   2   4    1.22    0.13
   2   2   4    0.91    0.14
   3   2   4    9.71    0.54
   3   2   4    9.21    0.59
   3   2   4    9.48    0.51
   4   2   4   25.02    1.15
   4   2   4   25.56    1.32
   4   2   4   22.12    1.19
   5   2   4    0.16    0.08
   7  -3  -4    0.35    0.08
   6  -3  -4    7.64    0.49
   6  -3  -4    7.21    0.45
   6  -3  -4    7.37    0.38
   6  -3  -4    7.43    0.43
   5  -3  -4   32.22    1.68
   5  -3  -4   30.40    1.46
   5  -3  -4   31.69    1.54
   5  -3  -4   31.87    1.34
   4  -3  -4    6.90    0.36
   4  -3  -4    7.96    0.45
   4  -3  -4    7.81    0.39
   4  -3  -4    8.12    0.48
   3  -3  -4   59.33    2.93
   3  -3  -4   58.44    2.35
   3  -3  -4   56.79    2.54
   3  -3  -4   57.18    2.36
   2  -3  -4   42.79    1.64
   2  -3  -4   39.30    1.66
   2  -3  -4   39.87    2.06
   0  -3  -4    1.63    0.13
  -1  -3  -4   15.58    0.75
   1   3   4   15.94    0.76
   1   3   4   13.97    0.73
   2   3   4    0.32    0.08
   2   3   4    0.29    0.10
   3   3   4   17.33    0.94
   3   3   4   16.17    0.86
   3   3   4   15.93    0.82
   4   3   4   28.90    1.43
   4   3   4   29.43    1.56
   4   3   4   30.69    1.38
   6  -4  -4    7.68    0.42
   6  -4  -4    6.75    0.47
   6  -4  -4    7.30    0.38
   5  -4  -4    5.39    0.38
   5  -4  -4    5.56    0.36
   5  -4  -4    5.53    0.31
   4  -4  -4    0.18    0.08
   4  -4  -4    0.05    0.06
   4  -4  -4    0.05    0.05
   3  -4  -4  140.43    6.09
   3  -4  -4  142.97    5.66
   3  -4  -4  139.99    5.73
   3  -4  -4  145.68    7.10
   2  -4  -4   66.37    3.25
   2  -4  -4   63.95    2.63
   2  -4  -4   64.85    2.56
   2  -4  -4   67.27    2.96
   2  -4  -4   61.46    2.82
   2  -4  -4   64.57    2.61
   1  -4  -4  195.99    7.99
   1  -4  -4  209.52    8.98
   1  -4  -4  198.15    7.86
   1  -4  -4  192.75    7.73
   0  -4  -4   33.44    1.43
   0  -4  -4   31.60    1.40
   0  -4  -4   36.19    1.62
   0   4   4   36.84    1.62
   1   4   4    0.38    0.08
   1   4   4    0.33    0.08
   2   4   4    3.52    0.26
   2   4   4    3.45    0.25
   2   4   4    3.17    0.28
   3   4   4    2.80    0.23
   3   4   4    2.41    0.22
   3   4   4    2.35    0.25
   4   4   4   20.92    1.08
   4   4   4   20.89    0.94
   4   4   4   18.42    0.98
   6  -5  -4   53.70    2.11
   6  -5  -4   49.57    2.65
   6  -5  -4   51.85    2.28
   5  -5  -4    1.13    0.17
   5  -5  -4    1.43    0.15
   5  -5  -4    1.07    0.16
   5  -5  -4    0.80    0.11
   4  -5  -4   67.50    3.37
   4  -5  -4   67.73    2.71
   4  -5  -4   62.87    2.91
   4  -5  -4   66.34    2.70
   3  -5  -4   20.94    1.03
   3  -5  -4   22.49    0.93
   3  -5  -4   21.77    1.14
   3  -5  -4   21.01    0.94
   2  -5  -4  141.19    5.50
   2  -5  -4  143.32    7.01
   2  -5  -4  138.50    5.67
   2  -5  -4  136.64    6.02
   2  -5  -4  141.68    5.59
   2  -5  -4  142.31    6.37
   1  -5  -4    5.00    0.26
   1  -5  -4    5.28    0.30
   1  -5  -4    5.21    0.26
   1  -5  -4    5.16    0.27
   0  -5  -4    6.16    0.31
   0  -5  -4    6.55    0.37
  -1  -5  -4   16.06    0.79
  -1  -5  -4   14.93    0.67
   1   5   4   14.66    0.77
   1   5   4   16.26    0.80
   2   5   4    4.21    0.29
   2   5   4    4.23    0.30
   2   5   4    4.14    0.33
   3   5   4   24.67    1.14
   3   5   4   23.86    1.27
   3   5   4   23.17    1.17
   6  -6  -4    4.05    0.23
   6  -6  -4    3.52    0.25
   5  -6  -4   32.83    1.51
   5  -6  -4   33.47    1.41
   5  -6  -4   32.66    1.74
   5  -6  -4   33.63    1.39
   4  -6  -4    0.24    0.08
   4  -6  -4    0.14    0.06
   4  -6  -4    0.21    0.09
   3  -6  -4   54.16    2.18
   3  -6  -4   55.40    2.18
   3  -6  -4   54.29    2.13
   3  -6  -4   50.20    2.34
   3  -6  -4   49.90    2.68
   2  -6  -4  900.13   40.84
   2  -6  -4  876.60   36.37
   2  -6  -4  943.80   35.75
   2  -6  -4  921.22   35.17
   1  -6  -4   90.45    3.57
   1  -6  -4   86.88    3.67
   1  -6  -4   93.28    4.15
   1  -6  -4   91.89    3.63
   0  -6  -4    0.48    0.08
   0  -6  -4    0.54    0.10
  -1  -6  -4   28.90    1.24
  -1  -6  -4   30.73    1.43
   1   6   4   30.63    1.44
   1   6   4   28.77    1.40
   2   6   4    6.76    0.41
   2   6   4    7.05    0.46
   2   6   4    7.31    0.42
   3   6   4    0.90    0.15
   3   6   4    0.93    0.13
   3   6   4    0.89    0.12
   6  -7  -4    5.14    0.27
   5  -7  -4    8.77    0.53
   5  -7  -4    9.11    0.42
   5  -7  -4    9.17    0.45
   4  -7  -4    6.26    0.41
   4  -7  -4    6.72    0.34
   4  -7  -4    6.32    0.36
   3  -7  -4   44.17    1.80
   3  -7  -4   46.72    1.84
   3  -7  -4   41.25    1.83
   2  -7  -4   43.28    2.04
   2  -7  -4   44.60    1.82
   2  -7  -4   42.65    1.81
   2  -7  -4   44.17    1.78
   1  -7  -4  378.91   14.67
   1  -7  -4  347.76   14.90
   1  -7  -4  387.38   16.77
   1  -7  -4  374.69   14.43
   0  -7  -4   18.19    0.78
   0  -7  -4   17.28    0.89
  -1  -7  -4    0.08    0.06
  -1  -7  -4    0.04    0.06
   1   7   4    0.15    0.09
   2   7   4    0.18    0.09
   2   7   4    0.05    0.08
   5  -8  -4    0.46    0.07
   5  -8  -4    0.48    0.09
   4  -8  -4   11.80    0.54
   4  -8  -4   11.61    0.56
   3  -8  -4   48.00    2.03
   3  -8  -4   49.99    2.03
   2  -8  -4    3.20    0.22
   2  -8  -4    3.24    0.23
   2  -8  -4    3.22    0.22
   1  -8  -4    1.15    0.15
   1  -8  -4    1.65    0.15
   1  -8  -4    1.38    0.14
   0  -8  -4    9.95    0.54
   0  -8  -4    9.98    0.47
  -1  -8  -4    5.08    0.30
   5  -9  -4    1.00    0.10
   5  -9  -4    0.99    0.11
   4  -9  -4    2.34    0.16
   4  -9  -4    2.28    0.18
   3  -9  -4    5.27    0.28
   3  -9  -4    5.24    0.30
   2  -9  -4    0.84    0.10
   2  -9  -4    0.66    0.11
   2  -9  -4    0.76    0.11
   2  -9  -4    0.65    0.10
   1  -9  -4    5.89    0.35
   1  -9  -4    5.92    0.31
   1  -9  -4    5.74    0.30
   0  -9  -4   17.31    0.86
   0  -9  -4   17.43    0.75
   4 -10  -4    2.92    0.18
   4 -10  -4    2.88    0.17
   3 -10  -4    1.69    0.14
   3 -10  -4    1.77    0.13
   2 -10  -4   26.67    1.31
   2 -10  -4   29.23    1.17
   1 -10  -4    0.48    0.08
   1 -10  -4    0.60    0.09
  -1 -12   5    0.27    0.06
  -1 -12   5    0.16    0.06
   0 -12   5    0.10    0.06
   0 -12   5    0.07    0.08
   0 -12   5    0.01    0.06
   1 -12   5    0.02    0.06
   1 -12   5    0.16    0.08
   1 -12   5   -0.03    0.06
   2 -12   5    0.48    0.09
   2 -12   5    0.61    0.12
   3 -12   5    1.34    0.14
   3 -12   5    1.36    0.12
  -2 -11   5   15.23    0.78
  -2 -11   5   15.93    0.68
  -2 -11   5   16.59    0.69
  -1 -11   5    7.82    0.39
  -1 -11   5    8.23    0.48
  -1 -11   5    8.51    0.40
  -1 -11   5    7.68    0.45
   0 -11   5    0.57    0.12
   0 -11   5    0.57    0.13
   0 -11   5    0.50    0.10
   1 -11   5    0.13    0.07
   1 -11   5    0.07    0.08
   1 -11   5    0.06    0.07
   2 -11   5   25.19    1.12
   2 -11   5   26.43    1.33
   2 -11   5   24.41    1.25
   2 -11   5   26.76    1.33
   3 -11   5    0.21    0.09
   3 -11   5    0.19    0.09
   3 -11   5    0.14    0.07
   4 -11   5   11.85    0.64
   4 -11   5   11.95    0.55
   3  10  -5    0.13    0.10
  -3 -10   5    0.15    0.07
   2  10  -5    2.13    0.27
   2  10  -5    2.34    0.25
  -2 -10   5    2.14    0.19
  -2 -10   5    2.16    0.17
   1  10  -5  115.15    5.51
  -1 -10   5  121.45    5.31
  -1 -10   5  109.55    4.60
  -1 -10   5  120.16    5.55
  -1 -10   5  111.50    4.55
   0  10  -5    3.96    0.33
   0 -10   5    3.90    0.31
   0 -10   5    4.20    0.32
   0 -10   5    4.29    0.25
  -1  10  -5    5.73    0.38
   1 -10   5    6.31    0.40
   1 -10   5    5.70    0.40
   1 -10   5    5.75    0.38
   1 -10   5    6.07    0.36
   1 -10   5    5.99    0.32
  -2  10  -5   47.22    2.38
   2 -10   5   49.04    2.10
   2 -10   5   51.70    2.47
   2 -10   5   45.57    2.30
   2 -10   5   50.74    2.43
   2 -10   5   49.43    2.07
  -3  10  -5   30.21    1.51
   3 -10   5   30.50    1.33
   3 -10   5   31.43    1.57
   3 -10   5   29.61    1.54
   3 -10   5   29.88    1.34
  -4  10  -5    3.33    0.26
   4 -10   5    3.68    0.28
   4 -10   5    3.94    0.25
   4   9  -5    0.06    0.10
   3   9  -5    4.84    0.35
   3   9  -5    4.32    0.32
   3   9  -5    5.25    0.37
   3   9  -5    4.45    0.35
  -3  -9   5    4.94    0.27
   2   9  -5    9.36    0.56
   2   9  -5   10.06    0.58
   2   9  -5    8.56    0.54
  -2  -9   5    9.24    0.55
  -2  -9   5    9.49    0.46
  -2  -9   5    9.68    0.54
   1   9  -5    4.20    0.34
  -1  -9   5    4.55    0.26
  -1  -9   5    4.24    0.32
  -1  -9   5    4.33    0.33
   0   9  -5   38.00    1.96
   0  -9   5   40.09    1.93
   0  -9   5   39.70    1.71
   0  -9   5   41.01    1.63
   0  -9   5   40.42    2.00
  -1   9  -5    0.09    0.09
   1  -9   5    0.15    0.07
   1  -9   5    0.04    0.06
   1  -9   5    0.07    0.07
   1  -9   5    0.09    0.08
   1  -9   5    0.23    0.09
  -2   9  -5  148.21    7.06
   2  -9   5  148.63    7.14
   2  -9   5  147.77    6.79
   2  -9   5  152.84    7.31
   2  -9   5  147.42    6.07
   3  -9   5  356.31   16.62
   3  -9   5  339.82   13.84
   3  -9   5  337.79   15.45
   3  -9   5  334.02   13.74
   3  -9   5  338.04   16.16
   4  -9   5   36.88    1.78
   4  -9   5   38.57    1.64
   4  -9   5   38.30    1.94
   5  -9   5    4.59    0.28
   5  -9   5    5.07    0.33
   5  -9   5    5.07    0.28
   4   8  -5    4.30    0.31
   4   8  -5    3.48    0.28
   4   8  -5    3.57    0.32
  -4  -8   5    4.08    0.23
   3   8  -5   21.10    1.07
   3   8  -5   20.16    1.04
   3   8  -5   20.11    1.02
   3   8  -5   19.06    1.12
  -3  -8   5   20.56    0.87
   2   8  -5    0.79    0.15
   2   8  -5    0.74    0.16
   2   8  -5    0.77    0.17
  -2  -8   5    0.93    0.11
  -2  -8   5    1.02    0.18
   1   8  -5   40.00    2.00
  -1  -8   5   40.68    1.65
  -1  -8   5   39.73    2.01
  -1  -8   5   41.05    1.94
   0   8  -5    4.77    0.33
   0  -8   5    4.64    0.30
   0  -8   5    4.80    0.26
   0  -8   5    4.73    0.33
   0  -8   5    4.63    0.29
   0  -8   5    4.59    0.33
  -1   8  -5   42.17    2.05
   1  -8   5   42.27    2.00
   1  -8   5   40.66    1.69
   1  -8   5   43.71    1.81
   1  -8   5   42.04    1.78
   1  -8   5   41.94    2.09
   1  -8   5   40.65    2.11
   2  -8   5    0.11    0.08
   2  -8   5    0.41    0.10
   2  -8   5    0.03    0.06
   2  -8   5    0.23    0.08
   2  -8   5    0.15    0.07
   3  -8   5   37.26    1.73
   3  -8   5   39.66    1.88
   3  -8   5   41.90    1.76
   3  -8   5   40.96    2.06
   4  -8   5   16.37    0.89
   4  -8   5   15.18    0.80
   4  -8   5   14.94    0.75
   4  -8   5   16.79    0.77
   5  -8   5    0.09    0.05
   5  -8   5    0.20    0.09
   5  -8   5    0.09    0.06
   5   7  -5    0.52    0.12
   5   7  -5    0.33    0.09
   5   7  -5    0.34    0.09
   4   7  -5    3.45    0.30
   4   7  -5    2.93    0.32
   4   7  -5    2.88    0.25
   4   7  -5    3.30    0.28
  -4  -7   5    3.49    0.21
   3   7  -5    3.21    0.28
   3   7  -5    3.56    0.31
   3   7  -5    2.99    0.28
   3   7  -5    3.02    0.31
  -3  -7   5    3.16    0.21
   2   7  -5    1.31    0.18
  -2  -7   5    1.34    0.12
  -2  -7   5    1.12    0.16
  -2  -7   5    1.15    0.17
   1   7  -5    0.32    0.11
   1   7  -5    0.34    0.10
   1   7  -5    0.40    0.10
  -1  -7   5    0.57    0.11
  -1  -7   5    0.34    0.09
  -1  -7   5    0.30    0.07
   0   7  -5   27.95    1.41
   0  -7   5   27.64    1.44
   0  -7   5   28.56    1.24
   0  -7   5   30.41    1.40
   0  -7   5   29.00    1.17
   0  -7   5   27.15    1.44
  -1   7  -5    3.08    0.21
   1  -7   5    2.63    0.22
   1  -7   5    3.16    0.22
   1  -7   5    2.73    0.20
   1  -7   5    2.52    0.22
   2  -7   5   11.02    0.55
   2  -7   5   10.94    0.54
   2  -7   5   10.64    0.55
   2  -7   5   10.79    0.61
   2  -7   5    9.97    0.60
   2  -7   5   10.13    0.57
   4  -7   5   56.96    2.66
   4  -7   5   56.69    2.41
   4  -7   5   56.64    2.88
   5  -7   5    2.10    0.22
   5  -7   5    2.09    0.17
   5  -7   5    1.89    0.18
   5   6  -5    3.80    0.28
   5   6  -5    4.38    0.29
   5   6  -5    4.79    0.33
   5   6  -5    3.30    0.27
  -5  -6   5    4.04    0.22
   4   6  -5   17.76    0.94
   4   6  -5   18.83    0.98
   4   6  -5   17.67    1.02
   4   6  -5   17.00    0.91
   4   6  -5   17.44    0.95
  -4  -6   5   19.07    0.79
   3   6  -5  189.86    8.62
   3   6  -5  186.08    8.94
   3   6  -5  196.72    8.59
   3   6  -5  193.01    8.30
   3   6  -5  177.20    9.41
  -3  -6   5  187.68    7.35
   2   6  -5   69.92    3.00
   2   6  -5   63.99    2.88
   2   6  -5   62.40    3.09
  -2  -6   5   60.71    3.09
  -2  -6   5   61.69    2.53
  -2  -6   5   64.13    2.97
   1   6  -5    3.94    0.30
   1   6  -5    4.01    0.28
  -1  -6   5    3.63    0.27
  -1  -6   5    4.02    0.22
  -1  -6   5    4.81    0.30
   0   6  -5  103.48    4.79
   0  -6   5  104.75    4.62
   0  -6   5   99.31    4.83
   0  -6   5   96.25    3.94
   0  -6   5  101.06    4.14
   0  -6   5  100.43    4.46
   1  -6   5  194.96    9.59
   1  -6   5  200.46    8.15
   1  -6   5  204.94    9.14
   1  -6   5  205.98    8.84
   1  -6   5  209.68    9.17
   1  -6   5  209.98    8.22
   1  -6   5  188.86    9.85
   2  -6   5    1.11    0.15
   2  -6   5    1.68    0.15
   2  -6   5    1.34    0.14
   2  -6   5    1.51    0.13
   2  -6   5    1.16    0.13
   3  -6   5  148.01    5.94
   3  -6   5  145.44    7.16
   3  -6   5  145.94    6.64
   3  -6   5  142.37    5.97
   4  -6   5    7.12    0.48
   4  -6   5    7.11    0.42
   4  -6   5    6.90    0.41
   5  -6   5    0.48    0.13
   5  -6   5    0.45    0.09
   5   5  -5    0.85    0.14
   5   5  -5    0.87    0.16
   5   5  -5    0.96    0.15
   5   5  -5    0.87    0.16
  -5  -5   5    0.82    0.11
   4   5  -5    9.02    0.54
   4   5  -5    8.87    0.55
   4   5  -5    8.68    0.53
   4   5  -5    9.51    0.58
   4   5  -5    8.33    0.55
  -4  -5   5    9.27    0.44
   3   5  -5   25.61    1.27
   3   5  -5   26.77    1.37
   3   5  -5   25.74    1.23
   3   5  -5   25.71    1.32
   3   5  -5   27.16    1.28
  -3  -5   5   22.04    1.28
  -3  -5   5   25.53    1.06
   2   5  -5    4.01    0.28
   2   5  -5    4.13    0.29
   2   5  -5    3.78    0.28
  -2  -5   5    3.51    0.26
  -2  -5   5    3.45    0.25
  -2  -5   5    3.57    0.20
   1   5  -5   28.86    1.37
   1   5  -5   26.88    1.40
  -1  -5   5   27.61    1.37
  -1  -5   5   30.07    1.32
  -1  -5   5   31.87    1.15
  -1  -5   5   25.25    1.40
   0  -5   5  106.22    4.82
   0  -5   5  111.74    4.98
   1  -5   5  481.86   21.01
   1  -5   5  474.93   18.77
   1  -5   5  453.32   18.64
   1  -5   5  451.76   20.90
   1  -5   5  464.34   20.23
   2  -5   5  105.70    4.76
   2  -5   5  103.56    4.58
   2  -5   5   99.82    4.74
   2  -5   5  102.32    5.13
   2  -5   5  109.46    4.27
   2  -5   5  103.88    4.29
   3  -5   5  106.46    4.39
   3  -5   5   99.30    4.40
   3  -5   5  111.58    5.29
   3  -5   5  109.41    4.90
   4  -5   5   11.97    0.62
   4  -5   5   13.29    0.66
   4  -5   5   14.57    0.79
   4  -5   5   12.87    0.69
   5  -5   5    0.07    0.09
   5  -5   5    0.13    0.07
   6   4  -5   -0.02    0.07
   6   4  -5    0.21    0.11
   6   4  -5   -0.08    0.06
   5   4  -5   27.48    1.37
   5   4  -5   26.68    1.38
   5   4  -5   27.57    1.30
   5   4  -5   28.33    1.44
   5   4  -5   28.10    1.50
  -5  -4   5   27.65    1.14
   4   4  -5   12.02    0.68
   4   4  -5   11.56    0.69
   4   4  -5   12.11    0.68
   4   4  -5   12.24    0.65
   4   4  -5   12.51    0.72
  -4  -4   5   11.81    0.55
   3   4  -5   10.49    0.57
   3   4  -5    9.82    0.58
   3   4  -5   10.03    0.57
   3   4  -5   10.81    0.55
   3   4  -5   10.54    0.59
   3   4  -5   10.53    0.47
  -3  -4   5    9.85    0.46
  -3  -4   5    8.41    0.54
   2   4  -5  230.73    9.49
   2   4  -5  240.22   11.36
   2   4  -5  267.21   10.89
  -2  -4   5  224.56   11.39
  -2  -4   5  242.23    9.34
   0  -4   5    0.52    0.07
   2  -4   5    2.41    0.18
   2  -4   5    2.62    0.21
   2  -4   5    2.86    0.18
   2  -4   5    2.46    0.17
   2  -4   5    2.53    0.18
   2  -4   5    2.47    0.19
   3  -4   5   21.13    1.05
   3  -4   5   22.95    1.08
   3  -4   5   22.70    1.18
   3  -4   5   22.42    1.00
   3  -4   5   20.43    0.98
   4  -4   5   62.43    2.90
   4  -4   5   71.53    3.52
   4  -4   5   73.81    3.25
   4  -4   5   70.89    3.00
   5  -4   5   15.57    0.89
   5  -4   5   15.97    0.80
   6   3  -5    0.09    0.07
   6   3  -5    0.09    0.11
   6   3  -5    0.17    0.09
   5   3  -5    0.81    0.16
   5   3  -5    0.74    0.14
   5   3  -5    0.71    0.14
   5   3  -5    0.86    0.17
   5   3  -5    1.25    0.21
  -5  -3   5    0.72    0.11
   4   3  -5    3.79    0.29
   4   3  -5    3.84    0.27
   4   3  -5    3.96    0.30
   4   3  -5    3.85    0.30
   4   3  -5    3.80    0.30
   4   3  -5    3.85    0.23
  -4  -3   5    3.74    0.22
   3   3  -5    6.70    0.40
   3   3  -5    6.45    0.32
   3   3  -5    6.65    0.39
   3   3  -5    6.65    0.41
   3   3  -5    6.82    0.40
  -3  -3   5    6.88    0.32
  -3  -3   5    5.97    0.38
   2   3  -5   13.55    0.68
  -2  -3   5   11.58    0.61
  -2  -3   5   12.45    0.50
   1   3  -5    4.96    0.28
  -1  -3   5    5.18    0.26
   0   3  -5  104.59    4.86
   0  -3   5  106.98    3.85
   0  -3   5  106.50    4.87
   0  -3   5  106.25    3.86
  -1   3  -5    3.52    0.20
   2  -3   5    3.20    0.20
   2  -3   5    3.19    0.21
   2  -3   5    2.94    0.18
   2  -3   5    3.09    0.20
   2  -3   5    3.48    0.24
   2  -3   5    3.29    0.20
   2  -3   5    3.11    0.21
   3  -3   5   34.06    1.49
   3  -3   5   32.82    1.47
   3  -3   5   35.36    1.62
   3  -3   5   31.82    1.59
   3  -3   5   35.85    1.54
   3  -3   5   33.47    1.75
   4  -3   5   35.83    1.77
   4  -3   5   30.72    1.58
   4  -3   5   34.06    1.49
   4  -3   5   33.36    1.61
   5  -3   5   74.99    3.61
   5  -3   5   81.91    3.93
   6   2  -5    8.48    0.51
   6   2  -5    7.93    0.49
   6   2  -5    7.77    0.42
   6   2  -5    7.77    0.54
   5   2  -5    5.37    0.37
   5   2  -5    5.56    0.40
   5   2  -5    6.01    0.42
   5   2  -5    5.94    0.42
   5   2  -5    5.34    0.31
   5   2  -5    6.39    0.36
  -5  -2   5    5.86    0.31
   4   2  -5    5.42    0.34
   4   2  -5    5.86    0.35
   4   2  -5    5.67    0.30
   4   2  -5    5.50    0.38
   4   2  -5    5.77    0.38
   4   2  -5    5.92    0.39
   4   2  -5    5.78    0.37
  -4  -2   5    5.54    0.29
   3   2  -5    4.30    0.32
   3   2  -5    5.59    0.33
   3   2  -5    4.95    0.26
   3   2  -5    5.29    0.31
   3   2  -5    5.01    0.33
   3   2  -5    4.44    0.31
  -3  -2   5    5.96    0.32
   2   2  -5   12.09    0.67
  -2  -2   5   12.13    0.50
  -2  -2   5   13.42    0.62
   1   2  -5  308.76   14.23
  -1  -2   5  321.54   11.25
  -1  -2   5  311.02   11.24
  -1  -2   5  304.66   14.21
   0   2  -5   59.54    2.15
   0   2  -5   58.11    2.70
   0  -2   5   58.55    2.71
   0  -2   5   58.44    2.14
   0  -2   5   57.91    2.15
   2  -2   5   26.74    1.22
   2  -2   5   26.37    1.45
   2  -2   5   29.40    1.25
   2  -2   5   29.25    1.30
   2  -2   5   28.49    1.34
   2  -2   5   30.11    1.34
   4  -2   5    5.21    0.31
   4  -2   5    5.17    0.32
   4  -2   5    5.10    0.38
   4  -2   5    5.16    0.32
   5  -2   5    6.35    0.39
   5  -2   5    8.19    0.49
   6   1  -5    8.80    0.55
   6   1  -5    9.48    0.56
   6   1  -5    9.88    0.45
   6   1  -5    9.42    0.49
   6   1  -5    9.02    0.58
  -6  -1   5    8.70    0.42
   5   1  -5   27.82    1.41
   5   1  -5   29.39    1.34
   5   1  -5   30.34    1.49
   5   1  -5   26.65    1.22
   5   1  -5   29.62    1.55
   5   1  -5   28.36    1.46
  -5  -1   5   30.00    1.20
   4   1  -5   37.58    1.49
   4   1  -5   36.12    1.63
   4   1  -5   36.28    1.80
   4   1  -5   37.32    1.88
   4   1  -5   34.55    1.64
   4   1  -5   36.21    1.72
  -4  -1   5   34.67    1.78
   3   1  -5   33.20    1.51
   3   1  -5   33.18    1.38
   3   1  -5   31.54    1.58
   3   1  -5   34.10    1.73
   3   1  -5   36.80    1.63
   2   1  -5  263.12   12.78
  -2  -1   5  252.81    9.32
   1   1  -5  418.46   19.67
  -1  -1   5  456.46   15.54
  -1  -1   5  427.56   15.54
  -1  -1   5  421.24   19.65
   0   1  -5    7.89    0.40
   0   1  -5    7.74    0.33
   0  -1   5    8.45    0.41
   0  -1   5    8.06    0.33
   2  -1   5   11.02    0.54
   2  -1   5    9.91    0.61
   2  -1   5   11.79    0.56
   2  -1   5   10.62    0.55
   3  -1   5   49.63    2.30
   3  -1   5   49.88    2.22
   3  -1   5   49.99    2.51
   3  -1   5   46.43    2.30
   3  -1   5   50.71    2.15
   4  -1   5   23.29    1.16
   4  -1   5   21.47    1.14
   4  -1   5   26.10    1.29
   4  -1   5   23.78    1.10
   5  -1   5    7.74    0.45
   5  -1   5    5.69    0.36
   6   0  -5    6.04    0.41
   6   0  -5    5.85    0.37
   6   0  -5    7.00    0.33
   6   0  -5    5.70    0.40
  -6   0   5    5.58    0.30
   5   0  -5   17.11    0.92
   5   0  -5   15.19    0.75
   5   0  -5   16.90    0.96
   5   0  -5   17.63    0.85
   5   0  -5   17.94    0.92
   4   0  -5  298.72   11.99
   4   0  -5  274.06   14.03
   4   0  -5  287.00   11.14
   4   0  -5  250.15   13.29
   4   0  -5  302.05   12.85
   3   0  -5  112.81    5.65
   3   0  -5  115.73    5.19
   3   0  -5  114.44    4.85
   3   0  -5  109.28    4.49
   2   0  -5   13.73    0.74
  -2   0   5   14.54    0.55
   1   0  -5  965.84   34.78
   0   0   5  175.10    6.34
   1   0   5  277.58   12.10
   1   0   5  259.87   11.70
   2   0   5  133.73    5.79
   2   0   5  136.05    5.99
   2   0   5  125.79    6.47
   3   0   5   10.02    0.57
   3   0   5   10.92    0.64
   3   0   5   10.34    0.54
   4   0   5    3.79    0.25
   4   0   5    3.82    0.33
   4   0   5    3.40    0.26
   5   0   5    0.82    0.15
   5   0   5    0.64    0.10
   6  -1  -5   25.53    1.28
   6  -1  -5   24.73    1.18
   6  -1  -5   24.47    1.37
   6  -1  -5   26.44    1.08
  -6   1   5   25.19    1.05
   5  -1  -5    1.38    0.18
   5  -1  -5    1.16    0.14
   5  -1  -5    1.35    0.19
   5  -1  -5    1.59    0.19
   4  -1  -5  259.30   10.81
   4  -1  -5  253.13   10.04
   4  -1  -5  248.77   12.63
   4  -1  -5  255.34   11.56
   3  -1  -5    0.14    0.07
   3  -1  -5    0.16    0.05
   3  -1  -5    0.08    0.05
   2  -1  -5  311.19   15.40
   1  -1  -5  223.59    7.90
  -1   1   5  213.11    7.89
  -1  -1  -5  314.56   14.19
   1   1   5  348.49   14.20
   1   1   5  290.24   15.33
   1   1   5  308.34   13.73
   2   1   5  284.35   14.35
   2   1   5  291.54   12.85
   2   1   5  308.18   13.29
   3   1   5  196.01    8.58
   3   1   5  192.16    8.88
   3   1   5  199.32    9.61
   4   1   5    4.85    0.36
   4   1   5    4.53    0.31
   4   1   5    4.89    0.31
   7  -2  -5    0.01    0.06
   6  -2  -5    3.95    0.30
   6  -2  -5    3.93    0.25
   6  -2  -5    4.09    0.32
   6  -2  -5    3.78    0.29
   5  -2  -5    4.46    0.34
   5  -2  -5    4.68    0.29
   5  -2  -5    5.70    0.37
   5  -2  -5    5.03    0.35
   4  -2  -5   23.30    0.99
   4  -2  -5   24.45    1.24
   4  -2  -5   20.91    1.13
   4  -2  -5   23.60    1.10
   3  -2  -5    0.48    0.09
   2  -2  -5   13.34    0.65
   2  -2  -5   13.64    0.70
   2  -2  -5   12.93    0.57
   1  -2  -5   47.50    1.79
  -1   2   5   39.89    1.63
   0  -2  -5  214.49    9.36
   0   2   5  198.87    9.36
   0   2   5  209.30    8.40
  -1  -2  -5   15.43    0.77
   1   2   5   15.63    0.76
   1   2   5   17.05    0.79
   1   2   5   14.61    0.84
   2   2   5   91.52    4.16
   2   2   5   93.20    4.66
   2   2   5   97.15    4.31
   3   2   5  293.12   13.49
   3   2   5  261.38   12.47
   3   2   5  273.54   12.06
   4   2   5   14.87    0.71
   4   2   5   14.61    0.81
   4   2   5   13.46    0.73
   6  -3  -5    4.74    0.32
   6  -3  -5    4.23    0.33
   6  -3  -5    5.15    0.27
   6  -3  -5    3.96    0.30
   5  -3  -5   24.97    1.33
   5  -3  -5   25.39    1.19
   5  -3  -5   23.79    1.07
   4  -3  -5   34.91    1.62
   4  -3  -5   34.13    1.46
   4  -3  -5   35.12    1.83
   4  -3  -5   36.70    1.48
   3  -3  -5   71.38    2.88
   3  -3  -5   74.38    3.60
   3  -3  -5   70.12    2.90
   3  -3  -5   69.76    3.12
   2  -3  -5   17.77    0.96
   2  -3  -5   18.43    0.79
   2  -3  -5   18.77    0.78
   2  -3  -5   19.18    0.88
   2  -3  -5   17.99    0.88
   1  -3  -5   12.58    0.60
   1  -3  -5   13.42    0.60
   1  -3  -5   15.92    0.62
   1  -3  -5   14.57    0.70
  -1  -3  -5   10.30    0.53
   1   3   5    9.82    0.53
   2   3   5   26.37    1.32
   2   3   5   28.81    1.29
   2   3   5   26.14    1.44
   3   3   5    0.44    0.11
   3   3   5    0.19    0.09
   3   3   5    0.49    0.13
   4   3   5    0.32    0.09
   4   3   5    0.37    0.11
   4   3   5    0.37    0.09
   6  -4  -5   22.00    0.94
   6  -4  -5   20.58    1.17
   6  -4  -5   22.46    1.03
   5  -4  -5    4.31    0.32
   5  -4  -5    3.90    0.31
   5  -4  -5    3.94    0.25
   4  -4  -5    2.94    0.21
   4  -4  -5    2.85    0.19
   4  -4  -5    3.47    0.27
   3  -4  -5   92.37    4.13
   3  -4  -5   95.23    4.77
   3  -4  -5   95.80    3.85
   3  -4  -5   96.88    3.82
   2  -4  -5   39.92    1.65
   2  -4  -5   40.31    1.64
   2  -4  -5   39.81    1.61
   2  -4  -5   40.10    1.86
   2  -4  -5   40.76    2.03
   2  -4  -5   39.00    1.80
   1  -4  -5  131.52    5.25
   1  -4  -5  132.04    5.34
   1  -4  -5  137.30    5.42
   1  -4  -5  137.39    6.10
   0  -4  -5   12.36    0.61
   0   4   5   11.38    0.55
   0   4   5   11.16    0.60
  -1  -4  -5   14.61    0.75
   1   4   5   15.33    0.76
   1   4   5   14.24    0.74
   2   4   5   36.42    1.73
   2   4   5   37.04    1.94
   2   4   5   38.71    1.80
   3   4   5   16.20    0.87
   3   4   5   14.66    0.80
   3   4   5   15.90    0.78
   6  -5  -5    9.55    0.51
   6  -5  -5    9.40    0.45
   5  -5  -5   22.08    1.08
   5  -5  -5   22.31    0.95
   5  -5  -5   22.33    1.20
   5  -5  -5   22.33    0.98
   4  -5  -5   90.71    4.58
   4  -5  -5   92.34    3.69
   4  -5  -5   89.21    3.97
   3  -5  -5  122.31    5.95
   3  -5  -5  132.43    5.67
   3  -5  -5  129.43    6.56
   3  -5  -5  132.78    5.31
   3  -5  -5  140.34    5.25
   2  -5  -5  102.43    3.96
   2  -5  -5  100.31    3.89
   2  -5  -5   99.84    4.00
   2  -5  -5   95.45    4.50
   2  -5  -5   95.71    4.28
   1  -5  -5    3.28    0.22
   1  -5  -5    3.20    0.20
   1  -5  -5    3.41    0.19
   1  -5  -5    2.73    0.18
   1  -5  -5    2.59    0.24
   0  -5  -5    5.14    0.31
   0  -5  -5    4.82    0.26
  -1  -5  -5   13.19    0.70
   1   5   5   14.03    0.71
   1   5   5   13.60    0.70
   2   5   5    0.05    0.07
   2   5   5   -0.02    0.08
   2   5   5   -0.01    0.07
   3   5   5    1.41    0.17
   3   5   5    1.27    0.14
   3   5   5    1.00    0.17
   6  -6  -5   10.68    0.47
   6  -6  -5    9.13    0.50
   5  -6  -5    3.98    0.22
   5  -6  -5    3.77    0.28
   5  -6  -5    3.96    0.25
   5  -6  -5    3.70    0.29
   4  -6  -5    6.63    0.42
   4  -6  -5    6.96    0.35
   4  -6  -5    6.60    0.37
   3  -6  -5  214.23    9.21
   3  -6  -5  201.94    9.74
   3  -6  -5  216.49    8.68
   3  -6  -5  230.85    8.57
   2  -6  -5  196.52    7.86
   2  -6  -5  193.05    8.83
   2  -6  -5  196.39    7.75
   2  -6  -5  190.08    8.35
   2  -6  -5  200.57    7.62
   1  -6  -5    0.43    0.09
   1  -6  -5    0.48    0.08
   1  -6  -5    0.30    0.08
   0  -6  -5   13.64    0.63
   0  -6  -5   14.45    0.73
  -1  -6  -5    1.22    0.14
   1   6   5    1.12    0.17
   2   6   5   10.06    0.60
   2   6   5   12.45    0.67
   2   6   5   12.88    0.62
   6  -7  -5    0.10    0.05
   5  -7  -5   11.94    0.56
   5  -7  -5   12.16    0.54
   4  -7  -5   11.74    0.57
   4  -7  -5   11.66    0.54
   3  -7  -5    4.16    0.24
   3  -7  -5    3.97    0.26
   3  -7  -5    4.31    0.26
   2  -7  -5  226.79    8.89
   2  -7  -5  225.48    8.74
   2  -7  -5  221.35    9.01
   2  -7  -5  223.72   10.14
   1  -7  -5    5.12    0.29
   1  -7  -5    4.88    0.27
   1  -7  -5    5.14    0.32
   0  -7  -5    0.88    0.12
   0  -7  -5    1.04    0.12
  -1  -7  -5    4.46    0.28
   1   7   5    4.63    0.33
   5  -8  -5    0.75    0.11
   5  -8  -5    1.15    0.10
   4  -8  -5    1.04    0.13
   4  -8  -5    1.07    0.12
   3  -8  -5    6.50    0.33
   3  -8  -5    5.04    0.32
   2  -8  -5   31.71    1.31
   2  -8  -5   30.98    1.30
   2  -8  -5   30.41    1.47
   1  -8  -5    0.72    0.10
   1  -8  -5    0.60    0.10
   1  -8  -5    0.68    0.11
   0  -8  -5    1.66    0.14
   0  -8  -5    1.77    0.15
   4  -9  -5   13.57    0.61
   4  -9  -5   13.54    0.59
   3  -9  -5    1.36    0.15
   3  -9  -5    2.09    0.14
   3  -9  -5    1.78    0.15
   2  -9  -5   19.51    0.93
   2  -9  -5   20.08    0.83
  -2   9   5   17.66    0.84
   1  -9  -5   11.19    0.51
   1  -9  -5   11.52    0.58
   0  -9  -5    2.99    0.20
  -1 -12   6    0.26    0.06
  -1 -12   6    0.25    0.07
   0 -12   6    5.30    0.33
   0 -12   6    4.84    0.27
   0 -12   6    5.05    0.32
   1 -12   6   32.04    1.51
   1 -12   6   27.78    1.43
   2 -12   6    0.30    0.08
   2 -12   6    0.40    0.10
  -2 -11   6    0.28    0.08
  -2 -11   6    0.26    0.08
  -2 -11   6    0.54    0.09
   1  11  -6    4.93    0.36
  -1 -11   6    5.18    0.29
  -1 -11   6    5.13    0.33
  -1 -11   6    5.66    0.36
   0  11  -6    2.37    0.26
   0 -11   6    2.81    0.19
   0 -11   6    2.62    0.23
  -1  11  -6    7.55    0.47
   1 -11   6    7.86    0.48
   1 -11   6    7.78    0.42
   1 -11   6    7.86    0.47
  -2  11  -6  181.72    8.86
   2 -11   6  183.82    7.57
   2 -11   6  189.09    8.93
   2 -11   6  195.30    7.65
   2 -11   6  186.87    8.50
   2 -11   6  188.97    9.15
  -3  11  -6    3.00    0.27
   3 -11   6    3.93    0.24
   3 -11   6    3.38    0.28
   3 -11   6    3.77    0.25
   4 -11   6    4.65    0.26
   3  10  -6    0.41    0.12
   3  10  -6    0.41    0.12
  -3 -10   6    0.41    0.08
   2  10  -6    0.20    0.12
   2  10  -6    0.28    0.12
  -2 -10   6    0.22    0.08
  -2 -10   6    0.25    0.11
  -2 -10   6    0.34    0.09
   1  10  -6    4.40    0.33
  -1 -10   6    3.31    0.29
  -1 -10   6    4.07    0.31
  -1 -10   6    3.63    0.24
   0  10  -6    0.53    0.14
   0 -10   6    0.50    0.12
   0 -10   6    0.44    0.12
   0 -10   6    0.42    0.10
   0 -10   6    0.45    0.09
  -1  10  -6   37.44    1.86
   1 -10   6   37.32    1.89
   1 -10   6   36.95    1.63
   1 -10   6   38.47    1.90
   1 -10   6   36.51    1.80
  -2  10  -6   71.68    3.41
   2 -10   6   69.76    3.45
   2 -10   6   70.44    2.95
   2 -10   6   71.14    3.52
   2 -10   6   70.63    3.29
   2 -10   6   71.28    2.98
  -3  10  -6    5.36    0.36
   3 -10   6    5.31    0.37
   3 -10   6    5.42    0.34
   3 -10   6    6.09    0.35
  -4  10  -6    0.59    0.11
   4 -10   6    0.63    0.10
   4 -10   6    0.62    0.11
   4   9  -6    0.67    0.13
  -4  -9   6    0.68    0.10
   3   9  -6    0.30    0.10
   3   9  -6    0.65    0.15
   3   9  -6    0.48    0.13
   3   9  -6    0.38    0.12
  -3  -9   6    0.40    0.09
   2   9  -6    1.88    0.27
   2   9  -6    1.54    0.20
  -2  -9   6    1.61    0.19
  -2  -9   6    1.68    0.16
  -2  -9   6    1.83    0.21
   1   9  -6    7.37    0.49
  -1  -9   6    7.33    0.47
  -1  -9   6    7.72    0.49
  -1  -9   6    8.04    0.39
   0   9  -6   35.85    1.79
   0  -9   6   36.25    1.57
   0  -9   6   36.08    1.47
   0  -9   6   35.07    1.75
  -1   9  -6    5.44    0.37
   1  -9   6    6.32    0.40
   1  -9   6    5.52    0.38
   1  -9   6    5.29    0.33
   1  -9   6    5.84    0.36
   1  -9   6    5.41    0.36
  -2   9  -6   62.78    3.06
   2  -9   6   62.45    2.97
   2  -9   6   65.59    3.17
   2  -9   6   65.81    3.12
   2  -9   6   57.53    2.68
   2  -9   6   66.35    2.67
   3  -9   6   12.86    0.66
   3  -9   6   13.01    0.66
   3  -9   6   12.68    0.74
   3  -9   6   13.15    0.65
   4  -9   6    7.97    0.43
   4  -9   6    8.13    0.43
   4  -9   6    7.45    0.48
   4   8  -6    0.56    0.16
   4   8  -6    0.51    0.13
  -4  -8   6    0.88    0.12
   3   8  -6    0.36    0.12
   3   8  -6    0.13    0.13
  -3  -8   6    0.10    0.07
   2   8  -6   15.79    0.85
   2   8  -6   15.96    0.86
   2   8  -6   16.30    0.89
  -2  -8   6   16.07    0.85
  -2  -8   6   15.72    0.71
  -2  -8   6   17.05    0.89
   1   8  -6   35.12    1.74
  -1  -8   6   35.56    1.70
  -1  -8   6   34.31    1.76
  -1  -8   6   34.22    1.43
   0  -8   6    0.73    0.13
   0  -8   6    0.65    0.12
   0  -8   6    1.02    0.15
  -1   8  -6    8.82    0.52
   1  -8   6    9.22    0.54
   1  -8   6    9.60    0.48
   1  -8   6    9.05    0.55
   1  -8   6    8.73    0.52
   1  -8   6    8.97    0.49
   2  -8   6   14.14    0.83
   2  -8   6   15.28    0.75
   2  -8   6   15.12    0.80
   2  -8   6   15.39    0.84
   2  -8   6   14.79    0.76
   2  -8   6   15.83    0.74
   3  -8   6    0.40    0.09
   3  -8   6    0.40    0.11
   3  -8   6    0.33    0.10
   3  -8   6    0.24    0.11
   4  -8   6   94.69    4.34
   4  -8   6  100.80    3.92
   4  -8   6   86.79    3.91
   4  -8   6   96.18    4.69
   5  -8   6    0.46    0.08
   5  -8   6    0.11    0.08
   5   7  -6    0.07    0.10
   5   7  -6   -0.05    0.06
   5   7  -6   -0.02    0.08
   4   7  -6   33.38    1.52
   4   7  -6   31.18    1.56
   4   7  -6   30.24    1.68
   4   7  -6   30.04    1.55
   4   7  -6   33.37    1.62
  -4  -7   6   32.12    1.31
   3   7  -6   15.31    0.81
   3   7  -6   14.31    0.79
   3   7  -6   14.29    0.82
   3   7  -6   13.89    0.83
   3   7  -6   15.45    0.79
  -3  -7   6   13.93    0.79
  -3  -7   6   14.05    0.65
   2   7  -6   39.63    1.96
   2   7  -6   37.88    1.84
   2   7  -6   40.60    1.90
  -2  -7   6   38.95    1.89
  -2  -7   6   38.50    1.96
  -2  -7   6   39.74    1.60
   1   7  -6    0.07    0.08
   1   7  -6    0.10    0.10
   1   7  -6    0.11    0.08
  -1  -7   6    0.17    0.05
  -1  -7   6    0.09    0.07
  -1  -7   6    0.14    0.07
   0   7  -6    2.84    0.23
   0  -7   6    2.87    0.24
   0  -7   6    3.09    0.24
   0  -7   6    2.72    0.18
   0  -7   6    2.77    0.21
   0  -7   6    2.71    0.22
   1  -7   6    0.12    0.06
   1  -7   6    0.12    0.07
   1  -7   6    0.05    0.06
   1  -7   6    0.19    0.07
   1  -7   6    0.09    0.06
   1  -7   6    0.06    0.06
   2  -7   6    9.19    0.48
   2  -7   6    8.49    0.53
   2  -7   6    8.45    0.47
   2  -7   6    9.27    0.48
   2  -7   6    8.83    0.51
   2  -7   6    9.47    0.50
   2  -7   6    9.22    0.53
   3  -7   6    3.23    0.25
   3  -7   6    2.98    0.22
   3  -7   6    3.03    0.27
   3  -7   6    2.84    0.25
   4  -7   6    4.18    0.34
   4  -7   6    4.66    0.32
   5  -7   6    0.02    0.05
   5  -7   6    0.15    0.09
   5   6  -6    2.95    0.25
   5   6  -6    2.82    0.24
   5   6  -6    2.48    0.23
   5   6  -6    3.45    0.28
  -5  -6   6    2.76    0.18
   4   6  -6    8.51    0.53
   4   6  -6    8.18    0.51
   4   6  -6    7.73    0.51
   4   6  -6    8.17    0.53
   4   6  -6    7.86    0.50
  -4  -6   6    8.57    0.41
   3   6  -6  399.19   18.48
   3   6  -6  421.38   17.79
   3   6  -6  405.38   20.22
   3   6  -6  416.59   19.19
   3   6  -6  428.21   18.40
  -3  -6   6  409.84   15.79
  -3  -6   6  371.22   19.24
   2   6  -6   21.74    1.16
   2   6  -6   21.35    1.10
   2   6  -6   23.20    1.14
  -2  -6   6   22.13    0.94
  -2  -6   6   21.86    1.13
  -2  -6   6   24.22    1.16
   1   6  -6    6.30    0.39
   1   6  -6    6.84    0.39
  -1  -6   6    6.68    0.40
  -1  -6   6    6.32    0.31
  -1  -6   6    6.07    0.34
  -1  -6   6    6.25    0.38
  -1  -6   6    6.08    0.38
   0   6  -6   10.76    0.55
   0  -6   6   10.03    0.54
   0  -6   6    9.27    0.48
   0  -6   6    9.82    0.50
   0  -6   6   10.27    0.56
   0  -6   6    9.86    0.56
   1  -6   6   37.93    1.97
   1  -6   6   42.96    1.86
   1  -6   6   40.20    1.88
   1  -6   6   41.81    1.71
   1  -6   6   40.27    1.69
   1  -6   6   39.05    1.82
   1  -6   6   36.19    1.99
   2  -6   6   61.30    2.52
   2  -6   6   59.61    2.76
   2  -6   6   59.11    2.75
   2  -6   6   59.98    2.50
   2  -6   6   58.71    2.97
   2  -6   6   57.34    2.65
   3  -6   6    6.70    0.41
   3  -6   6    7.17    0.41
   3  -6   6    7.31    0.41
   3  -6   6    5.79    0.38
   3  -6   6    6.99    0.45
   4  -6   6    8.46    0.55
   4  -6   6    8.50    0.49
   4  -6   6    8.98    0.49
   5  -6   6    0.10    0.05
   5  -6   6    0.10    0.08
   5   5  -6    2.32    0.23
   5   5  -6    2.49    0.24
   5   5  -6    2.36    0.23
   5   5  -6    2.15    0.25
   5   5  -6    2.62    0.27
  -5  -5   6    2.62    0.18
   4   5  -6   27.03    1.37
   4   5  -6   23.71    1.32
   4   5  -6   23.36    1.22
   4   5  -6   22.61    1.26
   4   5  -6   27.68    1.30
  -4  -5   6   26.79    1.06
   3   5  -6  106.41    5.21
   3   5  -6  100.14    4.78
   3   5  -6  110.61    4.78
   3   5  -6  103.10    4.96
   3   5  -6  103.03    4.60
  -3  -5   6   97.91    4.96
  -3  -5   6  102.49    4.07
   2   5  -6   55.21    2.49
   2   5  -6   51.19    2.57
  -2  -5   6   60.55    2.11
  -2  -5   6   47.16    2.57
  -2  -5   6   50.35    2.48
   1   5  -6    4.49    0.29
   1   5  -6    4.93    0.31
  -1  -5   6    4.40    0.29
  -1  -5   6    4.21    0.23
  -1  -5   6    4.43    0.29
  -1  -5   6    5.41    0.32
  -1  -5   6    4.36    0.26
   0   5  -6    0.37    0.08
   0  -5   6    0.42    0.07
   0  -5   6    0.40    0.08
   0  -5   6    0.44    0.08
   0  -5   6    0.41    0.08
   1  -5   6   22.62    0.88
   1  -5   6   18.06    1.00
   1  -5   6   19.85    0.88
   1  -5   6   16.24    1.01
   1  -5   6   21.40    0.95
   1  -5   6   18.96    0.93
   1  -5   6   19.45    0.96
   2  -5   6    2.14    0.19
   2  -5   6    2.16    0.18
   2  -5   6    2.39    0.18
   2  -5   6    2.22    0.17
   2  -5   6    2.57    0.20
   2  -5   6    2.23    0.20
   3  -5   6  104.64    4.88
   3  -5   6  112.25    5.30
   3  -5   6  100.35    4.42
   3  -5   6  110.91    4.42
   3  -5   6  106.73    4.91
   4  -5   6   64.80    2.83
   4  -5   6   67.78    3.14
   4  -5   6   69.79    3.40
   5  -5   6    0.75    0.14
   5  -5   6    0.80    0.10
   6   4  -6    0.06    0.07
   6   4  -6    0.04    0.07
   6   4  -6    0.02    0.09
   5   4  -6   11.67    0.66
   5   4  -6   11.97    0.68
   5   4  -6   10.98    0.61
   5   4  -6   11.36    0.69
   5   4  -6   11.37    0.65
  -5  -4   6   11.13    0.52
   4   4  -6    2.94    0.26
   4   4  -6    3.08    0.28
   4   4  -6    2.99    0.29
   4   4  -6    2.98    0.26
  -4  -4   6    2.79    0.20
   3   4  -6  154.58    7.46
   3   4  -6  157.85    6.22
   3   4  -6  171.76    7.16
   3   4  -6  153.67    7.83
  -3  -4   6  145.53    7.46
  -3  -4   6  158.35    6.13
   2   4  -6   45.80    2.17
   2   4  -6   38.66    1.79
   2   4  -6   47.63    2.26
   2   4  -6   48.18    2.10
  -2  -4   6   44.15    2.09
  -2  -4   6   44.92    2.17
  -2  -4   6   46.88    1.78
  -2  -4   6   39.69    2.02
   1   4  -6    9.54    0.51
   1   4  -6    9.68    0.51
  -1  -4   6    8.87    0.51
  -1  -4   6    9.40    0.51
   0  -4   6   14.26    0.67
   0  -4   6   15.42    0.73
   1  -4   6   89.80    3.77
   1  -4   6   95.44    4.22
   1  -4   6   91.67    4.21
   1  -4   6   91.19    3.80
   1  -4   6   93.60    4.08
   2  -4   6    7.46    0.41
   2  -4   6    7.08    0.45
   2  -4   6    7.72    0.41
   2  -4   6    8.60    0.42
   2  -4   6    7.21    0.41
   3  -4   6   18.80    0.92
   3  -4   6   17.56    0.91
   3  -4   6   19.85    1.02
   3  -4   6   17.93    0.88
   3  -4   6   17.93    0.88
   4  -4   6   57.24    2.72
   4  -4   6   47.96    2.25
   4  -4   6   54.30    2.49
   5  -4   6    0.26    0.07
   5  -4   6    0.22    0.10
   6   3  -6    2.40    0.25
   6   3  -6    2.44    0.22
   6   3  -6    2.36    0.20
  -6  -3   6    2.28    0.16
   5   3  -6    0.41    0.14
   5   3  -6    0.65    0.11
   5   3  -6    0.55    0.14
   5   3  -6    0.58    0.12
   5   3  -6    0.40    0.12
   5   3  -6    0.44    0.14
  -5  -3   6    0.46    0.10
   4   3  -6    9.74    0.52
   4   3  -6    9.30    0.57
   4   3  -6    9.13    0.57
   4   3  -6    9.47    0.54
   4   3  -6    9.34    0.57
   4   3  -6    9.45    0.44
  -4  -3   6    9.29    0.44
  -4  -3   6    8.44    0.52
   3   3  -6   32.65    1.68
   3   3  -6   34.96    1.62
   3   3  -6   34.75    1.74
   3   3  -6   32.53    1.38
  -3  -3   6   33.54    1.66
  -3  -3   6   33.32    1.37
   2   3  -6    7.85    0.43
   2   3  -6    7.53    0.44
   2   3  -6    7.42    0.42
  -2  -3   6    7.40    0.43
   1   3  -6  201.14    9.49
  -1  -3   6  213.08    9.47
   0   3  -6    7.28    0.38
   0  -3   6    7.33    0.38
   1  -3   6   47.38    2.27
   1  -3   6   47.02    2.27
   1  -3   6   46.53    2.20
   1  -3   6   56.20    2.07
   2  -3   6   39.39    1.81
   2  -3   6   40.42    1.81
   2  -3   6   38.45    1.65
   2  -3   6   35.55    1.95
   2  -3   6   38.09    1.66
   2  -3   6   39.46    1.75
   3  -3   6   25.58    1.21
   3  -3   6   23.89    1.13
   3  -3   6   25.27    1.33
   3  -3   6   24.91    1.16
   3  -3   6   24.58    1.20
   4  -3   6    8.44    0.53
   4  -3   6    8.39    0.46
   4  -3   6    7.52    0.45
   5  -3   6    0.42    0.12
   5  -3   6    0.43    0.08
   6   2  -6    5.00    0.36
   6   2  -6    4.57    0.34
   6   2  -6    4.31    0.29
  -6  -2   6    4.93    0.25
   5   2  -6   10.20    0.53
   5   2  -6    9.61    0.60
   5   2  -6    9.74    0.61
   5   2  -6   10.06    0.60
   5   2  -6    9.18    0.56
   5   2  -6    9.16    0.47
  -5  -2   6    9.99    0.46
   4   2  -6    6.82    0.45
   4   2  -6    6.88    0.42
   4   2  -6    7.66    0.47
   4   2  -6    6.73    0.45
   4   2  -6    7.37    0.44
   4   2  -6    7.64    0.41
   4   2  -6    7.35    0.36
  -4  -2   6    6.75    0.42
   3   2  -6   25.25    1.22
   3   2  -6   23.22    1.14
   3   2  -6   25.61    1.30
   3   2  -6   26.44    1.24
   3   2  -6   24.93    1.04
   3   2  -6   24.18    1.26
  -3  -2   6   24.94    1.25
   2   2  -6   11.11    0.61
   2   2  -6   11.79    0.59
  -2  -2   6   11.25    0.60
   1  -2   6  103.51    4.53
   1  -2   6   96.41    4.08
   1  -2   6  100.02    4.54
   1  -2   6   98.67    4.39
   2  -2   6   31.00    1.45
   2  -2   6   30.41    1.33
   2  -2   6   29.58    1.44
   2  -2   6   31.10    1.40
   2  -2   6   30.67    1.57
   3  -2   6   26.13    1.16
   3  -2   6   24.00    1.12
   3  -2   6   23.59    1.19
   3  -2   6   24.45    1.20
   3  -2   6   25.09    1.32
   4  -2   6    9.14    0.51
   4  -2   6   10.20    0.60
   4  -2   6    9.04    0.50
   5  -2   6    8.81    0.53
   6   1  -6    4.02    0.24
   6   1  -6    3.93    0.27
   6   1  -6    3.83    0.31
   6   1  -6    3.69    0.31
   6   1  -6    3.95    0.32
  -6  -1   6    3.92    0.23
   5   1  -6   69.50    3.30
   5   1  -6   68.20    3.47
   5   1  -6   62.94    3.14
   5   1  -6   71.40    3.23
   5   1  -6   63.12    2.74
   5   1  -6   70.49    2.98
  -5  -1   6   68.68    2.70
   4   1  -6   69.17    3.02
   4   1  -6   69.54    3.24
   4   1  -6   66.19    3.33
   4   1  -6   65.76    3.49
   4   1  -6   77.62    3.20
   4   1  -6   66.77    2.77
  -4  -1   6   67.12    3.33
   3   1  -6    4.84    0.26
   3   1  -6    5.40    0.34
   3   1  -6    5.36    0.33
   3   1  -6    5.17    0.32
   3   1  -6    5.46    0.32
   2   1  -6  151.40    6.85
   1  -1   6  358.48   15.32
   1  -1   6  327.09   13.75
   1  -1   6  336.27   14.83
   2  -1   6  194.65    8.24
   2  -1   6  173.03    9.19
   2  -1   6  196.74    8.52
   3  -1   6    0.03    0.06
   3  -1   6    0.17    0.07
   3  -1   6    0.13    0.09
   4  -1   6    2.47    0.21
   4  -1   6    2.95    0.26
   5  -1   6    0.15    0.08
   6   0  -6   16.92    0.93
   6   0  -6   18.25    0.78
   6   0  -6   17.88    0.85
   6   0  -6   17.68    0.99
  -6   0   6   17.21    0.75
   5   0  -6   28.90    1.33
   5   0  -6   33.44    1.47
   5   0  -6   32.92    1.58
   5   0  -6   32.58    1.68
  -5   0   6   29.86    1.57
   4   0  -6   13.56    0.74
   4   0  -6   14.48    0.77
   4   0  -6   14.93    0.74
   4   0  -6   14.40    0.64
   4   0  -6   14.11    0.80
   3   0  -6   66.25    2.98
   3   0  -6   68.22    2.84
   3   0  -6   65.27    3.26
   3   0  -6   64.31    2.60
   3   0  -6   67.46    3.02
  -3   0   6   57.12    2.66
   2   0  -6  383.69   17.26
   2   0  -6  380.23   16.22
  -2   0   6  388.42   15.49
  -1   0  -6    3.91    0.25
   1   0   6    3.85    0.23
   1   0   6    4.06    0.25
   1   0   6    4.56    0.26
   2   0   6   39.31    1.83
   2   0   6   37.36    2.04
   2   0   6   43.91    1.90
   3   0   6   19.57    1.06
   3   0   6   18.29    0.96
   3   0   6   19.45    0.93
   4   0   6    0.08    0.07
   4   0   6    0.05    0.06
   4   0   6    0.08    0.08
   6  -1  -6    0.01    0.08
   6  -1  -6    0.15    0.08
   6  -1  -6   -0.02    0.08
   6  -1  -6    0.03    0.10
  -6   1   6    0.07    0.06
   5  -1  -6    2.48    0.23
   5  -1  -6    2.30    0.23
   5  -1  -6    1.85    0.17
   5  -1  -6    2.33    0.23
  -5   1   6    2.35    0.21
   4  -1  -6    0.40    0.09
   4  -1  -6    0.36    0.10
   4  -1  -6    0.40    0.11
   3  -1  -6   28.05    1.27
   3  -1  -6   31.65    1.59
   3  -1  -6   31.42    1.28
   3  -1  -6   30.41    1.45
   3  -1  -6   32.10    1.42
  -3   1   6   31.01    1.31
   2  -1  -6  107.51    4.39
   2  -1  -6  110.33    4.67
   2  -1  -6  108.67    4.94
   1  -1  -6   63.29    2.92
  -1   1   6   64.08    2.63
   0  -1  -6   22.52    1.04
   0   1   6   22.66    1.05
   0   1   6   22.47    0.94
   0   1   6   19.44    1.01
  -1  -1  -6  171.09    7.86
   1   1   6  178.00    7.87
   1   1   6  172.14    7.61
   2   1   6   42.22    1.91
   2   1   6   38.49    2.05
   2   1   6   39.69    1.84
   3   1   6  133.02    6.15
   3   1   6  144.38    6.37
   3   1   6  141.60    6.89
   4   1   6    0.31    0.09
   4   1   6    0.10    0.09
   4   1   6    0.14    0.07
   6  -2  -6   23.60    0.95
   6  -2  -6   22.35    1.04
   6  -2  -6   20.99    1.08
   6  -2  -6   20.22    1.17
   5  -2  -6    6.81    0.44
   5  -2  -6    6.56    0.35
   5  -2  -6    6.18    0.41
   4  -2  -6    2.36    0.21
   4  -2  -6    2.28    0.17
  -4   2   6    2.38    0.17
   3  -2  -6   52.17    2.58
   3  -2  -6   50.89    2.08
   3  -2  -6   47.88    2.34
   3  -2  -6   51.26    2.27
   3  -2  -6   51.87    2.07
   2  -2  -6  134.40    5.52
   2  -2  -6  133.38    5.44
   2  -2  -6  138.62    5.88
   2  -2  -6  142.46    6.22
   1  -2  -6  116.16    5.33
  -1   2   6  118.66    4.80
   0  -2  -6    3.82    0.24
   0   2   6    3.88    0.24
   0   2   6    3.23    0.24
  -1  -2  -6    7.40    0.40
   1   2   6    7.58    0.42
   1   2   6    6.31    0.43
   1   2   6    7.19    0.41
   2   2   6   43.62    2.02
   2   2   6   43.07    1.96
   2   2   6   41.11    2.18
   3   2   6   74.21    3.46
   3   2   6   73.60    3.74
   3   2   6   76.67    3.35
   4   2   6    0.89    0.13
   4   2   6    0.57    0.11
   4   2   6    0.61    0.10
   6  -3  -6    7.70    0.44
   6  -3  -6    7.76    0.38
   6  -3  -6    7.07    0.47
   5  -3  -6   12.75    0.73
   5  -3  -6   12.72    0.59
   5  -3  -6   12.03    0.68
   4  -3  -6    4.37    0.23
   4  -3  -6    3.51    0.24
   4  -3  -6    4.31    0.32
   4  -3  -6    3.92    0.29
   3  -3  -6    9.24    0.44
   3  -3  -6    9.43    0.43
   3  -3  -6    9.96    0.53
   3  -3  -6    9.47    0.53
   3  -3  -6    7.91    0.48
   2  -3  -6   37.00    1.57
   2  -3  -6   38.40    1.57
   2  -3  -6   36.87    1.72
   2  -3  -6   40.12    1.79
   1  -3  -6    0.20    0.06
   0  -3  -6   44.52    1.98
   0   3   6   43.30    1.78
   0   3   6   38.64    1.91
   0   3   6   42.32    1.98
  -1  -3  -6    6.11    0.36
   1   3   6    6.27    0.37
   1   3   6    5.71    0.40
   1   3   6    6.34    0.37
   2   3   6   19.55    0.94
   2   3   6   17.86    1.03
   2   3   6   19.05    0.96
   3   3   6    4.74    0.32
   3   3   6    4.92    0.35
   3   3   6    5.00    0.32
   6  -4  -6    4.70    0.27
   6  -4  -6    4.66    0.32
   5  -4  -6   17.24    0.99
   5  -4  -6   18.64    0.92
   5  -4  -6   18.57    0.81
   4  -4  -6    1.16    0.13
   4  -4  -6    1.12    0.15
   4  -4  -6    0.97    0.17
   4  -4  -6    1.19    0.13
   3  -4  -6  751.08   29.92
   3  -4  -6  726.81   33.60
   3  -4  -6  777.53   29.42
   3  -4  -6  739.16   31.61
   2  -4  -6   78.08    3.48
   2  -4  -6   84.10    3.21
   2  -4  -6   81.37    3.65
   2  -4  -6   75.02    3.24
   1  -4  -6   50.30    2.12
   1  -4  -6   54.17    2.43
   0  -4  -6    9.24    0.49
   0   4   6    8.40    0.43
  -1  -4  -6   11.20    0.57
   1   4   6   10.30    0.57
   1   4   6    9.77    0.61
   1   4   6   10.30    0.57
   2   4   6    0.36    0.11
   2   4   6    0.52    0.12
   2   4   6    0.52    0.11
   3   4   6    3.06    0.22
   3   4   6    2.54    0.24
   3   4   6    2.59    0.20
   6  -5  -6   26.81    1.25
   6  -5  -6   27.79    1.14
   5  -5  -6    3.98    0.24
   5  -5  -6    3.66    0.30
   5  -5  -6    3.52    0.21
   5  -5  -6    3.35    0.27
  -5   5   6    3.78    0.24
   4  -5  -6   59.98    2.74
   4  -5  -6   63.92    2.52
   4  -5  -6   63.62    2.53
   4  -5  -6   58.24    3.12
   3  -5  -6   10.37    0.51
   3  -5  -6   10.87    0.55
   3  -5  -6    9.92    0.48
   3  -5  -6    9.99    0.59
   2  -5  -6  300.78   11.48
   2  -5  -6  297.12   13.11
   2  -5  -6  284.87   11.66
   2  -5  -6  280.04   12.36
   1  -5  -6   43.94    2.00
   1  -5  -6   44.24    1.83
   1  -5  -6   45.76    2.10
   0  -5  -6    0.16    0.07
  -1  -5  -6    1.57    0.16
   1   5   6    1.78    0.17
   1   5   6    1.55    0.19
   1   5   6    1.62    0.20
   2   5   6    3.37    0.25
   2   5   6    4.02    0.28
   2   5   6    4.09    0.30
   6  -6  -6    7.27    0.35
   5  -6  -6    0.28    0.10
   5  -6  -6    0.42    0.07
   5  -6  -6    0.24    0.08
   4  -6  -6  134.59    5.42
   4  -6  -6  133.41    5.36
   3  -6  -6    0.83    0.16
   2  -6  -6   62.30    2.52
   2  -6  -6   60.48    2.84
   2  -6  -6   60.67    2.50
   2  -6  -6   61.82    2.73
   1  -6  -6    2.30    0.17
   1  -6  -6    2.01    0.18
   1  -6  -6    2.26    0.22
  -1   6   6    2.17    0.18
   0  -6  -6   10.77    0.58
  -1  -6  -6   13.01    0.68
   1   6   6   13.63    0.68
   2   6   6    1.13    0.16
   5  -7  -6    5.36    0.27
   5  -7  -6    5.58    0.29
  -5   7   6    5.21    0.29
   4  -7  -6    5.39    0.28
   4  -7  -6    5.10    0.30
   3  -7  -6   49.21    2.41
   3  -7  -6   52.23    2.15
   3  -7  -6   55.12    2.15
   2  -7  -6   15.37    0.70
   2  -7  -6   15.72    0.79
   1  -7  -6    6.68    0.38
   1  -7  -6    6.22    0.32
  -1   7   6    5.85    0.34
   0  -7  -6    0.90    0.12
  -1  -7  -6   14.85    0.73
   5  -8  -6    1.05    0.10
   4  -8  -6    1.61    0.13
   4  -8  -6    1.58    0.14
   3  -8  -6   22.46    0.93
   3  -8  -6   20.56    1.03
   2  -8  -6    2.94    0.20
   2  -8  -6    2.74    0.19
  -2   8   6    2.81    0.20
   1  -8  -6    0.19    0.07
   1  -8  -6    0.16    0.07
   0  -8  -6    1.85    0.15
   3  -9  -6    0.63    0.09
  -3   9   6    0.64    0.10
   2  -9  -6    1.69    0.14
  -1 -12   7    0.32    0.07
   0 -12   7   15.72    0.78
   0 -12   7   13.04    0.62
   0 -12   7   15.02    0.75
   1 -12   7    1.90    0.18
   1 -12   7    1.97    0.20
   2 -12   7    0.07    0.07
   2 -12   7    0.10    0.06
   2  11  -7    0.07    0.10
  -2 -11   7    0.01    0.06
   1  11  -7    3.53    0.30
  -1 -11   7    3.40    0.22
  -1 -11   7    3.93    0.29
  -1 -11   7    3.43    0.26
   0  11  -7    3.61    0.31
   0 -11   7    4.09    0.30
   0 -11   7    3.63    0.23
   0 -11   7    3.87    0.29
  -1  11  -7   84.28    4.27
   1 -11   7   90.37    4.12
   1 -11   7   95.17    4.32
   1 -11   7   87.27    3.69
  -2  11  -7   43.42    2.09
   2 -11   7   41.75    2.01
   2 -11   7   46.06    1.84
   2 -11   7   41.48    1.79
   2 -11   7   41.39    2.13
   2 -11   7   42.54    2.11
  -3  11  -7    2.16    0.21
   3 -11   7    2.16    0.18
   3 -11   7    2.23    0.17
   3  10  -7    0.14    0.11
   3  10  -7   -0.03    0.10
  -3 -10   7    0.10    0.06
   2  10  -7    6.66    0.43
   2  10  -7    5.71    0.42
  -2 -10   7    6.40    0.33
  -2 -10   7    6.45    0.41
  -2 -10   7    5.73    0.37
   1  10  -7    2.51    0.26
  -1 -10   7    2.47    0.23
  -1 -10   7    2.64    0.25
  -1 -10   7    2.41    0.18
   0  10  -7   16.69    0.88
   0 -10   7   15.24    0.70
   0 -10   7   16.36    0.89
   0 -10   7   15.98    0.76
   0 -10   7   16.39    0.87
  -1  10  -7   27.91    1.37
   1 -10   7   26.69    1.39
   1 -10   7   27.26    1.21
   1 -10   7   27.96    1.35
   1 -10   7   25.11    1.17
   1 -10   7   25.28    1.36
  -2  10  -7   12.43    0.70
   2 -10   7   12.79    0.69
   2 -10   7   12.28    0.71
   2 -10   7   11.88    0.69
   2 -10   7   13.31    0.65
   2 -10   7   13.04    0.63
  -3  10  -7    0.11    0.09
   3 -10   7    0.17    0.07
   3 -10   7    0.07    0.07
  -4  10  -7    0.80    0.14
   4 -10   7    0.70    0.10
   4 -10   7    0.77    0.12
   4   9  -7    1.65    0.21
  -4  -9   7    1.48    0.13
   3   9  -7    0.52    0.14
   3   9  -7    0.41    0.12
   3   9  -7    0.60    0.16
  -3  -9   7    0.65    0.10
   2   9  -7    0.15    0.10
   2   9  -7    0.08    0.12
   2   9  -7    0.23    0.13
  -2  -9   7    0.22    0.12
  -2  -9   7    0.20    0.09
  -2  -9   7    0.13    0.07
   1   9  -7   36.97    1.81
  -1  -9   7   36.63    1.82
  -1  -9   7   35.03    1.74
  -1  -9   7   34.09    1.47
   0   9  -7    3.02    0.27
   0  -9   7    2.68    0.26
   0  -9   7    2.92    0.23
   0  -9   7    2.76    0.19
   0  -9   7    2.70    0.26
  -1   9  -7    7.47    0.46
   1  -9   7    7.37    0.47
   1  -9   7    7.40    0.41
   1  -9   7    7.25    0.48
   1  -9   7    7.32    0.43
   1  -9   7    6.98    0.43
  -2   9  -7    8.78    0.50
   2  -9   7    8.03    0.52
   2  -9   7    8.11    0.50
   2  -9   7    8.77    0.47
   2  -9   7    8.51    0.51
   2  -9   7    8.34    0.48
  -3   9  -7   66.66    3.12
   3  -9   7   63.06    2.73
   3  -9   7   65.98    2.72
   3  -9   7   62.61    3.22
  -4   9  -7    0.96    0.15
   4  -9   7    0.82    0.12
   4  -9   7    0.92    0.14
   4   8  -7   61.43    2.71
   4   8  -7   53.68    2.79
   4   8  -7   64.52    2.92
  -4  -8   7   60.30    2.39
   3   8  -7   15.74    0.82
   3   8  -7   14.59    0.81
   3   8  -7   14.49    0.81
   3   8  -7   13.70    0.85
   3   8  -7   16.13    0.85
  -3  -8   7   15.81    0.68
  -3  -8   7   14.91    0.82
   2   8  -7    3.84    0.30
   2   8  -7    3.67    0.33
   2   8  -7    3.22    0.31
  -2  -8   7    3.93    0.30
  -2  -8   7    3.36    0.28
  -2  -8   7    3.89    0.23
   1   8  -7   12.44    0.70
  -1  -8   7   12.03    0.56
  -1  -8   7   12.44    0.70
  -1  -8   7   12.04    0.70
   0   8  -7  118.57    5.50
   0  -8   7  113.19    5.54
   0  -8   7  114.71    5.31
   0  -8   7  114.08    4.76
  -1   8  -7    1.11    0.16
   1  -8   7    1.28    0.16
   1  -8   7    1.30    0.18
   1  -8   7    1.21    0.15
   1  -8   7    1.38    0.17
   1  -8   7    1.27    0.17
   2  -8   7    4.26    0.31
   2  -8   7    4.47    0.31
   2  -8   7    4.33    0.33
   2  -8   7    4.78    0.28
   2  -8   7    4.31    0.32
   3  -8   7    1.91    0.21
   3  -8   7    1.71    0.16
   3  -8   7    2.09    0.20
   3  -8   7    2.19    0.22
   4  -8   7   12.28    0.60
   4  -8   7   11.51    0.67
   4  -8   7   11.97    0.61
   5   7  -7    0.48    0.10
   5   7  -7    0.54    0.12
   5   7  -7    0.39    0.09
  -5  -7   7    0.46    0.08
   4   7  -7   16.97    0.87
   4   7  -7   14.45    0.88
   4   7  -7   14.78    0.83
   4   7  -7   14.61    0.83
   4   7  -7   16.74    0.83
  -4  -7   7   16.07    0.69
   3   7  -7   44.12    2.12
   3   7  -7   42.78    2.28
   3   7  -7   47.09    2.07
   3   7  -7   41.95    2.19
   3   7  -7   43.87    2.13
  -3  -7   7   43.03    1.79
  -3  -7   7   45.10    2.19
   2   7  -7    3.66    0.31
   2   7  -7    4.00    0.31
  -2  -7   7    4.04    0.23
  -2  -7   7    3.99    0.30
  -2  -7   7    3.56    0.29
   1   7  -7   29.03    1.45
   1   7  -7   28.81    1.41
  -1  -7   7   27.91    1.26
  -1  -7   7   28.70    1.19
  -1  -7   7   28.94    1.47
  -1  -7   7   29.32    1.43
   0   7  -7  154.92    7.19
   0  -7   7  138.10    6.14
   0  -7   7  153.63    6.70
   0  -7   7  159.49    6.94
   0  -7   7  154.49    6.21
   0  -7   7  149.20    7.24
  -1   7  -7   16.42    0.85
   1  -7   7   15.44    0.76
   1  -7   7   17.31    0.87
   1  -7   7   15.57    0.88
   1  -7   7   16.24    0.78
   1  -7   7   16.54    0.82
   2  -7   7   42.79    1.78
   2  -7   7   40.96    1.93
   2  -7   7   38.14    1.90
   2  -7   7   39.85    1.85
   2  -7   7   41.39    1.76
   2  -7   7   39.24    2.05
   3  -7   7   39.39    1.91
   3  -7   7   39.27    1.76
   3  -7   7   43.02    2.06
   3  -7   7   41.91    1.77
   3  -7   7   37.20    1.89
   4  -7   7   20.00    1.08
   4  -7   7   20.23    0.94
   4  -7   7   20.48    0.99
   5   6  -7    0.25    0.09
   5   6  -7    0.43    0.11
   5   6  -7    0.29    0.11
  -5  -6   7    0.24    0.07
   4   6  -7   18.33    1.02
   4   6  -7   19.25    1.03
   4   6  -7   20.64    1.00
   4   6  -7   18.63    1.09
   4   6  -7   20.82    1.07
  -4  -6   7   20.39    0.85
   3   6  -7    0.34    0.14
   3   6  -7    0.37    0.13
   3   6  -7    0.24    0.12
   3   6  -7    0.08    0.09
   3   6  -7    0.25    0.10
  -3  -6   7    0.10    0.09
  -3  -6   7    0.07    0.07
   2   6  -7    6.77    0.43
   2   6  -7    6.09    0.44
   2   6  -7    6.62    0.44
  -2  -6   7    7.11    0.43
  -2  -6   7    6.40    0.33
  -2  -6   7    7.39    0.43
   1   6  -7    3.22    0.25
  -1  -6   7    3.29    0.25
  -1  -6   7    3.21    0.25
  -1  -6   7    3.37    0.26
  -1  -6   7    3.02    0.22
  -1  -6   7    3.07    0.18
   0   6  -7  375.81   17.74
   0  -6   7  381.81   15.27
   0  -6   7  393.46   16.48
   0  -6   7  391.37   17.03
   0  -6   7  366.71   15.15
   0  -6   7  355.85   17.84
   1  -6   7   37.65    1.99
   1  -6   7   39.91    1.91
   1  -6   7   41.58    1.74
   1  -6   7   39.67    1.85
   1  -6   7   40.93    1.73
   1  -6   7   41.26    1.89
   2  -6   7   16.80    0.97
   2  -6   7   19.59    0.94
   2  -6   7   17.93    0.89
   2  -6   7   18.42    0.87
   2  -6   7   18.45    0.90
   2  -6   7   18.05    0.87
   3  -6   7   13.84    0.73
   3  -6   7   14.77    0.72
   3  -6   7   13.84    0.74
   3  -6   7   13.78    0.71
   3  -6   7   14.68    0.81
   4  -6   7   13.93    0.79
   4  -6   7   13.82    0.69
   4  -6   7   14.08    0.71
   5  -6   7    0.69    0.09
   5   5  -7    4.52    0.35
   5   5  -7    4.42    0.33
   5   5  -7    4.75    0.33
   5   5  -7    4.49    0.34
   5   5  -7    5.12    0.36
  -5  -5   7    4.92    0.26
   4   5  -7   28.43    1.43
   4   5  -7   28.44    1.52
   4   5  -7   27.76    1.37
   4   5  -7   29.56    1.47
   4   5  -7   28.80    1.45
  -4  -5   7   28.78    1.19
  -4  -5   7   27.44    1.44
   3   5  -7    0.65    0.12
   3   5  -7    0.66    0.15
   3   5  -7    0.50    0.14
   3   5  -7    0.64    0.14
  -3  -5   7    0.67    0.10
   2   5  -7   54.00    2.42
   2   5  -7   50.05    2.58
   2   5  -7   51.17    2.49
  -2  -5   7   50.46    2.49
  -2  -5   7   51.08    2.03
  -2  -5   7   51.95    2.41
  -2  -5   7   47.87    2.33
   1   5  -7    5.03    0.32
   1   5  -7    5.53    0.34
  -1  -5   7    4.56    0.24
  -1  -5   7    5.48    0.34
  -1  -5   7    5.02    0.33
  -1  -5   7    5.00    0.32
  -1  -5   7    4.80    0.29
   0   5  -7    2.73    0.20
   0  -5   7    2.24    0.18
   0  -5   7    2.83    0.21
   0  -5   7    2.21    0.20
   0  -5   7    2.61    0.20
   0  -5   7    2.24    0.18
   1  -5   7    9.31    0.48
   1  -5   7    8.67    0.51
   1  -5   7    9.86    0.48
   1  -5   7    8.93    0.50
   1  -5   7    9.22    0.48
   2  -5   7    0.58    0.12
   2  -5   7    0.44    0.09
   2  -5   7    0.51    0.11
   2  -5   7    0.41    0.10
   2  -5   7    0.56    0.10
   3  -5   7    6.09    0.35
   3  -5   7    5.83    0.40
   3  -5   7    5.65    0.36
   3  -5   7    5.69    0.38
   4  -5   7   50.74    2.33
   4  -5   7   51.66    2.53
   4  -5   7   46.98    2.12
   5  -5   7    1.63    0.19
   6   4  -7    3.91    0.27
   6   4  -7    4.84    0.32
   6   4  -7    4.39    0.29
   5   4  -7    5.88    0.42
   5   4  -7    5.80    0.42
   5   4  -7    6.55    0.39
   5   4  -7    6.34    0.43
   5   4  -7    5.99    0.40
  -5  -4   7    6.52    0.33
   4   4  -7   10.26    0.67
   4   4  -7   12.02    0.64
   4   4  -7   12.77    0.67
   4   4  -7   11.72    0.68
   4   4  -7   12.04    0.54
   4   4  -7   12.32    0.69
  -4  -4   7   11.17    0.64
  -4  -4   7   10.26    0.53
   3   4  -7   36.89    1.54
   3   4  -7   37.23    1.94
   3   4  -7   39.33    1.82
   3   4  -7   37.47    1.88
  -3  -4   7   37.04    1.87
  -3  -4   7   37.69    1.53
   2   4  -7  205.52    8.51
   2   4  -7  185.72    8.85
  -2  -4   7  165.85    7.59
  -2  -4   7  193.53    8.50
  -2  -4   7  193.79    8.90
  -2  -4   7  179.36    8.23
  -2  -4   7  187.07    7.28
   1   4  -7    0.94    0.12
   1   4  -7    0.91    0.12
  -1  -4   7    0.62    0.11
  -1  -4   7    0.96    0.10
  -1  -4   7    0.94    0.12
   0   4  -7   91.75    4.32
   0   4  -7   89.84    4.17
   0  -4   7   84.38    4.36
   0  -4   7   95.89    4.18
   0  -4   7   94.47    4.05
   0  -4   7   90.39    3.75
   1  -4   7   34.81    1.57
   1  -4   7   38.34    1.73
   1  -4   7   39.31    1.75
   1  -4   7   37.37    1.70
   1  -4   7   34.68    1.59
   2  -4   7    2.60    0.20
   2  -4   7    2.50    0.21
   2  -4   7    2.47    0.18
   2  -4   7    2.39    0.19
   2  -4   7    2.34    0.20
   2  -4   7    2.25    0.21
   3  -4   7    3.35    0.24
   3  -4   7    3.23    0.24
   3  -4   7    3.17    0.27
   3  -4   7    3.23    0.27
   4  -4   7    0.09    0.06
   4  -4   7    0.15    0.10
   6   3  -7    3.06    0.26
   6   3  -7    2.81    0.24
   6   3  -7    2.40    0.21
  -6  -3   7    2.93    0.18
   5   3  -7   32.60    1.63
   5   3  -7   31.50    1.57
   5   3  -7   32.47    1.34
   5   3  -7   30.80    1.60
   5   3  -7   30.50    1.69
  -5  -3   7   33.76    1.33
   4   3  -7    0.80    0.16
   4   3  -7    0.84    0.17
   4   3  -7    0.55    0.10
   4   3  -7    0.50    0.12
   4   3  -7    0.48    0.12
   4   3  -7    0.67    0.13
  -4  -3   7    0.54    0.12
  -4  -3   7    0.56    0.10
   3   3  -7   15.67    0.83
   3   3  -7   15.71    0.80
   3   3  -7   15.09    0.82
   3   3  -7   14.28    0.66
  -3  -3   7   15.41    0.81
  -3  -3   7   15.51    0.66
   2   3  -7   78.46    3.82
   2   3  -7   87.36    3.69
  -2  -3   7   77.57    3.28
  -2  -3   7   75.00    3.68
  -2  -3   7   81.61    3.85
   1   3  -7   85.22    3.63
   1   3  -7   72.95    3.75
  -1  -3   7   82.74    3.62
  -1  -3   7   75.61    3.51
  -1  -3   7   80.39    3.24
  -1  -3   7   76.06    3.78
   0   3  -7    1.39    0.14
   0  -3   7    1.36    0.14
   0  -3   7    1.22    0.13
   0  -3   7    1.49    0.14
   1  -3   7   27.11    1.21
   1  -3   7   24.30    1.13
   1  -3   7   26.79    1.24
   1  -3   7   24.80    1.22
   2  -3   7   58.14    2.58
   2  -3   7   56.03    2.57
   2  -3   7   49.04    2.77
   2  -3   7   54.05    2.35
   2  -3   7   57.38    2.50
   2  -3   7   58.07    2.35
   3  -3   7   47.81    2.37
   3  -3   7   49.32    2.57
   3  -3   7   51.52    2.38
   3  -3   7   52.08    2.18
   3  -3   7   53.30    2.30
   4  -3   7    4.41    0.29
   4  -3   7    4.26    0.27
   4  -3   7    4.80    0.34
   6   2  -7    2.06    0.22
   6   2  -7    1.90    0.21
  -6  -2   7    2.01    0.15
   5   2  -7   43.72    2.18
   5   2  -7   46.84    2.04
   5   2  -7   46.64    2.28
   5   2  -7   47.57    2.25
   5   2  -7   45.89    1.88
   5   2  -7   44.40    2.38
  -5  -2   7   46.64    1.86
   4   2  -7    5.07    0.34
   4   2  -7    5.36    0.38
   4   2  -7    5.01    0.27
   4   2  -7    4.67    0.34
   4   2  -7    4.60    0.34
   4   2  -7    4.66    0.33
   4   2  -7    4.49    0.35
  -4  -2   7    4.87    0.33
   3   2  -7    6.66    0.35
   3   2  -7    7.00    0.44
   3   2  -7    7.26    0.43
   3   2  -7    7.71    0.43
   3   2  -7    7.42    0.42
  -3  -2   7    7.30    0.43
   2   2  -7  612.85   26.04
   2   2  -7  645.57   27.75
  -2  -2   7  588.15   24.86
  -2  -2   7  623.61   29.11
   1   2  -7    8.60    0.45
  -1  -2   7    8.51    0.39
  -1  -2   7    7.72    0.44
  -1  -2   7    7.09    0.43
   0   2  -7    1.31    0.13
   0  -2   7    1.60    0.12
   0  -2   7    1.17    0.12
   0  -2   7    1.00    0.12
   1  -2   7    3.57    0.23
   1  -2   7    3.67    0.24
   1  -2   7    3.71    0.24
   1  -2   7    3.34    0.21
   2  -2   7    9.84    0.60
   2  -2   7   11.07    0.54
   2  -2   7    9.34    0.53
   2  -2   7   10.54    0.56
   2  -2   7   11.51    0.55
   3  -2   7    0.47    0.12
   3  -2   7    0.57    0.11
   3  -2   7    0.30    0.10
   3  -2   7    0.65    0.11
   4  -2   7    0.56    0.10
   4  -2   7    0.45    0.12
   6   1  -7    1.70    0.15
   6   1  -7    1.47    0.19
   6   1  -7    1.50    0.18
  -6  -1   7    1.40    0.13
   5   1  -7   54.40    2.32
   5   1  -7   52.60    2.12
   5   1  -7   55.32    2.51
   5   1  -7   48.60    2.44
   5   1  -7   50.48    2.67
  -5  -1   7   50.23    2.54
   4   1  -7    3.24    0.26
   4   1  -7    3.74    0.22
   4   1  -7    3.51    0.29
   4   1  -7    3.79    0.30
  -4  -1   7    4.03    0.28
   3   1  -7   88.54    4.56
   3   1  -7   98.89    4.18
   3   1  -7   97.20    4.21
   3   1  -7   94.20    3.94
   3   1  -7   86.05    3.62
  -3  -1   7   82.65    3.71
  -3  -1   7   88.98    4.36
   2   1  -7    3.22    0.22
   2   1  -7    3.07    0.23
  -2  -1   7    3.22    0.19
   1   1  -7   26.24    1.22
  -1  -1   7   23.96    1.25
  -1  -1   7   24.42    1.21
  -1  -1   7   27.10    1.09
  -1  -1   7   24.88    1.18
   0   1  -7   33.27    1.54
   0  -1   7   32.07    1.48
   0  -1   7   31.76    1.38
   0  -1   7   32.53    1.53
   1  -1   7  275.71   11.69
   1  -1   7  306.75   13.03
   1  -1   7  284.27   12.60
   2  -1   7  402.86   17.28
   2  -1   7  360.95   18.65
   2  -1   7  386.99   16.71
   3  -1   7    1.52    0.16
   3  -1   7    1.34    0.18
   4  -1   7    1.35    0.18
   4  -1   7    1.42    0.15
   6   0  -7    4.52    0.26
   6   0  -7    4.12    0.31
   6   0  -7    4.32    0.30
  -6   0   7    4.45    0.25
   5   0  -7   25.12    1.39
   5   0  -7   26.75    1.11
   5   0  -7   25.49    1.31
   5   0  -7   26.95    1.24
  -5   0   7   24.97    1.31
   4   0  -7    0.09    0.09
   4   0  -7    0.13    0.09
   4   0  -7    0.10    0.08
   4   0  -7    0.16    0.07
   3   0  -7    2.06    0.17
   3   0  -7    1.99    0.15
   3   0  -7    2.08    0.20
  -3   0   7    1.61    0.14
   1   0  -7   30.18    1.34
  -1   0   7   27.51    1.34
  -1   0   7   30.70    1.20
  -1   0   7   23.87    1.29
   0   0  -7    0.68    0.09
   0   0   7    0.59    0.09
   0   0   7    0.46    0.09
  -1   0  -7   73.31    3.43
   1   0   7   75.58    3.33
   1   0   7   71.64    3.08
   1   0   7   77.74    3.43
   2   0   7  618.08   26.36
   2   0   7  619.74   28.47
   2   0   7  521.19   25.49
   3   0   7   25.18    1.21
   3   0   7   26.93    1.26
   3   0   7   24.60    1.36
   4   0   7    0.27    0.10
   4   0   7    0.31    0.08
   6  -1  -7    3.09    0.21
   6  -1  -7    2.70    0.24
   6  -1  -7    3.36    0.26
  -6   1   7    3.18    0.20
   5  -1  -7   76.00    3.89
   5  -1  -7   81.04    3.10
   5  -1  -7   71.77    3.57
   5  -1  -7   78.05    3.37
  -5   1   7   75.95    3.70
   4  -1  -7   34.79    1.81
   4  -1  -7   32.87    1.66
   4  -1  -7   37.01    1.62
   4  -1  -7   34.93    1.45
   3  -1  -7   19.36    0.85
   3  -1  -7   19.97    0.98
   3  -1  -7   19.73    0.97
  -3   1   7   20.14    0.88
   2  -1  -7    7.35    0.41
   2  -1  -7    7.60    0.43
  -2   1   7    7.64    0.38
   1  -1  -7   62.10    3.06
  -1   1   7   70.90    2.76
   0  -1  -7   20.56    0.95
   0   1   7   18.66    0.94
   0   1   7   19.86    0.85
   0   1   7   17.64    0.92
  -1  -1  -7    0.73    0.11
   1   1   7    0.86    0.13
   1   1   7    0.72    0.11
   2   1   7   16.76    0.85
   2   1   7   14.21    0.76
   2   1   7   14.07    0.78
   3   1   7   12.09    0.66
   3   1   7   12.47    0.73
   3   1   7   13.29    0.65
   4   1   7    1.68    0.15
   6  -2  -7   12.05    0.63
   6  -2  -7   12.36    0.56
   5  -2  -7    2.69    0.25
   5  -2  -7    1.91    0.21
   5  -2  -7    1.92    0.17
   4  -2  -7    3.45    0.22
   4  -2  -7    3.68    0.25
   4  -2  -7    3.39    0.30
   4  -2  -7    3.21    0.26
   3  -2  -7   36.75    1.65
   3  -2  -7   35.18    1.47
   3  -2  -7   33.09    1.67
  -3   2   7   37.03    1.53
   2  -2  -7  153.27    6.99
   2  -2  -7  150.52    6.61
  -2   2   7  159.05    6.29
   1  -2  -7    2.35    0.18
  -1   2   7    2.42    0.18
   0  -2  -7   25.25    1.19
   0   2   7   25.03    1.19
   0   2   7   22.75    1.16
   0   2   7   25.23    1.08
  -1  -2  -7    8.67    0.45
   1   2   7    7.21    0.44
   1   2   7    7.76    0.45
   2   2   7  100.41    4.44
   2   2   7   99.29    4.30
   2   2   7   90.27    4.78
   3   2   7    0.12    0.09
   3   2   7    0.18    0.08
   3   2   7    0.15    0.08
   6  -3  -7    0.09    0.07
   6  -3  -7    0.10    0.08
  -6   3   7    0.06    0.07
   5  -3  -7    0.27    0.10
   5  -3  -7    0.46    0.10
   4  -3  -7   21.23    1.09
   4  -3  -7   22.05    0.94
   4  -3  -7   22.70    0.96
  -4   3   7   21.33    0.98
   3  -3  -7   52.50    2.08
   3  -3  -7   50.61    2.09
   3  -3  -7   50.30    2.30
   3  -3  -7   49.37    2.36
   2  -3  -7   44.79    2.04
   2  -3  -7   42.43    1.96
   2  -3  -7   41.37    1.77
  -2   3   7   44.64    1.85
   1  -3  -7    4.91    0.31
  -1   3   7    5.12    0.30
   0  -3  -7    3.34    0.24
   0   3   7    3.37    0.25
   0   3   7    3.40    0.22
   0   3   7    3.38    0.24
  -1  -3  -7    2.23    0.20
   1   3   7    2.26    0.20
   1   3   7    2.76    0.22
   2   3   7    5.98    0.36
   2   3   7    4.90    0.40
   2   3   7    6.58    0.38
   3   3   7    5.39    0.29
   3   3   7    3.64    0.30
   3   3   7    4.52    0.28
   6  -4  -7    1.61    0.14
   6  -4  -7    1.71    0.20
  -6   4   7    2.10    0.18
   5  -4  -7   12.31    0.68
   5  -4  -7   12.73    0.59
   4  -4  -7   81.28    3.67
   4  -4  -7   84.00    3.39
   4  -4  -7   83.58    3.36
  -4   4   7   83.60    3.45
   3  -4  -7  189.82    7.49
   3  -4  -7  185.00    8.42
   3  -4  -7  178.20    7.98
   3  -4  -7  190.73    7.38
   2  -4  -7   10.17    0.49
   2  -4  -7   10.48    0.56
  -2   4   7   10.56    0.53
   1  -4  -7    1.31    0.14
  -1   4   7    1.25    0.14
   0  -4  -7   16.71    0.84
  -1  -4  -7   23.81    1.17
   1   4   7   25.52    1.16
   1   4   7   22.82    1.17
   2   4   7    0.03    0.07
   2   4   7    0.06    0.08
   6  -5  -7    0.57    0.09
  -6   5   7    0.52    0.10
   5  -5  -7   17.26    0.88
   5  -5  -7   18.44    0.78
  -5   5   7   17.04    0.79
   4  -5  -7    0.77    0.11
   4  -5  -7    0.68    0.15
   3  -5  -7  306.55   13.65
   3  -5  -7  302.89   12.89
   3  -5  -7  279.69   12.14
   3  -5  -7  321.99   11.96
   2  -5  -7    0.18    0.07
   2  -5  -7    0.11    0.09
   2  -5  -7    0.19    0.07
  -2   5   7    0.20    0.08
   1  -5  -7   21.68    1.13
   1  -5  -7   23.55    1.10
  -1   5   7   24.01    1.04
   0  -5  -7    0.26    0.08
  -1  -5  -7    1.45    0.14
   1   5   7    1.69    0.19
   2   5   7    1.93    0.19
   5  -6  -7    0.40    0.11
   5  -6  -7    0.64    0.10
  -5   6   7    0.56    0.09
   4  -6  -7    1.59    0.15
   4  -6  -7    1.69    0.21
  -4   6   7    1.62    0.16
   3  -6  -7    4.70    0.27
   3  -6  -7    4.31    0.34
   3  -6  -7    4.37    0.28
  -3   6   7    4.51    0.29
   2  -6  -7   14.45    0.65
   2  -6  -7   13.88    0.74
   2  -6  -7   14.90    0.75
  -2   6   7   14.67    0.70
   1  -6  -7    6.15    0.39
   1  -6  -7    6.96    0.39
  -1   6   7    6.60    0.35
   0  -6  -7   21.96    1.07
   1   6   7   25.91    1.22
   5  -7  -7    4.98    0.26
   4  -7  -7    0.64    0.10
  -4   7   7    0.50    0.09
   3  -7  -7   80.20    3.21
   3  -7  -7   78.67    3.65
  -3   7   7   80.35    3.30
   2  -7  -7    0.75    0.11
   2  -7  -7    0.51    0.09
   1  -7  -7    0.01    0.05
   0  -7  -7    0.18    0.06
  -4   8   7    2.49    0.17
   3  -8  -7    0.19    0.06
   3  -8  -7    0.05    0.05
  -3   8   7    0.04    0.05
   2  -8  -7    1.63    0.13
  -2   8   7    1.46    0.12
   1  -8  -7    0.57    0.09
   0  12  -8    0.72    0.14
   0 -12   8    0.90    0.14
   0 -12   8    0.95    0.12
  -1  12  -8    7.13    0.44
   1 -12   8    7.31    0.43
   1 -12   8    7.28    0.41
   2  11  -8    0.02    0.10
  -2 -11   8    0.04    0.05
  -2 -11   8    0.03    0.10
   1  11  -8    1.70    0.22
  -1 -11   8    1.58    0.14
  -1 -11   8    1.71    0.17
  -1 -11   8    1.90    0.20
   0  11  -8    4.58    0.35
   0 -11   8    4.45    0.32
   0 -11   8    5.04    0.34
  -1  11  -8   16.41    0.82
   1 -11   8   14.52    0.72
   1 -11   8   15.47    0.83
   1 -11   8   14.62    0.80
  -2  11  -8    3.97    0.30
   2 -11   8    4.32    0.26
   2 -11   8    4.04    0.27
   2 -11   8    3.66    0.27
   2 -11   8    3.69    0.24
   3 -11   8    0.91    0.12
   3  10  -8    2.58    0.24
   3  10  -8    2.35    0.24
  -3 -10   8    2.23    0.16
   2  10  -8    3.62    0.29
   2  10  -8    3.99    0.36
   2  10  -8    4.83    0.34
  -2 -10   8    3.96    0.28
  -2 -10   8    4.38    0.31
  -2 -10   8    4.22    0.24
   1  10  -8    0.09    0.11
  -1 -10   8    0.07    0.06
  -1 -10   8    0.14    0.08
  -1 -10   8    0.13    0.09
   0  10  -8   14.16    0.77
   0 -10   8   13.35    0.67
   0 -10   8   13.70    0.78
   0 -10   8   14.27    0.77
  -1  10  -8    0.18    0.11
   1 -10   8    0.15    0.08
   1 -10   8    0.13    0.10
   1 -10   8    0.23    0.10
   1 -10   8    0.43    0.11
  -2  10  -8    3.50    0.28
   2 -10   8    3.01    0.24
   2 -10   8    3.59    0.26
   2 -10   8    3.46    0.26
   2 -10   8    2.98    0.24
  -3  10  -8   13.99    0.72
   3 -10   8   13.75    0.65
   3 -10   8   12.29    0.71
   3 -10   8   13.89    0.64
   3   9  -8    6.07    0.42
   3   9  -8    6.42    0.42
   3   9  -8    7.81    0.48
   3   9  -8    7.20    0.46
  -3  -9   8    7.17    0.35
  -3  -9   8    7.19    0.44
   2   9  -8    0.64    0.15
   2   9  -8    0.46    0.15
  -2  -9   8    0.61    0.14
  -2  -9   8    0.46    0.11
   1   9  -8    0.33    0.13
  -1  -9   8    0.28    0.11
  -1  -9   8    0.33    0.11
  -1  -9   8    0.35    0.08
   0   9  -8    0.16    0.10
   0  -9   8    0.47    0.11
   0  -9   8    0.20    0.10
   0  -9   8    0.37    0.11
  -1   9  -8    7.78    0.48
   1  -9   8    7.69    0.49
   1  -9   8    7.39    0.49
   1  -9   8    7.85    0.45
   1  -9   8    7.44    0.43
  -2   9  -8    4.23    0.30
   2  -9   8    3.92    0.31
   2  -9   8    4.09    0.29
   2  -9   8    3.92    0.29
  -3   9  -8    0.54    0.12
   3  -9   8    0.40    0.10
   3  -9   8    0.46    0.11
   3  -9   8    0.37    0.11
  -4   9  -8    0.16    0.07
   4  -9   8    0.10    0.06
   4   8  -8   24.58    1.29
   4   8  -8   23.17    1.29
   4   8  -8   28.58    1.27
   4   8  -8   28.98    1.35
  -4  -8   8   27.14    1.09
   3   8  -8   12.69    0.67
   3   8  -8   11.29    0.67
   3   8  -8   10.15    0.68
   3   8  -8   11.50    0.67
   3   8  -8   12.29    0.70
  -3  -8   8   13.04    0.69
  -3  -8   8   12.38    0.55
   2   8  -8   12.71    0.72
   2   8  -8   11.87    0.73
   2   8  -8   12.08    0.70
  -2  -8   8   13.73    0.74
  -2  -8   8   12.92    0.71
  -2  -8   8   13.39    0.59
   1   8  -8    2.38    0.24
  -1  -8   8    1.97    0.22
  -1  -8   8    2.18    0.23
  -1  -8   8    2.00    0.16
  -1  -8   8    2.07    0.20
   0   8  -8    0.01    0.08
   0  -8   8    0.07    0.07
   0  -8   8    0.08    0.07
   0  -8   8    0.01    0.07
  -1   8  -8    9.41    0.55
   1  -8   8    9.95    0.58
   1  -8   8   10.03    0.59
   1  -8   8    9.74    0.54
   1  -8   8    8.62    0.51
   1  -8   8    9.77    0.51
  -2   8  -8    0.62    0.13
   2  -8   8    0.81    0.15
   2  -8   8    0.74    0.13
   2  -8   8    0.87    0.15
   3  -8   8   27.67    1.20
   3  -8   8   25.29    1.36
   3  -8   8   26.07    1.26
   3  -8   8   26.78    1.20
   3  -8   8   25.78    1.29
   4  -8   8    2.26    0.19
   4  -8   8    2.10    0.19
   5   7  -8    0.09    0.07
   4   7  -8    4.49    0.35
   4   7  -8    4.77    0.35
   4   7  -8    4.13    0.31
   4   7  -8    3.74    0.31
  -4  -7   8    4.16    0.25
   3   7  -8    1.37    0.20
   3   7  -8    1.62    0.25
   3   7  -8    1.39    0.24
   3   7  -8    1.42    0.19
   3   7  -8    1.50    0.19
  -3  -7   8    1.60    0.15
  -3  -7   8    1.79    0.21
   2   7  -8    4.53    0.35
   2   7  -8    4.54    0.34
   2   7  -8    4.47    0.37
  -2  -7   8    4.69    0.34
  -2  -7   8    5.37    0.35
  -2  -7   8    4.30    0.26
   1   7  -8    7.75    0.48
   1   7  -8    7.99    0.49
  -1  -7   8    8.20    0.50
  -1  -7   8    8.04    0.49
  -1  -7   8    8.02    0.44
  -1  -7   8    7.95    0.49
  -1  -7   8    7.58    0.38
   0   7  -8    3.87    0.29
   0  -7   8    3.69    0.26
   0  -7   8    3.89    0.27
   0  -7   8    3.66    0.29
   0  -7   8    3.88    0.30
   0  -7   8    3.89    0.31
  -1   7  -8   16.61    0.87
   1  -7   8   17.17    0.85
   1  -7   8   16.62    0.80
   1  -7   8   17.11    0.82
   1  -7   8   15.86    0.90
   1  -7   8   16.63    0.89
   2  -7   8   61.71    2.57
   2  -7   8   60.53    2.70
   2  -7   8   55.93    2.78
   2  -7   8   61.94    2.82
   2  -7   8   59.51    2.54
   3  -7   8   49.08    2.55
   3  -7   8   52.08    2.18
   3  -7   8   51.05    2.18
   3  -7   8   49.87    2.38
   3  -7   8   51.55    2.37
   4  -7   8   12.46    0.71
   4  -7   8   13.55    0.64
   4  -7   8   13.21    0.65
   5   6  -8    1.09    0.16
   5   6  -8    1.29    0.16
   5   6  -8    1.35    0.20
   5   6  -8    1.34    0.18
  -5  -6   8    1.25    0.12
   4   6  -8   11.44    0.67
   4   6  -8   12.24    0.69
   4   6  -8   11.86    0.67
   4   6  -8   12.53    0.66
   4   6  -8   10.63    0.68
  -4  -6   8   10.97    0.65
  -4  -6   8   12.17    0.54
   3   6  -8   15.34    0.81
   3   6  -8   13.53    0.83
   3   6  -8   15.79    0.83
   3   6  -8   15.52    0.85
  -3  -6   8   15.03    0.67
  -3  -6   8   15.28    0.83
   2   6  -8    8.75    0.51
   2   6  -8    8.40    0.51
  -2  -6   8    7.09    0.48
  -2  -6   8    8.11    0.50
  -2  -6   8    7.90    0.39
  -2  -6   8    7.91    0.49
   1   6  -8   15.27    0.80
   1   6  -8   14.79    0.80
  -1  -6   8   14.21    0.80
  -1  -6   8   14.89    0.78
  -1  -6   8   15.26    0.81
  -1  -6   8   14.53    0.71
   0   6  -8    9.04    0.51
   0  -6   8    9.52    0.54
   0  -6   8    8.35    0.46
   0  -6   8    9.09    0.52
   0  -6   8    8.72    0.48
   0  -6   8    8.81    0.53
   1  -6   8    1.29    0.15
   1  -6   8    1.14    0.16
   1  -6   8    1.21    0.15
   1  -6   8    1.28    0.16
   2  -6   8    8.80    0.48
   2  -6   8    8.63    0.47
   2  -6   8    8.38    0.50
   2  -6   8    8.57    0.48
   2  -6   8    7.96    0.48
   3  -6   8   32.63    1.73
   3  -6   8   34.20    1.62
   3  -6   8   35.02    1.50
   3  -6   8   32.80    1.48
   3  -6   8   33.04    1.59
   4  -6   8    1.03    0.16
   4  -6   8    1.14    0.16
   4  -6   8    1.23    0.12
   5   5  -8    9.59    0.52
   5   5  -8    8.54    0.54
   5   5  -8    8.82    0.54
   5   5  -8    9.58    0.56
  -5  -5   8    9.70    0.44
   4   5  -8    2.83    0.28
   4   5  -8    2.29    0.24
   4   5  -8    2.08    0.23
   4   5  -8    2.75    0.27
   4   5  -8    2.48    0.27
  -4  -5   8    2.64    0.23
  -4  -5   8    2.48    0.18
   3   5  -8   10.36    0.62
   3   5  -8   10.54    0.63
   3   5  -8   11.01    0.63
  -3  -5   8   10.61    0.49
  -3  -5   8   10.51    0.61
   2   5  -8    0.07    0.08
  -2  -5   8    0.28    0.09
  -2  -5   8    0.06    0.06
   1   5  -8    0.76    0.14
  -1  -5   8    1.04    0.14
   0   5  -8   22.00    1.12
   0  -5   8   22.63    1.09
   0  -5   8   20.91    1.14
   0  -5   8   21.26    0.99
   0  -5   8   24.08    1.13
   0  -5   8   23.33    1.02
   1  -5   8   83.21    3.42
   1  -5   8   81.37    3.69
   1  -5   8   83.91    3.79
   1  -5   8   84.10    3.81
   1  -5   8   79.51    3.44
   2  -5   8    0.55    0.11
   2  -5   8    0.37    0.10
   2  -5   8    0.23    0.08
   2  -5   8    0.26    0.09
   2  -5   8    0.30    0.08
   3  -5   8   19.12    0.91
   3  -5   8   17.42    0.99
   3  -5   8   18.65    0.89
   3  -5   8   18.16    0.93
   4  -5   8    0.08    0.07
   4  -5   8    0.09    0.05
   4  -5   8    0.12    0.08
   4  -5   8    0.17    0.07
   6   4  -8    1.47    0.16
   5   4  -8    1.89    0.23
   5   4  -8    2.41    0.25
   5   4  -8    1.84    0.21
   5   4  -8    2.15    0.23
   5   4  -8    2.56    0.23
  -5  -4   8    2.18    0.17
   4   4  -8   20.76    1.08
   4   4  -8   20.25    1.01
   4   4  -8   18.58    1.06
   4   4  -8   21.40    1.06
   4   4  -8   19.61    1.10
  -4  -4   8   20.07    0.87
  -4  -4   8   20.75    1.06
   3   4  -8   29.38    1.50
   3   4  -8   29.96    1.47
  -3  -4   8   29.27    1.22
  -3  -4   8   29.45    1.50
   2   4  -8   48.95    2.17
   2   4  -8   44.33    2.22
  -2  -4   8   43.79    2.10
  -2  -4   8   45.71    2.16
  -2  -4   8   44.25    1.91
  -2  -4   8   44.48    1.82
  -2  -4   8   46.13    2.23
   1   4  -8   17.66    0.89
   1   4  -8   15.81    0.88
  -1  -4   8   17.32    0.89
  -1  -4   8   16.56    0.87
  -1  -4   8   16.60    0.79
  -1  -4   8   19.92    0.92
   0   4  -8    1.57    0.17
   0   4  -8    1.49    0.15
   0  -4   8    1.70    0.17
   0  -4   8    1.61    0.16
   0  -4   8    1.57    0.15
   1  -4   8   57.10    2.55
   1  -4   8   55.44    2.60
   1  -4   8   55.65    2.36
   1  -4   8   56.02    2.62
   1  -4   8   56.37    2.38
   2  -4   8   11.13    0.59
   2  -4   8   11.44    0.61
   2  -4   8   12.20    0.59
   2  -4   8   11.08    0.62
   2  -4   8   10.80    0.59
   3  -4   8   27.70    1.57
   3  -4   8   28.01    1.44
   3  -4   8   31.20    1.37
   3  -4   8   33.78    1.48
   3  -4   8   31.23    1.41
   4  -4   8    1.43    0.13
   4  -4   8    1.53    0.15
   4  -4   8    1.48    0.18
   6   3  -8   10.42    0.57
   6   3  -8    8.66    0.53
  -6  -3   8   11.41    0.46
   5   3  -8    1.30    0.22
   5   3  -8    1.50    0.15
   5   3  -8    1.33    0.18
   5   3  -8    1.47    0.20
   5   3  -8    1.74    0.20
   5   3  -8    1.52    0.21
  -5  -3   8    1.67    0.15
   4   3  -8    0.50    0.13
   4   3  -8    0.37    0.11
   4   3  -8    0.40    0.11
   4   3  -8    0.38    0.13
   4   3  -8    0.49    0.09
  -4  -3   8    0.38    0.11
  -4  -3   8    0.37    0.08
   3   3  -8    1.71    0.19
   3   3  -8    1.68    0.21
  -3  -3   8    2.24    0.16
  -3  -3   8    2.37    0.20
   2   3  -8   58.41    2.52
   2   3  -8   51.50    2.60
  -2  -3   8   52.81    2.23
  -2  -3   8   52.35    2.60
  -2  -3   8   52.28    2.12
   1   3  -8   25.27    1.20
  -1  -3   8   25.69    1.07
  -1  -3   8   24.16    1.19
  -1  -3   8   23.18    1.16
  -1  -3   8   23.26    1.23
   0   3  -8    8.12    0.45
   0  -3   8    7.89    0.45
   0  -3   8    7.59    0.41
   0  -3   8    7.51    0.44
   1  -3   8  455.85   19.79
   1  -3   8  439.93   19.14
   1  -3   8  428.76   17.76
   1  -3   8  433.50   19.86
   2  -3   8    2.98    0.23
   2  -3   8    2.78    0.20
   2  -3   8    3.08    0.24
   2  -3   8    3.25    0.25
   3  -3   8    1.57    0.17
   3  -3   8    1.43    0.16
   3  -3   8    1.24    0.18
   3  -3   8    1.55    0.19
   3  -3   8    1.31    0.13
   4  -3   8    0.60    0.11
   4  -3   8    0.65    0.11
   6   2  -8    0.46    0.11
  -6  -2   8    0.48    0.09
   5   2  -8    5.58    0.41
   5   2  -8    5.13    0.38
   5   2  -8    5.63    0.36
   5   2  -8    5.78    0.30
   5   2  -8    5.12    0.37
  -5  -2   8    5.56    0.36
  -5  -2   8    5.75    0.30
   4   2  -8    0.94    0.17
   4   2  -8    0.64    0.12
   4   2  -8    0.82    0.11
   4   2  -8    0.57    0.14
   4   2  -8    0.61    0.13
  -4  -2   8    0.76    0.14
   3   2  -8   71.59    3.08
   3   2  -8   72.19    3.29
   3   2  -8   72.68    3.27
  -3  -2   8   64.55    2.90
  -3  -2   8   70.17    3.40
   2   2  -8  122.45    5.29
   2   2  -8  125.72    5.63
  -2  -2   8  122.01    5.88
  -2  -2   8  122.79    5.03
   1   2  -8   82.22    3.64
  -1  -2   8   75.17    3.52
  -1  -2   8   78.54    3.64
  -1  -2   8   76.11    3.79
  -1  -2   8   82.35    3.26
   0   2  -8    6.21    0.39
   0  -2   8    7.77    0.37
   0  -2   8    6.33    0.39
   0  -2   8    6.27    0.38
   1  -2   8   51.41    2.33
   1  -2   8   50.01    2.40
   1  -2   8   52.52    2.18
   2  -2   8   34.29    1.67
   2  -2   8   39.25    1.59
   2  -2   8   34.84    1.73
   3  -2   8    3.00    0.24
   3  -2   8    2.67    0.25
   3  -2   8    3.21    0.24
   3  -2   8    3.20    0.24
   4  -2   8    0.99    0.12
   4  -2   8    0.89    0.16
   6   1  -8    2.34    0.22
   6   1  -8    2.60    0.18
   6   1  -8    2.70    0.21
  -6  -1   8    2.71    0.17
   5   1  -8    1.56    0.15
   5   1  -8    1.44    0.19
   5   1  -8    1.62    0.21
   5   1  -8    1.53    0.22
   5   1  -8    1.38    0.18
  -5  -1   8    1.47    0.19
  -5  -1   8    2.04    0.16
   4   1  -8   14.11    0.71
   4   1  -8   12.63    0.67
   4   1  -8   12.03    0.57
   4   1  -8   11.72    0.68
  -4  -1   8   11.97    0.69
   3   1  -8   37.12    1.71
   3   1  -8   38.04    1.81
   3   1  -8   36.91    1.80
  -3  -1   8   36.10    1.59
  -3  -1   8   39.61    1.87
   2   1  -8    9.21    0.51
   2   1  -8    9.74    0.53
  -2  -1   8    9.76    0.47
  -2  -1   8    9.66    0.54
   1   1  -8    0.78    0.11
  -1  -1   8    0.89    0.10
  -1  -1   8    0.91    0.11
  -1  -1   8    0.81    0.11
  -1  -1   8    0.68    0.11
   0   1  -8   19.46    0.96
   0  -1   8   20.04    0.87
   0  -1   8   18.11    0.92
   0  -1   8   19.16    0.96
   1  -1   8   53.61    2.50
   1  -1   8   58.33    2.59
   1  -1   8   54.07    2.33
   2  -1   8   74.36    2.94
   2  -1   8   67.63    3.15
   2  -1   8   69.12    3.26
   3  -1   8    7.18    0.42
   3  -1   8    7.55    0.41
   3  -1   8    6.58    0.45
   4  -1   8    0.10    0.06
   6   0  -8    2.26    0.21
   6   0  -8    2.37    0.22
   6   0  -8    2.31    0.17
  -6   0   8    2.46    0.17
   5   0  -8    4.82    0.34
   5   0  -8    4.39    0.33
   5   0  -8    5.09    0.35
   5   0  -8    5.12    0.28
   5   0  -8    4.24    0.34
  -5   0   8    5.13    0.33
   4   0  -8   40.98    1.68
   4   0  -8   39.31    1.95
   4   0  -8   41.68    1.87
  -4   0   8   41.28    2.03
   3   0  -8   11.93    0.64
   3   0  -8   12.22    0.64
  -3   0   8   11.45    0.56
   2   0  -8  108.35    4.26
   2   0  -8   91.10    4.49
  -2   0   8   95.26    4.03
   1   0  -8    0.16    0.06
  -1   0   8    0.09    0.06
  -1   0   8    0.23    0.06
  -1   0   8    0.15    0.07
   0   0  -8    3.29    0.25
   0   0   8    4.01    0.26
   0   0   8    3.25    0.24
   1   0   8   47.55    2.07
   1   0   8   52.09    2.31
   1   0   8   47.86    2.23
   2   0   8   52.47    2.44
   2   0   8   51.67    2.19
   2   0   8   51.60    2.36
   3   0   8    2.02    0.19
   3   0   8    1.98    0.18
   6  -1  -8    3.88    0.23
   6  -1  -8    3.85    0.28
  -6   1   8    3.80    0.22
   5  -1  -8   27.10    1.27
   5  -1  -8   26.27    1.13
  -5   1   8   26.51    1.36
   4  -1  -8    1.02    0.13
   4  -1  -8    0.79    0.14
   4  -1  -8    1.30    0.21
  -4   1   8    0.80    0.11
   3  -1  -8   12.26    0.58
   3  -1  -8   12.85    0.68
   3  -1  -8   13.54    0.70
  -3   1   8   12.82    0.61
   2  -1  -8    7.30    0.43
   2  -1  -8    7.35    0.44
  -2   1   8    7.84    0.39
   1  -1  -8    0.44    0.09
  -1   1   8    0.47    0.09
   0  -1  -8    1.55    0.15
   0   1   8    1.72    0.15
   0   1   8    1.42    0.16
   0   1   8    1.66    0.16
  -1  -1  -8   35.55    1.78
   1   1   8   37.84    1.74
   1   1   8   39.26    1.79
   2   1   8   40.66    1.89
   2   1   8   38.69    1.83
   3   1   8   26.98    1.22
   3   1   8   25.12    1.26
   6  -2  -8    0.22    0.07
   6  -2  -8    0.09    0.08
  -6   2   8    0.03    0.07
   5  -2  -8   21.33    0.93
   5  -2  -8   21.91    1.06
  -5   2   8   21.57    1.12
   4  -2  -8  614.96   28.22
   4  -2  -8  655.49   24.68
   4  -2  -8  622.14   26.55
  -4   2   8  618.65   25.30
   3  -2  -8   17.73    0.93
   3  -2  -8   19.04    0.95
   3  -2  -8   18.00    0.81
  -3   2   8   19.41    0.85
   2  -2  -8   66.99    3.02
   2  -2  -8   69.44    3.17
  -2   2   8   69.20    2.86
   1  -2  -8    2.52    0.21
  -1   2   8    2.77    0.19
   0  -2  -8   54.40    2.50
   0   2   8   52.82    2.50
   0   2   8   50.60    2.43
   0   2   8   56.06    2.25
  -1  -2  -8    5.50    0.35
   1   2   8    5.76    0.37
   1   2   8    5.96    0.36
   2   2   8    4.55    0.30
   2   2   8    4.20    0.29
   3   2   8    2.62    0.20
   3   2   8    3.01    0.21
   6  -3  -8    4.27    0.23
   6  -3  -8    3.87    0.29
  -6   3   8    4.06    0.27
   5  -3  -8    2.59    0.26
   5  -3  -8    2.62    0.19
   4  -3  -8   99.51    3.79
   4  -3  -8   93.02    4.14
   4  -3  -8   91.18    4.32
  -4   3   8   93.47    3.89
   3  -3  -8  252.25   11.24
   3  -3  -8  236.70   10.61
   3  -3  -8  250.93    9.83
  -3   3   8  254.67   10.10
   2  -3  -8   14.36    0.71
   2  -3  -8   12.87    0.71
  -2   3   8   13.12    0.65
   1  -3  -8    7.64    0.49
  -1   3   8   10.28    0.47
   0  -3  -8   17.66    0.87
   0   3   8   16.83    0.78
   0   3   8   16.80    0.86
  -1  -3  -8    0.88    0.12
   1   3   8    0.88    0.13
   1   3   8    1.01    0.17
   2   3   8    0.05    0.07
   2   3   8    0.00    0.07
   6  -4  -8    0.89    0.10
   6  -4  -8    0.75    0.12
   5  -4  -8   11.10    0.60
   5  -4  -8   11.47    0.50
  -5   4   8    9.34    0.49
   4  -4  -8    4.78    0.37
   4  -4  -8    5.07    0.29
   4  -4  -8    4.82    0.31
  -4   4   8    4.78    0.30
   3  -4  -8    5.20    0.29
   3  -4  -8    5.27    0.33
   3  -4  -8    5.25    0.38
  -3   4   8    4.68    0.31
   2  -4  -8    3.63    0.25
   2  -4  -8    3.03    0.28
  -2   4   8    3.23    0.24
   1  -4  -8    0.05    0.07
   1  -4  -8    0.13    0.07
  -1   4   8    0.07    0.05
   0  -4  -8   26.49    1.28
   1   4   8    7.36    0.43
   2   4   8    0.05    0.07
   5  -5  -8    1.81    0.21
   5  -5  -8    2.03    0.15
  -5   5   8    1.78    0.14
   4  -5  -8   16.35    0.71
   4  -5  -8   15.52    0.82
  -4   5   8   16.24    0.75
   3  -5  -8    4.65    0.27
   3  -5  -8    4.66    0.30
   3  -5  -8    5.01    0.35
   2  -5  -8    2.07    0.18
   2  -5  -8    1.63    0.21
  -2   5   8    1.93    0.17
   1  -5  -8    5.92    0.38
   1  -5  -8    6.57    0.38
  -1   5   8    6.02    0.33
   0  -5  -8   17.92    0.88
   0  -5  -8   17.40    0.85
  -1  -5  -8    0.33    0.09
   1   5   8    0.36    0.10
   5  -6  -8    1.25    0.11
   4  -6  -8   33.67    1.39
  -4   6   8   33.58    1.44
   3  -6  -8   17.77    0.90
   3  -6  -8   17.70    0.79
   3  -6  -8   18.60    0.91
  -3   6   8   19.67    0.85
   2  -6  -8   10.28    0.55
   2  -6  -8   10.59    0.56
  -2   6   8   10.19    0.50
   1  -6  -8    1.71    0.16
   0  -6  -8    7.75    0.42
  -4   7   8    0.08    0.05
   3  -7  -8    4.19    0.25
  -3   7   8    4.05    0.24
   2  -7  -8    1.17    0.12
  -2   7   8    1.13    0.11
   1  -7  -8    1.79    0.14
   1  11  -9    0.20    0.11
  -1 -11   9    0.12    0.09
  -1 -11   9    0.12    0.07
   0  11  -9    0.16    0.11
   0 -11   9    0.12    0.07
   0 -11   9    0.11    0.09
   0 -11   9    0.10    0.07
  -1  11  -9    5.60    0.36
   1 -11   9    5.48    0.35
   1 -11   9    5.43    0.32
   1 -11   9    5.34    0.35
  -2  11  -9    1.38    0.18
   2 -11   9    1.17    0.13
   2 -11   9    0.92    0.14
   2 -11   9    1.13    0.13
   3  10  -9    0.20    0.11
   2  10  -9    1.25    0.22
   2  10  -9    1.10    0.16
   2  10  -9    1.11    0.19
  -2 -10   9    1.34    0.18
  -2 -10   9    1.15    0.14
  -2 -10   9    1.10    0.12
   1  10  -9   17.89    0.94
  -1 -10   9   16.69    0.91
  -1 -10   9   18.06    0.95
   0  10  -9    6.19    0.42
   0 -10   9    6.06    0.36
   0 -10   9    6.17    0.41
   0 -10   9    6.19    0.41
  -1  10  -9    0.72    0.15
   1 -10   9    0.42    0.10
   1 -10   9    0.44    0.11
   1 -10   9    0.57    0.12
   1 -10   9    0.40    0.11
  -2  10  -9    3.45    0.26
   2 -10   9    2.89    0.22
   2 -10   9    2.65    0.23
   2 -10   9    2.97    0.23
  -3  10  -9    0.37    0.10
   3 -10   9    0.28    0.07
   3 -10   9    0.31    0.08
   3   9  -9    1.63    0.20
   3   9  -9    1.56    0.18
   3   9  -9    1.89    0.25
   3   9  -9    2.02    0.25
  -3  -9   9    2.05    0.15
  -3  -9   9    2.08    0.21
   2   9  -9   14.77    0.80
   2   9  -9   13.59    0.77
  -2  -9   9   13.44    0.75
  -2  -9   9   14.14    0.63
  -2  -9   9   15.34    0.80
   1   9  -9   28.96    1.44
  -1  -9   9   26.55    1.40
  -1  -9   9   28.33    1.45
   0   9  -9    0.07    0.10
   0  -9   9    0.07    0.08
   0  -9   9    0.12    0.08
   0  -9   9    0.06    0.08
  -1   9  -9   39.69    1.93
   1  -9   9   39.96    1.90
   1  -9   9   39.03    1.71
   1  -9   9   38.63    1.67
   1  -9   9   37.14    1.94
  -2   9  -9   33.44    1.65
   2  -9   9   32.44    1.61
   2  -9   9   33.48    1.47
   2  -9   9   32.97    1.45
  -3   9  -9    1.18    0.17
   3  -9   9    1.11    0.15
   3  -9   9    1.23    0.14
   4   8  -9    0.63    0.13
   4   8  -9    0.47    0.10
   4   8  -9    0.44    0.13
   4   8  -9    0.42    0.12
  -4  -8   9    0.71    0.10
   3   8  -9    7.13    0.47
   3   8  -9    7.14    0.47
   3   8  -9    8.56    0.51
   3   8  -9    8.05    0.50
  -3  -8   9    7.68    0.38
  -3  -8   9    8.21    0.49
   2   8  -9    4.58    0.35
   2   8  -9    4.30    0.33
   2   8  -9    4.19    0.36
  -2  -8   9    4.06    0.32
  -2  -8   9    4.83    0.34
  -2  -8   9    4.31    0.25
   1   8  -9   79.61    4.07
  -1  -8   9   86.18    3.53
  -1  -8   9   92.09    3.96
  -1  -8   9   80.63    4.11
   0   8  -9   17.19    0.96
   0  -8   9   19.55    0.88
   0  -8   9   19.06    0.99
   0  -8   9   17.43    0.92
   0  -8   9   17.33    0.97
  -1   8  -9    1.28    0.18
   1  -8   9    1.53    0.19
   1  -8   9    1.45    0.17
   1  -8   9    1.41    0.18
   1  -8   9    1.47    0.19
   1  -8   9    1.71    0.20
  -2   8  -9   23.28    1.18
   2  -8   9   23.75    1.07
   2  -8   9   22.61    1.17
   2  -8   9   22.84    1.08
  -3   8  -9    0.24    0.10
   3  -8   9    0.19    0.08
   3  -8   9    0.41    0.09
   3  -8   9    0.22    0.08
   4   7  -9    4.05    0.31
   4   7  -9    4.29    0.33
   4   7  -9    4.08    0.31
   4   7  -9    5.01    0.35
  -4  -7   9    4.36    0.24
  -4  -7   9    4.11    0.31
   3   7  -9    1.61    0.20
   3   7  -9    1.28    0.19
   3   7  -9    1.58    0.24
   3   7  -9    1.82    0.25
  -3  -7   9    1.63    0.20
  -3  -7   9    1.45    0.14
   2   7  -9   26.39    1.35
   2   7  -9   26.72    1.31
   2   7  -9   26.29    1.32
  -2  -7   9   26.77    1.32
  -2  -7   9   24.86    1.35
  -2  -7   9   25.50    1.09
   1   7  -9    3.03    0.26
  -1  -7   9    2.44    0.22
  -1  -7   9    2.41    0.24
  -1  -7   9    2.66    0.25
  -1  -7   9    2.61    0.26
   0   7  -9    3.20    0.26
   0  -7   9    2.51    0.24
   0  -7   9    2.17    0.24
   0  -7   9    3.03    0.25
   0  -7   9    2.75    0.23
   0  -7   9    3.02    0.24
  -1   7  -9   11.57    0.63
   1  -7   9   11.60    0.66
   1  -7   9   11.68    0.59
   1  -7   9   11.56    0.63
   1  -7   9   10.50    0.59
  -2   7  -9   19.62    1.00
   2  -7   9   19.59    0.92
   2  -7   9   19.11    1.00
   2  -7   9   18.99    0.93
   2  -7   9   19.07    0.94
   3  -7   9   27.50    1.37
   3  -7   9   29.66    1.27
   3  -7   9   27.49    1.25
   5   6  -9    0.06    0.08
   5   6  -9    0.01    0.09
   5   6  -9    0.09    0.09
   5   6  -9    0.02    0.06
  -5  -6   9    0.03    0.05
   4   6  -9   12.21    0.73
   4   6  -9   12.76    0.73
   4   6  -9   13.33    0.71
   4   6  -9   13.42    0.74
  -4  -6   9   13.25    0.72
  -4  -6   9   13.22    0.59
   3   6  -9    0.40    0.15
   3   6  -9    0.31    0.13
   3   6  -9    0.28    0.10
  -3  -6   9    0.37    0.11
  -3  -6   9    0.21    0.07
   2   6  -9    0.12    0.09
  -2  -6   9    0.08    0.07
  -2  -6   9    0.09    0.09
  -2  -6   9    0.10    0.08
  -2  -6   9    0.10    0.06
   1   6  -9    2.62    0.22
   1   6  -9    1.99    0.22
  -1  -6   9    1.88    0.19
  -1  -6   9    2.01    0.22
  -1  -6   9    2.06    0.23
  -1  -6   9    2.33    0.21
   0   6  -9   15.20    0.78
   0  -6   9   13.78    0.79
   0  -6   9   14.06    0.70
   0  -6   9   14.71    0.80
   0  -6   9   14.91    0.72
   0  -6   9   14.20    0.77
  -1   6  -9    4.22    0.29
   1  -6   9    4.08    0.29
   1  -6   9    4.11    0.30
   1  -6   9    3.95    0.30
   1  -6   9    4.17    0.30
   2  -6   9    0.26    0.09
   2  -6   9    0.41    0.11
   2  -6   9    0.19    0.09
   2  -6   9    0.24    0.09
   3  -6   9    0.45    0.09
   3  -6   9    0.50    0.11
   3  -6   9    0.37    0.10
   5   5  -9    1.99    0.21
   5   5  -9    1.66    0.20
   5   5  -9    1.91    0.19
   5   5  -9    2.12    0.22
  -5  -5   9    2.02    0.15
   4   5  -9    2.63    0.26
   4   5  -9    1.97    0.25
   4   5  -9    2.16    0.25
   4   5  -9    1.92    0.22
  -4  -5   9    2.12    0.17
  -4  -5   9    2.29    0.22
   3   5  -9   67.60    3.21
   3   5  -9   63.32    3.11
  -3  -5   9   64.95    2.62
  -3  -5   9   67.78    3.22
   2   5  -9    3.21    0.26
   2   5  -9    2.60    0.25
  -2  -5   9    2.94    0.24
  -2  -5   9    2.36    0.20
  -2  -5   9    2.73    0.25
  -2  -5   9    2.55    0.25
  -2  -5   9    2.60    0.17
   1   5  -9    2.58    0.23
   1   5  -9    2.51    0.23
  -1  -5   9    2.44    0.20
  -1  -5   9    2.64    0.24
  -1  -5   9    2.51    0.24
  -1  -5   9    2.65    0.22
  -1  -5   9    2.29    0.20
   0   5  -9    0.17    0.08
   0  -5   9    0.10    0.07
   0  -5   9    0.14    0.07
   0  -5   9    0.02    0.07
   0  -5   9    0.11    0.06
  -1   5  -9    0.31    0.09
   1  -5   9    0.36    0.10
   1  -5   9    0.28    0.09
   1  -5   9    0.33    0.09
   2  -5   9   71.96    3.27
   2  -5   9   67.64    2.95
   2  -5   9   71.51    2.97
   2  -5   9   67.57    3.23
   2  -5   9   71.55    3.15
   3  -5   9    2.89    0.23
   3  -5   9    2.84    0.22
   3  -5   9    2.46    0.18
   5   4  -9    0.21    0.11
   5   4  -9    0.62    0.13
   5   4  -9    0.27    0.11
   5   4  -9    0.27    0.11
  -5  -4   9    0.34    0.08
  -5  -4   9    0.32    0.11
   4   4  -9   13.34    0.75
   4   4  -9   14.06    0.77
   4   4  -9   12.45    0.75
   4   4  -9   13.72    0.73
  -4  -4   9   13.63    0.61
  -4  -4   9   13.98    0.75
   3   4  -9  131.47    6.19
  -3  -4   9  128.99    6.22
  -3  -4   9  129.00    5.08
   2   4  -9   36.03    1.78
   2   4  -9   38.44    1.76
  -2  -4   9   34.99    1.70
  -2  -4   9   35.04    1.54
  -2  -4   9   36.45    1.79
  -2  -4   9   35.03    1.74
  -2  -4   9   34.99    1.45
   1   4  -9    0.86    0.14
   1   4  -9    0.88    0.14
  -1  -4   9    1.27    0.14
  -1  -4   9    0.98    0.16
  -1  -4   9    0.88    0.12
  -1  -4   9    0.84    0.13
   0   4  -9   12.56    0.68
   0  -4   9   12.96    0.70
   0  -4   9   12.75    0.68
   0  -4   9   12.81    0.63
   1  -4   9    1.06    0.14
   1  -4   9    0.86    0.14
   1  -4   9    1.11    0.15
   1  -4   9    0.85    0.14
   2  -4   9    7.54    0.45
   2  -4   9    8.14    0.47
   2  -4   9    7.88    0.45
   2  -4   9    7.89    0.46
   3  -4   9    3.71    0.24
   3  -4   9    2.69    0.24
   3  -4   9    3.03    0.24
   6   3  -9    4.78    0.33
  -6  -3   9    5.50    0.26
   5   3  -9    2.47    0.23
   5   3  -9    2.46    0.25
  -5  -3   9    2.44    0.22
  -5  -3   9    2.55    0.18
   4   3  -9    0.23    0.08
   4   3  -9    0.04    0.11
   4   3  -9    0.13    0.09
   4   3  -9    0.52    0.15
  -4  -3   9    0.12    0.09
  -4  -3   9    0.25    0.08
   3   3  -9   28.21    1.41
  -3  -3   9   29.50    1.45
  -3  -3   9   27.33    1.17
   2   3  -9   55.06    2.52
  -2  -3   9   52.62    2.61
  -2  -3   9   52.27    2.24
   1   3  -9   25.07    1.22
   1   3  -9   27.94    1.31
  -1  -3   9   25.23    1.33
  -1  -3   9   25.99    1.27
  -1  -3   9   28.00    1.17
  -1  -3   9   26.07    1.30
   0   3  -9   45.12    2.20
   0  -3   9   47.11    2.14
   0  -3   9   47.37    2.21
   0  -3   9   46.72    1.99
   1  -3   9  246.05    9.43
   1  -3   9  216.94   10.14
   2  -3   9   16.65    0.92
   2  -3   9   18.40    0.86
   2  -3   9   18.91    0.90
   3  -3   9    1.56    0.17
   3  -3   9    1.24    0.16
   6   2  -9    0.61    0.11
  -6  -2   9    0.70    0.09
   5   2  -9    0.19    0.09
   5   2  -9    0.19    0.10
   5   2  -9    0.15    0.09
   5   2  -9    0.07    0.07
  -5  -2   9    0.36    0.11
  -5  -2   9    0.08    0.06
   4   2  -9    8.72    0.43
   4   2  -9    9.17    0.55
   4   2  -9    8.66    0.53
   4   2  -9    8.96    0.52
  -4  -2   9    8.80    0.43
  -4  -2   9    9.06    0.53
   3   2  -9   13.27    0.71
   3   2  -9   12.88    0.71
   3   2  -9   13.27    0.69
  -3  -2   9   12.56    0.61
  -3  -2   9   12.75    0.71
   2   2  -9   21.01    1.00
   2   2  -9   21.24    1.06
  -2  -2   9   21.30    0.94
  -2  -2   9   20.29    1.08
   1   2  -9   42.36    1.91
  -1  -2   9   39.57    1.90
  -1  -2   9   37.56    1.96
  -1  -2   9   41.90    1.71
  -1  -2   9   37.69    1.84
   0   2  -9   18.99    0.98
   0  -2   9   18.78    0.95
   0  -2   9   19.45    0.98
   0  -2   9   19.80    0.89
   1  -2   9  318.10   13.55
   1  -2   9  301.32   13.99
   1  -2   9  310.42   12.57
   2  -2   9   23.98    1.15
   2  -2   9   23.34    1.18
   2  -2   9   24.33    1.09
   3  -2   9    0.11    0.07
   3  -2   9    0.21    0.08
   6   1  -9    1.48    0.17
   6   1  -9    1.66    0.13
   6   1  -9    1.90    0.18
  -6  -1   9    1.71    0.13
   5   1  -9    5.84    0.38
   5   1  -9    5.56    0.38
   5   1  -9    5.59    0.30
   5   1  -9    5.50    0.38
  -5  -1   9    5.80    0.30
   4   1  -9    9.09    0.54
   4   1  -9    9.12    0.55
   4   1  -9    9.78    0.54
   4   1  -9    9.05    0.44
  -4  -1   9    9.47    0.55
   3   1  -9    0.35    0.10
   3   1  -9    0.11    0.09
  -3  -1   9    0.11    0.06
  -3  -1   9    0.23    0.09
   2   1  -9    9.05    0.52
   2   1  -9    8.65    0.50
  -2  -1   9    8.81    0.51
  -2  -1   9    9.10    0.45
   1   1  -9   43.45    1.97
  -1  -1   9   39.83    2.02
  -1  -1   9   41.95    1.96
  -1  -1   9   43.02    1.76
  -1  -1   9   37.78    1.90
   0   1  -9   29.66    1.48
   0  -1   9   30.68    1.48
   0  -1   9   29.75    1.44
   0  -1   9   31.77    1.34
   1  -1   9    7.73    0.46
   1  -1   9    7.76    0.46
   1  -1   9    8.05    0.43
   2  -1   9    0.38    0.09
   2  -1   9    0.22    0.08
   2  -1   9    0.27    0.09
   3  -1   9    9.10    0.50
   3  -1   9    9.31    0.49
   6   0  -9    0.34    0.09
   6   0  -9    0.30    0.07
  -6   0   9    0.43    0.08
   5   0  -9   10.40    0.64
   5   0  -9   13.06    0.65
   5   0  -9   12.02    0.54
  -5   0   9   11.96    0.66
   4   0  -9    0.64    0.10
   4   0  -9    0.60    0.12
   4   0  -9    0.61    0.14
  -4   0   9    0.57    0.12
   3   0  -9   85.27    3.69
   3   0  -9   85.85    3.89
  -3   0   9   82.98    3.47
  -3   0   9   82.10    4.05
   2   0  -9    7.28    0.45
   2   0  -9    7.92    0.46
  -2   0   9    7.83    0.40
   1   0  -9   13.24    0.67
  -1   0   9   11.48    0.65
   0   0  -9   37.28    1.85
   0   0   9   41.98    1.86
   0   0   9   39.18    1.67
   0   0   9   36.89    1.79
   1   0   9  113.00    5.09
   1   0   9  116.57    5.26
   2   0   9    0.04    0.06
   2   0   9    0.04    0.06
   2   0   9    0.20    0.08
   3   0   9   12.17    0.61
   3   0   9   12.15    0.63
   6  -1  -9    0.70    0.10
   6  -1  -9    0.70    0.11
  -6   1   9    0.87    0.10
  -6   1   9    0.65    0.11
   5  -1  -9   27.73    1.18
   5  -1  -9   27.97    1.32
  -5   1   9   28.27    1.42
   4  -1  -9   23.72    1.00
   4  -1  -9   22.78    1.17
   4  -1  -9   25.20    1.16
  -4   1   9   23.13    1.03
  -4   1   9   22.25    1.21
   3  -1  -9    2.13    0.20
   3  -1  -9    2.29    0.25
  -3   1   9    2.27    0.18
   2  -1  -9   22.13    1.05
   2  -1  -9   21.70    1.08
  -2   1   9   21.18    1.11
  -2   1   9   20.92    0.96
   1  -1  -9    0.59    0.11
  -1   1   9    0.59    0.10
   0  -1  -9    0.13    0.07
   0   1   9    0.11    0.07
   0   1   9    0.26    0.07
   0   1   9    0.19    0.08
   1   1   9   10.43    0.59
   1   1   9   11.09    0.58
   2   1   9   21.58    1.11
   2   1   9   23.81    1.09
   6  -2  -9    0.44    0.07
   6  -2  -9    0.72    0.11
   5  -2  -9    2.09    0.23
   5  -2  -9    1.67    0.15
  -5   2   9    1.53    0.19
   4  -2  -9   25.66    1.21
   4  -2  -9   24.15    1.04
   4  -2  -9   23.44    1.20
  -4   2   9   24.36    1.07
   3  -2  -9    0.23    0.12
   3  -2  -9    0.30    0.09
  -3   2   9    0.35    0.08
   2  -2  -9    1.79    0.21
   2  -2  -9    2.38    0.20
  -2   2   9    2.07    0.17
   1  -2  -9   15.73    0.82
  -1   2   9   16.05    0.75
   0  -2  -9    8.39    0.48
   0   2   9    8.48    0.43
   0   2   9    7.86    0.47
   1   2   9    2.90    0.24
   1   2   9    2.61    0.21
   2   2   9    2.10    0.18
   2   2   9    2.45    0.20
   5  -3  -9    0.93    0.11
   5  -3  -9    1.08    0.16
  -5   3   9    0.90    0.15
   4  -3  -9   43.56    1.79
   4  -3  -9   44.89    2.01
   4  -3  -9   43.15    2.06
  -4   3   9   42.95    1.84
   3  -3  -9    1.95    0.19
  -3   3   9    2.02    0.17
   2  -3  -9   12.18    0.64
   2  -3  -9   12.19    0.64
  -2   3   9   10.44    0.56
   1  -3  -9    7.91    0.47
   1  -3  -9    8.20    0.47
  -1   3   9    8.08    0.42
   0  -3  -9   14.14    0.72
   0   3   9   13.56    0.71
   1   3   9    2.83    0.23
   5  -4  -9    2.52    0.24
   5  -4  -9    2.55    0.17
  -5   4   9    2.97    0.22
  -5   4   9    2.31    0.17
   4  -4  -9    2.19    0.19
   4  -4  -9    2.54    0.24
   4  -4  -9    2.26    0.17
  -4   4   9    2.31    0.17
   3  -4  -9    0.10    0.10
  -3   4   9    0.11    0.06
   2  -4  -9    1.43    0.20
   2  -4  -9    1.72    0.17
  -2   4   9    1.62    0.15
   1  -4  -9   19.87    0.98
   1  -4  -9   20.76    1.02
  -1   4   9   20.81    0.92
   0  -4  -9   14.13    0.69
   0  -4  -9   13.39    0.70
  -1  -4  -9    2.08    0.18
   1   4   9    2.44    0.21
  -5   5   9   11.96    0.64
   4  -5  -9   41.29    1.82
   4  -5  -9   38.10    1.89
  -4   5   9   41.92    1.70
   3  -5  -9    0.40    0.12
   3  -5  -9    0.56    0.10
   2  -5  -9    3.28    0.23
   2  -5  -9    3.01    0.26
  -2   5   9    3.21    0.21
   1  -5  -9    2.52    0.22
   1  -5  -9    2.70    0.20
  -1   5   9    2.41    0.17
   0  -5  -9    1.75    0.18
   0  -5  -9    1.86    0.15
  -4   6   9    2.71    0.17
   3  -6  -9    4.25    0.30
   3  -6  -9    4.87    0.29
  -3   6   9    5.04    0.27
   2  -6  -9    0.74    0.13
   2  -6  -9    1.19    0.12
  -2   6   9    0.93    0.10
   1  -6  -9    4.23    0.26
   1  11 -10    0.14    0.10
  -1 -11  10    0.06    0.07
  -1 -11  10    0.08    0.06
   0  11 -10    0.26    0.11
   0 -11  10    0.20    0.08
   0 -11  10    0.28    0.09
  -1  11 -10    5.14    0.33
   1 -11  10    4.87    0.28
   1 -11  10    4.87    0.31
   2  10 -10    1.45    0.21
   2  10 -10    1.02    0.15
  -2 -10  10    1.41    0.17
  -2 -10  10    0.86    0.14
   1  10 -10    0.16    0.11
  -1 -10  10    0.05    0.08
  -1 -10  10    0.01    0.06
   0  10 -10    5.05    0.35
   0 -10  10    4.51    0.29
   0 -10  10    4.64    0.33
   0 -10  10    4.77    0.33
  -1  10 -10    0.35    0.12
   1 -10  10    0.07    0.07
   1 -10  10    0.21    0.08
   1 -10  10    0.11    0.08
  -2  10 -10    0.27    0.10
   2 -10  10    0.22    0.07
   2 -10  10    0.23    0.07
   2 -10  10    0.14    0.07
   3   9 -10    0.13    0.11
   3   9 -10    0.12    0.09
   3   9 -10    0.21    0.11
  -3  -9  10    0.11    0.09
  -3  -9  10    0.11    0.06
   2   9 -10    2.53    0.26
   2   9 -10    2.26    0.27
  -2  -9  10    2.26    0.16
  -2  -9  10    2.67    0.24
  -2  -9  10    2.04    0.20
   1   9 -10    1.63    0.23
  -1  -9  10    1.66    0.20
  -1  -9  10    1.41    0.18
  -1  -9  10    1.23    0.16
   0   9 -10   12.41    0.70
   0  -9  10   12.58    0.63
   0  -9  10   12.63    0.71
   0  -9  10   11.99    0.70
  -1   9 -10   49.58    2.31
   1  -9  10   46.17    2.02
   1  -9  10   46.42    2.25
   1  -9  10   45.81    1.99
  -2   9 -10   12.78    0.69
   2  -9  10   12.73    0.63
   2  -9  10   12.81    0.62
   2  -9  10   12.05    0.67
   4   8 -10    0.02    0.07
   4   8 -10   -0.05    0.09
   4   8 -10   -0.04    0.10
   4   8 -10    0.00    0.07
  -4  -8  10    0.00    0.05
   3   8 -10    8.50    0.51
   3   8 -10    7.40    0.48
   3   8 -10    9.17    0.52
   3   8 -10    7.74    0.49
  -3  -8  10    8.20    0.39
  -3  -8  10    9.01    0.51
   2   8 -10    1.58    0.20
   2   8 -10    2.02    0.24
   2   8 -10    1.68    0.25
  -2  -8  10    1.77    0.19
  -2  -8  10    2.03    0.21
  -2  -8  10    1.57    0.14
   1   8 -10    1.97    0.24
  -1  -8  10    1.88    0.21
  -1  -8  10    1.85    0.19
  -1  -8  10    1.99    0.22
   0   8 -10    0.04    0.10
   0  -8  10    0.03    0.07
   0  -8  10    0.20    0.09
   0  -8  10    0.00    0.07
   0  -8  10    0.00    0.08
   0  -8  10    0.22    0.09
  -1   8 -10    1.94    0.23
   1  -8  10    1.91    0.21
   1  -8  10    2.06    0.20
   1  -8  10    1.66    0.20
   1  -8  10    1.84    0.20
  -2   8 -10   24.59    1.26
   2  -8  10   25.72    1.13
   2  -8  10   24.49    1.13
   2  -8  10   25.01    1.25
  -3   8 -10    0.26    0.09
   3  -8  10    0.40    0.09
   4   7 -10    1.15    0.16
   4   7 -10    1.09    0.16
   4   7 -10    0.91    0.15
   4   7 -10    1.17    0.19
  -4  -7  10    1.01    0.11
  -4  -7  10    1.16    0.16
   3   7 -10    1.72    0.21
   3   7 -10    2.02    0.25
   3   7 -10    1.90    0.21
   3   7 -10    2.11    0.26
  -3  -7  10    2.03    0.22
  -3  -7  10    1.85    0.15
   2   7 -10   23.48    1.16
   2   7 -10   20.85    1.12
  -2  -7  10   22.09    1.16
  -2  -7  10   21.31    1.12
   1   7 -10    1.09    0.19
  -1  -7  10    0.87    0.16
  -1  -7  10    0.86    0.15
  -1  -7  10    0.86    0.17
  -1  -7  10    1.00    0.15
   0   7 -10   20.28    1.02
   0  -7  10   19.68    0.90
   0  -7  10   18.16    0.98
   0  -7  10   19.74    1.03
   0  -7  10   19.89    0.92
   0  -7  10   18.31    1.03
  -1   7 -10    1.19    0.18
   1  -7  10    1.34    0.18
   1  -7  10    1.23    0.16
   1  -7  10    1.39    0.18
   1  -7  10    1.30    0.17
  -2   7 -10    0.39    0.11
   2  -7  10    0.23    0.09
   2  -7  10    0.36    0.10
   2  -7  10    0.55    0.11
   2  -7  10    0.38    0.10
  -3   7 -10    0.40    0.09
   3  -7  10    0.46    0.09
   3  -7  10    0.50    0.10
   5   6 -10    0.11    0.07
   5   6 -10    0.10    0.08
   4   6 -10   12.75    0.73
   4   6 -10   14.03    0.71
   4   6 -10   12.28    0.72
   4   6 -10   13.67    0.73
  -4  -6  10   13.53    0.72
  -4  -6  10   13.11    0.58
   3   6 -10    3.34    0.29
   3   6 -10    3.10    0.31
   3   6 -10    2.89    0.27
   3   6 -10    3.07    0.27
  -3  -6  10    3.15    0.26
  -3  -6  10    2.94    0.19
   2   6 -10   27.69    1.33
   2   6 -10   26.83    1.33
  -2  -6  10   24.31    1.34
  -2  -6  10   26.82    1.29
  -2  -6  10   25.22    1.31
  -2  -6  10   25.10    1.16
   1   6 -10    6.83    0.45
   1   6 -10    7.14    0.44
  -1  -6  10    6.91    0.41
  -1  -6  10    7.02    0.44
  -1  -6  10    7.13    0.47
  -1  -6  10    7.12    0.46
   0   6 -10   14.40    0.76
   0  -6  10   13.42    0.77
   0  -6  10   14.00    0.70
   0  -6  10   14.56    0.79
   0  -6  10   14.14    0.69
   0  -6  10   13.76    0.76
  -1   6 -10    1.27    0.18
   1  -6  10    1.24    0.18
   1  -6  10    1.14    0.15
   1  -6  10    1.11    0.16
   1  -6  10    1.38    0.17
  -2   6 -10   33.13    1.66
   2  -6  10   34.83    1.50
   2  -6  10   35.31    1.58
   2  -6  10   33.76    1.64
   2  -6  10   32.10    1.49
  -3   6 -10    0.15    0.07
   3  -6  10    0.29    0.08
   3  -6  10    0.14    0.07
   5   5 -10    0.22    0.08
   5   5 -10    0.17    0.10
   5   5 -10    0.34    0.11
  -5  -5  10    0.31    0.07
   4   5 -10    0.37    0.12
   4   5 -10    0.68    0.15
   4   5 -10    0.36    0.14
   4   5 -10    0.70    0.13
  -4  -5  10    0.49    0.12
  -4  -5  10    0.39    0.08
   3   5 -10    8.34    0.52
   3   5 -10    8.10    0.50
  -3  -5  10    8.15    0.50
  -3  -5  10    7.88    0.39
   2   5 -10    0.21    0.09
   2   5 -10    0.52    0.13
  -2  -5  10    0.09    0.08
  -2  -5  10    0.09    0.09
  -2  -5  10    0.10    0.07
   1   5 -10   11.26    0.64
   1   5 -10   10.67    0.62
  -1  -5  10   11.46    0.64
  -1  -5  10   11.53    0.56
  -1  -5  10   11.49    0.58
  -1  -5  10   10.99    0.65
  -1  -5  10   11.01    0.64
   0   5 -10  203.55    9.83
   0  -5  10  213.60    9.17
   0  -5  10  213.42    8.44
   0  -5  10  211.34    9.47
   0  -5  10  199.01    8.50
  -1   5 -10    3.02    0.24
   1  -5  10    2.99    0.23
   1  -5  10    2.65    0.24
   1  -5  10    2.56    0.25
   1  -5  10    3.12    0.24
  -2   5 -10    1.73    0.19
   2  -5  10    2.11    0.21
   2  -5  10    2.13    0.21
   2  -5  10    2.32    0.21
   2  -5  10    1.95    0.19
   3  -5  10    0.30    0.08
   3  -5  10    0.23    0.08
   5   4 -10    0.45    0.11
   5   4 -10    0.89    0.15
   5   4 -10    0.42    0.11
  -5  -4  10    0.68    0.12
  -5  -4  10    0.58    0.09
   4   4 -10   39.75    2.03
   4   4 -10   41.60    2.04
  -4  -4  10   44.07    2.09
  -4  -4  10   42.76    1.71
   3   4 -10    3.61    0.30
  -3  -4  10    3.75    0.22
  -3  -4  10    3.37    0.28
   2   4 -10    0.94    0.15
  -2  -4  10    1.39    0.14
  -2  -4  10    0.80    0.16
  -2  -4  10    1.17    0.15
   1   4 -10   14.02    0.77
  -1  -4  10   13.59    0.76
  -1  -4  10   14.28    0.77
  -1  -4  10   13.83    0.75
  -1  -4  10   14.55    0.69
   0  -4  10   46.03    1.91
   0  -4  10   41.14    1.91
   0  -4  10   45.46    2.07
   0  -4  10   45.13    2.13
   1  -4  10   72.79    2.81
   1  -4  10   66.91    3.10
   1  -4  10   61.10    2.77
   1  -4  10   64.03    3.00
   2  -4  10    1.25    0.16
   2  -4  10    1.36    0.17
   2  -4  10    1.37    0.17
   2  -4  10    1.09    0.14
   3  -4  10    5.42    0.32
   3  -4  10    5.89    0.35
   5   3 -10    0.64    0.12
   5   3 -10    0.62    0.13
  -5  -3  10    0.72    0.11
  -5  -3  10    0.76    0.13
   4   3 -10    0.55    0.13
   4   3 -10    0.57    0.15
   4   3 -10    0.63    0.15
  -4  -3  10    0.71    0.14
  -4  -3  10    0.64    0.10
   3   3 -10   25.82    1.22
   3   3 -10   23.34    1.23
  -3  -3  10   24.01    1.25
  -3  -3  10   24.47    1.01
  -3  -3  10   23.32    1.07
   2   3 -10   22.38    1.14
  -2  -3  10   22.05    1.15
  -2  -3  10   22.33    1.01
   1   3 -10   12.20    0.66
   1   3 -10   11.09    0.60
  -1  -3  10   12.47    0.59
  -1  -3  10   12.29    0.66
  -1  -3  10   10.89    0.64
  -1  -3  10   11.13    0.64
   0  -3  10  148.35    6.71
   0  -3  10  143.19    6.02
   0  -3  10  148.95    6.50
   1  -3  10   17.45    0.91
   1  -3  10   17.70    0.85
   1  -3  10   17.76    0.93
   1  -3  10   18.87    0.86
   3  -3  10    0.26    0.07
   3  -3  10    0.30    0.09
   5   2 -10    4.80    0.33
   5   2 -10    4.61    0.34
  -5  -2  10    5.30    0.33
  -5  -2  10    5.15    0.27
   4   2 -10    0.53    0.13
   4   2 -10    0.54    0.14
   4   2 -10    0.66    0.13
  -4  -2  10    0.83    0.15
  -4  -2  10    0.69    0.11
   3   2 -10    0.06    0.10
   3   2 -10    0.07    0.07
  -3  -2  10    0.09    0.06
  -3  -2  10    0.06    0.07
   1   2 -10   10.77    0.55
   1   2 -10   10.70    0.59
  -1  -2  10    8.84    0.51
  -1  -2  10   10.31    0.58
  -1  -2  10    9.94    0.57
  -1  -2  10   10.15    0.57
   0   2 -10    0.07    0.07
   0  -2  10    0.14    0.07
   0  -2  10    0.19    0.08
   0  -2  10    0.18    0.08
   1  -2  10  128.84    5.67
   1  -2  10  116.53    5.08
   1  -2  10  125.49    5.49
   2  -2  10   11.69    0.61
   2  -2  10   12.91    0.68
   2  -2  10   13.09    0.66
   3  -2  10    0.25    0.08
   5   1 -10    0.20    0.10
   5   1 -10    0.09    0.08
  -5  -1  10    0.17    0.07
  -5  -1  10    0.19    0.09
   4   1 -10    3.74    0.30
   4   1 -10    3.93    0.32
  -4  -1  10    3.99    0.30
   3   1 -10    6.60    0.42
   3   1 -10    5.92    0.41
  -3  -1  10    6.66    0.41
  -3  -1  10    6.80    0.36
   2   1 -10    0.65    0.13
   2   1 -10    0.49    0.11
  -2  -1  10    0.67    0.12
  -2  -1  10    0.69    0.11
   1   1 -10    3.98    0.29
   1   1 -10    3.82    0.29
  -1  -1  10    3.55    0.28
  -1  -1  10    3.85    0.29
  -1  -1  10    3.70    0.25
   0   1 -10    6.81    0.44
   0  -1  10    7.44    0.41
   0  -1  10    7.00    0.44
   0  -1  10    8.22    0.46
   1  -1  10    3.26    0.25
   1  -1  10    3.03    0.25
   1  -1  10    2.91    0.21
   2  -1  10   18.57    0.86
   2  -1  10   15.23    0.77
   2  -1  10   17.64    0.87
   5   0 -10  160.10    7.97
   5   0 -10  179.89    7.50
  -5   0  10  185.52    8.35
  -5   0  10  177.19    6.84
   4   0 -10   21.59    1.11
   4   0 -10   22.95    1.08
  -4   0  10   20.46    0.96
  -4   0  10   22.99    1.14
   3   0 -10   23.73    1.22
   3   0 -10   24.98    1.19
  -3   0  10   23.82    1.26
  -3   0  10   25.48    1.09
   2   0 -10    4.58    0.33
   2   0 -10    4.27    0.31
  -2   0  10    4.12    0.29
   1   0 -10   87.50    3.66
   1   0 -10   85.64    3.88
  -1   0  10   85.98    3.48
  -1   0  10   75.43    3.74
   1   0  10    4.42    0.30
   1   0  10    4.09    0.30
   2   0  10    3.06    0.23
   2   0  10    2.70    0.21
   5  -1 -10   26.29    1.48
   5  -1 -10   33.49    1.44
  -5   1  10   33.86    1.56
   4  -1 -10  148.48    6.30
   4  -1 -10  142.74    6.67
  -4   1  10  141.94    5.96
  -4   1  10  151.74    6.98
   3  -1 -10   25.50    1.29
   3  -1 -10   26.74    1.25
  -3   1  10   26.16    1.15
  -3   1  10   25.69    1.33
   2  -1 -10   23.90    1.09
   2  -1 -10   21.50    1.12
  -2   1  10   21.63    1.00
  -2   1  10   22.25    1.14
   1  -1 -10   15.66    0.83
   1  -1 -10   16.16    0.81
  -1   1  10   16.09    0.75
   0  -1 -10    7.02    0.42
   0   1  10    7.12    0.43
   0   1  10    7.33    0.39
   0   1  10    7.01    0.42
   1   1  10    0.77    0.13
   1   1  10    0.78    0.13
   2   1  10   42.73    1.87
   2   1  10   39.58    1.92
   5  -2 -10   29.49    1.37
  -5   2  10   30.19    1.49
   4  -2 -10    0.14    0.08
   4  -2 -10    0.16    0.10
  -4   2  10    0.05    0.07
  -4   2  10    0.09    0.06
   3  -2 -10    2.08    0.20
   3  -2 -10    2.06    0.23
  -3   2  10    2.22    0.18
  -3   2  10    1.93    0.19
   2  -2 -10    0.04    0.08
   2  -2 -10    0.03    0.06
  -2   2  10    0.02    0.05
   1  -2 -10   55.21    2.59
   1  -2 -10   56.02    2.46
  -1   2  10   54.41    2.32
   0  -2 -10   14.23    0.73
   0   2  10   14.19    0.73
   0   2  10   13.61    0.65
   1   2  10    0.39    0.08
   1   2  10    0.63    0.11
   5  -3 -10    0.14    0.08
  -5   3  10    0.01    0.06
   4  -3 -10   35.73    1.79
   4  -3 -10   37.40    1.73
  -4   3  10   39.82    1.88
  -4   3  10   39.11    1.61
   3  -3 -10    3.48    0.25
   3  -3 -10    3.24    0.29
  -3   3  10    3.59    0.26
   2  -3 -10    0.99    0.14
   2  -3 -10    0.81    0.15
  -2   3  10    0.99    0.12
   1  -3 -10    7.59    0.44
   1  -3 -10    7.56    0.44
  -1   3  10    7.60    0.39
   0  -3 -10    0.40    0.09
   0  -3 -10    0.39    0.09
   4  -4 -10    0.03    0.08
   4  -4 -10    0.04    0.05
  -4   4  10    0.08    0.07
  -4   4  10    0.08    0.05
   3  -4 -10    0.01    0.08
   3  -4 -10    0.05    0.05
   2  -4 -10    1.20    0.14
   2  -4 -10    1.35    0.19
  -2   4  10    1.12    0.12
   1  -4 -10   15.98    0.77
   1  -4 -10   16.31    0.80
  -1   4  10   15.02    0.70
   0  -4 -10    1.33    0.16
   3  -5 -10    0.90    0.11
   3  -5 -10    0.63    0.11
  -3   5  10    0.78    0.10
   2  -5 -10    4.50    0.27
   2  -5 -10    4.19    0.28
  -2   5  10    4.06    0.23
   1  10 -11    2.99    0.25
  -1 -10  11    2.97    0.23
  -1 -10  11    2.66    0.21
   0  10 -11    0.86    0.15
   0 -10  11    0.71    0.12
   0 -10  11    0.66    0.11
   0 -10  11    0.78    0.13
  -1  10 -11    8.44    0.47
   1 -10  11    8.00    0.46
   1 -10  11    8.02    0.42
   2   9 -11    0.99    0.16
   2   9 -11    0.83    0.16
  -2  -9  11    1.21    0.17
   1   9 -11    1.77    0.23
  -1  -9  11    1.72    0.19
  -1  -9  11    1.45    0.16
  -1  -9  11    1.42    0.17
   0   9 -11    8.26    0.48
   0  -9  11    8.16    0.43
   0  -9  11    7.57    0.47
   0  -9  11    7.43    0.46
  -1   9 -11    8.97    0.51
   1  -9  11    8.85    0.46
   1  -9  11    8.55    0.50
   1  -9  11    8.25    0.44
  -2   9 -11   26.17    1.26
   2  -9  11   25.32    1.11
   2  -9  11   25.82    1.10
   2  -9  11   23.89    1.22
   3   8 -11    1.81    0.19
   3   8 -11    1.41    0.17
   3   8 -11    1.78    0.23
   3   8 -11    1.90    0.22
  -3  -8  11    1.90    0.19
  -3  -8  11    1.75    0.13
   2   8 -11    0.58    0.15
   2   8 -11    0.68    0.14
  -2  -8  11    0.90    0.16
   1   8 -11    0.01    0.10
  -1  -8  11    0.05    0.07
  -1  -8  11    0.09    0.08
  -1  -8  11    0.01    0.07
   0   8 -11    0.12    0.10
   0  -8  11    0.09    0.08
   0  -8  11    0.16    0.08
   0  -8  11    0.14    0.08
   0  -8  11    0.19    0.09
  -1   8 -11    5.33    0.36
   1  -8  11    5.03    0.32
   1  -8  11    5.13    0.33
   1  -8  11    5.27    0.36
   1  -8  11    5.15    0.33
  -2   8 -11    0.03    0.08
   2  -8  11    0.05    0.06
   2  -8  11    0.04    0.06
   2  -8  11    0.03    0.06
   4   7 -11    0.97    0.13
   4   7 -11    1.24    0.19
   4   7 -11    1.02    0.14
  -4  -7  11    1.01    0.10
  -4  -7  11    1.04    0.15
   3   7 -11    5.69    0.39
   3   7 -11    6.31    0.41
   3   7 -11    5.65    0.39
   3   7 -11    6.30    0.40
  -3  -7  11    5.69    0.29
  -3  -7  11    6.55    0.40
   2   7 -11    7.53    0.49
   2   7 -11    8.77    0.51
  -2  -7  11    8.82    0.51
  -2  -7  11    7.59    0.49
   1   7 -11    7.55    0.47
  -1  -7  11    7.35    0.42
  -1  -7  11    7.41    0.48
  -1  -7  11    8.15    0.48
  -1  -7  11    7.32    0.48
   0   7 -11    0.21    0.11
   0  -7  11    0.10    0.08
   0  -7  11    0.17    0.09
   0  -7  11    0.21    0.09
   0  -7  11    0.19    0.09
   0  -7  11    0.55    0.12
  -1   7 -11   23.65    1.24
   1  -7  11   24.43    1.24
   1  -7  11   25.20    1.13
   1  -7  11   24.09    1.11
   1  -7  11   25.84    1.19
  -2   7 -11    6.84    0.42
   2  -7  11    7.25    0.39
   2  -7  11    7.25    0.43
   2  -7  11    7.73    0.40
   4   6 -11   10.73    0.62
   4   6 -11   10.65    0.62
  -4  -6  11   12.62    0.63
  -4  -6  11   11.28    0.50
   3   6 -11    3.60    0.29
   3   6 -11    3.96    0.31
   3   6 -11    3.84    0.30
   3   6 -11    3.96    0.34
  -3  -6  11    3.97    0.29
  -3  -6  11    3.53    0.21
   2   6 -11   20.22    1.07
   2   6 -11   20.42    1.07
  -2  -6  11   21.87    1.06
  -2  -6  11   19.62    0.94
  -2  -6  11   20.76    1.08
   1   6 -11    2.60    0.25
  -1  -6  11    2.45    0.25
  -1  -6  11    2.45    0.26
  -1  -6  11    2.62    0.22
  -1  -6  11    2.37    0.22
   0   6 -11    8.50    0.53
   0  -6  11    9.24    0.50
   0  -6  11    8.95    0.54
   0  -6  11    9.10    0.49
   0  -6  11    8.96    0.54
  -1   6 -11    9.08    0.54
   1  -6  11    9.91    0.54
   1  -6  11    9.46    0.56
   1  -6  11    9.83    0.51
   1  -6  11    9.37    0.51
   2  -6  11    4.70    0.29
   2  -6  11    5.05    0.31
   2  -6  11    5.11    0.31
   2  -6  11    5.06    0.33
   4   5 -11    5.75    0.39
   4   5 -11    5.93    0.39
   4   5 -11    6.10    0.40
  -4  -5  11    5.93    0.30
  -4  -5  11    6.21    0.38
   3   5 -11    0.06    0.09
   3   5 -11    0.05    0.09
  -3  -5  11    0.16    0.06
  -3  -5  11    0.10    0.08
   2   5 -11    6.42    0.44
  -2  -5  11    6.44    0.44
  -2  -5  11    6.44    0.38
  -2  -5  11    6.95    0.43
   1   5 -11   96.03    4.86
  -1  -5  11  103.37    5.08
  -1  -5  11  102.35    4.33
  -1  -5  11  111.88    4.74
  -1  -5  11  109.55    4.89
  -1  -5  11  111.00    4.39
   0  -5  11  105.84    4.41
   0  -5  11  109.04    4.92
   0  -5  11  103.27    4.37
   0  -5  11  106.50    4.91
   0  -5  11  107.26    4.76
   1  -5  11    5.20    0.35
   1  -5  11    4.96    0.35
   1  -5  11    5.10    0.33
   1  -5  11    5.37    0.33
   2  -5  11    1.01    0.16
   2  -5  11    1.00    0.13
   2  -5  11    0.94    0.15
   2  -5  11    0.90    0.12
   5   4 -11    2.08    0.19
   5   4 -11    1.91    0.19
  -5  -4  11    2.29    0.19
  -5  -4  11    2.19    0.14
   4   4 -11    1.14    0.17
   4   4 -11    1.39    0.18
   4   4 -11    1.37    0.22
  -4  -4  11    1.23    0.12
  -4  -4  11    1.40    0.17
   3   4 -11   32.00    1.61
   3   4 -11   31.92    1.58
  -3  -4  11   33.49    1.64
   2   4 -11    0.20    0.09
  -2  -4  11    0.15    0.11
  -2  -4  11    0.34    0.09
  -2  -4  11    0.23    0.09
   1   4 -11   23.09    1.19
  -1  -4  11   24.26    1.08
  -1  -4  11   24.52    1.18
  -1  -4  11   22.94    1.20
  -1  -4  11   23.44    1.22
  -1  -4  11   23.04    1.05
   0  -4  11  180.70    7.07
   0  -4  11  171.41    7.01
   0  -4  11  168.53    7.61
   0  -4  11  169.13    7.86
   1  -4  11    3.07    0.25
   1  -4  11    2.87    0.24
   1  -4  11    2.97    0.23
   1  -4  11    2.83    0.23
   2  -4  11    0.78    0.13
   2  -4  11    0.77    0.13
   2  -4  11    1.06    0.14
   5   3 -11    0.82    0.13
   5   3 -11    0.78    0.14
  -5  -3  11    0.85    0.10
  -5  -3  11    1.03    0.14
   4   3 -11    6.25    0.40
   4   3 -11    6.44    0.43
  -4  -3  11    6.50    0.32
  -4  -3  11    6.93    0.41
   3   3 -11    1.38    0.18
   3   3 -11    1.31    0.17
  -3  -3  11    1.45    0.17
  -3  -3  11    1.18    0.14
   2   3 -11    0.41    0.11
  -2  -3  11    0.52    0.11
   1   3 -11   11.16    0.63
  -1  -3  11   10.68    0.56
  -1  -3  11   11.03    0.62
   0   3 -11   27.18    1.26
   0  -3  11   27.46    1.33
   0  -3  11   27.82    1.23
   0  -3  11   27.01    1.36
   1  -3  11    9.10    0.55
   1  -3  11   10.50    0.51
   1  -3  11    9.49    0.51
   1  -3  11    9.54    0.54
   2  -3  11    0.35    0.09
   2  -3  11    0.13    0.08
   2  -3  11    0.24    0.08
   5   2 -11    1.60    0.18
  -5  -2  11    2.10    0.14
  -5  -2  11    2.07    0.18
   4   2 -11   12.22    0.67
   4   2 -11   13.66    0.71
  -4  -2  11   13.59    0.72
  -4  -2  11   12.45    0.57
   3   2 -11    1.99    0.24
   3   2 -11    1.76    0.20
  -3  -2  11    2.10    0.20
  -3  -2  11    1.85    0.17
   2   2 -11   11.42    0.62
   2   2 -11   11.37    0.64
  -2  -2  11   10.82    0.63
  -2  -2  11   11.40    0.56
   1   2 -11    3.87    0.30
   1   2 -11    4.07    0.30
  -1  -2  11    3.88    0.30
  -1  -2  11    3.77    0.26
  -1  -2  11    3.99    0.30
   0  -2  11   19.70    1.00
   0  -2  11   19.11    1.01
   0  -2  11   20.92    0.92
   1  -2  11    4.32    0.30
   1  -2  11    3.96    0.29
   1  -2  11    4.06    0.27
   1  -2  11    3.76    0.25
   2  -2  11    0.80    0.12
   2  -2  11    0.96    0.13
   2  -2  11    0.78    0.12
   5   1 -11   19.81    0.94
   5   1 -11   18.40    0.99
  -5  -1  11   21.57    1.03
  -5  -1  11   20.33    0.83
   4   1 -11    0.28    0.09
   4   1 -11    0.28    0.11
  -4  -1  11    0.36    0.10
  -4  -1  11    0.35    0.07
   3   1 -11    8.28    0.50
   3   1 -11    8.69    0.50
  -3  -1  11    8.28    0.50
  -3  -1  11    8.23    0.43
   2   1 -11    2.22    0.21
   2   1 -11    2.38    0.25
  -2  -1  11    2.14    0.20
  -2  -1  11    2.19    0.18
   1   1 -11    1.19    0.15
   1   1 -11    1.35    0.18
  -1  -1  11    1.06    0.17
  -1  -1  11    1.38    0.14
   0  -1  11   10.97    0.54
   0  -1  11   10.01    0.58
   0  -1  11   10.69    0.59
   1  -1  11    0.01    0.06
   1  -1  11    0.00    0.06
   1  -1  11    0.02    0.05
   2  -1  11    0.25    0.08
   2  -1  11    0.25    0.07
   5   0 -11    2.72    0.23
   5   0 -11    3.19    0.26
  -5   0  11    3.61    0.25
  -5   0  11    3.31    0.19
   4   0 -11    1.09    0.15
   4   0 -11    1.03    0.16
  -4   0  11    1.03    0.12
  -4   0  11    1.22    0.16
   3   0 -11    0.07    0.07
   3   0 -11    0.30    0.12
  -3   0  11    0.05    0.07
  -3   0  11    0.11    0.06
   2   0 -11    8.38    0.49
   2   0 -11    8.02    0.48
  -2   0  11    8.16    0.43
  -2   0  11    7.34    0.46
   1   0 -11    0.87    0.14
   1   0 -11    0.73    0.13
  -1   0  11    0.72    0.11
  -1   0  11    0.70    0.15
   0   0 -11    0.85    0.13
   0   0  11    0.97    0.12
   0   0  11    0.92    0.14
   1   0  11    0.86    0.14
   1   0  11    0.63    0.10
   1   0  11    0.69    0.12
   5  -1 -11   17.04    0.81
  -5   1  11   16.45    0.71
  -5   1  11   17.58    0.88
   4  -1 -11   10.05    0.54
   4  -1 -11    9.03    0.54
  -4   1  11   10.08    0.55
  -4   1  11    9.72    0.47
   3  -1 -11   14.92    0.75
   3  -1 -11   14.36    0.76
  -3   1  11   13.54    0.76
  -3   1  11   14.09    0.66
   2  -1 -11    4.36    0.33
   2  -1 -11    4.34    0.31
  -2   1  11    4.16    0.26
   1  -1 -11    7.97    0.48
   1  -1 -11    8.41    0.47
  -1   1  11    8.36    0.43
   0  -1 -11   13.59    0.64
   0  -1 -11   10.98    0.64
   0   1  11   13.21    0.66
   0   1  11   12.34    0.59
   1   1  11    2.39    0.20
  -5   2  11    3.95    0.26
   4  -2 -11    6.67    0.39
   4  -2 -11    6.15    0.37
  -4   2  11    6.45    0.38
  -4   2  11    6.15    0.33
   3  -2 -11   14.09    0.71
   3  -2 -11   13.13    0.69
  -3   2  11   13.44    0.62
  -3   2  11   12.22    0.70
   2  -2 -11   12.52    0.65
   2  -2 -11   12.09    0.65
  -2   2  11   11.74    0.58
   1  -2 -11    1.53    0.16
   1  -2 -11    1.84    0.19
  -1   2  11    1.57    0.14
   0  -2 -11    3.37    0.24
   0   2  11    3.07    0.24
   4  -3 -11   10.40    0.54
   4  -3 -11    9.75    0.53
  -4   3  11   10.17    0.54
  -4   3  11   10.18    0.47
   3  -3 -11    1.10    0.14
   3  -3 -11    0.94    0.15
  -3   3  11    1.29    0.12
   2  -3 -11    0.26    0.09
   2  -3 -11    0.21    0.08
  -2   3  11    0.22    0.06
   1  -3 -11    7.48    0.41
   1  -3 -11    7.25    0.41
  -1   3  11    7.02    0.36
   3  -4 -11    0.59    0.11
   3  -4 -11    0.73    0.10
  -3   4  11    0.78    0.09
   2  -4 -11    0.99    0.12
   2   9 -12    0.15    0.08
  -2  -9  12    0.10    0.07
   1   9 -12    3.93    0.28
  -1  -9  12    3.92    0.27
  -1  -9  12    3.23    0.23
  -1  -9  12    3.28    0.25
   0   9 -12    0.47    0.12
   0  -9  12    0.43    0.10
   0  -9  12    0.60    0.10
   3   8 -12    0.79    0.13
  -3  -8  12    0.91    0.14
   2   8 -12    1.06    0.17
   2   8 -12    1.32    0.21
  -2  -8  12    1.17    0.16
   1   8 -12   10.02    0.54
  -1  -8  12    8.98    0.53
  -1  -8  12    9.46    0.53
  -1  -8  12    8.81    0.47
   0   8 -12    0.32    0.11
   0  -8  12    0.28    0.09
   0  -8  12    0.23    0.08
  -1   8 -12   12.38    0.70
   1  -8  12   13.97    0.64
   1  -8  12   13.48    0.62
   1  -8  12   13.20    0.70
   3   7 -12    2.96    0.24
   3   7 -12    2.63    0.23
   3   7 -12    3.11    0.28
  -3  -7  12    3.61    0.25
   2   7 -12    1.49    0.22
  -2  -7  12    1.75    0.19
   1   7 -12   35.93    1.82
  -1  -7  12   35.94    1.84
  -1  -7  12   35.98    1.73
  -1  -7  12   36.49    1.60
  -1  -7  12   40.57    1.79
   0  -7  12    0.29    0.10
   0  -7  12    0.64    0.12
   0  -7  12    0.32    0.09
   0  -7  12    0.37    0.10
   1  -7  12    3.08    0.24
   1  -7  12    2.88    0.22
   1  -7  12    3.03    0.23
   1  -7  12    2.94    0.22
   4   6 -12    2.32    0.21
   4   6 -12    2.58    0.21
   4   6 -12    3.24    0.24
  -4  -6  12    3.00    0.22
   3   6 -12    0.29    0.11
   3   6 -12    0.31    0.09
   3   6 -12    0.32    0.13
  -3  -6  12    0.43    0.10
   2   6 -12    4.17    0.32
  -2  -6  12    4.30    0.33
  -2  -6  12    4.68    0.31
  -2  -6  12    4.21    0.28
  -1  -6  12   35.99    1.66
  -1  -6  12   34.99    1.52
  -1  -6  12   34.17    1.69
  -1  -6  12   34.30    1.74
   0  -6  12   12.40    0.71
   0  -6  12   13.19    0.65
   0  -6  12   13.25    0.64
   0  -6  12   13.37    0.70
   1  -6  12    2.69    0.22
   1  -6  12    2.56    0.20
   1  -6  12    2.75    0.22
   1  -6  12    2.83    0.22
   4   5 -12    7.01    0.41
   4   5 -12    6.82    0.42
  -4  -5  12    7.80    0.42
  -4  -5  12    6.64    0.33
   3   5 -12    0.01    0.07
   3   5 -12    0.04    0.08
  -3  -5  12    0.03    0.07
   2   5 -12   14.45    0.80
  -2  -5  12   15.29    0.80
  -2  -5  12   14.88    0.79
  -2  -5  12   14.85    0.71
  -1  -5  12   11.74    0.68
  -1  -5  12   12.31    0.69
  -1  -5  12   12.70    0.63
  -1  -5  12   14.34    0.61
  -1  -5  12   11.48    0.68
   0  -5  12    4.61    0.34
   0  -5  12    4.93    0.35
   0  -5  12    5.09    0.31
   0  -5  12    5.09    0.32
   1  -5  12    0.08    0.06
   1  -5  12    0.08    0.06
   1  -5  12    0.04    0.07
   1  -5  12    0.06    0.06
   4   4 -12    2.04    0.22
   4   4 -12    2.01    0.19
   4   4 -12    1.49    0.17
  -4  -4  12    2.02    0.19
   3   4 -12   10.99    0.62
   3   4 -12   11.80    0.66
  -3  -4  12   10.74    0.56
  -3  -4  12   12.82    0.65
   2   4 -12    0.81    0.14
  -2  -4  12    0.99    0.13
  -2  -4  12    0.94    0.14
  -2  -4  12    0.80    0.15
   1   4 -12    1.46    0.18
  -1  -4  12    1.82    0.21
  -1  -4  12    1.52    0.18
  -1  -4  12    1.54    0.17
  -1  -4  12    1.65    0.17
   0  -4  12   38.80    1.64
   0  -4  12   37.84    1.65
   0  -4  12   37.64    1.83
   0  -4  12   38.27    1.78
   1  -4  12    2.88    0.21
   1  -4  12    3.18    0.24
   1  -4  12    3.42    0.24
   1  -4  12    2.89    0.23
   4   3 -12    3.93    0.29
  -4  -3  12    4.44    0.29
   3   3 -12    1.34    0.17
  -3  -3  12    1.38    0.14
  -3  -3  12    1.58    0.17
   2   3 -12   10.99    0.62
  -2  -3  12   10.59    0.54
  -2  -3  12   10.98    0.61
   1   3 -12    0.04    0.08
  -1  -3  12    0.20    0.09
  -1  -3  12    0.04    0.06
   0  -3  12    2.56    0.22
   0  -3  12    2.54    0.21
   0  -3  12    2.44    0.20
   0  -3  12    2.72    0.23
   1  -3  12    0.96    0.13
   1  -3  12    0.96    0.12
   4   2 -12    2.61    0.22
  -4  -2  12    2.70    0.21
   3   2 -12   11.11    0.61
   3   2 -12   11.88    0.66
  -3  -2  12   11.78    0.64
  -3  -2  12   11.95    0.56
   2   2 -12   16.20    0.79
   2   2 -12   16.18    0.85
  -2  -2  12   14.76    0.83
  -2  -2  12   16.75    0.75
   1   2 -12    1.11    0.15
   1   2 -12    1.55    0.20
  -1  -2  12    1.14    0.14
   0   2 -12   13.68    0.70
   0  -2  12   13.05    0.73
   0  -2  12   14.41    0.67
   0  -2  12   14.96    0.68
   0  -2  12   14.29    0.73
  -1   2 -12    1.57    0.18
   1  -2  12    1.82    0.18
   1  -2  12    1.96    0.16
   1  -2  12    1.77    0.16
   4   1 -12    7.93    0.45
   4   1 -12    7.15    0.45
  -4  -1  12    8.67    0.46
   3   1 -12   11.64    0.64
   3   1 -12   11.94    0.62
  -3  -1  12   12.00    0.56
  -3  -1  12   11.07    0.63
   2   1 -12    0.77    0.14
   2   1 -12    0.54    0.12
  -2  -1  12    0.70    0.11
   1   1 -12    0.74    0.13
   1   1 -12    0.94    0.13
  -1  -1  12    0.71    0.14
  -1  -1  12    0.78    0.11
   0   1 -12    0.31    0.09
   0  -1  12    0.29    0.08
   0  -1  12    0.29    0.09
   0  -1  12    0.61    0.10
   1  -1  12   16.96    0.82
   4   0 -12    0.03    0.06
   4   0 -12   -0.02    0.08
  -4   0  12    0.07    0.06
  -4   0  12    0.08    0.06
   3   0 -12    3.48    0.28
   3   0 -12    3.30    0.26
  -3   0  12    3.39    0.24
  -3   0  12    3.51    0.22
   2   0 -12   45.51    2.03
   2   0 -12   44.80    2.14
  -2   0  12   45.20    1.91
   1   0 -12    9.96    0.51
   1   0 -12    8.46    0.50
  -1   0  12    9.55    0.47
   0   0 -12    0.66    0.11
   0   0  12    0.57    0.09
   0   0  12    0.59    0.11
   4  -1 -12    0.09    0.08
   4  -1 -12    0.16    0.07
  -4   1  12    0.19    0.06
  -4   1  12    0.19    0.07
   3  -1 -12    0.27    0.08
   3  -1 -12    0.25    0.10
  -3   1  12    0.28    0.08
  -3   1  12    0.28    0.07
   2  -1 -12   12.15    0.66
   2  -1 -12   12.78    0.65
  -2   1  12   12.74    0.59
   1  -1 -12    3.86    0.27
   1  -1 -12    3.39    0.24
  -1   1  12    3.82    0.23
   3  -2 -12    6.74    0.39
   3  -2 -12    7.10    0.40
  -3   2  12    6.82    0.35
   2  -2 -12   10.38    0.55
   2  -2 -12   10.39    0.54
  -2   2  12   10.52    0.49
   2   7 -13   31.51    1.56
  -2  -7  13   34.33    1.63
  -1  -7  13   46.16    1.90
  -1  -7  13   48.79    2.06
  -1  -7  13   40.28    2.10
   0  -7  13    3.12    0.23
   0  -7  13    3.13    0.21
   0  -7  13    2.92    0.23
   3   6 -13    0.77    0.13
  -3  -6  13    0.89    0.13
   2   6 -13    0.11    0.08
  -2  -6  13    0.02    0.07
  -2  -6  13    0.02    0.06
  -1  -6  13   67.36    2.82
  -1  -6  13   64.20    2.61
  -1  -6  13   55.87    2.89
   0  -6  13    8.91    0.45
   0  -6  13    8.55    0.49
   0  -6  13    8.57    0.44
   0  -6  13    9.41    0.49
   3   5 -13    0.05    0.07
   3   5 -13    0.01    0.10
  -3  -5  13    0.06    0.06
   2   5 -13    2.04    0.20
  -2  -5  13    2.23    0.23
  -2  -5  13    2.29    0.18
  -2  -5  13    2.53    0.20
  -1  -5  13    0.68    0.11
  -1  -5  13    1.02    0.17
  -1  -5  13    0.84    0.13
   0  -5  13    0.63    0.10
   0  -5  13    0.57    0.11
   0  -5  13    0.60    0.11
   0  -5  13    0.60    0.10
   3   4 -13    0.02    0.06
  -3  -4  13    0.03    0.06
   2   4 -13    0.02    0.07
  -2  -4  13    0.01    0.06
  -2  -4  13   -0.05    0.06
  -1  -4  13   22.35    1.07
  -1  -4  13   20.84    0.95
  -1  -4  13   22.15    0.98
   0  -4  13    0.50    0.09
   0  -4  13    0.56    0.10
   0  -4  13    0.78    0.12
   0  -4  13    0.63    0.11
   4   3 -13    0.29    0.09
   3   3 -13   10.13    0.56
  -3  -3  13    9.81    0.49
  -3  -3  13   10.49    0.56
   2   3 -13    1.89    0.19
  -2  -3  13    2.05    0.17
  -1  -3  13   13.80    0.64
  -1  -3  13   12.85    0.69
  -1  -3  13   13.28    0.62
   0  -3  13    0.38    0.08
   0  -3  13    0.37    0.09
   0  -3  13    0.36    0.08
   3   2 -13    3.67    0.27
  -3  -2  13    3.89    0.26
  -3  -2  13    3.73    0.23
   2   2 -13    6.43    0.39
  -2  -2  13    6.15    0.33
  -2  -2  13    6.66    0.35
  -1  -2  13    2.04    0.21
  -1  -2  13    2.07    0.17
  -1  -2  13    2.14    0.17
   0  -2  13    3.79    0.24
   3   1 -13    0.43    0.09
  -3  -1  13    0.43    0.08
   2   1 -13    1.36    0.15
   2   1 -13    1.07    0.15
  -2  -1  13    1.50    0.13
   1   1 -13    2.67    0.23
  -1  -1  13    2.64    0.18
  -1  -1  13    2.98    0.19
   3   0 -13    5.44    0.33
   2   0 -13    0.04    0.06
  -2   0  13    0.07    0.05
   0   0   0    0.00    0.00
;
_shelx_hkl_checksum              37909
_shelx_res_file
;
TITL 2014_may_Mahendra_S2_0m in P-1
 s2.res created by SHELXL-2016/4 at 15:25:17 on 29-Sep-2016
CELL 1.54178 6.0265 11.0624 11.8477 108.812 103.950 100.848
ZERR 2.00 0.0016 0.0029 0.0031 0.007 0.008 0.008
LATT 1
SFAC  C   H   N   O
UNIT   30   30  6  6
LIST
SIZE 0.3 0.2 0.1
L.S. 4
BOND $H
HTAB
ACTA
FMAP 2
PLAN 20
OMIT      0  -1   1
WGHT    0.062200    0.126000
FVAR       0.90432   0.31071
O9    4    0.374020    0.769493    0.452091    11.00000    0.06732    0.05940 =
         0.04449    0.01354    0.01455    0.03204
O21   4   -0.044469    1.364367    0.829875    11.00000    0.05400    0.07323 =
         0.06267    0.01243    0.01128    0.03621
AFIX 147
H21   2   -0.055031    1.305321    0.763928    11.00000   -1.50000
AFIX   0
O11   4    0.086746    0.855556    0.398635    11.00000    0.07650    0.08680 =
         0.05071    0.01197    0.00245    0.04404
C6    1    0.627059    0.843111    0.667490    11.00000    0.04683    0.04222 =
         0.04874    0.01560    0.01699    0.01920
N19   3    0.281824    1.089693    0.925654    11.00000    0.05597    0.06095 =
         0.07440    0.03164    0.02756    0.02688
N15   3    0.444558    1.123652    0.873455    11.00000    0.04205    0.04562 =
         0.04358    0.01050    0.01129    0.01979
C13   1    0.502389    0.942663    0.702795    11.00000    0.04573    0.04342 =
         0.04768    0.01426    0.01430    0.01858
C5    1    0.558019    0.759181    0.540971    11.00000    0.05487    0.04808 =
         0.04813    0.01972    0.01886    0.02284
N18   3    0.178754    1.185499    0.948026    11.00000    0.05457    0.06922 =
         0.06963    0.02936    0.02968    0.03221
C1    1    0.811695    0.825777    0.753470    11.00000    0.05042    0.04864 =
         0.05082    0.01439    0.01549    0.02370
AFIX  43
H1    2    0.860125    0.880475    0.838505    11.00000   -1.20000
AFIX   0
C12   1    0.320798    0.948188    0.614622    11.00000    0.05178    0.05239 =
         0.05139    0.01357    0.01365    0.02723
AFIX  43
H12   2    0.240245    1.011061    0.638265    11.00000   -1.20000
AFIX   0
C4    1    0.666299    0.661367    0.496409    11.00000    0.07231    0.05264 =
         0.05178    0.01804    0.02826    0.03085
C2    1    0.922876    0.728948    0.714133    11.00000    0.05638    0.05265 =
         0.06073    0.02182    0.02131    0.02903
C17   1    0.275554    1.280467    0.910875    11.00000    0.04203    0.04723 =
         0.04008    0.00822    0.00938    0.01829
C20   1    0.184560    1.398580    0.918083    11.00000    0.05530    0.05340 =
         0.05094    0.00803    0.01263    0.02744
AFIX  23
H20A  2    0.178228    1.440812    1.002359    11.00000   -1.20000
H20B  2    0.295413    1.462794    0.903203    11.00000   -1.20000
AFIX   0
C14   1    0.590287    1.036294    0.839477    11.00000    0.04880    0.05023 =
         0.05019    0.00930    0.00990    0.02706
AFIX  23
H14A  2    0.597759    0.983779    0.891184    11.00000   -1.20000
H14B  2    0.751444    1.090828    0.859203    11.00000   -1.20000
AFIX   0
C10   1    0.247980    0.858926    0.484257    11.00000    0.05596    0.05835 =
         0.04930    0.01625    0.01167    0.02682
C3    1    0.847692    0.649590    0.585738    11.00000    0.07660    0.05914 =
         0.06473    0.02369    0.03287    0.04344
AFIX  43
H3    2    0.923601    0.585243    0.558673    11.00000   -1.20000
AFIX   0
C16   1    0.447059    1.241207    0.863775    11.00000    0.04674    0.04516 =
         0.05347    0.01564    0.01961    0.02031
AFIX  43
H16   2    0.545138    1.286513    0.831682    11.00000   -1.20000
AFIX   0
C7    1    1.116216    0.709204    0.807432    11.00000    0.07391    0.07558 =
         0.07144    0.02423    0.01871    0.04791
AFIX 127
H7A   2    1.168804    0.636256    0.764247    21.00000   -1.50000
H7B   2    1.055076    0.689718    0.869294    21.00000   -1.50000
H7C   2    1.248294    0.789024    0.848366    21.00000   -1.50000
H7D   2    1.145979    0.773742    0.890357   -21.00000   -1.50000
H7E   2    1.259707    0.720281    0.785311   -21.00000   -1.50000
H7F   2    1.066488    0.620975    0.806239   -21.00000   -1.50000
AFIX   0
C8    1    0.591503    0.573934    0.358706    11.00000    0.10704    0.07476 =
         0.05417    0.01674    0.03306    0.04970
AFIX 137
H8A   2    0.690144    0.613072    0.319554    11.00000   -1.50000
H8B   2    0.427523    0.565734    0.318815    11.00000   -1.50000
H8C   2    0.609121    0.487213    0.349891    11.00000   -1.50000
MOLE   2
MOLE   3
AFIX   0
HKLF 4
REM  2014_may_Mahendra_S2_0m in P-1
REM R1 =  0.0416 for    2142 Fo > 4sig(Fo)  and  0.0423 for all    2217 data
REM    194 parameters refined using      0 restraints
END
WGHT      0.0622      0.1283
REM Instructions for potential hydrogen bonds
EQIV $1 -x, -y+2, -z+
HTAB O21 O9_$1
HTAB O21 O11_$1
EQIV $2 -x+1, -y+2, -z+
HTAB C14 N19_$2
EQIV $3 x+1, y,
HTAB C14 N18_$3
HTAB C16 O21_$3
REM Highest difference peak  0.144,  deepest hole -0.139,  1-sigma level  0.028
Q1    1   0.7502  0.5470  0.3393  11.00000  0.05    0.14
Q2    1   0.4718  0.9779  0.6509  11.00000  0.05    0.14
Q3    1   0.5778  0.6414  0.3003  11.00000  0.05    0.13
Q4    1   0.7035  1.0398  0.8965  11.00000  0.05    0.12
Q5    1   0.3164  1.2720  0.9758  11.00000  0.05    0.11
Q6    1   0.8596  0.5311  0.5606  11.00000  0.05    0.11
Q7    1   0.3340  0.9027  0.6673  11.00000  0.05    0.10
Q8    1   0.2312  1.3235  0.8989  11.00000  0.05    0.10
Q9    1   0.2944  1.0228  0.9547  11.00000  0.05    0.10
Q10   1   0.5620  1.0049  0.7693  11.00000  0.05    0.10
Q11   1   0.2646  1.0821  0.8407  11.00000  0.05    0.10
Q12   1   0.0016  1.3620  0.9238  11.00000  0.05    0.09
Q13   1   0.4781  1.2393  0.9556  11.00000  0.05    0.09
Q14   1   0.5068  0.9592  0.9024  11.00000  0.05    0.09
Q15   1   0.2352  0.9218  0.4352  11.00000  0.05    0.09
Q16   1   0.6189  0.6347  0.4377  11.00000  0.05    0.09
Q17   1   0.2971  1.4975  1.0040  11.00000  0.05    0.09
Q18   1   1.3512  0.7139  0.8404  11.00000  0.05    0.09
Q19   1   1.2300  0.8233  0.8899  11.00000  0.05    0.09
Q20   1   0.5050  1.2553  0.7586  11.00000  0.05    0.09
;
_shelx_res_checksum              37726
loop_
_space_group_symop_operation_xyz
'x, y, z'
'-x, -y, -z'
loop_
_atom_site_type_symbol
_atom_site_label
_atom_site_fract_x
_atom_site_fract_y
_atom_site_fract_z
_atom_site_U_iso_or_equiv
_atom_site_adp_type
_atom_site_calc_flag
_atom_site_occupancy
O O9 0.37402(19) 0.76949(10) 0.45209(9) 0.0574(3) Uani d 1
O O21 -0.04447(19) 1.36437(12) 0.82987(11) 0.0658(3) Uani d 1
H H21 -0.055031 1.305321 0.763928 0.099 Uiso calc 1
O O11 0.0867(2) 0.85556(13) 0.39863(11) 0.0757(4) Uani d 1
C C6 0.6271(2) 0.84311(13) 0.66749(13) 0.0452(3) Uani d 1
N N19 0.2818(2) 1.08969(13) 0.92565(13) 0.0596(4) Uani d 1
N N15 0.44456(19) 1.12365(11) 0.87345(10) 0.0450(3) Uani d 1
C C13 0.5024(2) 0.94266(13) 0.70280(13) 0.0458(3) Uani d 1
C C5 0.5580(3) 0.75918(14) 0.54097(13) 0.0485(3) Uani d 1
N N18 0.1788(2) 1.18550(14) 0.94803(13) 0.0598(4) Uani d 1
C C1 0.8117(3) 0.82578(14) 0.75347(14) 0.0500(4) Uani d 1
H H1 0.860125 0.880475 0.838505 0.060 Uiso calc 1
C C12 0.3208(3) 0.94819(14) 0.61462(14) 0.0523(4) Uani d 1
H H12 0.240245 1.011061 0.638265 0.063 Uiso calc 1
C C4 0.6663(3) 0.66137(15) 0.49641(14) 0.0560(4) Uani d 1
C C2 0.9229(3) 0.72895(15) 0.71413(15) 0.0542(4) Uani d 1
C C17 0.2756(2) 1.28047(13) 0.91088(12) 0.0454(3) Uani d 1
C C20 0.1846(3) 1.39858(15) 0.91808(14) 0.0556(4) Uani d 1
H H20A 0.178228 1.440812 1.002359 0.067 Uiso calc 1
H H20B 0.295413 1.462794 0.903203 0.067 Uiso calc 1
C C14 0.5903(3) 1.03629(14) 0.83948(13) 0.0517(4) Uani d 1
H H14A 0.597759 0.983779 0.891184 0.062 Uiso calc 1
H H14B 0.751444 1.090828 0.859203 0.062 Uiso calc 1
C C10 0.2480(3) 0.85893(15) 0.48426(14) 0.0552(4) Uani d 1
C C3 0.8477(3) 0.64959(16) 0.58574(16) 0.0614(4) Uani d 1
H H3 0.923601 0.585243 0.558673 0.074 Uiso calc 1
C C16 0.4471(2) 1.24121(13) 0.86378(13) 0.0477(3) Uani d 1
H H16 0.545138 1.286513 0.831682 0.057 Uiso calc 1
C C7 1.1162(3) 0.70920(19) 0.80743(18) 0.0718(5) Uani d 1
H H7A 1.168804 0.636256 0.764247 0.108 Uiso calc 0.31(2)
H H7B 1.055076 0.689718 0.869294 0.108 Uiso calc 0.31(2)
H H7C 1.248294 0.789024 0.848366 0.108 Uiso calc 0.31(2)
H H7D 1.145979 0.773742 0.890357 0.108 Uiso calc 0.69(2)
H H7E 1.259707 0.720281 0.785311 0.108 Uiso calc 0.69(2)
H H7F 1.066488 0.620975 0.806239 0.108 Uiso calc 0.69(2)
C C8 0.5915(4) 0.57393(19) 0.35871(16) 0.0760(5) Uani d 1
H H8A 0.690144 0.613072 0.319554 0.114 Uiso calc 1
H H8B 0.427523 0.565734 0.318815 0.114 Uiso calc 1
H H8C 0.609121 0.487213 0.349891 0.114 Uiso calc 1
loop_
_atom_site_aniso_label
_atom_site_aniso_U_11
_atom_site_aniso_U_22
_atom_site_aniso_U_33
_atom_site_aniso_U_12
_atom_site_aniso_U_13
_atom_site_aniso_U_23
O9 0.0673(7) 0.0594(6) 0.0445(5) 0.0320(5) 0.0145(5) 0.0135(4)
O21 0.0540(6) 0.0732(7) 0.0627(7) 0.0362(5) 0.0113(5) 0.0124(5)
O11 0.0765(8) 0.0868(8) 0.0507(6) 0.0440(7) 0.0024(6) 0.0120(6)
C6 0.0468(7) 0.0422(7) 0.0487(7) 0.0192(6) 0.0170(6) 0.0156(6)
N19 0.0560(7) 0.0609(7) 0.0744(9) 0.0269(6) 0.0276(6) 0.0316(6)
N15 0.0420(6) 0.0456(6) 0.0436(6) 0.0198(5) 0.0113(5) 0.0105(5)
C13 0.0457(7) 0.0434(7) 0.0477(7) 0.0186(6) 0.0143(6) 0.0143(6)
C5 0.0549(8) 0.0481(7) 0.0481(8) 0.0228(6) 0.0189(6) 0.0197(6)
N18 0.0546(7) 0.0692(8) 0.0696(8) 0.0322(6) 0.0297(6) 0.0294(7)
C1 0.0504(8) 0.0486(7) 0.0508(8) 0.0237(6) 0.0155(6) 0.0144(6)
C12 0.0518(8) 0.0524(8) 0.0514(8) 0.0272(6) 0.0136(6) 0.0136(6)
C4 0.0723(10) 0.0526(8) 0.0518(8) 0.0309(7) 0.0283(7) 0.0180(7)
C2 0.0564(8) 0.0527(8) 0.0607(9) 0.0290(7) 0.0213(7) 0.0218(7)
C17 0.0420(7) 0.0472(7) 0.0401(7) 0.0183(6) 0.0094(5) 0.0082(5)
C20 0.0553(8) 0.0534(8) 0.0509(8) 0.0274(6) 0.0126(6) 0.0080(6)
C14 0.0488(8) 0.0502(8) 0.0502(8) 0.0271(6) 0.0099(6) 0.0093(6)
C10 0.0560(8) 0.0583(8) 0.0493(8) 0.0268(7) 0.0117(7) 0.0163(7)
C3 0.0766(11) 0.0591(9) 0.0647(9) 0.0434(8) 0.0329(8) 0.0237(7)
C16 0.0467(7) 0.0452(7) 0.0535(8) 0.0203(6) 0.0196(6) 0.0156(6)
C7 0.0739(11) 0.0756(11) 0.0714(11) 0.0479(9) 0.0187(9) 0.0242(9)
C8 0.1070(15) 0.0748(11) 0.0542(10) 0.0497(11) 0.0331(10) 0.0167(8)
loop_
_atom_type_symbol
_atom_type_description
_atom_type_scat_dispersion_real
_atom_type_scat_dispersion_imag
_atom_type_scat_source
C C 0.0181 0.0091 'International Tables Vol C Tables 4.2.6.8 and 6.1.1.4'
H H 0.0000 0.0000 'International Tables Vol C Tables 4.2.6.8 and 6.1.1.4'
N N 0.0311 0.0180 'International Tables Vol C Tables 4.2.6.8 and 6.1.1.4'
O O 0.0492 0.0322 'International Tables Vol C Tables 4.2.6.8 and 6.1.1.4'
loop_
_geom_angle_atom_site_label_1
_geom_angle_atom_site_label_2
_geom_angle_atom_site_label_3
_geom_angle
C10 O9 C5 122.09(11)
C20 O21 H21 109.5
C5 C6 C1 117.93(12)
C5 C6 C13 118.08(12)
C1 C6 C13 123.98(12)
N18 N19 N15 106.63(11)
N19 N15 C16 110.78(11)
N19 N15 C14 119.15(12)
C16 N15 C14 130.04(12)
C12 C13 C6 119.78(12)
C12 C13 C14 123.64(12)
C6 C13 C14 116.58(11)
O9 C5 C6 120.68(12)
O9 C5 C4 116.33(13)
C6 C5 C4 122.99(13)
N19 N18 C17 109.68(12)
C2 C1 C6 121.27(14)
C2 C1 H1 119.4
C6 C1 H1 119.4
C13 C12 C10 121.56(13)
C13 C12 H12 119.2
C10 C12 H12 119.2
C3 C4 C5 116.29(14)
C3 C4 C8 121.84(14)
C5 C4 C8 121.87(14)
C1 C2 C3 117.89(14)
C1 C2 C7 120.78(14)
C3 C2 C7 121.33(13)
N18 C17 C16 107.39(12)
N18 C17 C20 121.83(13)
C16 C17 C20 130.68(14)
O21 C20 C17 112.70(12)
O21 C20 H20A 109.1
C17 C20 H20A 109.1
O21 C20 H20B 109.1
C17 C20 H20B 109.1
H20A C20 H20B 107.8
N15 C14 C13 114.71(11)
N15 C14 H14A 108.6
C13 C14 H14A 108.6
N15 C14 H14B 108.6
C13 C14 H14B 108.6
H14A C14 H14B 107.6
O11 C10 O9 115.82(13)
O11 C10 C12 126.45(14)
O9 C10 C12 117.73(13)
C4 C3 C2 123.61(13)
C4 C3 H3 118.2
C2 C3 H3 118.2
N15 C16 C17 105.51(12)
N15 C16 H16 127.2
C17 C16 H16 127.2
C2 C7 H7A 109.5
C2 C7 H7B 109.5
H7A C7 H7B 109.5
C2 C7 H7C 109.5
H7A C7 H7C 109.5
H7B C7 H7C 109.5
C2 C7 H7D 109.5
H7A C7 H7D 141.1
H7B C7 H7D 56.3
H7C C7 H7D 56.3
C2 C7 H7E 109.5
H7A C7 H7E 56.3
H7B C7 H7E 141.1
H7C C7 H7E 56.3
H7D C7 H7E 109.5
C2 C7 H7F 109.5
H7A C7 H7F 56.3
H7B C7 H7F 56.3
H7C C7 H7F 141.1
H7D C7 H7F 109.5
H7E C7 H7F 109.5
C4 C8 H8A 109.5
C4 C8 H8B 109.5
H8A C8 H8B 109.5
C4 C8 H8C 109.5
H8A C8 H8C 109.5
H8B C8 H8C 109.5
loop_
_geom_bond_atom_site_label_1
_geom_bond_atom_site_label_2
_geom_bond_distance
O9 C10 1.3712(18)
O9 C5 1.3833(18)
O21 C20 1.4118(18)
O21 H21 0.8200
O11 C10 1.2089(19)
C6 C5 1.392(2)
C6 C1 1.404(2)
C6 C13 1.4554(18)
N19 N18 1.3135(18)
N19 N15 1.3375(17)
N15 C16 1.3395(18)
N15 C14 1.4513(16)
C13 C12 1.345(2)
C13 C14 1.5080(19)
C5 C4 1.392(2)
N18 C17 1.352(2)
C1 C2 1.3829(19)
C1 H1 0.9300
C12 C10 1.442(2)
C12 H12 0.9300
C4 C3 1.384(2)
C4 C8 1.505(2)
C2 C3 1.395(2)
C2 C7 1.503(2)
C17 C16 1.3635(19)
C17 C20 1.4952(19)
C20 H20A 0.9700
C20 H20B 0.9700
C14 H14A 0.9700
C14 H14B 0.9700
C3 H3 0.9300
C16 H16 0.9300
C7 H7A 0.9600
C7 H7B 0.9600
C7 H7C 0.9600
C7 H7D 0.9600
C7 H7E 0.9600
C7 H7F 0.9600
C8 H8A 0.9600
C8 H8B 0.9600
C8 H8C 0.9600
loop_
_geom_hbond_atom_site_label_D
_geom_hbond_atom_site_label_H
_geom_hbond_atom_site_label_A
_geom_hbond_site_symmetry_A
_geom_hbond_distance_DH
_geom_hbond_distance_HA
_geom_hbond_distance_DA
_geom_hbond_angle_DHA
_geom_hbond_publ_flag
O21 H21 O11 2_576 0.82 2.10 2.9155(19) 176 yes
C14 H14A N19 2_677 0.97 2.55 3.486(2) 162 yes
C14 H14B N18 1_655 0.97 2.41 3.344(2) 162 yes
C16 H16 O21 1_655 0.93 2.47 3.284(2) 146 yes

_cod_database_fobs_code 1544340
