#------------------------------------------------------------------------------
#$Date: 2017-04-05 14:49:03 +0300 (Wed, 05 Apr 2017) $
#$Revision: 195194 $
#$URL: file:///home/coder/svn-repositories/cod/cif/1/54/56/1545685.cif $
#------------------------------------------------------------------------------
#
# This file is available in the Crystallography Open Database (COD),
# http://www.crystallography.net/. The original data for this entry
# were provided by IUCr Journals, http://journals.iucr.org/.
#
# The file may be used within the scientific community so long as
# proper attribution is given to the journal article from which the
# data were obtained.
#
data_1545685
loop_
_publ_author_name
'Mittapalli, Sudhir'
'Sravanakumar Perumalla, D.'
'Nangia, Ashwini'
_publ_section_title
;
 Mechanochemical synthesis of <i>N</i>-salicylideneaniline: thermosalient
 effect of polymorphic crystals
;
_journal_issue                   3
_journal_name_full               IUCrJ
_journal_page_first
;
;
_journal_paper_doi               10.1107/S2052252517004043
_journal_volume                  4
_journal_year                    2017
_chemical_formula_moiety         'C14 H10 I2 N2 O2'
_chemical_formula_sum            'C14 H10 I2 N2 O2'
_chemical_formula_weight         492.04
_chemical_melting_point          527
_chemical_name_common
((E)-4-((3,5-Diiodo-2-Hydroxybenzylidene)amino)benzamide
_chemical_name_systematic
((E)-4-((3,5-Diiodo-2-Hydroxybenzylidene)amino)benzamide
_space_group_crystal_system      triclinic
_space_group_IT_number           2
_space_group_name_Hall           '-P 1'
_space_group_name_H-M_alt        'P -1'
_symmetry_space_group_name_Hall  '-P 1'
_symmetry_space_group_name_H-M   'P -1'
_atom_sites_solution_hydrogens   mixed
_audit_creation_method           SHELXL-2014/7
_cell_angle_alpha                81.239(2)
_cell_angle_beta                 84.450(2)
_cell_angle_gamma                72.336(2)
_cell_formula_units_Z            2
_cell_length_a                   8.4678(6)
_cell_length_b                   9.6066(7)
_cell_length_c                   9.6522(7)
_cell_measurement_reflns_used    2675
_cell_measurement_temperature    298(2)
_cell_measurement_theta_max      27.601
_cell_measurement_theta_min      2.244
_cell_volume                     738.36(9)
_computing_structure_refinement  'SHELXL-2014/7 (Sheldrick, 2014)'
_diffrn_ambient_temperature      298(2)
_diffrn_measured_fraction_theta_full 0.999
_diffrn_measured_fraction_theta_max 0.994
_diffrn_measurement_device_type  'Bruker APEX-II CCD'
_diffrn_measurement_method       '\f and \w scans'
_diffrn_radiation_type           MoK\a
_diffrn_radiation_wavelength     0.71073
_diffrn_reflns_av_R_equivalents  0.0553
_diffrn_reflns_av_unetI/netI     0.0289
_diffrn_reflns_Laue_measured_fraction_full 0.999
_diffrn_reflns_Laue_measured_fraction_max 0.994
_diffrn_reflns_limit_h_max       11
_diffrn_reflns_limit_h_min       -11
_diffrn_reflns_limit_k_max       12
_diffrn_reflns_limit_k_min       -12
_diffrn_reflns_limit_l_max       12
_diffrn_reflns_limit_l_min       -12
_diffrn_reflns_number            32730
_diffrn_reflns_point_group_measured_fraction_full 0.999
_diffrn_reflns_point_group_measured_fraction_max 0.994
_diffrn_reflns_theta_full        25.242
_diffrn_reflns_theta_max         27.601
_diffrn_reflns_theta_min         2.244
_exptl_absorpt_coefficient_mu    4.261
_exptl_absorpt_correction_type   none
_exptl_crystal_colour            red
_exptl_crystal_density_diffrn    2.213
_exptl_crystal_density_method    'not measured'
_exptl_crystal_description       block
_exptl_crystal_F_000             460
_exptl_crystal_size_max          0.33
_exptl_crystal_size_mid          0.32
_exptl_crystal_size_min          0.30
_refine_diff_density_max         1.210
_refine_diff_density_min         -0.891
_refine_diff_density_rms         0.091
_refine_ls_extinction_method     none
_refine_ls_goodness_of_fit_ref   1.017
_refine_ls_hydrogen_treatment    mixed
_refine_ls_matrix_type           full
_refine_ls_number_parameters     193
_refine_ls_number_reflns         3409
_refine_ls_number_restraints     1
_refine_ls_restrained_S_all      1.017
_refine_ls_R_factor_all          0.0489
_refine_ls_R_factor_gt           0.0337
_refine_ls_shift/su_max          0.001
_refine_ls_shift/su_mean         0.000
_refine_ls_structure_factor_coef Fsqd
_refine_ls_weighting_details
'w=1/[\s^2^(Fo^2^)+(0.0310P)^2^+1.5168P] where P=(Fo^2^+2Fc^2^)/3'
_refine_ls_weighting_scheme      calc
_refine_ls_wR_factor_gt          0.0742
_refine_ls_wR_factor_ref         0.0809
_reflns_Friedel_coverage         0.000
_reflns_number_gt                2675
_reflns_number_total             3409
_reflns_threshold_expression     'I > 2\s(I)'
_cod_data_source_file            lq5003.cif
_cod_data_source_block           CompoundC
_cod_depositor_comments
;
The following automatic conversions were performed:

'_chemical_melting_point' value '527K' was changed to '527' - the
value should be numeric and without a unit designator.

Automatic conversion script
Id: cif_fix_values 4973 2017-02-22 13:04:09Z antanas 
;
_cod_database_code               1545685
_shelx_shelxl_version_number     2014/7
_shelx_space_group_comment
;
The symmetry employed for this shelxl refinement is uniquely defined
by the following loop, which should always be used as a source of
symmetry information in preference to the above space-group names.
They are only intended as comments.
;
_shelx_res_file
;

    shelx.res created by SHELXL-2014/7

TITL AN26_0m_a.res in P-1
CELL  0.71073   8.4678   9.6066   9.6522   81.239   84.450   72.336
ZERR     2.00   0.0006   0.0007   0.0007    0.002    0.002    0.002
LATT   1
SFAC  C    H    N    O    I
UNIT  28 20 4 4 4
MERG   2
DFIX 0.84 0.02 N1 H1B
FMAP   2
PLAN    5
ACTA
BOND   $H
L.S.   5
TEMP    23.85
WGHT    0.031000    1.516800
FVAR       0.56544
I2    5    0.730092    0.740997    1.196261    11.00000    0.07691    0.09869 =
         0.03627    0.01329   -0.01782   -0.05937
I1    5    0.239321    0.402239    1.379610    11.00000    0.07673    0.06488 =
         0.05008    0.00935    0.01375   -0.03753
O2    4    0.530214    0.804998    0.925996    11.00000    0.05987    0.06251 =
         0.03317    0.01294   -0.01222   -0.03741
O1    4   -0.013790    0.901829    0.171842    11.00000    0.06479    0.07867 =
         0.03710    0.00395   -0.01678   -0.04292
N2    3    0.319661    0.792866    0.758062    11.00000    0.04383    0.04528 =
         0.03216    0.00472   -0.01107   -0.01643
N1    3    0.155827    1.040912    0.111719    11.00000    0.06937    0.07639 =
         0.03668    0.01480   -0.01918   -0.04375
C2    1    0.157424    0.910935    0.347526    11.00000    0.03287    0.03534 =
         0.03572   -0.00204   -0.00614   -0.01068
C11   1    0.463847    0.719734    1.022368    11.00000    0.04357    0.03755 =
         0.02781    0.00101   -0.00041   -0.01601
C12   1    0.333047    0.538499    1.225618    11.00000    0.04842    0.04347 =
         0.03455    0.00199    0.00751   -0.01888
C9    1    0.329188    0.673410    0.993421    11.00000    0.04044    0.04057 =
         0.02965   -0.00092   -0.00327   -0.01314
C7    1    0.260426    0.827813    0.622247    11.00000    0.03681    0.04173 =
         0.03318    0.00336   -0.00812   -0.01385
C13   1    0.530009    0.673125    1.155044    11.00000    0.04756    0.04574 =
         0.02970    0.00144   -0.00561   -0.02381
C1    1    0.094264    0.950306    0.203275    11.00000    0.04549    0.04311 =
         0.03319   -0.00279   -0.00819   -0.01518
C8    1    0.259266    0.715159    0.857364    11.00000    0.03723    0.04736 =
         0.03919    0.00112   -0.00891   -0.01620
AFIX  43
H8    2    0.168734    0.685317    0.841098    11.00000   -1.20000
AFIX   0
C14   1    0.464462    0.584492    1.255143    11.00000    0.05068    0.04536 =
         0.02785    0.00334   -0.00325   -0.01635
AFIX  43
H14   2    0.508844    0.555439    1.343046    11.00000   -1.20000
AFIX   0
C10   1    0.265042    0.582616    1.096640    11.00000    0.03893    0.04867 =
         0.04162    0.00170    0.00243   -0.02080
AFIX  43
H10   2    0.176006    0.552068    1.077757    11.00000   -1.20000
AFIX   0
C3    1    0.106573    0.803203    0.436936    11.00000    0.05095    0.05566 =
         0.03991    0.00264   -0.01046   -0.03100
AFIX  43
H3    2    0.035052    0.759470    0.405407    11.00000   -1.20000
AFIX   0
C5    1    0.159846    0.759918    0.571108    11.00000    0.05977    0.05535 =
         0.04068    0.00998   -0.00813   -0.03435
AFIX  43
H5    2    0.128067    0.684562    0.627791    11.00000   -1.20000
AFIX   0
C4    1    0.260370    0.976469    0.397841    11.00000    0.05864    0.05153 =
         0.03807    0.00956   -0.01351   -0.03148
AFIX  43
H4    2    0.296141    1.048737    0.339678    11.00000   -1.20000
AFIX   0
C6    1    0.311000    0.935862    0.533902    11.00000    0.05824    0.05694 =
         0.04229    0.00653   -0.01673   -0.03387
AFIX  43
H6    2    0.379817    0.981652    0.566456    11.00000   -1.20000
AFIX   0
H1A   2    0.242420    1.067604    0.139518    11.00000    0.06783
H2A   2    0.472713    0.818654    0.866243    11.00000    0.07242
H1B   2    0.113598    1.059027    0.035178    11.00000    0.05935
HKLF 4

REM  AN26_0m_a.res in P-1
REM R1 =  0.0337 for    2675 Fo > 4sig(Fo)  and  0.0489 for all    3409 data
REM    193 parameters refined using      1 restraints

END

WGHT      0.0310      1.5166

REM Highest difference peak  1.210,  deepest hole -0.891,  1-sigma level  0.091
Q1    1   0.7944  0.6465  1.1672  11.00000  0.05    1.21
Q2    1   0.1741  0.4071  1.3190  11.00000  0.05    1.05
Q3    1   0.6467  0.7856  1.1546  11.00000  0.05    0.75
Q4    1   0.1945  0.5025  1.4005  11.00000  0.05    0.65
Q5    1   0.1048  0.9499  0.2939  11.00000  0.05    0.36
;
_shelx_res_checksum              72960
_shelx_hkl_file
;
  -1   0   0  166.58   11.30
  -1   0   0  166.28   10.90
  -1   0   0  169.98   11.00
  -1   0   0  156.48   11.30
  -1   0   0  176.88   11.30
  -1   0   0  170.88   11.30
  -1   0   0  186.88   10.90
   1   0   0  162.68   11.40
   1   0   0  179.68   11.30
   1   0   0  169.88   10.90
   1   0   0  146.39   11.00
   1   0   0  167.28   11.20
   1   0   0  176.58   10.90
  -2   0   0 9944.50  571.74
   2   0   0 9999.00  571.74
  -3   0   0    1.40    1.20
  -3   0   0    4.00    2.40
  -3   0   0   -0.10    2.20
  -3   0   0    0.10    1.10
  -3   0   0    0.90    2.70
  -3   0   0    0.30    1.20
  -3   0   0    0.40    1.80
  -3   0   0    2.10    2.40
   3   0   0    2.60    2.10
   3   0   0   -3.10    2.50
   3   0   0    0.20    2.20
   3   0   0    1.90    1.40
   3   0   0   -1.90    2.10
   3   0   0    5.00    2.30
   3   0   0   -2.00    0.80
   3   0   0   -0.50    1.40
  -4   0   0 4324.07  237.48
  -4   0   0 4162.08  237.78
  -4   0   0 4006.20  238.18
  -4   0   0 4124.39  236.98
  -4   0   0 3650.53  238.58
  -4   0   0 3948.81  236.08
   4   0   0 4158.98  236.18
   4   0   0 4168.08  237.38
   4   0   0 4096.49  238.18
   4   0   0 4095.09  237.78
   4   0   0 4313.87  238.08
   4   0   0 3965.10  236.58
   4   0   0 4348.56  236.18
  -5   0   0  396.26   23.00
  -5   0   0  354.76   26.50
  -5   0   0  347.17   25.00
  -5   0   0  360.26   24.80
  -5   0   0  341.07   23.40
  -5   0   0  371.76   25.40
  -5   0   0  377.36   24.30
   5   0   0  404.56   23.40
   5   0   0  368.26   23.20
   5   0   0  368.06   25.00
   5   0   0  370.76   25.40
   5   0   0  363.86   25.30
   5   0   0  350.66   26.20
   5   0   0  358.16   23.70
  -6   0   0  435.56   29.70
  -6   0   0  419.76   26.80
  -6   0   0  458.55   29.10
  -6   0   0  417.96   27.60
  -6   0   0  429.36   30.20
  -6   0   0  439.36   29.80
  -6   0   0  424.86   31.70
   6   0   0  438.26   28.00
   6   0   0  426.56   29.60
   6   0   0  455.55   27.60
   6   0   0  430.16   31.80
   6   0   0  396.16   27.10
   6   0   0  416.96   29.90
  -7   0   0   52.89   10.20
  -7   0   0   47.50    9.50
  -7   0   0   49.99    7.40
  -7   0   0   48.60    7.70
  -7   0   0   61.09   11.90
  -7   0   0   56.59   10.20
  -7   0   0   51.29    6.50
  -7   0   0   51.89    9.50
   7   0   0   51.59   12.20
   7   0   0   52.89    8.30
   7   0   0   34.80    9.20
   7   0   0   66.99   11.40
   7   0   0   45.20    7.30
   7   0   0   55.09    7.60
   7   0   0   54.09   11.50
  -8   0   0  121.89   15.40
  -8   0   0  138.19   18.70
  -8   0   0  164.98   19.80
  -8   0   0  149.79   19.10
  -8   0   0  131.79   11.90
  -8   0   0  165.48   21.50
   8   0   0  127.89   13.30
   8   0   0  152.78   16.00
   8   0   0  138.79   15.10
   8   0   0  118.79   19.80
   8   0   0  160.28   21.90
   8   0   0  104.29   15.40
  -9   0   0  -14.10   11.40
  -9   0   0  -26.10   12.30
  -9   0   0    6.00   17.40
  -9   0   0   12.00    6.20
   9   0   0   -6.40    6.70
   9   0   0   -2.60   12.20
   9   0   0  -13.20    7.80
   9   0   0   22.80   13.40
   9   0   0  -20.40   14.80
   9   0   0   -1.00   10.10
 -10   0   0   21.60   18.50
 -10   0   0   20.80   26.90
 -10   0   0   26.40   15.50
  10   0   0   47.40   19.00
  10   0   0   31.30   15.70
  10   0   0   38.40   11.00
  10   0   0   25.10   13.20
  10   0   0   34.80   15.70
  10  -1   0    8.70   16.30
  10  -1   0    5.90   13.40
  10  -1   0   -5.90   15.00
  10  -1   0    9.10    9.10
  10  -1   0   11.70   21.20
 -10   1   0    2.20   26.20
 -10   1   0  -11.30   17.30
 -10   1   0   28.20   18.60
   9  -1   0  -29.80   12.10
   9  -1   0   11.00    6.90
   9  -1   0   -1.70   10.40
   9  -1   0   10.90   16.50
   9  -1   0   -5.40    9.10
  -9   1   0   -2.50   14.40
  -9   1   0   16.80   14.50
  -9   1   0  -17.90   18.60
  -9   1   0   14.60   13.70
   8  -1   0   16.50   14.10
   8  -1   0   11.90   10.00
   8  -1   0   -8.40    6.70
   8  -1   0    0.80    5.50
   8  -1   0   -9.20   11.30
   8  -1   0   -4.40    6.70
  -8   1   0    2.60   11.10
  -8   1   0   -3.20    9.60
  -8   1   0  -12.90   11.20
  -8   1   0    1.10   13.90
   7  -1   0   34.40   10.30
   7  -1   0    8.30    3.60
   7  -1   0   -8.90    9.20
   7  -1   0   18.20    8.00
   7  -1   0   22.10    9.50
   7  -1   0   21.00   10.80
   7  -1   0    9.10    5.90
   7  -1   0   32.60    6.50
  -7   1   0   16.80   10.40
  -7   1   0   17.90    8.60
  -7   1   0    8.80    5.60
  -7   1   0   11.00    9.20
  -7   1   0   27.90    8.60
  -7   1   0   33.60    8.50
   6  -1   0   81.19   11.40
   6  -1   0   95.39   12.20
   6  -1   0   75.39   11.70
   6  -1   0   98.69    9.20
   6  -1   0   87.99    9.80
   6  -1   0   99.59   13.10
   6  -1   0   89.39    8.30
   6  -1   0  104.39   13.50
  -6   1   0  114.29   14.80
  -6   1   0  106.49   13.40
  -6   1   0   63.99    9.70
  -6   1   0  104.29    8.50
  -6   1   0   97.49   12.50
  -6   1   0   85.29    7.00
  -6   1   0   92.69   11.50
  -6   1   0   95.59    9.80
   5  -1   0  542.25   35.80
   5  -1   0  590.34   33.30
   5  -1   0  520.85   35.90
   5  -1   0  532.15   32.80
   5  -1   0  533.55   35.30
   5  -1   0  540.55   35.30
  -5   1   0  530.55   35.70
  -5   1   0  489.65   35.70
  -5   1   0  488.45   34.60
  -5   1   0  572.24   34.20
  -5   1   0  543.85   32.60
  -5   1   0  557.14   33.50
   4  -1   0  563.24   37.20
   4  -1   0  587.54   37.70
   4  -1   0  577.24   36.10
   4  -1   0  582.24   37.40
   4  -1   0  600.24   35.50
   4  -1   0  617.74   35.80
   4  -1   0  606.04   37.90
  -4   1   0  598.54   37.40
  -4   1   0  587.64   35.90
  -4   1   0  616.34   36.50
  -4   1   0  588.74   38.00
  -4   1   0  596.34   38.00
  -4   1   0  599.54   37.20
   3  -1   0 1563.14   91.49
   3  -1   0 1648.44   91.09
   3  -1   0 1575.14   92.99
   3  -1   0 1584.74   91.29
   3  -1   0 1523.05   92.29
   3  -1   0 1591.14   92.49
   3  -1   0 1536.35   92.49
  -3   1   0 1599.24   92.49
  -3   1   0 1525.55   92.19
  -3   1   0 1591.94   92.99
  -3   1   0 1549.84   91.69
  -3   1   0 1545.05   91.29
  -3   1   0 1623.04   90.99
   2  -1   0  852.01   46.30
   2  -1   0  703.33   46.80
   2  -1   0  835.22   47.90
   2  -1   0  686.33   46.90
   2  -1   0  794.52   47.20
   2  -1   0  799.02   47.20
   2  -1   0  790.72   47.20
  -2   1   0  801.02   47.80
  -2   1   0  832.22   46.20
  -2   1   0  836.52   47.30
  -2   1   0  822.22   47.30
  -2   1   0  790.72   47.10
  -2   1   0  786.42   46.90
  -2   1   0  822.32   46.50
   1  -1   0 4177.78  237.28
   1  -1   0 3954.70  236.88
   1  -1   0 4149.38  237.18
   1  -1   0 4223.78  237.98
   1  -1   0 4014.70  237.28
  -1   1   0 4232.18  237.98
  -1   1   0 4157.48  237.18
  -1   1   0 4190.18  237.18
   0  -1   0  783.32   41.20
   0  -1   0  622.04   41.20
   0  -1   0  675.03   41.30
   0  -1   0  780.82   41.20
   0  -1   0  695.03   41.10
  -1  -1   0  501.55   30.30
  -1  -1   0  562.54   30.50
  -1  -1   0  538.55   30.00
  -1  -1   0  526.95   30.40
  -1  -1   0  494.15   30.10
  -1  -1   0  472.45   30.60
  -1  -1   0  560.54   30.10
   1   1   0  501.45   30.10
   1   1   0  518.35   30.30
   1   1   0  475.55   30.60
   1   1   0  512.25   30.30
   1   1   0  514.75   30.00
   1   1   0  533.65   30.50
  -2  -1   0 2548.15  142.29
  -2  -1   0 2634.24  141.49
  -2  -1   0 2587.44  141.39
  -2  -1   0 2522.25  142.19
  -2  -1   0 2446.16  141.59
  -2  -1   0 2389.46  142.59
  -2  -1   0 2189.78  141.79
  -2  -1   0 2440.96  141.19
   2   1   0 2380.76  141.59
   2   1   0 2379.66  142.49
   2   1   0 2528.85  142.19
   2   1   0 2555.24  142.29
   2   1   0 2579.34  141.49
   2   1   0 2578.84  141.59
   2   1   0 2156.48  141.89
  -3  -1   0 3533.25  211.18
  -3  -1   0 3735.33  210.98
  -3  -1   0 3785.72  211.18
  -3  -1   0 3869.71  212.58
  -3  -1   0 3623.74  212.88
  -3  -1   0 3568.44  211.68
  -3  -1   0 3716.03  212.38
   3   1   0 3841.92  212.48
   3   1   0 3777.42  212.38
   3   1   0 3519.75  211.28
   3   1   0 3714.03  211.28
   3   1   0 3585.54  211.48
   3   1   0 3610.34  212.78
   3   1   0 3386.96  211.88
   3   1   0 3887.51  211.38
  -4  -1   0 1074.39   61.59
  -4  -1   0 1100.49   63.49
  -4  -1   0 1014.20   62.09
  -4  -1   0 1085.79   63.59
  -4  -1   0  978.60   63.99
  -4  -1   0 1038.30   62.09
   4   1   0 1147.99   62.19
   4   1   0  933.71   62.69
   4   1   0 1047.60   62.09
   4   1   0 1069.89   62.29
   4   1   0  985.40   64.29
   4   1   0 1097.29   63.49
   4   1   0 1031.00   63.99
   4   1   0 1148.49   62.09
  -5  -1   0 1902.51  109.49
  -5  -1   0 1903.41  110.89
  -5  -1   0 1821.32  111.59
  -5  -1   0 1800.82  109.69
  -5  -1   0 1808.42  109.09
  -5  -1   0 2022.50  108.59
  -5  -1   0 1935.31  110.79
  -5  -1   0 1827.22  109.09
   5   1   0 1858.91  111.59
   5   1   0 1814.62  110.69
   5   1   0 1795.92  109.09
   5   1   0 1994.00  110.99
   5   1   0 1933.61  108.99
   5   1   0 1993.70  109.19
   5   1   0 1883.51  109.29
   5   1   0 1591.54  109.59
  -6  -1   0  332.87   22.80
  -6  -1   0  327.67   21.10
  -6  -1   0  325.47   22.80
  -6  -1   0  319.37   21.80
  -6  -1   0  329.87   24.10
  -6  -1   0  303.37   25.60
   6   1   0  270.37   23.50
   6   1   0  361.76   21.80
   6   1   0  357.66   22.40
   6   1   0  334.87   24.10
   6   1   0  347.17   26.30
   6   1   0  332.37   22.10
   6   1   0  309.77   22.50
   6   1   0  325.17   24.30
  -7  -1   0  467.15   35.90
  -7  -1   0  448.16   30.10
  -7  -1   0  478.45   29.10
  -7  -1   0  497.85   33.00
  -7  -1   0  484.95   31.30
  -7  -1   0  451.15   31.60
  -7  -1   0  410.76   32.40
   7   1   0  464.85   29.80
   7   1   0  439.06   32.90
   7   1   0  481.05   30.90
   7   1   0  456.25   33.40
   7   1   0  464.45   30.40
   7   1   0  459.75   35.20
   7   1   0  404.46   32.20
  -8  -1   0   92.39   17.00
  -8  -1   0  127.39   16.50
  -8  -1   0   98.49   11.70
  -8  -1   0   95.39   12.00
  -8  -1   0  101.89   14.30
   8   1   0   98.09   11.90
   8   1   0   98.39   18.20
   8   1   0   92.49   16.00
   8   1   0  100.39   11.50
   8   1   0   68.79   14.50
   8   1   0   75.69   14.00
   8   1   0   88.99   12.70
  -9  -1   0   61.19   15.00
  -9  -1   0   75.49   14.60
  -9  -1   0   84.99   12.60
  -9  -1   0   72.39   21.30
   9   1   0   65.19   16.20
   9   1   0   58.69   14.40
   9   1   0   61.19    9.70
   9   1   0   52.99   12.30
   9   1   0   55.79   14.40
   9   1   0   55.39    9.90
 -10  -1   0   38.10   16.80
 -10  -1   0   52.89   24.10
 -10  -1   0   26.80   14.70
  10   1   0   18.70    9.50
  10   1   0   22.60   12.80
  10   1   0   37.80   17.20
  10   1   0   30.00   26.10
   9  -2   0   13.60    8.00
   9  -2   0   -0.20   12.10
   9  -2   0  -13.60    9.50
   9  -2   0    1.00   10.90
  -9   2   0    8.40   16.80
  -9   2   0   24.80   15.30
  -9   2   0    6.60   21.30
  -9   2   0   11.10   15.20
   8  -2   0    5.90    9.80
   8  -2   0  -10.30   11.70
   8  -2   0   -5.00    5.60
   8  -2   0   11.50   14.20
   8  -2   0   -3.60    7.20
   8  -2   0    7.90    6.70
  -8   2   0   -9.10   10.00
  -8   2   0    5.80   11.30
  -8   2   0   -6.90   15.10
  -8   2   0   10.70   13.40
   7  -2   0    6.40    6.20
   7  -2   0   16.70    6.00
   7  -2   0   -1.20   11.00
   7  -2   0    2.30    7.60
   7  -2   0   -6.40   11.40
   7  -2   0   15.80    5.10
  -7   2   0   12.60   10.90
  -7   2   0   15.20    8.20
  -7   2   0   -0.10    5.10
  -7   2   0   -2.40   11.50
  -7   2   0   35.70   11.00
   6  -2   0    1.20    7.40
   6  -2   0   -2.80    8.00
   6  -2   0    0.30    4.90
   6  -2   0   11.20    8.90
   6  -2   0    3.00    3.70
   6  -2   0    1.60    3.90
   6  -2   0   -8.30    6.50
   6  -2   0    1.50    2.70
  -6   2   0   -2.00    5.60
  -6   2   0    1.90    4.50
  -6   2   0    6.80    6.10
  -6   2   0    0.60    7.80
  -6   2   0   -0.90    8.50
  -6   2   0   -3.90    3.60
  -6   2   0    5.60    9.00
   5  -2   0   -4.80    6.20
   5  -2   0   -1.90    5.00
   5  -2   0    3.90    3.00
   5  -2   0   -1.50    4.20
   5  -2   0    5.20    5.00
   5  -2   0    1.20    2.70
   5  -2   0    2.80    6.10
   5  -2   0   -2.10    2.60
  -5   2   0   -6.50    4.00
  -5   2   0   -6.40    6.40
  -5   2   0    9.60    4.80
  -5   2   0    1.20    5.00
  -5   2   0   -0.90    2.70
  -5   2   0   -1.40    3.40
  -5   2   0   13.10    6.60
   4  -2   0  107.49    7.60
   4  -2   0  101.99    8.30
   4  -2   0  109.89   10.60
   4  -2   0   94.89    9.60
   4  -2   0  108.19   10.00
   4  -2   0   99.69   11.70
   4  -2   0   89.69    8.00
  -4   2   0   99.49   11.60
  -4   2   0   95.69   10.10
  -4   2   0   87.19    9.10
  -4   2   0   84.99    7.90
  -4   2   0  109.19    9.60
  -4   2   0  113.79   11.30
  -4   2   0   99.79    8.20
   3  -2   0  518.95   32.40
   3  -2   0  539.85   31.00
   3  -2   0  522.75   32.40
   3  -2   0  523.75   32.60
   3  -2   0  531.85   31.50
   3  -2   0  502.65   31.50
   3  -2   0  551.14   34.00
  -3   2   0  508.35   32.10
  -3   2   0  528.35   32.60
  -3   2   0  451.05   30.90
  -3   2   0  545.65   34.20
  -3   2   0  545.45   32.40
  -3   2   0  527.15   33.00
   2  -2   0   22.10    4.50
   2  -2   0   16.10    3.10
   2  -2   0   21.10    2.70
   2  -2   0   21.20    2.30
   2  -2   0   16.50    3.20
   2  -2   0   22.90    3.50
   2  -2   0   22.30    3.30
  -2   2   0   23.00    5.00
  -2   2   0   16.80    2.40
  -2   2   0   27.30    3.90
  -2   2   0   21.00    3.40
  -2   2   0   21.20    3.30
  -2   2   0   22.10    2.50
  -2   2   0   21.60    3.10
   1  -2   0  879.21   51.19
   1  -2   0  747.73   51.69
   1  -2   0  921.61   51.09
   1  -2   0  877.31   51.19
   1  -2   0  912.91   51.59
   1  -2   0  936.21   51.59
   1  -2   0  876.51   51.59
   1  -2   0  893.71   52.99
   1  -2   0  856.71   51.09
  -1   2   0  851.41   53.09
  -1   2   0  916.51   51.69
  -1   2   0  938.61   51.09
  -1   2   0  924.71   51.09
  -1   2   0  871.61   51.29
  -1   2   0  838.62   51.79
   0  -2   0 1430.56   80.69
   0  -2   0 1448.66   79.49
   0  -2   0 1408.76   79.49
   0  -2   0 1403.76   79.39
   0  -2   0 1383.96   79.79
   0  -2   0 1376.26   79.39
   0  -2   0 1317.07   79.29
   0  -2   0 1342.77   79.69
   0   2   0 1379.26   79.69
   0   2   0 1335.97   80.59
   0   2   0 1307.97   79.69
   0   2   0 1451.85   79.49
   0   2   0 1378.86   79.89
  -1  -2   0 6046.09  343.27
  -1  -2   0 6065.59  342.87
  -1  -2   0 6370.16  342.77
   1   2   0 5924.21  343.17
   1   2   0 6084.89  342.87
   1   2   0 5415.96  342.57
  -2  -2   0 1233.58   73.69
  -2  -2   0 1340.27   73.19
  -2  -2   0 1302.27   73.99
  -2  -2   0 1259.97   73.79
  -2  -2   0 1323.87   73.29
  -2  -2   0 1360.56   74.19
  -2  -2   0 1200.68   74.49
   2   2   0 1300.67   73.89
   2   2   0 1235.48   73.09
   2   2   0 1160.68   74.19
   2   2   0 1127.29   73.29
   2   2   0 1279.07   73.69
   2   2   0 1256.77   73.29
   2   2   0 1348.67   74.09
  -3  -2   0 3090.99  179.88
  -3  -2   0 3167.58  178.98
  -3  -2   0 2975.20  178.18
  -3  -2   0 2679.53  178.58
  -3  -2   0 3317.07  179.28
  -3  -2   0 3193.88  178.08
  -3  -2   0 2882.61  177.88
   3   2   0 3033.10  178.98
   3   2   0 3166.08  178.98
   3   2   0 3049.99  179.58
   3   2   0 3284.97  178.28
   3   2   0 3303.67  177.98
   3   2   0 2974.00  178.18
   3   2   0 3214.28  179.18
  -4  -2   0  891.61   53.19
  -4  -2   0  806.32   53.89
  -4  -2   0  893.71   51.09
  -4  -2   0  873.71   51.79
  -4  -2   0  874.11   52.89
   4   2   0  781.82   52.59
   4   2   0  923.91   51.79
   4   2   0  896.51   52.89
   4   2   0  885.21   53.09
   4   2   0  822.52   51.69
   4   2   0  946.21   51.79
  -5  -2   0 2009.20  120.59
  -5  -2   0 2029.50  121.79
  -5  -2   0 1995.40  119.49
  -5  -2   0 2147.19  118.19
  -5  -2   0 2133.69  118.49
  -5  -2   0 2137.69  120.49
   5   2   0 2049.40  120.39
   5   2   0 2254.87  119.09
   5   2   0 1827.22  118.79
   5   2   0 2006.90  121.39
   5   2   0 1755.52  120.09
   5   2   0 2089.49  119.09
   5   2   0 2080.79  120.69
  -6  -2   0  168.38   15.70
  -6  -2   0  190.98   16.30
  -6  -2   0  191.28   14.20
  -6  -2   0  191.98   13.20
  -6  -2   0  187.98   18.70
  -6  -2   0  178.68   14.90
  -6  -2   0  191.58   13.10
   6   2   0  217.88   16.80
   6   2   0  217.98   14.20
   6   2   0  195.08   16.60
   6   2   0  149.59   14.40
   6   2   0  189.78   18.70
   6   2   0  202.28   14.40
   6   2   0  165.68   16.60
  -7  -2   0  772.22   54.99
  -7  -2   0  840.52   52.89
  -7  -2   0  813.12   49.30
  -7  -2   0  850.41   49.60
  -7  -2   0  841.72   53.39
  -7  -2   0  775.52   50.29
  -7  -2   0  841.72   51.39
   7   2   0  796.92   52.89
   7   2   0  803.62   50.59
   7   2   0  794.02   52.99
   7   2   0  813.32   53.39
   7   2   0  900.41   50.69
   7   2   0  790.02   54.69
  -8  -2   0   53.99   15.60
  -8  -2   0   47.60    9.00
  -8  -2   0   57.69   11.70
  -8  -2   0   35.40    7.90
  -8  -2   0   50.59   11.10
   8   2   0   41.10   10.90
   8   2   0   41.00   19.30
   8   2   0   50.39    8.60
   8   2   0   63.19   12.70
   8   2   0   35.30    7.10
   8   2   0   25.60    7.90
  -9  -2   0   90.89   15.30
  -9  -2   0   78.59   16.50
  -9  -2   0  102.09   14.70
  -9  -2   0  119.29   22.80
  -9  -2   0  142.99   19.10
   9   2   0   90.19   19.20
   9   2   0   92.49   13.90
   9   2   0  133.29   16.20
   9   2   0  129.49   15.60
   9   2   0  112.59   17.60
 -10  -2   0   22.40   15.70
 -10  -2   0  -18.60   21.60
 -10  -2   0    2.60   14.50
  10   2   0    2.60   12.90
  10   2   0   10.90    9.40
  10   2   0  -14.20   11.10
  10   2   0    6.20   10.40
   9  -3   0    8.40   12.00
   9  -3   0    9.90   12.90
   9  -3   0    6.80    8.60
   9  -3   0   -5.90   10.30
  -9   3   0    5.40   19.80
  -9   3   0   -3.10   15.90
  -9   3   0  -13.20   13.00
   8  -3   0    1.60   11.50
   8  -3   0    3.30    8.80
   8  -3   0   20.00    6.50
   8  -3   0   -6.20    6.80
   8  -3   0   22.10   15.80
   8  -3   0   20.70   13.00
  -8   3   0   13.00   11.40
  -8   3   0   -0.50   14.00
  -8   3   0   12.20    9.30
  -8   3   0   11.50   14.70
  -8   3   0   -2.90    9.90
   7  -3   0   -3.20    7.50
   7  -3   0    1.10    4.50
   7  -3   0    9.60   10.70
   7  -3   0  -26.10   13.90
   7  -3   0   12.00   11.70
   7  -3   0    5.90    6.90
   7  -3   0    0.10    5.40
  -7   3   0   17.70    8.60
  -7   3   0    6.40    6.30
  -7   3   0   -0.10   11.60
  -7   3   0    4.30   11.60
  -7   3   0   15.90   12.70
   6  -3   0   24.60    5.20
   6  -3   0   23.20    5.40
   6  -3   0   37.20    9.00
   6  -3   0   29.20    7.70
   6  -3   0   37.70   10.20
   6  -3   0   29.90    6.40
   6  -3   0   21.10   11.20
   6  -3   0   24.40    9.50
  -6   3   0   45.20   10.10
  -6   3   0   20.20   10.70
  -6   3   0   28.70    9.50
  -6   3   0   23.50    7.40
  -6   3   0   24.50    5.90
  -6   3   0   26.60    6.30
  -6   3   0   25.10    7.20
   5  -3   0    1.60    3.80
   5  -3   0    5.40    6.40
   5  -3   0    7.60    2.70
   5  -3   0   10.00    5.40
   5  -3   0   10.40    8.00
   5  -3   0    6.20    5.00
   5  -3   0   11.30    4.30
  -5   3   0   -6.40    4.90
  -5   3   0   12.70    4.10
  -5   3   0    9.90    5.90
  -5   3   0   -1.30    7.10
  -5   3   0    8.00    4.90
  -5   3   0    3.10    8.10
  -5   3   0    8.80    3.70
  -5   3   0    7.30    5.00
   4  -3   0   22.40    5.90
   4  -3   0   30.40    4.70
   4  -3   0   17.30    4.80
   4  -3   0   24.90    5.50
   4  -3   0   20.10    4.00
   4  -3   0   16.80    5.20
   4  -3   0   22.50    8.10
   4  -3   0   23.20    3.70
  -4   3   0   24.60    7.50
  -4   3   0   27.80    5.30
  -4   3   0   32.70    4.80
  -4   3   0   23.10    6.40
  -4   3   0   28.40    6.40
  -4   3   0   25.80    4.30
  -4   3   0   37.90    6.40
  -4   3   0   19.70    5.00
   3  -3   0   54.89    8.70
   3  -3   0   46.20    5.40
   3  -3   0   47.40    6.50
   3  -3   0   52.69    5.00
   3  -3   0   54.29    7.00
   3  -3   0   41.40    6.10
   3  -3   0   44.90    4.20
  -3   3   0   49.99    4.70
  -3   3   0   45.80    6.40
  -3   3   0   58.69    9.10
  -3   3   0   43.60    5.30
  -3   3   0   52.29    5.90
  -3   3   0   37.60    6.10
   2  -3   0   -0.50    2.10
   2  -3   0    0.40    2.30
   2  -3   0   -1.00    2.80
   2  -3   0    2.40    3.70
   2  -3   0    2.10    1.40
   2  -3   0    0.10    1.30
   2  -3   0    4.80    2.40
   2  -3   0    0.40    2.00
  -2   3   0    1.60    2.30
  -2   3   0   -6.30    4.00
  -2   3   0   -0.80    2.20
  -2   3   0    5.90    2.60
  -2   3   0    1.20    1.50
  -2   3   0   -1.40    1.80
   1  -3   0    4.80    2.60
   1  -3   0   -0.10    3.20
   1  -3   0    0.90    1.50
   1  -3   0    3.70    2.40
   1  -3   0    1.00    1.40
   1  -3   0    2.20    1.10
   1  -3   0    4.20    1.70
   1  -3   0    1.30    1.60
   1  -3   0    4.90    1.90
   1  -3   0    2.20    1.30
  -1   3   0    1.90    2.00
  -1   3   0    0.20    3.00
  -1   3   0    1.50    1.10
  -1   3   0    2.70    1.90
  -1   3   0    1.00    0.90
  -1   3   0    1.80    1.70
   0  -3   0  501.35   27.80
   0  -3   0  477.85   27.90
   0  -3   0  477.05   28.10
   0  -3   0  467.75   27.80
   0  -3   0  462.85   28.40
   0  -3   0  476.15   29.80
   0  -3   0  410.66   28.90
   0  -3   0  505.75   28.10
   0  -3   0  491.55   28.50
   0   3   0  461.45   28.30
   0   3   0  500.15   27.90
   0   3   0  458.55   28.80
   0   3   0  460.95   27.90
  -1  -3   0   -2.50    1.70
  -1  -3   0   -1.40    0.70
  -1  -3   0   -2.10    1.10
  -1  -3   0   -1.30    1.30
  -1  -3   0   -2.00    1.60
  -1  -3   0   -0.30    2.00
  -1  -3   0   -1.30    1.20
  -1  -3   0   -2.30    0.70
  -1  -3   0   -2.00    1.20
   1   3   0   -3.00    0.90
   1   3   0   -1.10    1.90
   1   3   0   -1.20    1.60
   1   3   0   -0.80    1.20
   1   3   0   -0.80    2.00
   1   3   0   -0.10    1.10
  -2  -3   0 2516.75  143.49
  -2  -3   0 2461.95  142.39
  -2  -3   0 2423.36  142.79
  -2  -3   0 2449.95  142.49
  -2  -3   0 2381.26  142.39
  -2  -3   0 2530.25  142.99
   2   3   0 2517.55  142.59
   2   3   0 2362.76  143.49
   2   3   0 2355.56  142.59
   2   3   0 2558.14  142.99
   2   3   0 2545.55  142.29
   2   3   0 2637.44  143.79
   2   3   0 2425.46  142.59
  -3  -3   0   29.60    4.70
  -3  -3   0   22.90    3.00
  -3  -3   0   35.10    4.90
  -3  -3   0   25.60    3.00
  -3  -3   0   25.40    5.00
  -3  -3   0   24.20    3.00
  -3  -3   0   27.00    4.20
   3   3   0   28.50    4.50
   3   3   0   30.40    4.20
   3   3   0   28.70    4.50
   3   3   0   25.50    4.70
   3   3   0   17.60    3.00
   3   3   0   22.00    2.90
   3   3   0   19.70    3.00
  -4  -3   0 1685.53   96.69
  -4  -3   0 1587.64   95.19
  -4  -3   0 1661.43   96.99
  -4  -3   0 1385.76   96.19
  -4  -3   0 1605.84   95.59
  -4  -3   0 1609.24   98.09
   4   3   0 1527.95   97.99
   4   3   0 1592.84   97.49
   4   3   0 1825.32   96.99
   4   3   0 1691.93   96.59
   4   3   0 1715.23   95.09
   4   3   0 1692.43   95.69
   4   3   0 1724.13   95.79
  -5  -3   0    0.60    2.10
  -5  -3   0    2.90    2.00
  -5  -3   0    1.50    3.50
  -5  -3   0    2.20    3.50
  -5  -3   0    2.30    2.50
  -5  -3   0    7.50    6.50
  -5  -3   0    1.60    3.80
   5   3   0    6.60    4.10
   5   3   0    2.80    2.60
   5   3   0    4.10    3.80
   5   3   0    2.80    2.50
   5   3   0    8.00    5.70
   5   3   0   -0.30    2.70
   5   3   0    1.00    4.50
  -6  -3   0 1250.77   76.69
  -6  -3   0 1200.48   78.69
  -6  -3   0 1242.28   73.89
  -6  -3   0 1270.77   74.29
  -6  -3   0 1130.99   75.49
  -6  -3   0 1248.08   77.09
   6   3   0 1310.87   77.19
   6   3   0 1228.08   78.19
   6   3   0 1349.16   75.29
   6   3   0 1251.27   76.69
   6   3   0 1264.57   76.49
   6   3   0 1272.87   75.19
   6   3   0 1355.16   74.59
  -7  -3   0    2.70    4.60
  -7  -3   0    0.50    3.10
  -7  -3   0    4.80    5.20
  -7  -3   0    8.10    6.70
  -7  -3   0   -8.20    5.40
  -7  -3   0   -9.70    9.60
  -7  -3   0   -1.60    3.50
   7   3   0    9.50    7.10
   7   3   0    3.50    8.90
   7   3   0    5.10    7.20
   7   3   0   -0.40    3.80
   7   3   0    0.60    4.30
   7   3   0    0.70    4.50
   7   3   0   18.50   10.40
  -8  -3   0  259.07   19.40
  -8  -3   0  317.27   30.40
  -8  -3   0  254.17   20.90
  -8  -3   0  280.67   25.80
  -8  -3   0  281.47   24.10
   8   3   0  303.17   21.10
   8   3   0  304.47   24.30
   8   3   0  300.27   21.70
   8   3   0  283.97   21.70
   8   3   0  318.57   26.60
   8   3   0  218.48   27.70
  -9  -3   0   11.40    7.80
  -9  -3   0    8.80   11.30
  -9  -3   0   -4.50    8.90
  -9  -3   0   21.20   12.60
   9   3   0   -0.20    6.70
   9   3   0   22.90   10.10
   9   3   0    6.90    7.40
 -10  -3   0  124.09   20.80
 -10  -3   0  119.69   21.30
 -10  -3   0  122.69   20.60
 -10  -3   0  125.39   27.40
  10   3   0  125.59   19.50
  10   3   0  140.39   19.60
  10   3   0  122.19   16.40
  10   3   0  123.69   16.20
   8  -4   0    0.60    7.30
   8  -4   0    3.80    8.50
   8  -4   0    5.50   12.30
   8  -4   0    3.70   10.20
  -8   4   0    1.00   11.60
  -8   4   0    2.30   12.10
  -8   4   0    8.30   18.10
  -8   4   0  -14.50   12.00
  -8   4   0  -22.20   18.00
   7  -4   0   30.80    9.50
   7  -4   0   21.00   11.60
   7  -4   0   21.90    6.40
   7  -4   0   19.80    6.80
   7  -4   0   42.50   12.90
   7  -4   0   29.80   12.50
  -7   4   0   20.70   15.80
  -7   4   0   31.80    9.00
  -7   4   0   16.90    9.60
  -7   4   0   21.90   11.50
  -7   4   0   28.40   11.10
   6  -4   0   -1.70    7.90
   6  -4   0    2.60    6.30
   6  -4   0    2.50    9.10
   6  -4   0   -1.30   10.00
   6  -4   0   -6.20    4.20
   6  -4   0   25.80   14.20
   6  -4   0    2.40    4.10
   6  -4   0    3.00    5.10
  -6   4   0    0.40    6.70
  -6   4   0    0.90    7.40
  -6   4   0   -4.00    8.00
  -6   4   0  -13.60    9.70
  -6   4   0  -12.30    5.60
   5  -4   0  142.09   15.00
   5  -4   0  161.78   12.70
   5  -4   0  158.48   11.50
   5  -4   0  173.18   15.90
   5  -4   0  144.19   12.50
   5  -4   0  142.59   19.50
   5  -4   0  146.19   15.50
   5  -4   0  179.98   15.60
   5  -4   0  135.09   14.70
  -5   4   0  142.29   13.50
  -5   4   0  162.88   15.20
  -5   4   0  144.49   14.90
  -5   4   0  140.29   19.80
  -5   4   0  136.69   11.90
  -5   4   0  140.59   13.10
  -5   4   0  155.88   15.00
   4  -4   0   11.20    8.20
   4  -4   0    5.90    4.70
   4  -4   0   -5.90    4.90
   4  -4   0    1.90    3.50
   4  -4   0   -2.50    4.10
   4  -4   0    0.90    2.10
   4  -4   0    4.40    2.90
   4  -4   0    2.40    4.70
   4  -4   0   -0.70    5.00
  -4   4   0    5.30    6.90
  -4   4   0    5.30    3.90
  -4   4   0    5.60    4.30
  -4   4   0    2.30    2.70
  -4   4   0    7.60    4.50
  -4   4   0   -1.10    5.10
   3  -4   0  219.38   15.90
   3  -4   0  220.98   15.20
   3  -4   0  215.88   14.60
   3  -4   0  234.38   19.90
   3  -4   0  217.68   16.20
   3  -4   0  245.98   15.90
   3  -4   0  201.68   15.90
   3  -4   0  227.58   14.10
  -3   4   0  202.98   14.80
  -3   4   0  220.78   16.00
  -3   4   0  200.68   19.00
  -3   4   0  221.18   14.20
  -3   4   0  229.28   16.50
  -3   4   0  203.38   15.90
  -3   4   0  226.18   14.50
   2  -4   0   51.19    6.90
   2  -4   0   41.40    4.80
   2  -4   0   41.20    8.30
   2  -4   0   50.79    4.60
   2  -4   0   41.30    5.60
   2  -4   0   60.29    6.00
   2  -4   0   48.60    4.50
   2  -4   0   45.70    4.30
   2  -4   0   46.30    5.80
  -2   4   0   49.60    7.20
  -2   4   0   45.20    5.70
  -2   4   0   43.70    4.40
  -2   4   0   44.60    4.60
  -2   4   0   38.70    5.40
  -2   4   0   59.19    9.50
  -2   4   0   49.50    4.10
   1  -4   0  303.57   18.40
   1  -4   0  319.37   20.00
   1  -4   0  321.07   19.50
   1  -4   0  295.97   18.60
   1  -4   0  307.17   19.70
   1  -4   0  325.97   19.50
   1  -4   0  312.27   18.70
   1  -4   0  297.87   19.20
   1  -4   0  308.27   20.40
   1  -4   0  311.97   20.50
  -1   4   0  338.57   21.20
  -1   4   0  279.37   19.40
  -1   4   0  313.47   22.30
  -1   4   0  328.67   19.50
  -1   4   0  315.07   20.20
   0  -4   0  100.69    9.80
   0  -4   0   96.29    7.00
   0  -4   0   92.39    6.90
   0  -4   0   99.99    7.50
   0  -4   0   92.29    8.70
   0  -4   0   99.49    6.40
   0  -4   0   91.59    6.60
   0  -4   0  103.19    6.70
   0  -4   0   97.39    7.40
   0  -4   0   89.69    8.40
   0   4   0   94.49    9.40
   0   4   0   96.49    6.50
   0   4   0  103.19    7.30
   0   4   0   99.19    6.80
   0   4   0   99.09    7.80
  -1  -4   0   12.30    2.40
  -1  -4   0   13.40    2.20
  -1  -4   0   18.70    4.20
  -1  -4   0    7.40    3.10
  -1  -4   0   13.60    2.70
  -1  -4   0   14.00    2.30
  -1  -4   0   17.40    2.30
  -1  -4   0   12.20    3.30
  -1  -4   0   15.30    2.00
   1   4   0   14.90    2.60
   1   4   0   14.20    3.80
   1   4   0   13.70    2.20
   1   4   0   11.90    2.70
   1   4   0   15.50    2.10
  -2  -4   0   84.99    6.70
  -2  -4   0   83.39    8.50
  -2  -4   0   86.59    6.80
  -2  -4   0   91.09    7.00
  -2  -4   0   79.79    6.50
  -2  -4   0   89.69    6.20
  -2  -4   0   85.59    6.90
  -2  -4   0   97.69    8.20
   2   4   0   85.49    5.60
   2   4   0   93.39    8.10
   2   4   0   92.19    6.80
   2   4   0   90.29    7.70
   2   4   0  102.99    8.70
   2   4   0   93.49    6.90
   2   4   0   81.99    6.00
   2   4   0   76.29    6.40
  -3  -4   0   -4.10    4.20
  -3  -4   0    2.70    1.90
  -3  -4   0    4.00    1.80
  -3  -4   0    0.40    2.20
  -3  -4   0    4.70    1.90
  -3  -4   0    5.60    3.20
  -3  -4   0    3.30    2.40
   3   4   0    5.40    2.10
   3   4   0    2.20    2.70
   3   4   0    7.00    2.50
   3   4   0    2.00    3.20
   3   4   0    6.30    2.40
   3   4   0    4.20    3.30
   3   4   0    5.30    2.50
  -4  -4   0  101.39   10.50
  -4  -4   0  107.89   12.10
  -4  -4   0   94.79    7.50
  -4  -4   0   85.69    8.70
  -4  -4   0   99.09    7.50
  -4  -4   0   85.99    7.50
  -4  -4   0   87.69    9.30
   4   4   0   91.99   10.40
   4   4   0   91.59    7.30
   4   4   0   94.09    8.70
   4   4   0  101.49    9.10
   4   4   0   95.99    7.70
   4   4   0   90.99    8.30
   4   4   0  110.79   10.00
  -5  -4   0  263.87   17.70
  -5  -4   0  292.97   22.80
  -5  -4   0  274.77   17.30
  -5  -4   0  265.57   19.00
  -5  -4   0  226.68   19.00
  -5  -4   0  285.97   17.40
  -5  -4   0  272.97   19.50
  -5  -4   0  228.98   20.00
   5   4   0  252.87   17.80
   5   4   0  272.67   17.10
   5   4   0  267.87   19.00
   5   4   0  278.87   19.60
   5   4   0  285.47   19.70
   5   4   0  260.47   21.10
   5   4   0  229.08   17.70
  -6  -4   0   18.00    6.20
  -6  -4   0   40.70    8.10
  -6  -4   0   20.60    6.80
  -6  -4   0   32.60    5.40
  -6  -4   0   27.40    5.30
  -6  -4   0   25.60    9.10
  -6  -4   0   29.80    4.60
   6   4   0   40.20    7.00
   6   4   0   34.40    7.80
   6   4   0   27.50    7.70
   6   4   0   35.70    8.80
   6   4   0   28.00    5.10
   6   4   0   25.10    4.70
   6   4   0   31.10    6.00
  -7  -4   0  166.68   13.40
  -7  -4   0  171.58   16.70
  -7  -4   0  132.29   18.60
  -7  -4   0  192.08   12.90
  -7  -4   0  183.28   22.30
  -7  -4   0  163.28   16.20
  -7  -4   0  188.28   18.50
   7   4   0  185.08   18.40
   7   4   0  201.58   17.20
   7   4   0  172.98   14.90
   7   4   0  197.68   13.90
   7   4   0  165.68   21.10
   7   4   0  162.18   17.40
   7   4   0  184.78   15.10
  -8  -4   0   55.19   15.40
  -8  -4   0   65.59   10.70
  -8  -4   0   49.90    6.80
  -8  -4   0   79.79   13.10
  -8  -4   0   74.19   13.30
   8   4   0   62.39   10.00
   8   4   0   76.39   12.20
   8   4   0   88.19   14.50
   8   4   0   73.89   10.00
   8   4   0   65.69    9.70
   8   4   0   44.30   12.00
  -9  -4   0  128.49   23.90
  -9  -4   0  123.29   19.30
  -9  -4   0  100.69   14.40
  -9  -4   0  121.19   16.70
  -9  -4   0   86.29   12.00
  -9  -4   0   84.99   15.80
   9   4   0   96.19   14.30
   9   4   0  132.99   15.70
   9   4   0  121.39   14.00
   9   4   0  135.89   19.10
 -10  -4   0  -11.00   21.30
 -10  -4   0   17.50    9.60
 -10  -4   0    8.70   14.20
 -10  -4   0   10.00   18.10
  10   4   0   23.00    9.30
  10   4   0   26.60   13.50
  10   4   0   22.20   10.70
  10   4   0   15.20   11.20
   8  -5   0   10.70   10.50
   8  -5   0   18.20   10.80
   8  -5   0    1.00    7.40
   8  -5   0   15.30   13.80
  -8   5   0   29.50   13.90
  -8   5   0   18.20   21.20
  -8   5   0   19.80   13.00
   7  -5   0   23.30   12.70
   7  -5   0   18.30    8.50
   7  -5   0   24.00   11.20
   7  -5   0   10.40    6.40
   7  -5   0   12.70    9.40
  -7   5   0   20.70   11.00
  -7   5   0   22.60    9.30
  -7   5   0   17.70   12.30
  -7   5   0   13.40   17.10
  -7   5   0   -6.90    9.90
   6  -5   0   34.60    9.70
   6  -5   0   27.50    5.80
   6  -5   0   34.40   11.10
   6  -5   0   33.50    9.80
   6  -5   0   48.80   14.40
  -6   5   0   33.70    7.40
  -6   5   0   37.10    9.10
  -6   5   0   38.70   15.90
  -6   5   0   35.60   10.30
  -6   5   0   50.29   10.60
   5  -5   0    7.90    7.50
   5  -5   0   10.60    6.80
   5  -5   0   14.80    4.20
   5  -5   0    7.90    4.60
   5  -5   0   16.70    7.20
   5  -5   0   18.00    8.50
   5  -5   0   16.10    5.30
  -5   5   0   19.10    6.70
  -5   5   0    8.60    4.80
  -5   5   0   10.90   10.60
  -5   5   0   14.60    7.30
  -5   5   0   14.90    8.80
   4  -5   0  165.58   11.30
   4  -5   0  172.48   15.00
   4  -5   0  149.39   14.00
   4  -5   0  148.89   19.60
   4  -5   0  146.79   12.80
   4  -5   0  156.98   12.50
   4  -5   0  155.78   14.50
   4  -5   0  163.28   15.70
  -4   5   0  157.38   14.10
  -4   5   0  139.59   11.80
  -4   5   0  174.08   15.40
  -4   5   0  154.78   11.30
  -4   5   0  139.49   18.60
  -4   5   0  147.39   12.60
   3  -5   0  274.87   19.50
   3  -5   0  323.07   20.50
   3  -5   0  270.17   23.60
   3  -5   0  274.77   17.10
   3  -5   0  287.67   18.20
   3  -5   0  269.17   17.70
   3  -5   0  280.67   19.80
   3  -5   0  295.07   19.50
  -3   5   0  282.57   19.20
  -3   5   0  275.27   16.80
  -3   5   0  255.67   23.00
  -3   5   0  292.87   20.80
  -3   5   0  238.28   17.50
  -3   5   0  252.77   17.60
  -3   5   0  233.68   19.20
   2  -5   0  388.26   23.90
   2  -5   0  385.16   25.60
   2  -5   0  406.66   29.10
   2  -5   0  408.86   25.30
   2  -5   0  395.86   24.90
   2  -5   0  395.86   23.80
   2  -5   0  412.36   23.50
   2  -5   0  384.96   24.90
  -2   5   0  361.56   28.20
  -2   5   0  383.46   24.70
  -2   5   0  348.17   23.70
  -2   5   0  359.26   25.20
  -2   5   0  399.86   26.60
   1  -5   0  150.28   10.80
   1  -5   0  167.68   11.10
   1  -5   0  147.39    9.70
   1  -5   0  160.18   12.30
   1  -5   0  140.09   15.00
   1  -5   0  151.98   11.50
   1  -5   0  152.28   12.50
   1  -5   0  145.49    9.90
   1  -5   0  159.48   11.70
  -1   5   0  160.18   12.00
  -1   5   0  162.38   10.60
  -1   5   0  157.18   10.90
  -1   5   0  124.49   14.00
   0  -5   0  633.64   38.00
   0  -5   0  584.34   37.50
   0  -5   0  596.04   39.20
   0  -5   0  608.94   36.90
   0  -5   0  594.84   36.20
   0  -5   0  622.04   35.60
   0  -5   0  591.94   38.20
   0  -5   0  591.54   35.90
   0  -5   0  640.94   36.10
   0  -5   0  620.74   36.90
   0   5   0  605.44   37.40
   0   5   0  592.14   39.10
   0   5   0  609.84   35.70
   0   5   0  589.44   36.60
   0   5   0  622.84   36.00
  -1  -5   0  490.95   32.00
  -1  -5   0  495.55   30.80
  -1  -5   0  535.95   30.00
  -1  -5   0  494.45   30.00
  -1  -5   0  480.65   30.10
  -1  -5   0  522.35   30.90
  -1  -5   0  494.55   31.10
  -1  -5   0  506.35   32.50
  -1  -5   0  519.65   29.70
   1   5   0  493.95   30.30
   1   5   0  508.95   30.60
   1   5   0  481.35   32.40
   1   5   0  495.45   29.70
  -2  -5   0  520.25   33.60
  -2  -5   0  542.65   34.60
  -2  -5   0  568.84   33.00
  -2  -5   0  540.85   33.10
  -2  -5   0  543.15   33.40
  -2  -5   0  543.65   34.50
  -2  -5   0  540.25   32.50
   2   5   0  586.74   35.50
   2   5   0  538.55   32.90
   2   5   0  576.44   32.90
   2   5   0  536.95   34.20
   2   5   0  533.65   34.00
   2   5   0  537.95   33.20
  -3  -5   0  267.37   17.70
  -3  -5   0  257.87   17.20
  -3  -5   0  262.97   20.00
  -3  -5   0  265.07   18.60
  -3  -5   0  287.97   17.00
  -3  -5   0  277.77   17.00
  -3  -5   0  259.07   16.60
   3   5   0  234.18   16.40
   3   5   0  248.38   17.00
   3   5   0  266.07   17.50
   3   5   0  281.57   19.30
   3   5   0  241.68   18.80
   3   5   0  245.78   15.80
   3   5   0  274.47   17.50
  -4  -5   0   65.99    8.30
  -4  -5   0   58.39    6.90
  -4  -5   0   66.19    8.60
  -4  -5   0   65.69    6.30
  -4  -5   0   65.09   10.60
  -4  -5   0   67.79    6.10
   4   5   0   56.99    5.50
   4   5   0   64.49    6.70
   4   5   0   55.99    8.40
   4   5   0   61.19    7.80
   4   5   0   68.89    5.90
   4   5   0   58.69    6.50
   4   5   0   71.99    9.70
  -5  -5   0  114.99   10.80
  -5  -5   0  134.49   10.90
  -5  -5   0  147.29   12.40
  -5  -5   0  134.59   10.60
  -5  -5   0  147.79   15.10
  -5  -5   0  144.79   13.30
  -5  -5   0  145.69   16.50
   5   5   0  129.79   13.30
   5   5   0  140.39   15.10
   5   5   0  141.09   11.10
   5   5   0  139.69   11.30
   5   5   0  147.49   13.20
   5   5   0  146.79   10.70
   5   5   0  153.48   11.90
   5   5   0  164.18   14.00
  -6  -5   0   60.39    9.10
  -6  -5   0   74.19   10.10
  -6  -5   0   53.89    7.30
  -6  -5   0   56.29   10.40
  -6  -5   0   49.70    9.30
  -6  -5   0   49.80    6.30
  -6  -5   0   71.79   13.00
   6   5   0   62.69    9.80
   6   5   0   41.10    6.90
   6   5   0   64.19    9.20
   6   5   0   54.09    6.70
   6   5   0   57.19   10.80
   6   5   0   46.00    6.80
   6   5   0   75.39   10.50
  -7  -5   0    9.70    6.50
  -7  -5   0    7.10    3.60
  -7  -5   0    5.00    4.20
  -7  -5   0   12.90    8.10
  -7  -5   0   12.00    7.00
  -7  -5   0   14.60   11.20
  -7  -5   0   10.50    4.60
   7   5   0   -1.30    7.60
   7   5   0    0.90    9.40
   7   5   0   14.00    8.10
   7   5   0   -0.70    3.70
   7   5   0    7.70    5.00
   7   5   0    9.40    5.80
   7   5   0    9.80    7.10
  -8  -5   0   50.59   16.00
  -8  -5   0   14.40    9.80
  -8  -5   0   35.60    7.70
  -8  -5   0   25.30    9.90
  -8  -5   0   31.70    5.40
   8   5   0   30.60   10.50
   8   5   0   40.70    8.30
   8   5   0   23.40    7.60
   8   5   0   21.10    8.80
   8   5   0   32.70    6.30
  -9  -5   0   32.70   16.90
  -9  -5   0    0.50    8.20
  -9  -5   0   -5.50    9.20
  -9  -5   0   -2.30   10.40
  -9  -5   0    7.30    5.30
   9   5   0    9.20    7.70
   9   5   0   -3.80    8.70
   9   5   0   11.30    6.60
   9   5   0   -8.50    8.90
 -10  -5   0   -3.60   13.90
 -10  -5   0    1.20   18.00
 -10  -5   0  -39.80   20.20
 -10  -5   0   12.40   14.40
  10   5   0   -2.70   11.20
  10   5   0    5.70   10.10
  10   5   0   -7.40    8.30
   7  -6   0   10.70    7.40
   7  -6   0   -0.90    7.90
   7  -6   0   -2.20   12.80
   7  -6   0    4.70   10.50
  -7   6   0   -2.10   19.60
  -7   6   0   -3.80   10.30
  -7   6   0   -4.90   11.30
   6  -6   0   27.00    9.10
   6  -6   0   16.30    8.10
   6  -6   0   21.80    6.10
   6  -6   0   22.70   11.50
   6  -6   0   16.40    9.40
   6  -6   0   18.80    8.00
  -6   6   0   30.30   11.40
  -6   6   0   14.00    8.00
  -6   6   0   21.40    6.30
  -6   6   0   32.40   10.60
  -6   6   0   17.50   16.50
   5  -6   0   -1.90    4.00
   5  -6   0    0.80   10.30
   5  -6   0    1.60    6.30
   5  -6   0   -0.40    6.30
   5  -6   0    0.30    5.90
   5  -6   0    5.20    8.50
   5  -6   0   -0.60    8.20
  -5   6   0    5.10    8.40
  -5   6   0   11.30   13.40
  -5   6   0    0.00    7.10
   4  -6   0  209.88   14.60
   4  -6   0  198.28   19.20
   4  -6   0  210.28   16.90
   4  -6   0  233.68   18.50
   4  -6   0  214.18   18.40
   4  -6   0  218.88   16.30
   4  -6   0  198.68   14.60
  -4   6   0  198.88   18.30
  -4   6   0  235.38   18.20
  -4   6   0  201.58   20.20
  -4   6   0  205.58   24.10
   3  -6   0    8.30    4.30
   3  -6   0   14.50    6.80
   3  -6   0   19.00    4.30
   3  -6   0   28.20    7.20
   3  -6   0   17.20   10.30
   3  -6   0   16.00    6.70
   3  -6   0    8.00    5.50
  -3   6   0   11.60    6.70
  -3   6   0   13.00    4.30
  -3   6   0    7.90    5.00
  -3   6   0   18.40    5.70
  -3   6   0    6.40    8.30
   2  -6   0  447.16   27.60
   2  -6   0  410.56   26.90
   2  -6   0  430.06   25.40
   2  -6   0  347.37   31.00
   2  -6   0  441.36   28.20
   2  -6   0  367.46   26.70
   2  -6   0  415.16   25.70
   2  -6   0  430.26   26.20
  -2   6   0  432.96   26.30
  -2   6   0  412.26   28.00
  -2   6   0  430.56   26.70
  -2   6   0  406.66   31.00
   1  -6   0    8.10    4.20
   1  -6   0    4.30    5.30
   1  -6   0    0.60    3.70
   1  -6   0    8.20    3.60
   1  -6   0    1.60    3.90
   1  -6   0   12.70    7.20
   1  -6   0    3.80    2.10
   1  -6   0    4.70    3.30
   1  -6   0    2.90    5.10
   1  -6   0    6.60    3.30
  -1   6   0    0.40    6.00
  -1   6   0    4.60    3.70
  -1   6   0    4.50    2.50
  -1   6   0    5.80    3.20
   0  -6   0 1192.88   82.29
   0  -6   0 1400.66   81.69
   0  -6   0 1535.55   82.99
   0  -6   0 1363.46   81.89
   0  -6   0 1534.65   84.09
   0  -6   0 1300.37   83.39
   0  -6   0 1354.86   80.99
   0  -6   0 1404.96   85.49
   0  -6   0 1382.76   81.49
   0  -6   0 1443.16   84.49
   0  -6   0 1428.96   82.69
   0   6   0 1373.96   85.29
   0   6   0 1448.85   82.49
   0   6   0 1438.36   83.59
   0   6   0 1389.36   81.09
   0   6   0 1448.76   81.49
  -1  -6   0  101.29   10.50
  -1  -6   0  100.89    8.30
  -1  -6   0  104.59    8.10
  -1  -6   0   85.29   12.10
  -1  -6   0  110.89    9.40
  -1  -6   0  107.59    7.80
  -1  -6   0  106.49    7.60
  -1  -6   0  110.59    9.20
  -1  -6   0   98.19   11.10
   1   6   0  104.69   11.90
   1   6   0  106.49    7.70
   1   6   0  110.19    8.60
   1   6   0  108.89    7.70
  -2  -6   0 1590.64   95.59
  -2  -6   0 1653.73   96.29
  -2  -6   0 1664.13   98.09
  -2  -6   0 1624.64   96.89
  -2  -6   0 1537.05   96.09
  -2  -6   0 1672.73   96.89
  -2  -6   0 1648.94   97.79
   2   6   0 1621.44   96.49
   2   6   0 1697.23   96.99
   2   6   0 1736.83   96.09
   2   6   0 1715.53   95.59
   2   6   0 1639.54   98.19
  -3  -6   0   11.90    2.80
  -3  -6   0   14.20    5.10
  -3  -6   0    7.40    3.70
  -3  -6   0   16.30    4.10
  -3  -6   0    5.20    3.00
  -3  -6   0   27.20    7.50
  -3  -6   0   11.90    3.70
   3   6   0   14.10    3.80
   3   6   0   17.70    5.60
   3   6   0    8.00    3.10
   3   6   0   21.60    4.30
   3   6   0   12.30    5.60
   3   6   0   22.60    4.90
  -4  -6   0  619.54   38.30
  -4  -6   0  625.04   38.30
  -4  -6   0  668.93   38.70
  -4  -6   0  634.44   39.80
  -4  -6   0  647.94   42.60
  -4  -6   0  628.44   39.20
  -4  -6   0  648.34   40.80
   4   6   0  632.54   37.30
   4   6   0  599.04   38.40
   4   6   0  626.74   38.90
   4   6   0  652.13   39.60
   4   6   0  664.23   41.60
   4   6   0  594.04   37.90
   4   6   0  637.14   41.10
  -5  -6   0    1.20    3.90
  -5  -6   0   -2.50    3.10
  -5  -6   0   -1.10    4.60
  -5  -6   0    1.00    3.00
  -5  -6   0    0.70    7.60
  -5  -6   0    3.50    2.90
  -5  -6   0   -1.10    5.80
   5   6   0   -8.70    6.60
   5   6   0    0.10    5.30
   5   6   0   -0.10    2.60
   5   6   0   -8.10    4.90
   5   6   0    6.40    4.20
   5   6   0    0.00    3.50
   5   6   0    4.80    4.50
  -6  -6   0  279.07   20.00
  -6  -6   0  289.47   26.20
  -6  -6   0  316.57   23.00
  -6  -6   0  259.87   25.10
  -6  -6   0  320.27   23.50
  -6  -6   0  250.47   19.90
  -6  -6   0  299.67   21.70
  -6  -6   0  276.97   19.50
   6   6   0  303.17   20.50
   6   6   0  279.47   25.20
   6   6   0  317.87   20.60
   6   6   0  300.77   23.20
   6   6   0  286.47   21.10
   6   6   0  282.57   20.40
   6   6   0  274.37   22.80
  -7  -6   0  108.89   15.40
  -7  -6   0  117.19   11.10
  -7  -6   0  114.49   13.90
  -7  -6   0  119.49   11.90
  -7  -6   0  104.69   18.60
  -7  -6   0  112.99   10.10
   7   6   0  117.79   15.60
   7   6   0   70.59   15.50
   7   6   0  136.19   12.10
   7   6   0  105.39   13.00
   7   6   0   92.89   15.00
   7   6   0  111.99   10.80
   7   6   0  129.39   14.60
   7   6   0  125.29   12.10
  -8  -6   0   56.99    6.90
  -8  -6   0   43.40   11.80
  -8  -6   0   30.50   17.30
  -8  -6   0   59.79   11.80
   8   6   0   68.39   10.90
   8   6   0   40.50   11.40
   8   6   0   60.59    8.00
   8   6   0   76.69   13.10
   8   6   0   55.09   10.80
  -9  -6   0    3.40    9.40
  -9  -6   0   -1.20   11.20
  -9  -6   0    7.60   18.70
  -9  -6   0    9.60    5.50
  -9  -6   0   14.00   12.00
   9   6   0   -3.40   11.30
   9   6   0    0.60    8.50
   9   6   0   -3.30    8.90
   9   6   0    5.00    6.70
 -10  -6   0   24.00   22.60
 -10  -6   0   20.30   15.20
 -10  -6   0   -3.60   15.10
  10   6   0   15.60    8.50
  10   6   0   29.60   14.80
  10   6   0    5.20   12.40
  10   6   0   11.90   10.80
   6  -7   0   11.10    9.40
   6  -7   0   15.50    8.10
   6  -7   0    8.40   12.70
  -6   7   0   31.70   12.10
  -6   7   0   18.60   21.10
   5  -7   0   11.20    7.50
   5  -7   0    7.80   10.30
   5  -7   0   26.10    8.00
   5  -7   0   13.00    9.80
   5  -7   0   22.30    5.60
  -5   7   0   12.90   15.60
  -5   7   0    6.50   10.00
  -5   7   0    8.10   10.20
   4  -7   0   11.30    9.50
   4  -7   0    1.60    7.90
   4  -7   0   12.70    6.00
   4  -7   0    3.40    5.80
   4  -7   0    0.20    3.60
   4  -7   0   -3.00    8.10
  -4   7   0    9.80    8.00
  -4   7   0   -0.40   12.50
  -4   7   0    2.60    7.70
   3  -7   0  132.69   11.90
   3  -7   0  147.29   15.70
   3  -7   0  123.99   14.90
   3  -7   0  153.08   14.40
   3  -7   0  154.58   12.10
  -3   7   0  149.79   14.70
  -3   7   0  134.49   13.50
  -3   7   0  127.69   15.30
  -3   7   0  116.29   18.20
   2  -7   0   13.40    6.70
   2  -7   0   26.80    6.20
   2  -7   0   27.00    6.60
   2  -7   0   31.70   11.80
   2  -7   0   21.10    5.20
   2  -7   0   20.20    6.30
   2  -7   0   20.80    3.90
   2  -7   0   20.00    4.20
  -2   7   0   12.30    4.60
  -2   7   0   27.90    7.90
  -2   7   0   22.00    5.30
  -2   7   0   37.10   12.30
   1  -7   0  731.53   43.50
   1  -7   0  657.43   46.60
   1  -7   0  695.13   40.20
   1  -7   0  684.73   42.30
   1  -7   0  667.33   43.40
   1  -7   0  608.14   44.30
   1  -7   0  699.93   41.10
   1  -7   0  661.23   42.20
  -1   7   0  660.63   40.00
  -1   7   0  653.63   40.50
  -1   7   0  723.03   43.60
  -1   7   0  659.43   46.00
   0  -7   0   60.19    9.40
   0  -7   0   68.39    6.70
   0  -7   0   55.29    7.20
   0  -7   0   62.69    8.80
   0  -7   0   61.69    9.80
   0  -7   0   64.59    7.40
   0  -7   0   49.50   10.90
   0  -7   0   69.79    5.30
   0  -7   0   76.59   10.00
   0  -7   0   59.29    6.90
   0  -7   0   69.09    8.90
   0   7   0   64.89    9.10
   0   7   0   57.19   11.00
   0   7   0   64.79    7.60
  -1  -7   0  948.91   54.99
  -1  -7   0  925.21   56.59
  -1  -7   0  987.10   55.49
  -1  -7   0  906.91   58.09
  -1  -7   0  904.91   56.19
  -1  -7   0  941.91   54.69
  -1  -7   0  921.21   59.29
  -1  -7   0  941.21   56.29
  -1  -7   0 1018.90   58.29
  -1  -7   0  808.82   57.29
  -1  -7   0  960.20   54.89
   1   7   0  961.00   54.69
   1   7   0  907.31   55.99
   1   7   0  945.51   54.69
   1   7   0  913.41   58.99
  -2  -7   0  356.36   25.60
  -2  -7   0  377.86   26.00
  -2  -7   0  360.46   24.60
  -2  -7   0  380.36   23.60
  -2  -7   0  372.06   24.50
  -2  -7   0  352.46   22.60
  -2  -7   0  383.46   23.50
   2   7   0  381.16   23.10
   2   7   0  351.26   22.50
   2   7   0  371.86   24.00
   2   7   0  371.76   23.90
   2   7   0  366.76   26.40
  -3  -7   0 1420.96   82.29
  -3  -7   0 1358.96   82.89
  -3  -7   0 1377.36   82.49
  -3  -7   0 1345.67   83.09
  -3  -7   0 1347.87   81.49
  -3  -7   0 1360.36   82.99
  -3  -7   0 1429.26   84.89
  -3  -7   0 1391.16   82.59
  -3  -7   0 1392.56   84.29
   3   7   0 1432.36   83.59
   3   7   0 1450.05   81.49
   3   7   0 1408.06   83.99
   3   7   0 1363.06   82.29
   3   7   0 1445.16   82.09
  -4  -7   0 1199.58   73.59
  -4  -7   0 1275.87   72.89
  -4  -7   0 1216.78   74.89
  -4  -7   0 1178.28   72.29
  -4  -7   0 1193.98   76.19
  -4  -7   0 1254.17   73.29
  -4  -7   0 1220.78   72.39
   4   7   0 1237.48   72.89
   4   7   0 1202.58   73.19
   4   7   0 1208.28   73.19
   4   7   0 1250.27   75.19
   4   7   0 1334.17   76.49
   4   7   0 1176.28   72.89
  -5  -7   0  848.52   52.79
  -5  -7   0  870.31   52.99
  -5  -7   0  871.61   54.79
  -5  -7   0  908.61   58.19
  -5  -7   0  853.01   52.59
  -5  -7   0  888.31   54.19
  -5  -7   0  917.61   56.19
   5   7   0  891.81   54.39
   5   7   0  889.41   53.59
   5   7   0  888.81   51.49
   5   7   0  833.92   52.29
   5   7   0  917.81   56.89
   5   7   0  846.02   56.19
  -6  -7   0  335.17   29.50
  -6  -7   0  315.17   23.50
  -6  -7   0  343.17   25.00
  -6  -7   0  354.76   23.50
  -6  -7   0  331.57   26.10
  -6  -7   0  352.96   30.80
  -6  -7   0  335.27   23.00
   6   7   0  353.86   24.00
   6   7   0  365.26   22.30
   6   7   0  330.57   23.80
   6   7   0  393.76   27.90
   6   7   0  337.57   29.00
   6   7   0  357.46   26.20
  -7  -7   0  431.76   31.10
  -7  -7   0  460.15   46.00
  -7  -7   0  468.85   38.50
  -7  -7   0  408.16   28.80
  -7  -7   0  440.76   32.60
  -7  -7   0  413.46   28.60
  -7  -7   0  410.06   28.10
   7   7   0  433.16   29.60
   7   7   0  433.36   30.10
   7   7   0  463.25   28.50
   7   7   0  403.46   29.30
   7   7   0  460.35   33.50
  -8  -7   0  152.68   15.60
  -8  -7   0  181.18   21.20
  -8  -7   0  141.59   12.90
  -8  -7   0  165.28   25.20
   8   7   0  180.68   17.10
   8   7   0  171.48   19.40
   8   7   0  145.69   21.20
   8   7   0  177.18   16.80
   8   7   0  154.08   16.80
  -9  -7   0   20.60   19.50
  -9  -7   0   11.80   12.30
  -9  -7   0    5.20    5.60
  -9  -7   0   15.40   13.00
  -9  -7   0   29.70   10.90
   9   7   0   25.40   10.30
   9   7   0   21.00    9.60
   9   7   0    9.30    9.40
   9   7   0    9.70   12.90
   9   7   0    7.50    6.80
 -10  -7   0   36.60   24.10
 -10  -7   0   37.70   14.80
 -10  -7   0   37.80   17.80
  10   7   0   17.50   12.90
  10   7   0   34.40   16.70
  10   7   0   35.00   12.40
  10   7   0   10.60   15.90
  10   7   0   28.30   10.00
   5  -8   0    6.30   11.80
   5  -8   0   -0.50    8.30
   5  -8   0    4.30    8.10
   5  -8   0    6.70    6.20
  -5   8   0   -9.40   12.30
  -5   8   0    3.10   18.90
   4  -8   0    2.40    4.60
   4  -8   0   15.20   12.30
   4  -8   0   17.70    8.50
   4  -8   0    6.20    9.30
   4  -8   0   10.10    6.90
   4  -8   0    5.40    9.50
  -4   8   0   15.20   10.20
  -4   8   0    1.10   17.30
   3  -8   0   28.90    6.80
   3  -8   0   16.60    8.50
   3  -8   0   28.60    9.60
   3  -8   0   35.00    8.60
   3  -8   0   48.40   10.60
  -3   8   0   33.30   13.20
  -3   8   0   28.20   10.50
   2  -8   0   10.60    7.30
   2  -8   0    9.00    4.00
   2  -8   0   10.30    4.20
   2  -8   0   19.10    6.10
   2  -8   0    2.90    6.80
  -2   8   0   15.30    7.70
  -2   8   0   10.40    5.20
  -2   8   0   17.20   11.90
  -2   8   0    2.00    4.50
   1  -8   0  172.48   14.40
   1  -8   0  190.38   24.00
   1  -8   0  171.38   16.00
   1  -8   0  213.18   17.40
   1  -8   0  194.48   12.80
   1  -8   0  179.98   21.30
   1  -8   0  188.28   14.90
   1  -8   0  170.68   14.50
  -1   8   0  184.88   18.10
  -1   8   0  154.88   21.50
   0  -8   0   10.00    5.70
   0  -8   0    2.70    5.90
   0  -8   0    7.00    2.70
   0  -8   0   11.30    8.60
   0  -8   0   21.70   10.80
   0  -8   0    4.70    3.70
   0  -8   0    5.40    4.50
   0  -8   0    9.20    6.70
   0  -8   0    7.30    6.10
   0  -8   0    1.70    7.40
   0  -8   0    1.60    4.10
   0   8   0   11.10    4.70
   0   8   0    9.90    8.90
  -1  -8   0  250.37   17.70
  -1  -8   0  254.67   19.30
  -1  -8   0  265.57   21.20
  -1  -8   0  258.77   19.10
  -1  -8   0  236.28   21.90
  -1  -8   0  264.47   16.20
  -1  -8   0  246.08   17.80
  -1  -8   0  253.17   19.30
  -1  -8   0  234.18   20.70
  -1  -8   0  250.47   16.70
   1   8   0  273.97   23.40
   1   8   0  287.97   18.60
  -2  -8   0  261.57   17.70
  -2  -8   0  223.28   20.30
  -2  -8   0  245.88   20.70
  -2  -8   0  245.18   19.10
  -2  -8   0  242.38   20.40
  -2  -8   0  235.98   19.00
  -2  -8   0  252.97   17.40
   2   8   0  259.87   22.30
   2   8   0  252.07   16.40
   2   8   0  270.67   18.10
  -3  -8   0  452.25   33.90
  -3  -8   0  519.25   37.00
  -3  -8   0  548.85   35.20
  -3  -8   0  562.84   33.60
  -3  -8   0  569.44   35.80
  -3  -8   0  568.94   37.50
  -3  -8   0  576.64   35.00
  -3  -8   0  514.95   35.60
  -3  -8   0  478.35   37.10
  -3  -8   0  596.64   34.60
   3   8   0  565.24   34.80
   3   8   0  549.74   33.10
   3   8   0  547.65   34.00
   3   8   0  598.04   37.60
   3   8   0  595.34   35.70
  -4  -8   0  182.68   13.50
  -4  -8   0  178.98   20.20
  -4  -8   0  184.78   15.90
  -4  -8   0  188.18   15.20
  -4  -8   0  173.38   17.90
  -4  -8   0  179.08   14.80
  -4  -8   0  184.78   13.90
  -4  -8   0  170.28   16.90
   4   8   0  182.28   15.10
   4   8   0  192.58   17.60
   4   8   0  205.28   20.30
   4   8   0  194.88   17.90
   4   8   0  194.38   14.20
   4   8   0  166.88   14.50
  -5  -8   0   52.69    8.60
  -5  -8   0   48.00   12.60
  -5  -8   0   54.99    9.70
  -5  -8   0   53.79    7.50
  -5  -8   0   77.59   12.60
  -5  -8   0   63.69    7.90
  -5  -8   0   59.19    8.50
   5   8   0   58.29    8.30
   5   8   0   60.59    9.90
   5   8   0   72.99   12.90
   5   8   0   62.79    8.60
   5   8   0   59.49    8.50
   5   8   0   51.99   11.90
  -6  -8   0  227.68   17.00
  -6  -8   0  262.47   19.50
  -6  -8   0  249.28   26.70
  -6  -8   0  178.08   17.30
  -6  -8   0  265.77   21.50
   6   8   0  216.68   18.50
   6   8   0  217.18   16.90
   6   8   0  256.97   24.70
   6   8   0  265.87   18.80
   6   8   0  215.88   15.10
   6   8   0  242.48   23.50
  -7  -8   0  282.27   24.80
  -7  -8   0  370.56   36.70
  -7  -8   0  354.96   29.20
  -7  -8   0  371.86   33.80
  -7  -8   0  324.47   24.80
   7   8   0  364.16   25.50
   7   8   0  395.06   30.80
   7   8   0  365.66   23.20
   7   8   0  401.96   26.10
  -8  -8   0   63.89   10.50
  -8  -8   0   33.20    7.20
  -8  -8   0   52.29   13.90
  -8  -8   0   19.50   18.30
  -8  -8   0   58.19   11.90
   8   8   0   47.10    7.90
   8   8   0   34.90   21.10
   8   8   0   45.00   11.50
   8   8   0   53.69   10.20
  -9  -8   0  185.98   30.60
  -9  -8   0  115.89   18.30
  -9  -8   0  145.09   21.00
   9   8   0  141.79   18.60
   9   8   0  140.29   17.60
   9   8   0  124.69   21.90
   9   8   0  159.28   21.50
   9   8   0  175.28   17.40
 -10  -8   0   26.20   13.90
 -10  -8   0    9.10   24.50
 -10  -8   0    3.20   16.50
  10   8   0   40.90   13.00
  10   8   0   57.99   17.70
  10   8   0   61.19   14.70
   4  -9   0   11.90    5.80
   4  -9   0   11.80    8.60
   4  -9   0    1.90    7.70
   4  -9   0   -6.10   10.50
  -4   9   0    3.70   13.70
  -4   9   0    2.40   19.80
   3  -9   0    7.00   10.70
   3  -9   0    2.90    4.40
   3  -9   0    0.90    9.80
   3  -9   0    0.90    6.10
   3  -9   0   -7.50    9.80
   3  -9   0    4.30    7.60
  -3   9   0   14.30   12.20
  -3   9   0  -17.80   16.50
   2  -9   0   20.70    9.20
   2  -9   0   20.90    7.80
   2  -9   0   22.70    8.90
   2  -9   0   23.80    5.00
   2  -9   0   18.90    6.20
  -2   9   0   15.00   16.50
   1  -9   0    2.20    3.80
   1  -9   0   -5.40    6.80
   1  -9   0    4.10    6.20
   1  -9   0   -3.60    7.40
   1  -9   0    2.50    4.80
   1  -9   0   -6.60    7.00
  -1   9   0    0.30    8.40
  -1   9   0   10.20   14.60
   0  -9   0   87.39   11.40
   0  -9   0   92.39   14.40
   0  -9   0   89.39   12.90
   0  -9   0   67.29    7.50
   0  -9   0   65.39    9.40
   0  -9   0   69.59    9.70
   0   9   0   73.09   10.50
   0   9   0   46.20   15.40
  -1  -9   0    1.80    5.90
  -1  -9   0    7.10    4.50
  -1  -9   0   -0.90    2.50
  -1  -9   0   -1.10    8.00
  -1  -9   0   -5.50    6.60
  -1  -9   0   -3.70    6.80
   1   9   0   -2.40    5.70
   1   9   0  -14.70    9.80
  -2  -9   0  196.78   21.20
  -2  -9   0  250.07   18.10
  -2  -9   0  253.07   20.70
  -2  -9   0  203.88   16.50
  -2  -9   0  232.98   15.70
  -2  -9   0  266.27   21.50
  -2  -9   0  238.28   15.80
   2   9   0  240.48   23.30
   2   9   0  232.18   17.80
  -3  -9   0   15.20    6.70
  -3  -9   0    4.90    5.50
  -3  -9   0    3.20    4.70
  -3  -9   0   -0.20    8.30
  -3  -9   0    3.00    8.80
  -3  -9   0    0.40    4.90
  -3  -9   0   11.30    6.50
   3   9   0   -3.10    4.70
   3   9   0    6.30    8.80
   3   9   0    3.60    5.00
   3   9   0    8.60    4.30
  -4  -9   0  383.46   30.20
  -4  -9   0  487.45   30.30
  -4  -9   0  461.25   29.60
  -4  -9   0  484.95   31.70
  -4  -9   0  449.36   35.50
  -4  -9   0  471.25   31.60
   4   9   0  454.65   29.00
   4   9   0  503.15   31.20
   4   9   0  511.15   34.00
   4   9   0  471.25   31.80
   4   9   0  469.05   32.90
  -5  -9   0   -0.40   10.80
  -5  -9   0   11.70    7.00
  -5  -9   0    4.30    4.80
  -5  -9   0    9.90    4.80
  -5  -9   0    2.90    7.40
  -5  -9   0    0.80    6.60
   5   9   0   -3.40   10.00
   5   9   0    8.30    8.90
   5   9   0    0.60    6.00
   5   9   0    4.80   10.30
   5   9   0   13.50    6.60
  -6  -9   0  664.63   41.50
  -6  -9   0  541.25   41.50
  -6  -9   0  557.44   46.20
  -6  -9   0  682.03   45.10
  -6  -9   0  714.03   50.29
  -6  -9   0  642.54   41.10
   6   9   0  740.33   49.00
   6   9   0  722.53   43.00
   6   9   0  694.33   42.40
  -7  -9   0    3.20    5.90
  -7  -9   0   28.90   17.60
  -7  -9   0   -5.00    8.50
  -7  -9   0    5.50    7.90
  -7  -9   0   -2.40    9.70
   7   9   0   -6.00    4.10
   7   9   0   -8.50   11.00
   7   9   0    1.20    8.40
   7   9   0    1.40    8.00
  -8  -9   0  369.46   42.40
  -8  -9   0  358.16   29.30
  -8  -9   0  305.77   33.00
   8   9   0  355.66   27.40
   8   9   0  309.47   34.00
   8   9   0  328.57   22.60
  -9  -9   0    5.70   22.90
  -9  -9   0   -9.00   16.10
  -9  -9   0    4.80   11.60
   9   9   0    5.90   10.80
   9   9   0   12.70    7.90
   9   9   0   20.50   15.80
   3 -10   0    1.60    8.00
   3 -10   0   17.30   10.00
   3 -10   0   -4.40    6.00
  -3  10   0    8.50   16.10
  -3  10   0    3.00   22.50
   2 -10   0   -0.60    5.60
   2 -10   0    7.60   10.60
   2 -10   0    0.40   10.10
   2 -10   0    3.50    5.80
   2 -10   0   -2.50   11.20
  -2  10   0   15.60   12.90
  -2  10   0    1.40   19.30
   1 -10   0    8.90    8.20
   1 -10   0    2.70    9.70
   1 -10   0    3.30    8.80
   1 -10   0    2.10    4.70
   1 -10   0   -8.20    9.40
   1 -10   0   -6.50    6.00
  -1  10   0   21.30   18.30
   0 -10   0   16.70    7.30
   0 -10   0   35.90   11.20
   0 -10   0   36.80    6.80
   0 -10   0   28.00    8.00
   0 -10   0   36.80   12.90
   0  10   0   17.60   16.80
  -1 -10   0    4.10    3.50
  -1 -10   0   -0.70    4.20
  -1 -10   0   -6.40    9.90
  -1 -10   0    4.20    7.60
  -1 -10   0    7.10    7.20
  -1 -10   0   -5.20    5.90
  -1 -10   0  -18.20   10.10
   1  10   0   -7.20    6.70
   1  10   0   10.80   14.30
  -2 -10   0    9.90    6.10
  -2 -10   0   11.00    3.90
  -2 -10   0   23.60    8.10
  -2 -10   0   19.00    5.40
  -2 -10   0    8.70    9.30
  -2 -10   0   26.60   10.60
   2  10   0    5.80   12.70
  -3 -10   0   41.80   12.20
  -3 -10   0   39.70   10.10
  -3 -10   0   54.09    7.00
  -3 -10   0   34.30    8.00
  -3 -10   0   36.70    9.00
  -3 -10   0   62.19    8.20
   3  10   0   45.90   13.40
   3  10   0   72.19   17.50
  -4 -10   0   92.89   16.60
  -4 -10   0   98.49   13.10
  -4 -10   0   87.39   12.20
  -4 -10   0   97.39   10.80
  -4 -10   0   84.89   10.80
   4  10   0   71.49   14.90
   4  10   0   95.09   12.90
   4  10   0   89.59    9.80
  -5 -10   0   88.49   11.80
  -5 -10   0   81.39   17.80
  -5 -10   0   55.59   10.60
  -5 -10   0   88.39   10.20
  -5 -10   0   80.89   12.80
  -5 -10   0   70.69    9.30
   5  10   0   79.49   10.00
   5  10   0   73.39   10.40
   5  10   0   54.79   13.40
   5  10   0   72.49   13.00
  -6 -10   0   58.79   17.70
  -6 -10   0   36.40   11.00
  -6 -10   0   21.10    8.90
  -6 -10   0   22.30    6.90
  -6 -10   0   35.30   10.60
   6  10   0   26.20    9.10
   6  10   0   35.80    9.90
  -7 -10   0  118.29   15.40
  -7 -10   0  110.49   23.30
  -7 -10   0   80.69   17.10
   7  10   0  136.99   16.80
   7  10   0  154.08   23.90
  -8 -10   0   40.80   24.70
  -8 -10   0   91.09   18.90
  -8 -10   0   55.19   14.30
   8  10   0   51.59   17.70
   8  10   0   52.59   12.70
   1 -11   0    0.90    6.30
   1 -11   0    6.30    7.20
   1 -11   0  -16.40   13.60
   1 -11   0    3.40    8.60
  -1  11   0   42.10   22.50
   0 -11   0    6.30    5.60
   0 -11   0   14.20    9.10
   0 -11   0   22.10   12.30
   0  11   0   23.10   21.00
  -1 -11   0    5.70    5.50
  -1 -11   0    5.30    9.70
  -1 -11   0    3.80    8.70
  -1 -11   0   -1.50    4.70
  -1 -11   0   -8.20   10.80
   1  11   0   -6.10    9.20
   1  11   0   -8.60   20.90
  -2 -11   0   22.10    8.40
  -2 -11   0   -7.50    5.50
  -2 -11   0   12.20   12.60
  -2 -11   0   25.00   11.50
  -2 -11   0    8.00    4.00
  -2 -11   0   -0.70    9.40
   2  11   0  -11.60   16.50
   2  11   0    9.60    8.10
  -3 -11   0    8.20    9.40
  -3 -11   0    3.50   11.30
  -3 -11   0    4.70    4.80
  -3 -11   0   29.70   12.30
  -3 -11   0    3.20    6.30
  -3 -11   0    7.80    8.60
   3  11   0   -3.90    8.10
   3  11   0    8.50   16.20
  -4 -11   0    6.30    9.80
  -4 -11   0    6.30   14.30
  -4 -11   0    3.80    8.30
  -4 -11   0   11.10   12.00
  -4 -11   0   -3.90    6.70
  -4 -11   0   -3.70    7.90
   4  11   0   16.20   15.30
   4  11   0    5.30    7.60
  -5 -11   0  -12.60   14.90
  -5 -11   0   18.40    8.50
  -5 -11   0    5.80    9.30
  -5 -11   0   17.50   11.40
  -5 -11   0   15.20   11.80
  -5 -11   0  -10.50    6.30
   5  11   0   -9.40   14.50
   5  11   0   -6.10   14.00
   5  11   0    8.60    8.90
  -6 -11   0   -9.20    8.70
  -6 -11   0   -2.60   18.50
  -6 -11   0    2.50   12.00
   6  11   0   14.50    9.20
  -7 -11   0   -0.30   22.90
  -7 -11   0   20.20   11.30
   7  11   0    6.30    9.60
  -1 -12   0   14.90    7.40
  -1 -12   0   26.90   15.20
  -1 -12   0    7.00   11.70
  -1 -12   0    9.40    6.20
   1  12   0   38.50   28.00
  -2 -12   0   31.00   12.60
  -2 -12   0    9.20   13.50
  -2 -12   0   11.70    7.40
  -2 -12   0   10.00    5.00
   2  12   0   14.70   10.10
   2  12   0   10.20   22.90
  -3 -12   0   23.80    5.60
  -3 -12   0   37.70   16.10
  -3 -12   0   21.00   13.30
  -3 -12   0   15.80    7.90
  -3 -12   0   19.90   16.10
   3  12   0   10.00   10.30
   3  12   0   32.30   22.20
  -4 -12   0    2.60    6.50
  -4 -12   0   47.50   16.20
  -4 -12   0    1.60   13.60
  -4 -12   0   -7.10   16.60
  -4 -12   0   14.70    9.70
   4  12   0   21.00   21.50
   4  12   0   12.30   10.80
  -5 -12   0   -0.40   19.00
  -5 -12   0   22.00   10.20
  -5 -12   0   30.10   14.60
   5  12   0   25.90   10.90
   5  12   0   49.60   20.20
   4  12  -1   43.60   12.80
  -4 -12   1   51.79   16.00
  -4 -12   1   48.40    8.60
  -4 -12   1   63.79   15.50
  -4 -12   1   49.90    7.20
  -4 -12   1   56.99   20.80
   3  12  -1   32.40   11.80
   3  12  -1   16.20   33.10
  -3 -12   1   21.60   16.90
  -3 -12   1   12.10   13.90
  -3 -12   1   45.80   13.10
   2  12  -1   65.69   29.20
   2  12  -1   21.30   12.30
  -2 -12   1   19.40   14.40
   7  11  -1   24.10   19.50
   7  11  -1   38.50   11.80
  -7 -11   1   56.89   20.10
  -7 -11   1   61.39   13.70
  -7 -11   1   -3.70   22.50
   6  11  -1   99.99   14.70
  -6 -11   1   91.89   14.20
  -6 -11   1   69.29   25.30
  -6 -11   1  111.89   17.60
   5  11  -1   48.20   10.50
  -5 -11   1   58.19   19.20
  -5 -11   1   42.40    8.80
  -5 -11   1   44.10    9.80
  -5 -11   1   39.40   12.60
   4  11  -1  128.69   21.70
   4  11  -1  157.88   17.30
  -4 -11   1   95.49   15.90
  -4 -11   1  127.89   17.00
  -4 -11   1  196.98   21.10
  -4 -11   1  157.38   15.60
  -4 -11   1  144.29   21.00
  -4 -11   1  142.29   13.40
   3  11  -1    1.60    8.50
   3  11  -1    3.90   18.40
  -3 -11   1    4.30    4.00
  -3 -11   1    1.20    9.20
  -3 -11   1   -7.70   12.50
  -3 -11   1  -10.60   16.50
  -3 -11   1  -12.30   12.70
   2  11  -1   92.19   24.90
   2  11  -1   70.69   11.50
  -2 -11   1   86.69   12.00
  -2 -11   1   66.69   15.10
  -2 -11   1   76.19   14.70
   1  11  -1  -21.20   20.80
   1  11  -1   -3.00    9.10
  -1 -11   1   -3.70   10.00
  -1 -11   1    9.00   10.70
  -1 -11   1    0.40    7.90
   0  11  -1   13.60   21.40
   0 -11   1   10.60   10.80
   0 -11   1   24.20    8.00
  -1  11  -1   -5.80   21.90
   1 -11   1  -14.90   10.50
   1 -11   1  -13.60    8.70
   1 -11   1    4.70    6.10
   8  10  -1    2.80   17.70
   8  10  -1    2.20   10.10
  -8 -10   1   36.30   23.00
  -8 -10   1  -29.90   10.70
  -8 -10   1   -4.70   14.80
   7  10  -1   47.60   11.60
   7  10  -1   51.49   17.90
  -7 -10   1   47.30   15.20
  -7 -10   1   40.50   12.00
  -7 -10   1   40.20   19.80
   6  10  -1   30.20   16.90
   6  10  -1    4.30    8.10
   6  10  -1   22.70    8.80
  -6 -10   1   15.90    8.80
  -6 -10   1   21.70    8.90
  -6 -10   1   16.70   12.00
  -6 -10   1   27.40    7.10
  -6 -10   1   23.20   16.40
   5  10  -1  110.89   17.00
   5  10  -1  110.49   10.70
   5  10  -1  123.59   15.10
  -5 -10   1   99.09   11.40
  -5 -10   1  114.69   19.60
  -5 -10   1  111.99   11.70
  -5 -10   1  107.89   13.10
  -5 -10   1  135.59   15.40
  -5 -10   1  111.39   14.20
   4  10  -1   46.30   13.50
  -4 -10   1   32.70    6.10
  -4 -10   1   53.09   10.10
  -4 -10   1   39.10   14.20
  -4 -10   1   20.60    9.00
  -4 -10   1   30.30    6.30
   3  10  -1  159.38   20.40
  -3 -10   1  121.89   11.10
  -3 -10   1  123.89   17.00
  -3 -10   1  135.69   12.50
  -3 -10   1  107.59   14.10
  -3 -10   1  142.09   14.90
  -3 -10   1  132.69   12.00
   2  10  -1   38.30   14.90
   2  10  -1   38.40   10.50
  -2 -10   1   24.00   10.40
  -2 -10   1   24.00    3.80
  -2 -10   1   29.00    6.40
  -2 -10   1   25.10    7.70
  -2 -10   1    4.70   10.50
   1  10  -1  108.39   13.60
   1  10  -1  101.49   19.60
  -1 -10   1   78.69   13.00
  -1 -10   1  101.09   12.90
  -1 -10   1   97.29   12.60
  -1 -10   1   99.29   10.90
   0 -10   1   26.80   11.70
   0 -10   1   15.20    6.40
   0 -10   1    2.70    6.90
  -1  10  -1   38.80   19.50
   1 -10   1   53.89   11.70
   1 -10   1   44.80    6.80
   1 -10   1   28.80    9.40
   1 -10   1   46.80   12.00
  -2  10  -1    3.70   13.60
  -2  10  -1   19.10   23.20
   2 -10   1   16.10   11.00
   2 -10   1   -6.40    7.90
   2 -10   1    2.20    5.80
   2 -10   1   -3.30    9.30
  -3  10  -1   57.29   24.70
  -3  10  -1   20.10   16.40
   3 -10   1   14.90    6.40
   3 -10   1   23.80    7.90
   3 -10   1   27.20    9.80
   3 -10   1   34.00   13.30
   3 -10   1    0.40   10.80
   9   9  -1   -7.40   17.20
   9   9  -1    2.60    6.70
   9   9  -1   -9.50   11.30
  -9  -9   1    0.30   18.00
  -9  -9   1   -9.10   22.50
  -9  -9   1    0.60   13.10
   8   9  -1   16.20   16.10
   8   9  -1  -10.80    9.40
  -8  -9   1   15.90   10.70
  -8  -9   1    8.60   15.40
  -8  -9   1  -19.90   18.80
   7   9  -1   -4.50    8.30
   7   9  -1  -18.00    8.80
   7   9  -1   -5.20   12.80
  -7  -9   1  -28.60   16.90
  -7  -9   1    2.90   11.40
  -7  -9   1    8.40    9.00
  -7  -9   1   -0.60    6.60
  -7  -9   1   -0.80    6.00
   6   9  -1   29.50   13.70
   6   9  -1    5.80    7.60
   6   9  -1   12.90    6.80
  -6  -9   1    1.70    6.00
  -6  -9   1   13.10    5.40
  -6  -9   1   10.90   14.40
  -6  -9   1    1.30    5.30
  -6  -9   1   -9.60    8.70
  -6  -9   1   -0.30    7.60
   5   9  -1   25.10   12.90
   5   9  -1    1.00    9.80
   5   9  -1    5.60    6.40
   5   9  -1    1.20    5.60
  -5  -9   1    8.10    8.60
  -5  -9   1    5.20    4.40
  -5  -9   1    6.40   11.60
  -5  -9   1    7.20    5.00
  -5  -9   1   11.00    6.60
  -5  -9   1   -0.30    5.80
   4   9  -1   22.80    8.30
   4   9  -1   16.00    6.00
   4   9  -1    6.40    9.30
  -4  -9   1    1.30    6.90
  -4  -9   1    0.60    6.40
  -4  -9   1   -0.80    4.30
  -4  -9   1   -1.20   10.10
  -4  -9   1   -0.80    5.10
  -4  -9   1    2.80    4.00
   3   9  -1   89.49   15.00
   3   9  -1   81.79   10.60
  -3  -9   1   76.79    8.30
  -3  -9   1   90.89   13.30
  -3  -9   1   72.29    9.00
  -3  -9   1   76.89   10.60
  -3  -9   1   91.29   11.90
  -3  -9   1   92.29    9.30
   2   9  -1   21.60    6.80
   2   9  -1   29.20   11.60
  -2  -9   1   29.00    4.80
  -2  -9   1   42.40   12.70
  -2  -9   1   26.60    3.80
  -2  -9   1   25.60    9.00
  -2  -9   1   23.80    9.70
  -2  -9   1   43.60    9.40
  -2  -9   1   33.80    6.80
  -2  -9   1   20.00    5.80
   1   9  -1   91.09   11.60
   1   9  -1   76.99   15.10
  -1  -9   1   75.49   11.20
  -1  -9   1   75.89   10.30
  -1  -9   1   78.79    9.60
  -1  -9   1  111.39   16.30
  -1  -9   1   96.89   13.70
  -1  -9   1   67.59   16.60
  -1  -9   1   85.99    6.80
  -1  -9   1   96.89    7.70
   0   9  -1   17.20   12.90
   0  -9   1   15.90    5.60
   0  -9   1   13.20    3.90
   0  -9   1   12.80    7.60
   0  -9   1   17.30    5.30
   0  -9   1   22.60    8.40
   0  -9   1   22.80    3.70
  -1   9  -1   70.29   17.70
  -1   9  -1   59.39   13.20
   1  -9   1   60.09    8.40
   1  -9   1   62.89    7.80
   1  -9   1   71.49   10.70
   1  -9   1   64.39    7.10
   1  -9   1   74.49   11.80
   1  -9   1   57.19    9.00
  -2   9  -1    0.90   11.20
  -2   9  -1   47.80   17.20
   2  -9   1    1.60    7.10
   2  -9   1   28.00    8.70
   2  -9   1   17.90    9.40
   2  -9   1   16.00    9.10
   2  -9   1   10.40    4.20
   2  -9   1   -3.50    7.00
  -3   9  -1   31.30   18.60
  -3   9  -1   16.00   12.80
   3  -9   1   18.80    8.70
   3  -9   1    8.50    6.10
   3  -9   1   10.40   10.30
   3  -9   1   13.60    5.00
   3  -9   1   18.40   10.00
   3  -9   1   10.90   11.30
  -4   9  -1   19.20   20.00
  -4   9  -1    6.40   14.50
   4  -9   1    1.00    5.80
   4  -9   1   -8.80    6.90
   4  -9   1  -18.00   10.30
   4  -9   1    4.20    8.20
   9   8  -1   42.40   18.20
   9   8  -1   45.70    9.50
   9   8  -1   50.19   12.40
  -9  -8   1   29.90   24.20
  -9  -8   1   44.80   14.30
  -9  -8   1   42.80   16.50
   8   8  -1   79.19   10.30
   8   8  -1   63.59   14.90
   8   8  -1   86.99   12.90
   8   8  -1   85.19   12.40
  -8  -8   1   66.29   10.90
  -8  -8   1   38.00   19.70
  -8  -8   1  108.09   17.50
  -8  -8   1   74.29    8.50
  -8  -8   1   74.89   14.30
   7   8  -1   14.40    6.20
   7   8  -1   13.40   12.60
   7   8  -1   17.20    7.20
   7   8  -1    4.10    4.10
  -7  -8   1   -1.00   14.40
  -7  -8   1   26.20    8.50
  -7  -8   1    8.30    5.90
  -7  -8   1    7.10    5.30
  -7  -8   1   -2.40   10.00
   6   8  -1   62.29   13.90
   6   8  -1   65.59    9.30
   6   8  -1   73.19    9.30
   6   8  -1   42.70   15.70
  -6  -8   1   64.19    8.80
  -6  -8   1   59.89    8.70
  -6  -8   1   87.69   12.40
  -6  -8   1   68.89   10.50
  -6  -8   1   54.19    7.30
  -6  -8   1   66.19   15.50
   5   8  -1  105.69   11.10
   5   8  -1   96.09   15.10
   5   8  -1   82.89   12.20
   5   8  -1   98.99   10.80
   5   8  -1  110.19   14.50
  -5  -8   1  105.69   13.70
  -5  -8   1   96.29    9.40
  -5  -8   1  114.79   11.80
  -5  -8   1   90.39   10.50
  -5  -8   1  105.49    9.60
  -5  -8   1  119.29   16.30
   4   8  -1   13.40    9.30
   4   8  -1   30.60    8.10
   4   8  -1   34.60    6.00
   4   8  -1   25.10    9.10
   4   8  -1   40.20    6.60
   4   8  -1   41.90    5.40
  -4  -8   1   39.70    6.50
  -4  -8   1   29.20    6.60
  -4  -8   1   31.10    8.50
  -4  -8   1   23.90    4.70
  -4  -8   1   34.90    5.30
  -4  -8   1   46.50    8.20
  -4  -8   1   33.10   10.60
  -4  -8   1   27.20    8.20
   3   8  -1   10.50    4.60
   3   8  -1    1.60    8.10
  -3  -8   1   -3.60    3.70
  -3  -8   1    8.30    5.00
  -3  -8   1   14.30    6.80
  -3  -8   1   -0.70    5.10
  -3  -8   1   10.80    7.50
  -3  -8   1    5.60    3.50
  -3  -8   1    5.10    3.70
  -3  -8   1   10.00    7.30
  -3  -8   1    4.60    5.60
  -3  -8   1   17.70    8.00
   2   8  -1   18.50    5.30
   2   8  -1   37.90    9.90
  -2  -8   1   29.30    5.50
  -2  -8   1   29.60    4.80
  -2  -8   1   32.70    7.90
  -2  -8   1   26.10   10.60
  -2  -8   1   35.80    4.50
  -2  -8   1   36.30    7.90
  -2  -8   1   22.80    7.20
  -2  -8   1   41.30    9.30
  -2  -8   1   30.60    4.70
  -2  -8   1   26.70    8.50
   1   8  -1   58.09    7.90
   1   8  -1   55.59   11.90
  -1  -8   1   59.09    9.00
  -1  -8   1   56.09    9.30
  -1  -8   1   49.30    5.40
  -1  -8   1   38.70    7.70
  -1  -8   1   49.10    6.10
  -1  -8   1   41.70    4.30
  -1  -8   1   51.09    7.60
  -1  -8   1   52.09   10.10
  -1  -8   1   34.90   11.40
  -1  -8   1   48.80    8.70
  -1  -8   1   70.69   10.60
   0   8  -1   35.30    6.90
   0   8  -1   27.80   10.70
   0  -8   1   35.90    8.10
   0  -8   1   34.50    5.30
   0  -8   1   31.70    9.30
   0  -8   1   26.50    3.60
   0  -8   1   32.30    7.60
   0  -8   1   36.60    7.90
   0  -8   1   27.10    6.90
   0  -8   1   20.70   11.90
   0  -8   1   25.00    4.80
   0  -8   1   28.90    4.50
  -1   8  -1    4.20    7.00
  -1   8  -1  -14.40    9.90
   1  -8   1   -2.10    2.80
   1  -8   1   -2.40    6.00
   1  -8   1    2.90    6.30
   1  -8   1   -1.20    5.80
   1  -8   1    1.70    3.40
   1  -8   1    3.10    4.80
   1  -8   1    2.00    4.90
   1  -8   1   -1.10    9.80
   1  -8   1   -5.80    4.50
   1  -8   1    7.70   13.00
  -2   8  -1   31.40    9.40
  -2   8  -1   26.60   13.00
   2  -8   1   37.20    8.20
   2  -8   1   37.50    8.50
   2  -8   1   37.90    7.30
   2  -8   1   47.00    7.60
   2  -8   1   36.80    4.90
   2  -8   1   35.40    5.80
   2  -8   1   43.40    8.50
  -3   8  -1    3.40    9.60
  -3   8  -1   -8.10   13.60
   3  -8   1    6.30    5.50
   3  -8   1   10.30    8.20
   3  -8   1    6.50    3.60
   3  -8   1   -0.20    7.70
   3  -8   1   -1.80    9.20
   3  -8   1    5.70    7.60
  -4   8  -1   43.00   18.70
  -4   8  -1   12.60    7.90
  -4   8  -1   21.30   11.20
   4  -8   1   23.60    6.60
   4  -8   1   21.20    5.30
   4  -8   1    4.20    9.40
   4  -8   1   29.20   12.50
   4  -8   1   12.40   11.20
   4  -8   1   27.10    7.50
  -5   8  -1   -0.50   13.30
  -5   8  -1    8.00   18.40
   5  -8   1    2.00    7.70
   5  -8   1   18.60   11.00
   5  -8   1   -9.00    7.30
   5  -8   1   -2.10    6.20
  10   7  -1    7.30   11.90
  10   7  -1   13.40   13.80
  10   7  -1    4.00   15.60
 -10  -7   1   17.30   17.60
 -10  -7   1   16.80   25.90
 -10  -7   1    3.00   14.70
   9   7  -1  333.97   27.40
   9   7  -1  359.86   27.30
   9   7  -1  301.07   28.70
   9   7  -1  296.37   29.80
   9   7  -1  362.66   33.70
  -9  -7   1  302.87   41.90
  -9  -7   1  330.67   30.80
  -9  -7   1  323.27   33.30
   8   7  -1    3.30    7.60
   8   7  -1   -8.90    9.50
   8   7  -1   10.10    7.50
   8   7  -1   -8.00   10.30
   8   7  -1    9.00    7.20
  -8  -7   1   -0.70   10.70
  -8  -7   1    3.70    9.60
  -8  -7   1    5.30    3.90
  -8  -7   1   11.30    6.80
  -8  -7   1    0.30   15.00
   7   7  -1  951.90   58.79
   7   7  -1  996.50   59.39
   7   7  -1 1014.10   57.89
   7   7  -1 1046.50   64.19
   7   7  -1  939.51   59.29
  -7  -7   1  949.90   60.99
  -7  -7   1  924.81   56.79
  -7  -7   1  891.61   58.09
  -7  -7   1  952.50   58.89
  -7  -7   1  958.50   66.99
  -7  -7   1  971.80   62.19
   6   7  -1   20.00    9.10
   6   7  -1   12.20    9.40
   6   7  -1   12.70    5.10
   6   7  -1   15.00    3.90
   6   7  -1   18.00    5.70
   6   7  -1   14.10    5.50
  -6  -7   1   20.50   10.10
  -6  -7   1   19.50    7.40
  -6  -7   1   28.90   14.10
  -6  -7   1   26.30    6.40
  -6  -7   1   21.60    8.30
  -6  -7   1   42.70   12.40
  -6  -7   1   19.40    5.20
  -6  -7   1   13.60    4.50
   5   7  -1  699.03   47.60
   5   7  -1  782.72   48.70
   5   7  -1  830.32   52.39
   5   7  -1  825.32   48.50
   5   7  -1  761.22   50.79
  -5  -7   1  820.62   49.10
  -5  -7   1  763.02   47.20
  -5  -7   1  734.23   50.99
  -5  -7   1  826.32   49.70
  -5  -7   1  809.52   53.29
  -5  -7   1  811.62   47.70
  -5  -7   1  791.02   51.49
   4   7  -1   31.00    5.80
   4   7  -1   19.90    4.70
   4   7  -1   22.10    4.80
   4   7  -1   28.00    7.90
   4   7  -1   16.80    6.90
  -4  -7   1   19.10    4.90
  -4  -7   1   18.10    6.50
  -4  -7   1   19.90    9.40
  -4  -7   1   23.10    4.20
  -4  -7   1   24.20    6.30
  -4  -7   1   33.20    5.30
  -4  -7   1   17.00    3.80
  -4  -7   1   20.20    6.60
  -4  -7   1   19.80    6.70
   3   7  -1  378.16   22.70
   3   7  -1  411.06   27.10
   3   7  -1  372.76   23.30
   3   7  -1  373.06   25.70
   3   7  -1  382.46   24.40
   3   7  -1  399.16   28.90
  -3  -7   1  317.77   26.50
  -3  -7   1  373.46   23.20
  -3  -7   1  360.76   27.60
  -3  -7   1  396.86   25.40
  -3  -7   1  390.56   24.10
  -3  -7   1  373.06   25.20
  -3  -7   1  366.26   25.30
  -3  -7   1  368.36   28.40
  -3  -7   1  377.16   26.60
  -3  -7   1  364.86   24.40
  -3  -7   1  371.56   23.40
   2   7  -1   10.00    3.50
   2   7  -1   18.50    6.80
  -2  -7   1   17.80    3.40
  -2  -7   1   16.20    5.80
  -2  -7   1   11.00    4.50
  -2  -7   1   23.60    7.30
  -2  -7   1   14.10    7.30
  -2  -7   1   10.30    6.10
  -2  -7   1   13.50    2.90
  -2  -7   1    8.00    5.40
  -2  -7   1   16.90    3.10
   1   7  -1  115.69   14.90
   1   7  -1  118.59   10.10
  -1  -7   1  114.19    7.80
  -1  -7   1  139.09   13.00
  -1  -7   1  108.49   10.70
  -1  -7   1  102.69   11.80
  -1  -7   1  112.89    8.90
  -1  -7   1  115.19    8.40
  -1  -7   1  118.79   13.10
  -1  -7   1  115.09   12.70
  -1  -7   1  118.79   15.60
  -1  -7   1  118.99    8.10
  -1  -7   1  131.19   11.70
   0   7  -1   -2.80    3.90
   0   7  -1   -5.50    4.70
   0   7  -1  -12.10    7.00
   0  -7   1  -11.00    5.00
   0  -7   1    0.40    4.80
   0  -7   1    2.10    4.40
   0  -7   1   -3.70    2.60
   0  -7   1   -3.70    2.90
   0  -7   1   -1.60    4.90
   0  -7   1    2.80    6.30
   0  -7   1   -1.90    4.80
   0  -7   1   -7.20    8.00
   0  -7   1    0.30    1.80
   0  -7   1   -2.10    2.80
  -1   7  -1   28.80    7.10
  -1   7  -1   31.70    9.50
   1  -7   1   27.40    8.60
   1  -7   1   24.50    6.20
   1  -7   1   25.80   11.10
   1  -7   1   27.50    5.00
   1  -7   1   26.50    6.30
   1  -7   1   26.80    4.50
   1  -7   1   22.80    8.40
   1  -7   1   25.40    5.30
   1  -7   1   22.80    7.10
   1  -7   1   33.00    5.10
   1  -7   1   30.50    4.00
  -2   7  -1   30.60   10.60
  -2   7  -1   17.70    7.20
   2  -7   1   13.20    9.00
   2  -7   1   18.60    5.80
   2  -7   1   26.90    4.00
   2  -7   1   25.60    6.40
   2  -7   1   21.80    6.50
   2  -7   1   18.00   12.00
   2  -7   1   19.90    4.90
   2  -7   1   26.90    6.50
   2  -7   1   32.90    4.50
   2  -7   1   36.70    8.20
   2  -7   1   25.80    4.50
  -3   7  -1   10.10   11.00
  -3   7  -1   -0.20    5.60
  -3   7  -1    3.00    4.70
  -3   7  -1    1.30    6.80
   3  -7   1    1.20    4.30
   3  -7   1    0.10    6.70
   3  -7   1   -1.40    2.80
   3  -7   1   -3.10    6.00
   3  -7   1   -2.20    3.40
   3  -7   1    4.80    6.50
   3  -7   1   -1.00    3.90
   3  -7   1   -5.00    6.10
   3  -7   1    2.60   10.40
   3  -7   1   -1.10    4.70
  -4   7  -1   15.20    6.70
  -4   7  -1   -4.70    7.20
   4  -7   1    2.50    3.50
   4  -7   1   19.00    9.00
   4  -7   1   12.20    8.70
   4  -7   1    8.70    5.50
   4  -7   1   -4.40    5.60
   4  -7   1    3.60    7.10
   4  -7   1   -2.70    7.80
  -5   7  -1   13.10   18.60
  -5   7  -1   -9.90    8.10
  -5   7  -1   10.10    9.70
   5  -7   1    2.60    7.20
   5  -7   1    3.90    4.70
   5  -7   1    6.50    7.60
   5  -7   1   -4.60    9.80
   5  -7   1   -2.90    6.90
   5  -7   1   -2.60    9.10
  -6   7  -1  -24.60   17.60
  -6   7  -1   -1.50   11.50
   6  -7   1   -3.50    6.20
   6  -7   1   -7.60    8.50
   6  -7   1   17.40   11.30
   6  -7   1  -14.80    7.70
  10   6  -1   84.49   15.70
  10   6  -1   99.99   12.50
  10   6  -1  124.39   20.60
  10   6  -1  105.59   17.10
 -10  -6   1   83.89   25.10
 -10  -6   1  154.58   22.80
 -10  -6   1   87.19   18.80
   9   6  -1   36.80   11.70
   9   6  -1   13.80   10.30
   9   6  -1   37.40    7.70
   9   6  -1   41.60   15.10
  -9  -6   1   33.70    6.20
  -9  -6   1   18.70    8.50
  -9  -6   1   53.99   20.80
  -9  -6   1   32.70   13.80
  -9  -6   1   65.49   14.30
   8   6  -1  329.47   24.30
   8   6  -1  342.37   23.80
   8   6  -1  260.87   24.70
   8   6  -1  324.07   29.20
   8   6  -1  327.87   21.70
  -8  -6   1  284.97   26.10
  -8  -6   1  304.27   20.10
  -8  -6   1  317.87   23.30
  -8  -6   1  340.57   38.80
  -8  -6   1  299.17   28.50
   7   6  -1  267.07   19.50
   7   6  -1  236.98   19.20
   7   6  -1  225.08   19.50
   7   6  -1  256.37   19.10
   7   6  -1  240.88   23.60
  -7  -6   1  245.48   18.50
  -7  -6   1  241.48   16.00
  -7  -6   1  258.27   29.00
  -7  -6   1  239.48   23.20
  -7  -6   1  239.18   17.50
  -7  -6   1  243.08   21.70
  -7  -6   1  277.17   21.50
   6   6  -1   92.99   13.30
   6   6  -1   98.19   12.70
   6   6  -1  103.59   10.80
   6   6  -1  113.89   10.40
   6   6  -1   69.39   12.20
   6   6  -1  107.79   10.40
   6   6  -1   97.29   10.30
  -6  -6   1   95.79   13.90
  -6  -6   1  119.29   16.20
  -6  -6   1   82.99   11.30
  -6  -6   1   97.69    8.30
  -6  -6   1  101.39   12.70
  -6  -6   1   89.29   16.00
  -6  -6   1  104.99    9.30
  -6  -6   1  126.39   14.70
  -6  -6   1   98.99    9.60
   5   6  -1  266.37   19.50
   5   6  -1  256.47   21.90
   5   6  -1  287.47   22.30
   5   6  -1  269.77   18.50
   5   6  -1  280.67   17.00
   5   6  -1  270.07   18.30
   5   6  -1  267.77   18.00
  -5  -6   1  251.37   19.30
  -5  -6   1  260.97   18.00
  -5  -6   1  248.98   21.10
  -5  -6   1  264.17   20.00
  -5  -6   1  282.17   24.40
  -5  -6   1  265.97   17.60
  -5  -6   1  274.87   22.70
  -5  -6   1  259.27   17.50
   4   6  -1 1433.46   82.79
   4   6  -1 1369.76   79.49
   4   6  -1 1327.27   79.49
   4   6  -1 1304.97   81.09
  -4  -6   1 1305.97   79.99
  -4  -6   1 1366.66   78.69
  -4  -6   1 1354.76   78.89
  -4  -6   1 1212.28   81.39
  -4  -6   1 1371.86   79.79
  -4  -6   1 1327.47   82.89
  -4  -6   1 1318.77   78.49
  -4  -6   1 1438.46   81.79
   3   6  -1  550.24   34.50
   3   6  -1  576.54   32.70
   3   6  -1  540.15   33.20
   3   6  -1  581.04   36.60
   3   6  -1  526.55   34.60
   3   6  -1  543.75   32.80
  -3  -6   1  510.15   33.90
  -3  -6   1  470.95   35.00
  -3  -6   1  537.45   34.90
  -3  -6   1  549.65   32.40
  -3  -6   1  510.85   33.20
  -3  -6   1  524.15   34.20
  -3  -6   1  528.55   33.70
  -3  -6   1  531.95   36.00
  -3  -6   1  551.14   33.10
  -3  -6   1  580.34   33.30
  -3  -6   1  543.25   32.40
   2   6  -1  961.80   56.29
   2   6  -1  907.71   54.99
   2   6  -1  892.71   53.19
   2   6  -1  859.21   52.69
  -2  -6   1  873.61   54.49
  -2  -6   1  878.51   52.29
  -2  -6   1  828.92   53.19
  -2  -6   1  844.72   52.09
  -2  -6   1  896.31   54.79
  -2  -6   1  899.91   51.79
  -2  -6   1  902.11   53.49
  -2  -6   1  816.72   54.59
  -2  -6   1  953.50   51.99
  -2  -6   1  894.21   54.69
   1   6  -1    1.30    2.40
   1   6  -1    5.50    5.20
  -1  -6   1    1.50    3.90
  -1  -6   1   -1.90    3.90
  -1  -6   1   -2.20    5.00
  -1  -6   1    5.60    4.70
  -1  -6   1    5.00    2.20
  -1  -6   1   -2.80    2.60
  -1  -6   1    4.20    2.20
  -1  -6   1    3.10    1.60
  -1  -6   1    5.50    3.50
   0   6  -1  729.93   45.50
   0   6  -1  762.72   49.00
   0   6  -1  710.33   47.20
   0  -6   1  707.33   47.40
   0  -6   1  773.32   46.80
   0  -6   1  736.63   44.30
   0  -6   1  774.92   46.00
   0  -6   1  834.02   44.70
   0  -6   1  823.32   47.00
   0  -6   1  739.73   43.80
   0  -6   1  785.72   46.30
   0  -6   1  745.83   47.40
   0  -6   1  726.23   48.70
   0  -6   1  723.63   44.30
  -1   6  -1   24.30    6.30
  -1   6  -1   10.70    7.50
   1  -6   1   27.50    8.70
   1  -6   1   27.30    4.90
   1  -6   1   29.10    3.50
   1  -6   1   23.70    4.10
   1  -6   1   28.30    6.10
   1  -6   1   31.90    3.90
   1  -6   1   27.10    7.00
   1  -6   1   26.40    4.10
   1  -6   1   22.10    5.50
   1  -6   1   19.90    5.80
   1  -6   1   26.00    6.70
  -2   6  -1  115.59   15.70
  -2   6  -1  116.69    8.30
  -2   6  -1  103.69    8.60
  -2   6  -1   81.29   10.70
   2  -6   1  138.59   17.20
   2  -6   1  115.69    7.80
   2  -6   1  101.89    8.60
   2  -6   1  106.69   10.10
   2  -6   1  110.19   11.20
   2  -6   1  102.09    9.90
   2  -6   1  120.39    8.50
   2  -6   1   98.79    9.80
   2  -6   1  106.29    9.80
   2  -6   1  107.49   11.50
   2  -6   1   93.59   12.50
  -3   6  -1    6.00    5.40
  -3   6  -1   11.00    3.50
  -3   6  -1   23.40   10.40
  -3   6  -1   17.40    4.70
  -3   6  -1    8.30    6.40
   3  -6   1   13.80    4.60
   3  -6   1    8.10    5.30
   3  -6   1    7.60    4.80
   3  -6   1    8.10    3.70
   3  -6   1    5.00    5.50
   3  -6   1    2.70   10.80
   3  -6   1    7.90    5.80
   3  -6   1    3.70    5.10
   3  -6   1    5.20    6.40
   3  -6   1   12.80    3.00
  -4   6  -1   13.10    5.80
  -4   6  -1    5.80    7.80
  -4   6  -1    8.00    6.30
  -4   6  -1    1.60   10.50
   4  -6   1   -6.90    4.40
   4  -6   1    1.60    6.30
   4  -6   1   -3.80    6.50
   4  -6   1    4.30    3.20
   4  -6   1   -1.50    7.20
   4  -6   1   -1.60    4.20
   4  -6   1   -0.70    6.00
  -5   6  -1   -5.50   14.00
  -5   6  -1    8.00    7.30
  -5   6  -1    1.60    7.30
   5  -6   1    2.80   10.10
   5  -6   1    3.10    4.10
   5  -6   1    2.80    8.40
   5  -6   1   -3.30    8.50
   5  -6   1   -5.60   10.10
   5  -6   1    3.80    7.80
  -6   6  -1   -4.80   15.80
  -6   6  -1    1.00    9.60
  -6   6  -1   12.70    9.10
   6  -6   1   -1.20    7.20
   6  -6   1   15.90   11.70
   6  -6   1  -12.70   11.10
   6  -6   1    2.80    6.50
   6  -6   1   -4.40    5.40
   6  -6   1    8.30    9.90
  -7   6  -1    0.10   11.60
  -7   6  -1  -14.80   20.80
   7  -6   1   -5.60    9.20
   7  -6   1    7.30    7.40
   7  -6   1   13.30    8.20
   7  -6   1   15.70   11.70
  10   5  -1   27.50   12.10
  10   5  -1   52.09   13.40
  10   5  -1   50.09   17.10
  10   5  -1   31.10    8.80
 -10  -5   1   32.70   15.50
 -10  -5   1   50.59   25.30
 -10  -5   1   50.99   17.00
   9   5  -1  104.99   14.30
   9   5  -1  144.39   17.60
   9   5  -1  124.19   13.40
   9   5  -1  125.69   19.20
  -9  -5   1  134.99   18.90
  -9  -5   1  125.89   24.40
  -9  -5   1  120.79   21.70
  -9  -5   1  111.39   15.80
   8   5  -1  543.55   37.20
   8   5  -1  613.14   36.40
   8   5  -1  429.16   34.80
   8   5  -1  545.95   33.10
   8   5  -1  518.45   38.80
  -8  -5   1  505.15   32.30
  -8  -5   1  519.75   34.80
  -8  -5   1  526.55   38.90
  -8  -5   1  518.95   38.10
  -8  -5   1  543.35   44.20
  -8  -5   1  556.04   37.70
   7   5  -1  365.86   26.00
   7   5  -1  422.86   26.90
   7   5  -1  377.56   29.30
   7   5  -1  382.56   29.20
   7   5  -1  384.56   27.30
   7   5  -1  335.47   30.80
   7   5  -1  385.76   24.40
  -7  -5   1  358.96   27.70
  -7  -5   1  393.96   28.90
  -7  -5   1  381.46   28.90
  -7  -5   1  386.76   28.00
  -7  -5   1  376.26   23.40
  -7  -5   1  427.16   35.30
  -7  -5   1  365.66   25.80
  -7  -5   1  370.96   24.60
   6   5  -1 1353.06   75.99
   6   5  -1 1245.98   77.39
   6   5  -1 1353.86   79.09
   6   5  -1 1326.87   79.99
   6   5  -1 1374.56   77.59
   6   5  -1 1299.57   76.99
   6   5  -1 1289.87   77.19
   6   5  -1 1249.88   80.09
  -6  -5   1 1311.77   78.69
  -6  -5   1 1315.77   77.09
  -6  -5   1 1197.18   79.29
  -6  -5   1 1227.98   78.29
  -6  -5   1 1296.17   79.19
  -6  -5   1 1279.77   75.29
  -6  -5   1 1299.47   76.29
  -6  -5   1 1288.17   82.19
   5   5  -1 1754.62  107.89
   5   5  -1 1895.71  108.39
   5   5  -1 1816.42  105.49
   5   5  -1 1832.82  105.49
   5   5  -1 1824.72  106.69
   5   5  -1 1920.31  105.59
   5   5  -1 1758.32  105.39
  -5  -5   1 1770.52  106.49
  -5  -5   1 1822.02  104.79
  -5  -5   1 1802.82  108.79
  -5  -5   1 1680.43  104.39
  -5  -5   1 1621.64  107.39
  -5  -5   1 1790.52  106.89
  -5  -5   1 1863.21  109.89
  -5  -5   1 1819.42  105.39
  -5  -5   1 1836.82  107.09
   4   5  -1 3079.69  176.98
   4   5  -1 3055.79  175.08
   4   5  -1 3235.38  173.58
   4   5  -1 3044.20  174.48
   4   5  -1 2935.21  173.78
   4   5  -1 3041.30  176.48
   4   5  -1 3130.79  174.38
  -4  -5   1 2969.00  175.08
  -4  -5   1 2711.13  176.18
  -4  -5   1 3029.20  173.78
  -4  -5   1 3047.90  175.48
  -4  -5   1 3294.87  177.08
  -4  -5   1 3056.09  177.78
  -4  -5   1 2581.84  173.48
  -4  -5   1 3020.60  174.18
   3   5  -1  968.60   60.39
   3   5  -1 1005.80   59.99
   3   5  -1 1023.10   61.59
   3   5  -1 1048.80   62.69
   3   5  -1 1049.30   60.19
  -3  -5   1 1021.50   60.19
  -3  -5   1  906.11   61.69
  -3  -5   1 1042.50   61.69
  -3  -5   1 1043.00   59.69
  -3  -5   1 1037.50   59.39
  -3  -5   1 1014.10   59.49
  -3  -5   1 1013.70   60.39
  -3  -5   1 1039.60   62.79
  -3  -5   1 1014.50   60.39
   2   5  -1 2929.21  163.08
   2   5  -1 2853.61  160.88
   2   5  -1 2810.62  160.98
   2   5  -1 2842.12  162.38
   2   5  -1 2994.70  164.28
   2   5  -1 2684.33  161.58
  -2  -5   1 2894.91  161.28
  -2  -5   1 2822.52  162.88
  -2  -5   1 2732.03  161.28
  -2  -5   1 2804.22  163.08
  -2  -5   1 2825.32  163.38
  -2  -5   1 2782.82  160.88
  -2  -5   1 2805.02  161.08
  -2  -5   1 2677.33  162.08
  -2  -5   1 2814.82  162.08
  -2  -5   1 2499.55  163.08
   1   5  -1  290.47   20.90
   1   5  -1  291.97   18.40
  -1  -5   1  287.57   19.50
  -1  -5   1  303.07   18.90
  -1  -5   1  271.77   19.90
  -1  -5   1  293.57   18.80
  -1  -5   1  284.67   19.80
  -1  -5   1  280.07   17.20
  -1  -5   1  294.77   20.80
  -1  -5   1  290.57   17.50
   0   5  -1 2645.44  153.48
   0   5  -1 2648.94  156.08
   0   5  -1 2639.84  154.58
   0  -5   1 2598.94  153.48
   0  -5   1 2477.05  152.08
   0  -5   1 2621.94  153.68
   0  -5   1 2776.12  153.88
   0  -5   1 2733.93  154.48
   0  -5   1 2842.72  154.68
   0  -5   1 2648.03  154.88
   0  -5   1 2553.34  152.88
   0  -5   1 2665.13  156.18
  -1   5  -1  173.18   15.80
  -1   5  -1  161.98   13.30
   1  -5   1  189.98   13.20
   1  -5   1  169.58   13.80
   1  -5   1  144.89   16.30
   1  -5   1  177.88   13.50
   1  -5   1  184.28   14.50
   1  -5   1  175.78   11.80
   1  -5   1  187.78   12.90
   1  -5   1  167.18   11.80
   1  -5   1  167.88   11.40
   1  -5   1  185.68   11.20
   1  -5   1  186.08   11.90
  -2   5  -1  726.93   42.30
  -2   5  -1  658.73   44.40
  -2   5  -1  644.44   39.80
  -2   5  -1  700.53   39.40
   2  -5   1  636.14   40.40
   2  -5   1  682.73   40.30
   2  -5   1  637.84   44.70
   2  -5   1  664.13   39.10
   2  -5   1  711.93   41.50
   2  -5   1  674.73   40.60
   2  -5   1  657.23   41.20
   2  -5   1  603.74   40.40
   2  -5   1  678.53   39.70
  -3   5  -1   17.60    5.10
  -3   5  -1   27.30    8.40
  -3   5  -1   19.90    3.70
  -3   5  -1   21.30    6.30
  -3   5  -1   14.50    4.40
   3  -5   1   13.50    5.60
   3  -5   1   12.60    3.50
   3  -5   1    9.40    4.80
   3  -5   1   12.60    3.90
   3  -5   1   15.40    5.50
   3  -5   1   15.30    3.00
   3  -5   1   17.70    8.70
   3  -5   1   21.40    5.60
   3  -5   1    8.90    4.80
   3  -5   1   13.50    5.60
  -4   5  -1   86.19   10.30
  -4   5  -1  106.09   15.80
  -4   5  -1   74.59    8.20
  -4   5  -1  107.29   11.20
  -4   5  -1   96.09   12.30
   4  -5   1   98.99    9.20
   4  -5   1   91.29   11.30
   4  -5   1   61.79   10.30
   4  -5   1  122.59   11.50
   4  -5   1   84.09   11.20
   4  -5   1   91.69   11.90
   4  -5   1   98.89    9.90
   4  -5   1  104.59    7.80
   4  -5   1   67.29   13.90
  -5   5  -1   55.39    9.40
  -5   5  -1   53.49   10.50
  -5   5  -1   69.89   10.80
  -5   5  -1   68.59    6.90
  -5   5  -1   30.90   13.40
  -5   5  -1   76.59    9.00
   5  -5   1   76.09    7.70
   5  -5   1   50.89    8.00
   5  -5   1   63.29   12.30
   5  -5   1   63.49    9.70
   5  -5   1   76.09   11.40
   5  -5   1   67.59    9.40
   5  -5   1   62.69   10.70
  -6   5  -1   37.50   15.70
  -6   5  -1   32.10    6.00
  -6   5  -1   48.20    8.00
  -6   5  -1   53.59   10.80
   6  -5   1   37.90   10.80
   6  -5   1   34.80    9.00
   6  -5   1   37.80    6.60
   6  -5   1   38.00   11.80
   6  -5   1   42.90    9.00
   6  -5   1   40.80    9.70
  -7   5  -1   20.90   10.60
  -7   5  -1   14.60    8.70
  -7   5  -1    2.10   17.80
   7  -5   1    8.10    7.90
   7  -5   1   18.40   10.30
   7  -5   1    6.50    8.90
   7  -5   1   14.40   14.30
  -8   5  -1  -24.20   21.80
  -8   5  -1    9.60   14.10
  -8   5  -1   15.50   11.70
   8  -5   1   -0.40    8.30
   8  -5   1   18.30   11.10
   8  -5   1    1.70    8.70
   8  -5   1   -2.00   12.20
  10   4  -1   -6.80    7.70
  10   4  -1  -13.80   13.70
  10   4  -1  -15.50   10.90
  10   4  -1   -0.10   10.40
 -10  -4   1  -12.40   12.80
 -10  -4   1    1.60   15.30
 -10  -4   1   -2.10   21.40
 -10  -4   1   -4.30   16.40
   9   4  -1  113.29   14.80
   9   4  -1  115.39   14.70
   9   4  -1   96.39   16.00
   9   4  -1  102.19   12.60
  -9  -4   1   99.89   15.10
  -9  -4   1   93.49   13.30
  -9  -4   1  102.49   17.40
  -9  -4   1  150.68   26.60
  -9  -4   1  106.89   17.70
   8   4  -1   71.59   12.80
   8   4  -1   51.39    7.20
   8   4  -1   58.09   12.20
   8   4  -1   76.29   10.50
   8   4  -1   54.49    9.10
  -8  -4   1   69.99   13.00
  -8  -4   1   92.69   18.50
  -8  -4   1   58.09   11.40
  -8  -4   1   66.59    9.80
  -8  -4   1   81.79   14.70
   7   4  -1  527.25   34.90
   7   4  -1  512.25   37.20
   7   4  -1  581.84   33.40
   7   4  -1  541.75   37.90
   7   4  -1  578.64   40.00
   7   4  -1  576.54   35.50
   7   4  -1  530.85   36.40
  -7  -4   1  518.05   34.50
  -7  -4   1  530.35   33.60
  -7  -4   1  535.25   36.70
  -7  -4   1  588.44   37.50
  -7  -4   1  449.76   35.80
  -7  -4   1  547.55   37.90
  -7  -4   1  569.54   42.30
   6   4  -1   -5.50    4.90
   6   4  -1    0.70    5.50
   6   4  -1   -5.20    4.60
   6   4  -1    0.10    3.20
   6   4  -1   -2.00    3.40
   6   4  -1    5.50    7.20
   6   4  -1    0.40    2.60
  -6  -4   1   -4.00    4.80
  -6  -4   1    0.20    3.50
  -6  -4   1   -3.10    5.30
  -6  -4   1   -7.00    8.00
  -6  -4   1    0.30    2.00
  -6  -4   1   -2.90    4.40
  -6  -4   1   -3.80    2.60
  -6  -4   1    1.40    5.40
   5   4  -1 1865.31  105.39
   5   4  -1 1809.02  108.29
   5   4  -1 1680.63  108.39
   5   4  -1 1924.01  107.79
   5   4  -1 1915.41  106.49
   5   4  -1 1791.02  106.69
  -5  -4   1 1852.11  104.79
  -5  -4   1 1867.41  107.99
  -5  -4   1 1867.11  105.59
  -5  -4   1 1687.73  107.79
  -5  -4   1 1778.12  107.39
  -5  -4   1 1646.24  106.99
  -5  -4   1 1754.12  106.09
  -5  -4   1 1980.40  110.59
   4   4  -1    1.00    4.10
   4   4  -1    7.20    2.30
   4   4  -1    0.10    3.80
   4   4  -1    5.70    2.70
   4   4  -1    4.50    2.70
   4   4  -1    5.10    3.70
   4   4  -1    3.40    2.70
  -4  -4   1    5.80    2.50
  -4  -4   1    8.60    5.30
  -4  -4   1    8.00    4.10
  -4  -4   1    5.20    2.20
  -4  -4   1    6.10    2.40
  -4  -4   1    0.80    3.00
  -4  -4   1    5.40    3.80
   3   4  -1 4906.41  282.97
   3   4  -1 4986.00  282.07
   3   4  -1 5043.70  281.87
   3   4  -1 4822.02  282.57
   3   4  -1 5059.29  284.57
   3   4  -1 5118.19  283.07
   3   4  -1 4540.65  285.27
  -3  -4   1 4988.30  282.27
  -3  -4   1 5160.48  283.27
  -3  -4   1 4748.73  282.27
  -3  -4   1 4991.40  284.97
  -3  -4   1 4447.85  283.97
  -3  -4   1 5270.77  284.37
  -3  -4   1 5042.00  281.97
  -3  -4   1 4749.82  282.97
  -3  -4   1 4766.52  281.97
   2   4  -1  110.19   10.00
   2   4  -1  109.59    7.70
   2   4  -1   99.49    8.70
   2   4  -1  103.49    7.70
   2   4  -1   99.49    7.20
   2   4  -1  108.89    9.10
  -2  -4   1  112.59    9.30
  -2  -4   1  106.09    7.80
  -2  -4   1  104.69    8.80
  -2  -4   1  115.99    7.30
  -2  -4   1   93.69    9.20
  -2  -4   1  114.29    8.20
  -2  -4   1  109.89    7.20
  -2  -4   1  108.49    9.90
  -2  -4   1  102.19    7.70
   1   4  -1 5977.40  358.16
   1   4  -1 6638.74  359.96
   1   4  -1 6457.85  360.06
  -1  -4   1 6460.65  357.56
  -1  -4   1 6341.37  359.76
  -1  -4   1 6062.59  358.56
  -1  -4   1 6247.48  358.46
  -1  -4   1 6049.59  359.26
  -1  -4   1 5974.80  359.46
   0   4  -1    0.60    1.90
   0   4  -1   -0.60    1.80
   0   4  -1    0.40    3.70
   0  -4   1   -0.20    2.40
   0  -4   1    1.30    2.40
   0  -4   1    5.80    3.80
   0  -4   1    0.10    1.90
   0  -4   1    2.30    2.60
   0  -4   1    1.90    1.90
  -1   4  -1 2752.52  158.68
  -1   4  -1 2352.06  156.48
   1  -4   1 2873.81  156.38
   1  -4   1 2790.02  156.58
   1  -4   1 2744.43  155.48
   1  -4   1 2707.93  154.98
   1  -4   1 2559.84  154.98
   1  -4   1 2664.93  155.38
   1  -4   1 2734.93  157.18
   1  -4   1 2776.62  158.68
   1  -4   1 2709.63  156.78
   1  -4   1 2740.93  156.08
  -2   4  -1   58.09    9.50
  -2   4  -1   51.99    4.60
  -2   4  -1   53.59    7.10
  -2   4  -1   57.39    5.60
  -2   4  -1   55.79    6.30
   2  -4   1   56.09    6.00
   2  -4   1   57.59    5.00
   2  -4   1   62.39    6.20
   2  -4   1   53.39    6.10
   2  -4   1   65.59   10.00
   2  -4   1   54.89    6.80
   2  -4   1   53.89    5.90
   2  -4   1   71.99    7.10
   2  -4   1   59.69    6.80
  -3   4  -1 1444.56   85.99
  -3   4  -1 1497.85   88.19
  -3   4  -1 1452.95   86.89
  -3   4  -1 1430.56   90.39
  -3   4  -1 1589.14   87.79
   3  -4   1 1485.85   90.59
   3  -4   1 1540.85   87.39
   3  -4   1 1434.86   86.89
   3  -4   1 1444.56   87.29
   3  -4   1 1449.76   87.29
   3  -4   1 1518.45   86.39
   3  -4   1 1450.35   85.59
  -4   4  -1    4.40    7.70
  -4   4  -1    9.70    4.80
  -4   4  -1    7.30    3.10
  -4   4  -1   10.30    3.60
  -4   4  -1   15.70    7.50
  -4   4  -1   12.20    4.90
  -4   4  -1    1.50    2.80
   4  -4   1    9.00    5.50
   4  -4   1    9.10    5.20
   4  -4   1    6.30    2.50
   4  -4   1    3.90    5.20
   4  -4   1   11.80    8.10
   4  -4   1    5.40    5.20
   4  -4   1   -2.10    3.00
   4  -4   1    8.00    4.70
   4  -4   1    7.50    3.70
  -5   4  -1  200.18   21.40
  -5   4  -1  163.58   15.50
  -5   4  -1  182.18   15.90
  -5   4  -1  159.68   13.10
  -5   4  -1  171.38   13.10
  -5   4  -1  185.28   14.00
   5  -4   1  167.78   13.80
   5  -4   1  180.58   15.50
   5  -4   1  152.98   15.50
   5  -4   1  158.98   12.20
   5  -4   1  170.38   13.70
   5  -4   1  165.58   21.50
   5  -4   1  166.68   17.30
   5  -4   1  151.78   16.50
  -6   4  -1    4.10    5.50
  -6   4  -1   20.70    7.20
  -6   4  -1   23.60    8.60
  -6   4  -1    0.00   11.30
  -6   4  -1   -0.90    7.10
   6  -4   1    0.10    5.10
   6  -4   1    5.40    9.50
   6  -4   1    6.40    3.80
   6  -4   1   10.40    5.70
   6  -4   1   19.30    8.60
   6  -4   1   18.90    7.30
   6  -4   1    7.50    9.30
  -7   4  -1   25.50    8.30
  -7   4  -1   45.00   10.80
  -7   4  -1   26.50    8.70
  -7   4  -1   30.90   17.20
   7  -4   1   17.90   13.40
   7  -4   1   32.20   12.50
   7  -4   1   41.50    9.30
   7  -4   1   26.00    7.30
   7  -4   1   13.60    5.80
   7  -4   1   25.70   11.60
  -8   4  -1    4.80   10.60
  -8   4  -1   33.60   13.40
  -8   4  -1   15.70   21.80
   8  -4   1    7.00   11.90
   8  -4   1   17.80   10.10
   8  -4   1   -3.30    6.50
   8  -4   1    9.20    7.40
  10   3  -1  -12.50    9.40
  10   3  -1    5.30   10.60
  10   3  -1   30.10    9.60
  10   3  -1  -11.10   14.10
 -10  -3   1   13.10   14.70
 -10  -3   1   42.20   25.60
 -10  -3   1   -6.20   14.60
   9   3  -1    3.20   10.50
   9   3  -1    7.30    8.60
   9   3  -1    5.30    6.90
   9   3  -1   -3.50   10.50
  -9  -3   1  -17.50    8.60
  -9  -3   1  -13.70   16.90
  -9  -3   1    5.50   11.70
  -9  -3   1   -4.70   11.10
  -9  -3   1  -13.50    8.10
   8   3  -1   53.49   13.10
   8   3  -1   66.19   14.00
   8   3  -1   57.39    9.20
   8   3  -1   81.89   10.40
   8   3  -1   85.89   14.30
   8   3  -1   76.99   10.40
  -8  -3   1   85.19   11.10
  -8  -3   1   76.99   13.80
  -8  -3   1   48.10   14.90
  -8  -3   1   76.09   13.80
  -8  -3   1   74.49   11.60
   7   3  -1   91.09   13.70
   7   3  -1   93.79   13.40
   7   3  -1   87.19   12.90
   7   3  -1  109.49   10.10
   7   3  -1  135.69   11.20
   7   3  -1  101.69   11.20
   7   3  -1   88.89   14.60
  -7  -3   1  112.99    9.40
  -7  -3   1   85.49   12.10
  -7  -3   1  144.59   18.70
  -7  -3   1   99.39   10.80
  -7  -3   1   91.39   13.10
  -7  -3   1   96.29   12.90
  -7  -3   1   91.29   13.40
   6   3  -1  432.66   29.00
   6   3  -1  501.05   29.20
   6   3  -1  496.25   28.10
   6   3  -1  427.26   31.00
   6   3  -1  411.66   32.00
   6   3  -1  430.76   30.20
  -6  -3   1  485.05   31.60
  -6  -3   1  423.36   30.10
  -6  -3   1  460.15   34.00
  -6  -3   1  439.16   27.30
  -6  -3   1  456.65   28.00
  -6  -3   1  445.36   30.80
  -6  -3   1  438.76   28.70
   5   3  -1  231.58   17.10
   5   3  -1  212.68   18.20
   5   3  -1  175.18   16.50
   5   3  -1  205.98   16.00
   5   3  -1  238.28   14.20
   5   3  -1  227.88   15.30
   5   3  -1  235.18   15.20
  -5  -3   1  224.58   15.10
  -5  -3   1  224.88   16.70
  -5  -3   1  216.68   13.60
  -5  -3   1  214.68   17.00
  -5  -3   1  214.18   14.30
  -5  -3   1  232.28   19.90
  -5  -3   1  196.98   16.10
  -5  -3   1  210.18   16.50
   4   3  -1 1025.30   60.29
   4   3  -1 1051.19   60.99
   4   3  -1  980.70   59.59
   4   3  -1  883.81   61.09
   4   3  -1 1033.10   61.79
   4   3  -1 1047.50   59.89
   4   3  -1 1005.80   58.79
  -4  -3   1 1036.80   59.79
  -4  -3   1 1092.09   63.09
  -4  -3   1 1055.49   58.69
  -4  -3   1 1053.69   61.19
  -4  -3   1  992.50   59.79
  -4  -3   1  890.51   60.39
  -4  -3   1 1024.50   60.89
   3   3  -1 1435.76   85.79
   3   3  -1 1417.66   83.49
   3   3  -1 1545.75   84.99
   3   3  -1 1466.05   84.09
   3   3  -1 1388.56   85.59
   3   3  -1 1447.36   84.29
  -3  -3   1 1485.95   86.49
  -3  -3   1 1463.85   83.79
  -3  -3   1 1549.14   85.19
  -3  -3   1 1251.57   83.49
  -3  -3   1 1489.55   83.89
  -3  -3   1 1336.57   85.39
  -3  -3   1 1443.86   84.79
  -3  -3   1 1485.45   86.19
  -3  -3   1 1511.75   84.19
   2   3  -1 3116.69  174.98
   2   3  -1 2989.80  175.58
   2   3  -1 3169.98  175.18
   2   3  -1 3098.39  176.78
   2   3  -1 3104.79  175.78
   2   3  -1 3181.08  177.18
   2   3  -1 3112.19  175.88
  -2  -3   1 2922.41  175.18
  -2  -3   1 2912.61  175.28
  -2  -3   1 3012.10  175.18
  -2  -3   1 3211.98  177.38
  -2  -3   1 2748.12  176.78
  -2  -3   1 3076.99  175.88
  -2  -3   1 2929.31  175.78
  -2  -3   1 3203.58  176.88
  -2  -3   1 3076.49  175.78
   1   3  -1 2335.97  132.79
   1   3  -1 2267.27  132.09
   1   3  -1 2117.99  131.69
   1   3  -1 2482.55  133.19
  -1  -3   1 2224.58  131.09
  -1  -3   1 2311.27  132.49
  -1  -3   1 2235.68  131.99
  -1  -3   1 2222.88  132.79
  -1  -3   1 2312.47  132.69
  -1  -3   1 2336.57  132.59
  -1  -3   1 2283.27  131.29
  -1  -3   1 2313.87  131.89
   0   3  -1 1949.30  112.39
   0   3  -1 1928.41  111.29
   0   3  -1 1846.82  110.59
   0  -3   1 1935.71  111.49
   0  -3   1 1891.91  111.29
   0  -3   1 1924.41  110.89
   0  -3   1 1911.11  112.29
   0  -3   1 1895.81  110.69
   0  -3   1 1973.80  110.89
  -1   3  -1 1630.94   93.19
  -1   3  -1 1363.56   89.99
  -1   3  -1 1621.64   90.39
  -1   3  -1 1374.16   91.09
  -1   3  -1 1650.63   91.69
   1  -3   1 1629.14   91.29
   1  -3   1 1616.64   90.99
   1  -3   1 1552.04   90.59
   1  -3   1 1605.94   93.19
   1  -3   1 1562.74   90.49
   1  -3   1 1539.05   91.69
   1  -3   1 1586.94   90.09
   1  -3   1 1596.74   90.19
   1  -3   1 1645.34   91.39
  -2   3  -1 2793.32  146.99
  -2   3  -1 2470.95  145.99
  -2   3  -1 2314.17  145.99
  -2   3  -1 2510.85  147.09
  -2   3  -1 2584.84  146.29
  -2   3  -1 2683.63  149.09
   2  -3   1 2471.45  146.39
   2  -3   1 2644.94  146.69
   2  -3   1 2558.94  145.79
   2  -3   1 2558.64  154.68
   2  -3   1 2529.25  146.39
   2  -3   1 2526.45  146.39
   2  -3   1 2357.66  146.19
   2  -3   1 2460.95  146.69
   2  -3   1 2527.45  145.29
  -3   3  -1  726.03   45.20
  -3   3  -1  732.93   44.50
  -3   3  -1  660.03   43.10
  -3   3  -1  812.02   43.70
  -3   3  -1  765.32   43.30
  -3   3  -1  775.32   44.70
  -3   3  -1  718.33   47.20
   3  -3   1  736.93   44.50
   3  -3   1  696.23   44.60
   3  -3   1  724.83   44.10
   3  -3   1  726.43   44.80
   3  -3   1  728.73   45.00
   3  -3   1  730.33   43.80
   3  -3   1  750.32   47.20
   3  -3   1  749.62   43.10
  -4   3  -1  289.17   23.20
  -4   3  -1  291.27   20.10
  -4   3  -1  298.57   18.90
  -4   3  -1  284.87   19.30
  -4   3  -1  289.37   18.20
   4  -3   1  287.77   23.50
   4  -3   1  271.27   20.50
   4  -3   1  310.67   20.20
   4  -3   1  277.57   18.90
   4  -3   1  281.37   18.20
   4  -3   1  289.37   19.20
   4  -3   1  309.17   21.40
  -5   3  -1  308.87   19.80
  -5   3  -1  255.17   16.90
  -5   3  -1  265.07   17.80
  -5   3  -1  252.77   19.20
  -5   3  -1  256.87   19.00
  -5   3  -1  224.78   18.00
  -5   3  -1  269.27   23.40
   5  -3   1  252.27   16.80
   5  -3   1  229.58   20.00
   5  -3   1  234.88   19.60
   5  -3   1  270.57   19.10
   5  -3   1  247.18   23.20
   5  -3   1  254.07   17.80
   5  -3   1  235.18   20.80
   5  -3   1  268.67   17.80
  -6   3  -1  150.18   15.00
  -6   3  -1  163.18   13.90
  -6   3  -1  152.98   14.20
  -6   3  -1  129.99   15.40
  -6   3  -1  157.58   20.60
  -6   3  -1  153.18   12.20
   6  -3   1  165.18   15.50
   6  -3   1  138.99   16.50
   6  -3   1  169.48   21.10
   6  -3   1  139.29   12.90
   6  -3   1  138.19   11.90
   6  -3   1  149.69   16.70
   6  -3   1  203.78   19.30
   6  -3   1  140.69   13.40
  -7   3  -1   67.19   15.30
  -7   3  -1   72.19   11.10
  -7   3  -1   86.49   12.40
  -7   3  -1   55.19   12.40
  -7   3  -1   79.59   10.90
   7  -3   1   73.39    9.80
   7  -3   1   92.39   12.30
   7  -3   1   90.39   15.50
   7  -3   1   78.79   11.40
   7  -3   1   67.69   15.50
   7  -3   1   65.49    9.50
  -8   3  -1   27.40   16.90
  -8   3  -1   26.40    8.30
  -8   3  -1   20.80   10.70
  -8   3  -1   -6.90    9.90
   8  -3   1    8.40    8.50
   8  -3   1   28.80   14.80
   8  -3   1  -35.60   16.40
   8  -3   1   -3.50    8.90
   8  -3   1    8.60    6.70
   8  -3   1   15.00    8.30
  -9   3  -1    3.80   12.70
  -9   3  -1   10.30   14.50
  -9   3  -1  -27.10   21.30
   9  -3   1    5.20   10.80
   9  -3   1   -3.90    8.10
   9  -3   1    2.90   10.60
   9  -3   1   -2.50   13.30
  10   2  -1    4.00   11.30
  10   2  -1   -6.60   18.20
  10   2  -1   -4.70    9.10
  10   2  -1    3.00    9.80
 -10  -2   1   -8.30   14.60
 -10  -2   1   19.60   16.00
 -10  -2   1    7.60   23.40
   9   2  -1    1.80   12.80
   9   2  -1   -2.20    7.20
   9   2  -1   15.00    8.70
   9   2  -1    5.70    7.00
  -9  -2   1   -2.20    8.70
  -9  -2   1   12.40    9.80
  -9  -2   1   -7.70   11.30
  -9  -2   1   12.80   12.20
   8   2  -1   16.80   10.50
   8   2  -1    7.80    9.90
   8   2  -1    0.00    5.40
   8   2  -1    2.40    5.30
   8   2  -1   -1.80    6.60
  -8  -2   1   -9.80    8.00
  -8  -2   1   -9.90   12.50
  -8  -2   1   -5.60    7.90
  -8  -2   1    9.80    6.50
  -8  -2   1   -1.00    6.20
   7   2  -1   -5.50    7.10
   7   2  -1    2.80    4.10
   7   2  -1    3.80    9.90
   7   2  -1   -5.10    7.10
   7   2  -1   -1.00    4.30
   7   2  -1    1.20    8.50
   7   2  -1   -2.10    4.90
  -7  -2   1   -0.60    4.50
  -7  -2   1    5.00    6.80
  -7  -2   1    4.50    3.30
  -7  -2   1    2.10    5.40
  -7  -2   1    2.20    5.10
  -7  -2   1    8.10   10.00
  -7  -2   1   -0.80    7.50
  -7  -2   1   -9.20    6.00
   6   2  -1    6.50    4.20
   6   2  -1   -6.60    6.30
   6   2  -1    6.00    3.50
   6   2  -1   11.50    5.60
   6   2  -1    6.60    4.00
   6   2  -1    7.90    6.50
   6   2  -1   11.80    6.10
   6   2  -1    5.90    6.80
  -6  -2   1    6.20    4.20
  -6  -2   1    0.70    5.10
  -6  -2   1    3.80    5.40
  -6  -2   1    6.30    3.50
  -6  -2   1    4.70    2.80
  -6  -2   1   -1.90    7.80
  -6  -2   1   13.60    5.90
   5   2  -1    6.00    4.60
   5   2  -1   -0.10    3.60
   5   2  -1    3.70    3.00
   5   2  -1    1.20    4.70
   5   2  -1    1.60    2.10
   5   2  -1    3.50    3.10
   5   2  -1   -7.10    4.20
  -5  -2   1   -9.20    6.40
  -5  -2   1    0.30    4.50
  -5  -2   1   -1.50    3.10
  -5  -2   1    1.20    1.70
  -5  -2   1    1.50    2.30
  -5  -2   1    1.50    2.40
  -5  -2   1    1.40    1.90
  -5  -2   1    4.00    3.70
  -5  -2   1   -5.60    2.90
   4   2  -1  475.05   26.30
   4   2  -1  446.76   25.80
   4   2  -1  422.26   26.30
   4   2  -1  457.05   27.90
   4   2  -1  429.36   28.30
   4   2  -1  406.46   27.00
   4   2  -1  372.26   28.00
  -4  -2   1  415.06   25.20
  -4  -2   1  462.15   28.00
  -4  -2   1  435.16   29.20
  -4  -2   1  396.66   26.00
  -4  -2   1  415.36   26.10
  -4  -2   1  431.66   25.20
  -4  -2   1  383.56   26.90
  -4  -2   1  432.76   27.50
   3   2  -1  617.24   36.60
   3   2  -1  583.84   37.10
   3   2  -1  615.74   35.00
   3   2  -1  614.24   35.60
   3   2  -1  586.84   36.10
   3   2  -1  607.04   35.70
  -3  -2   1  590.34   36.50
  -3  -2   1  556.84   36.50
  -3  -2   1  619.64   37.90
  -3  -2   1  615.14   36.70
  -3  -2   1  600.74   34.80
  -3  -2   1  571.04   35.60
  -3  -2   1  598.84   35.30
  -3  -2   1  607.94   34.70
   2   2  -1  956.80   55.59
   2   2  -1  930.21   54.29
   2   2  -1  902.41   54.19
   2   2  -1  921.51   53.79
   2   2  -1  976.70   54.89
   2   2  -1  848.02   55.39
   2   2  -1  998.40   54.59
  -2  -2   1  996.40   54.89
  -2  -2   1  980.70   54.09
  -2  -2   1  935.11   54.19
  -2  -2   1  937.81   54.89
  -2  -2   1  901.11   55.29
  -2  -2   1  924.01   55.79
  -2  -2   1  786.22   53.79
  -2  -2   1  950.70   54.29
  -2  -2   1 1010.00   56.59
   1   2  -1  800.82   48.50
   1   2  -1  872.51   48.50
   1   2  -1  842.42   48.30
   1   2  -1  831.72   49.10
   1   2  -1  877.61   49.60
  -1  -2   1  814.82   48.30
  -1  -2   1  804.22   49.00
  -1  -2   1  800.72   48.80
  -1  -2   1  859.71   48.20
  -1  -2   1  838.52   49.50
  -1  -2   1  834.42   48.60
  -1  -2   1  887.11   49.40
  -1  -2   1  829.32   48.30
  -1  -2   1  839.12   48.50
  -1  -2   1  825.22   49.40
   0   2  -1 2849.51  163.28
   0   2  -1 2940.11  162.98
   0   2  -1 2650.23  162.68
   0   2  -1 2891.31  162.48
   0   2  -1 2729.63  162.08
   0  -2   1 2918.81  162.18
   0  -2   1 2815.62  163.18
   0  -2   1 2796.52  162.58
   0  -2   1 2878.81  162.38
   0  -2   1 2775.32  162.68
  -1   2  -1  756.42   42.90
  -1   2  -1  716.53   44.40
  -1   2  -1  765.02   42.00
  -1   2  -1  739.73   42.30
  -1   2  -1  727.63   42.70
   1  -2   1  712.93   42.20
   1  -2   1  678.63   44.00
   1  -2   1  765.52   42.70
   1  -2   1  761.42   43.20
   1  -2   1  731.33   41.80
   1  -2   1  691.63   42.70
   1  -2   1  696.03   42.40
   1  -2   1  701.23   42.70
  -2   2  -1 2042.00  117.79
  -2   2  -1 2145.19  119.79
  -2   2  -1 2021.60  117.39
  -2   2  -1 1944.31  118.29
  -2   2  -1 2219.18  117.39
  -2   2  -1 2069.59  117.89
  -2   2  -1 2106.69  117.29
   2  -2   1 2115.99  119.69
   2  -2   1 1945.61  116.89
   2  -2   1 1992.50  117.89
   2  -2   1 1994.80  117.59
   2  -2   1 1987.00  117.29
   2  -2   1 2037.00  117.89
   2  -2   1 1956.40  117.79
   2  -2   1 1954.20  118.19
  -3   2  -1  150.28   13.50
  -3   2  -1  152.48   11.00
  -3   2  -1  163.28   11.30
  -3   2  -1  167.58   10.20
  -3   2  -1  160.58   10.50
   3  -2   1  149.29   11.40
   3  -2   1  121.09   14.00
   3  -2   1  149.79   10.50
   3  -2   1  147.89   10.60
   3  -2   1  163.28   10.00
   3  -2   1  147.79   12.40
   3  -2   1  142.89   11.30
   3  -2   1  156.18   11.70
  -4   2  -1 1496.65   87.09
  -4   2  -1 1387.36   84.49
  -4   2  -1 1506.85   83.99
  -4   2  -1 1428.56   85.09
  -4   2  -1 1306.67   82.89
  -4   2  -1 1533.85   84.59
   4  -2   1 1423.96   83.39
   4  -2   1 1391.76   85.29
   4  -2   1 1403.06   84.09
   4  -2   1 1421.46   83.99
   4  -2   1 1435.56   86.89
   4  -2   1 1441.66   84.49
   4  -2   1 1459.35   85.79
   4  -2   1 1444.96   85.29
  -5   2  -1   62.49   10.90
  -5   2  -1   60.99    8.30
  -5   2  -1   61.49   10.40
  -5   2  -1   46.20    7.60
  -5   2  -1   58.29    8.40
  -5   2  -1   39.50    5.70
  -5   2  -1   48.50    7.00
   5  -2   1   44.00    6.40
   5  -2   1   60.59    8.40
   5  -2   1   59.69    9.50
   5  -2   1   53.49   10.50
   5  -2   1   62.59    7.00
   5  -2   1   53.99    5.90
   5  -2   1   47.80    8.30
   5  -2   1   58.49    8.80
  -6   2  -1  300.57   23.50
  -6   2  -1  336.77   23.40
  -6   2  -1  320.77   24.50
  -6   2  -1  330.17   27.30
  -6   2  -1  346.87   27.60
  -6   2  -1  317.37   22.50
   6  -2   1  300.47   26.80
   6  -2   1  328.67   26.80
   6  -2   1  288.07   24.80
   6  -2   1  317.07   25.20
   6  -2   1  324.57   22.20
   6  -2   1  341.07   22.90
   6  -2   1  385.86   24.10
   6  -2   1  332.67   21.50
  -7   2  -1   -1.30   11.70
  -7   2  -1    4.60    7.40
  -7   2  -1    3.00    5.00
  -7   2  -1    3.30   11.10
  -7   2  -1    9.20    8.30
   7  -2   1   11.70   11.90
   7  -2   1    7.70    5.10
   7  -2   1   13.20    7.20
   7  -2   1   -0.60   11.10
   7  -2   1   10.40    9.90
   7  -2   1    0.40    5.70
   7  -2   1   -1.00    4.50
  -8   2  -1   66.29   13.40
  -8   2  -1   90.59   18.30
  -8   2  -1   43.40    8.00
  -8   2  -1   43.30   14.70
  -8   2  -1   51.09   11.40
   8  -2   1   27.20   14.80
   8  -2   1   35.10   16.70
   8  -2   1   68.29   22.90
   8  -2   1   55.79   11.60
   8  -2   1   16.70   12.40
  -9   2  -1   14.40   14.40
  -9   2  -1  -16.30   17.80
   9  -2   1    0.20   12.80
   9  -2   1    3.60    9.40
   9  -2   1  -11.00    7.30
   9  -2   1   10.30   10.50
  10   1  -1    5.90   10.40
  10   1  -1    3.30    9.10
  10   1  -1    6.50   13.80
  10   1  -1   -4.10   18.20
  10   1  -1    8.00   15.40
 -10  -1   1  -18.20   16.40
 -10  -1   1   15.10   17.80
 -10  -1   1  -18.50   22.90
   9   1  -1   17.90    8.50
   9   1  -1   21.10   13.20
   9   1  -1   21.10   15.20
   9   1  -1   18.10    7.80
   9   1  -1   51.39   16.90
   9   1  -1   21.70   10.40
  -9  -1   1   28.50   13.50
  -9  -1   1   27.50   11.80
  -9  -1   1   13.40   12.60
  -9  -1   1   38.70    8.50
  -9  -1   1   40.10   21.50
   8   1  -1    7.30   10.30
   8   1  -1    5.20    6.30
   8   1  -1    6.60    7.30
   8   1  -1    5.10   10.30
   8   1  -1    8.30   10.50
   8   1  -1    1.50   14.30
   8   1  -1   -2.40    4.90
  -8  -1   1    0.60    8.30
  -8  -1   1    2.80    5.80
  -8  -1   1   -0.80    6.60
  -8  -1   1   16.70   13.40
  -8  -1   1   -9.50    8.30
  -8  -1   1    6.70    9.50
   7   1  -1  196.98   18.30
   7   1  -1  163.68   18.30
   7   1  -1  174.58   19.10
   7   1  -1  194.18   15.80
   7   1  -1  176.18   20.90
   7   1  -1  193.28   14.80
   7   1  -1  183.98   15.40
   7   1  -1  209.08   19.40
  -7  -1   1  193.78   17.00
  -7  -1   1  177.88   17.20
  -7  -1   1  185.68   15.30
  -7  -1   1  168.98   22.00
  -7  -1   1  211.18   19.20
  -7  -1   1  186.88   13.80
  -7  -1   1  186.68   19.10
   6   1  -1    1.00    3.30
   6   1  -1   -0.70    5.20
   6   1  -1   -4.90    5.60
   6   1  -1    1.30    3.50
   6   1  -1    2.80    6.40
   6   1  -1    1.40    5.30
   6   1  -1    0.70    3.00
  -6  -1   1    1.40    4.70
  -6  -1   1    0.20    4.30
  -6  -1   1    0.90    2.70
  -6  -1   1    2.30    5.50
  -6  -1   1    3.70    7.00
  -6  -1   1   -0.40    3.10
  -6  -1   1   -1.80    3.40
  -6  -1   1   -4.40    4.70
   5   1  -1  227.98   16.90
   5   1  -1  231.48   14.90
   5   1  -1  236.98   15.00
   5   1  -1  229.78   17.40
   5   1  -1  207.78   17.70
   5   1  -1  218.68   16.30
   5   1  -1  213.58   15.20
  -5  -1   1  187.48   15.60
  -5  -1   1  214.78   18.90
  -5  -1   1  234.28   17.40
  -5  -1   1  228.68   17.80
  -5  -1   1  202.38   15.10
  -5  -1   1  207.88   14.90
   4   1  -1    6.00    2.00
   4   1  -1    6.00    3.20
   4   1  -1    0.20    1.80
   4   1  -1    4.00    1.90
   4   1  -1    4.10    3.40
   4   1  -1    3.30    4.10
  -4  -1   1    1.10    1.70
  -4  -1   1    7.00    2.50
  -4  -1   1    0.50    2.90
  -4  -1   1    8.30    4.30
  -4  -1   1    4.10    4.70
  -4  -1   1    6.20    3.10
  -4  -1   1    5.80    3.10
  -4  -1   1    8.00    2.80
   3   1  -1  181.58   13.20
   3   1  -1  190.28   11.70
   3   1  -1  202.38   12.10
   3   1  -1  177.08   13.60
   3   1  -1  183.98   12.90
   3   1  -1  184.38   12.80
  -3  -1   1  190.88   12.20
  -3  -1   1  175.78   11.40
  -3  -1   1  177.08   12.10
  -3  -1   1  182.68   13.30
  -3  -1   1  196.98   13.50
  -3  -1   1  191.28   11.80
  -3  -1   1  194.18   14.10
  -3  -1   1  172.38   12.50
   2   1  -1   10.00    2.80
   2   1  -1    3.20    1.80
   2   1  -1    7.50    2.80
   2   1  -1   10.90    1.90
   2   1  -1    9.00    2.60
   2   1  -1   12.80    2.80
   2   1  -1   10.50    1.60
   2   1  -1    9.60    3.20
  -2  -1   1    7.50    1.40
  -2  -1   1    8.80    2.60
  -2  -1   1   13.00    3.00
  -2  -1   1   13.20    3.60
  -2  -1   1    7.90    2.70
  -2  -1   1    4.80    2.40
  -2  -1   1   11.50    2.00
  -2  -1   1   10.70    1.70
   1   1  -1  158.38    9.80
   1   1  -1  156.78   10.60
   1   1  -1  158.58   10.20
   1   1  -1  140.69   10.50
   1   1  -1  148.89    9.80
   1   1  -1  152.38   10.00
  -1  -1   1  151.28   10.20
  -1  -1   1  152.68   10.10
  -1  -1   1  150.08    9.90
  -1  -1   1  141.29   10.90
  -1  -1   1  150.98    9.80
  -1  -1   1  149.19   10.50
   0   1  -1  145.89    9.70
   0   1  -1  158.38   10.00
   0   1  -1  156.88   10.10
   0   1  -1  165.08   10.30
   0   1  -1  152.28    9.70
   0  -1   1  155.98   10.10
   0  -1   1  140.69    9.60
   0  -1   1  158.58    9.90
   0  -1   1  142.49   10.60
   0  -1   1  158.48   10.20
   0  -1   1  157.08    9.80
  -1   1  -1 1399.86   85.49
  -1   1  -1 1526.35   85.89
  -1   1  -1 1502.75   85.89
  -1   1  -1 1531.35   87.09
  -1   1  -1 1512.95   85.99
  -1   1  -1 1432.16   85.59
  -1   1  -1 1473.25   85.69
   1  -1   1 1443.26   85.89
   1  -1   1 1485.95   85.49
   1  -1   1 1499.45   85.89
   1  -1   1 1510.45   86.99
   1  -1   1 1486.65   85.99
   1  -1   1 1501.45   85.69
  -2   1  -1   62.79    4.70
  -2   1  -1   64.89    4.40
  -2   1  -1   63.49    5.20
  -2   1  -1   62.99    5.70
  -2   1  -1   65.09    5.20
  -2   1  -1   67.39    5.10
   2  -1   1   67.19    5.40
   2  -1   1   69.09    5.50
   2  -1   1   71.89    6.30
   2  -1   1   64.99    4.50
   2  -1   1   54.79    5.20
   2  -1   1   61.99    4.80
   2  -1   1   70.59    6.70
  -3   1  -1 1142.49   65.09
  -3   1  -1 1137.49   65.79
  -3   1  -1 1196.48   66.79
  -3   1  -1 1119.79   65.49
  -3   1  -1 1083.69   64.89
  -3   1  -1 1090.59   64.39
  -3   1  -1 1111.89   66.69
  -3   1  -1 1134.59   65.09
   3  -1   1 1104.59   65.89
   3  -1   1 1142.09   66.79
   3  -1   1 1080.59   66.39
   3  -1   1 1123.09   64.89
   3  -1   1 1030.60   65.09
   3  -1   1 1103.79   64.49
   3  -1   1 1082.19   65.79
   3  -1   1 1086.29   64.89
  -4   1  -1   17.60    5.60
  -4   1  -1    9.00    2.10
  -4   1  -1   13.70    4.10
  -4   1  -1    8.60    3.80
  -4   1  -1   14.50    6.30
  -4   1  -1    8.60    2.40
  -4   1  -1   12.20    3.50
   4  -1   1   12.10    3.90
   4  -1   1    9.40    4.20
   4  -1   1   12.30    5.10
   4  -1   1    9.80    2.10
   4  -1   1   12.80    3.10
   4  -1   1    7.80    3.60
   4  -1   1    8.70    4.60
   4  -1   1    8.70    2.80
  -5   1  -1  662.83   42.90
  -5   1  -1  734.73   42.50
  -5   1  -1  648.14   41.10
  -5   1  -1  707.73   44.70
  -5   1  -1  705.13   42.10
  -5   1  -1  681.73   43.50
  -5   1  -1  700.93   45.10
   5  -1   1  697.33   42.20
   5  -1   1  683.33   44.70
   5  -1   1  690.33   43.90
   5  -1   1  650.43   43.50
   5  -1   1  680.13   44.40
   5  -1   1  692.13   41.50
   5  -1   1  690.83   42.70
   5  -1   1  713.83   41.80
  -6   1  -1   21.30    5.10
  -6   1  -1   17.10    4.00
  -6   1  -1   10.30    6.40
  -6   1  -1   16.30    8.80
  -6   1  -1    9.40    5.40
  -6   1  -1   16.30    5.80
  -6   1  -1   21.50    7.70
   6  -1   1   17.70    4.70
   6  -1   1   13.20    6.70
   6  -1   1   15.80    6.40
   6  -1   1   19.20    4.30
   6  -1   1   22.30    7.40
   6  -1   1   18.40    9.00
   6  -1   1   21.60    8.30
   6  -1   1    9.80    4.60
  -7   1  -1  119.59   17.80
  -7   1  -1  110.79   14.50
  -7   1  -1   99.29   10.70
  -7   1  -1  128.99   13.00
  -7   1  -1  107.99   17.20
  -7   1  -1  119.49   14.90
  -7   1  -1  152.18   16.80
   7  -1   1  134.89   14.90
   7  -1   1  129.69   18.50
   7  -1   1  140.79   13.20
   7  -1   1  126.89   17.20
   7  -1   1  173.48   21.10
   7  -1   1  131.69   12.60
   7  -1   1  167.88   20.90
   7  -1   1  115.79   11.00
  -8   1  -1    2.80   14.50
  -8   1  -1   14.60    9.50
  -8   1  -1    3.20    9.50
  -8   1  -1   16.20   12.80
   8  -1   1   10.40    7.30
   8  -1   1   15.30    5.50
   8  -1   1   30.90   16.30
   8  -1   1   20.00   12.70
   8  -1   1    5.40    7.30
   8  -1   1    5.80    9.80
   8  -1   1   19.10   12.40
  -9   1  -1   28.90   16.40
  -9   1  -1   30.70   13.60
  -9   1  -1   25.60   21.60
   9  -1   1   42.10   13.50
   9  -1   1   36.60   11.10
   9  -1   1   24.50    8.20
   9  -1   1   62.09   19.50
   9  -1   1   21.40   17.80
   9  -1   1   18.10   11.40
 -10   1  -1  -23.90   26.50
 -10   1  -1   20.50   17.70
 -10   1  -1   25.90   18.00
  10  -1   1   -8.80    9.00
  10  -1   1   -7.50   16.00
  10  -1   1    1.00   16.60
  10  -1   1   -2.10   14.10
  10  -1   1  -17.60   12.70
  10   0  -1  -19.30   17.90
  10   0  -1    1.10   14.10
  10   0  -1    4.50   18.20
  10   0  -1   31.90   10.60
  10   0  -1   30.50   11.00
 -10   0   1   20.60   17.60
 -10   0   1   23.50   17.50
 -10   0   1   -2.10   15.90
 -10   0   1  -16.80   25.10
   9   0  -1    6.50   15.10
   9   0  -1   22.20   12.80
   9   0  -1   -3.20   13.60
   9   0  -1   -4.40    8.40
   9   0  -1   -6.90    9.60
   9   0  -1    0.40    7.20
  -9   0   1   12.80    6.90
  -9   0   1   -9.10   12.50
  -9   0   1  -12.90   12.30
  -9   0   1    5.60   13.10
  -9   0   1    4.10   17.80
   8   0  -1  153.78   20.10
   8   0  -1  153.38   14.70
   8   0  -1  174.88   16.00
   8   0  -1  121.79   19.80
   8   0  -1  150.48   16.10
  -8   0   1  197.98   21.20
  -8   0   1  167.88   13.00
  -8   0   1  186.58   23.00
  -8   0   1  148.99   19.90
  -8   0   1  151.38   15.60
  -8   0   1  158.18   20.40
   7   0  -1   11.80    6.20
   7   0  -1   16.80    4.60
   7   0  -1   23.90    8.10
   7   0  -1   23.30    9.20
   7   0  -1   23.70   10.40
   7   0  -1   21.00    5.60
   7   0  -1   11.40    8.60
  -7   0   1   16.00    4.70
  -7   0   1   14.50    8.20
  -7   0   1   18.40    7.80
  -7   0   1   17.30   11.00
  -7   0   1   17.00    9.20
  -7   0   1   17.70    4.60
  -7   0   1   18.00    8.10
  -7   0   1   19.40    6.60
   6   0  -1  440.26   28.80
   6   0  -1  457.85   28.10
   6   0  -1  420.06   30.50
   6   0  -1  420.26   29.80
   6   0  -1  476.45   28.00
   6   0  -1  432.26   30.90
   6   0  -1  426.86   31.70
  -6   0   1  429.86   30.90
  -6   0   1  448.56   27.60
  -6   0   1  461.35   31.20
  -6   0   1  440.06   28.50
  -6   0   1  436.36   27.30
  -6   0   1  431.06   29.70
  -6   0   1  445.56   30.40
  -6   0   1  435.06   32.40
   5   0  -1  229.78   14.40
   5   0  -1  202.68   15.80
   5   0  -1  219.38   14.40
   5   0  -1  187.58   16.40
   5   0  -1  187.88   17.20
   5   0  -1  213.18   16.60
  -5   0   1  228.68   16.40
  -5   0   1  202.98   13.90
  -5   0   1  242.68   17.70
  -5   0   1  193.78   16.70
  -5   0   1  214.88   14.80
  -5   0   1  222.18   14.00
  -5   0   1  177.48   17.50
  -5   0   1  202.88   15.80
   4   0  -1  768.02   48.90
   4   0  -1  816.32   47.90
   4   0  -1  834.52   47.50
   4   0  -1  815.92   48.40
   4   0  -1  860.31   47.30
   4   0  -1  793.52   49.10
   4   0  -1  792.32   49.30
  -4   0   1  780.22   49.80
  -4   0   1  751.52   48.10
  -4   0   1  777.82   47.60
  -4   0   1  819.42   49.40
  -4   0   1  767.82   47.20
  -4   0   1  782.62   49.20
  -4   0   1  844.62   48.90
   3   0  -1  518.85   31.60
   3   0  -1  524.05   31.00
   3   0  -1  576.54   30.50
   3   0  -1  442.86   30.50
   3   0  -1  506.95   31.60
   3   0  -1  484.95   31.70
  -3   0   1  493.25   32.00
  -3   0   1  552.14   30.30
  -3   0   1  528.05   31.40
  -3   0   1  488.35   30.30
  -3   0   1  520.55   31.80
  -3   0   1  508.15   30.60
  -3   0   1  443.56   30.80
  -3   0   1  557.14   32.00
   2   0  -1 3791.32  210.98
   2   0  -1 3579.34  211.28
   2   0  -1 3478.75  210.78
   2   0  -1 3713.23  211.78
   2   0  -1 3716.73  211.88
   2   0  -1 3718.83  211.98
  -2   0   1 3661.63  210.88
  -2   0   1 3640.64  211.88
  -2   0   1 3611.94  211.18
  -2   0   1 3646.14  210.98
  -2   0   1 3826.92  211.98
  -2   0   1 3735.73  211.68
  -2   0   1 3699.43  212.08
   1   0  -1  861.81   49.90
   1   0  -1  870.51   50.39
   1   0  -1  891.01   50.09
   1   0  -1  849.52   50.29
   1   0  -1  862.31   50.39
   1   0  -1  827.82   50.09
   1   0  -1  837.62   49.99
  -1   0   1  879.61   50.39
  -1   0   1  875.01   49.90
  -1   0   1  949.60   50.19
  -1   0   1  817.72   50.39
  -1   0   1  847.52   50.49
  -1   0  -1  240.48   13.80
  -1   0  -1  231.78   13.70
  -1   0  -1  216.78   13.90
  -1   0  -1  225.18   13.90
  -1   0  -1  245.28   13.90
   1   0   1  228.28   14.00
   1   0   1  244.68   13.80
   1   0   1  223.68   14.00
   1   0   1  220.18   14.50
   1   0   1  238.88   14.10
   1   0   1  227.38   13.80
  -2   0  -1   61.79    5.00
  -2   0  -1   59.29    4.50
  -2   0  -1   64.59    4.50
  -2   0  -1   67.19    4.80
  -2   0  -1   58.29    4.90
  -2   0  -1   52.09    5.50
  -2   0  -1   55.69    6.00
  -2   0  -1   59.99    4.20
   2   0   1   46.20    4.70
   2   0   1   56.49    5.00
   2   0   1   56.29    5.30
   2   0   1   59.19    5.00
   2   0   1   68.09    4.70
   2   0   1   61.59    4.30
   2   0   1   61.49    4.50
  -3   0  -1  117.49   10.00
  -3   0  -1  131.49    8.00
  -3   0  -1  110.89    9.00
  -3   0  -1  129.09    9.30
  -3   0  -1  121.69    8.20
  -3   0  -1  112.99    8.30
  -3   0  -1  122.59    8.50
  -3   0  -1  105.69    9.30
   3   0   1   94.09    8.40
   3   0   1  121.89    9.40
   3   0   1  119.69   10.30
   3   0   1  124.89    8.30
   3   0   1  120.29    8.30
   3   0   1  112.29    9.10
   3   0   1  114.39    9.40
   3   0   1  125.39    8.10
  -4   0  -1  450.15   28.70
  -4   0  -1  427.56   28.70
  -4   0  -1  438.26   27.50
  -4   0  -1  468.05   28.80
  -4   0  -1  423.76   28.40
  -4   0  -1  452.55   27.50
  -4   0  -1  458.95   27.10
  -4   0  -1  459.35   30.00
   4   0   1  498.55   27.70
   4   0   1  439.36   28.70
   4   0   1  445.56   29.10
   4   0   1  443.46   27.20
   4   0   1  446.66   29.90
   4   0   1  450.55   27.70
   4   0   1  383.76   27.80
   4   0   1  472.05   29.00
  -5   0  -1   17.80    5.10
  -5   0  -1   20.70    7.30
  -5   0  -1   17.20    4.50
  -5   0  -1   21.40    3.90
  -5   0  -1   20.40    3.50
  -5   0  -1   14.50    3.40
  -5   0  -1   16.20    6.10
  -5   0  -1   26.80    6.90
   5   0   1   25.20    4.40
   5   0   1   23.10    6.10
   5   0   1   31.80    5.00
   5   0   1   24.60    7.30
   5   0   1   24.80    6.00
   5   0   1   30.70    5.80
   5   0   1   23.10    6.00
   5   0   1   23.70    4.20
  -6   0  -1    8.90    5.60
  -6   0  -1   14.20    3.70
  -6   0  -1   18.60    7.90
  -6   0  -1   11.10    6.30
  -6   0  -1    3.20    5.70
  -6   0  -1   10.00    4.10
  -6   0  -1   12.30    3.80
  -6   0  -1   15.10    6.30
   6   0   1    6.30    3.80
   6   0   1    3.50    8.00
   6   0   1   17.40    6.60
   6   0   1   13.00    4.90
   6   0   1   11.70    3.50
   6   0   1   15.30    7.20
   6   0   1    2.90    4.60
   6   0   1   12.20    7.00
  -7   0  -1   19.80    7.10
  -7   0  -1   26.20    6.30
  -7   0  -1   22.70    8.10
  -7   0  -1   10.20    8.80
  -7   0  -1   10.90    4.10
  -7   0  -1   22.30    8.00
  -7   0  -1   23.40   10.90
   7   0   1   18.00    8.40
   7   0   1    1.20    7.20
   7   0   1   22.60    5.50
   7   0   1   12.60    7.70
   7   0   1   21.00    6.00
   7   0   1   21.80   10.50
   7   0   1   17.00    9.40
   7   0   1   15.30    4.60
  -8   0  -1   25.10    7.70
  -8   0  -1   39.00   10.80
  -8   0  -1   39.80   10.40
  -8   0  -1   34.50   14.80
   8   0   1   56.99   14.50
   8   0   1   31.80    8.70
   8   0   1   42.40    8.10
   8   0   1   21.40    9.70
   8   0   1   47.80   11.70
   8   0   1   41.80   16.20
   8   0   1   29.60    6.70
  -9   0  -1    1.00   12.40
  -9   0  -1    7.50   16.90
  -9   0  -1    6.00   14.00
  -9   0  -1    4.80    6.90
   9   0   1   -8.60   16.40
   9   0   1   12.40    8.50
   9   0   1   11.30   11.00
   9   0   1   -8.50   10.20
   9   0   1    1.80    7.10
   9   0   1   -9.70   11.50
 -10   0  -1   30.20   24.70
 -10   0  -1   17.70   17.30
 -10   0  -1   31.80   16.30
  10   0   1   10.90   11.40
  10   0   1   26.60   15.90
  10   0   1   -3.20   14.60
  10   0   1   10.10    8.70
  10   0   1   -0.60   14.80
  10  -1  -1   -6.30   14.70
  10  -1  -1    0.10   12.90
  10  -1  -1   10.00   10.30
  10  -1  -1   43.40   17.60
 -10   1   1  -37.10   28.40
 -10   1   1    7.80   18.90
 -10   1   1   10.90   20.90
 -10   1   1  -16.60   18.30
   9  -1  -1    9.90   12.10
   9  -1  -1   13.20    7.80
   9  -1  -1   18.70   13.50
   9  -1  -1   13.30   17.00
   9  -1  -1    3.20   19.20
  -9   1   1   15.90   15.60
  -9   1   1  -12.90   19.20
  -9   1   1    9.10   15.50
  -9   1   1   24.80   15.90
   8  -1  -1  123.79   18.10
   8  -1  -1   81.89   12.70
   8  -1  -1   98.99   12.80
   8  -1  -1   67.39   18.10
   8  -1  -1   98.69   16.70
   8  -1  -1   99.59   13.80
  -8   1   1   56.19   14.20
  -8   1   1   60.99   14.40
  -8   1   1  102.39   15.80
  -8   1   1   90.09   19.00
   7  -1  -1   43.00   10.00
   7  -1  -1   35.10   13.10
   7  -1  -1   52.19    9.20
   7  -1  -1   67.89    8.30
   7  -1  -1   54.69   12.70
   7  -1  -1   68.49    8.50
   7  -1  -1   55.19   10.90
  -7   1   1   41.80   13.90
  -7   1   1   50.39   11.10
  -7   1   1   52.79    7.30
  -7   1   1   85.59   14.70
  -7   1   1   47.60   11.60
  -7   1   1   63.99   12.10
  -7   1   1   54.89    8.10
   6  -1  -1  397.46   23.80
   6  -1  -1  313.67   25.60
   6  -1  -1  373.06   24.60
   6  -1  -1  336.37   26.60
   6  -1  -1  321.37   27.10
   6  -1  -1  360.46   27.80
   6  -1  -1  418.76   24.10
  -6   1   1  362.76   28.40
  -6   1   1  359.06   24.20
  -6   1   1  385.96   27.40
  -6   1   1  341.47   26.60
  -6   1   1  387.26   27.80
  -6   1   1  348.57   25.50
   5  -1  -1  323.67   20.80
   5  -1  -1  298.17   22.30
   5  -1  -1  327.57   20.20
   5  -1  -1  304.57   22.60
   5  -1  -1  314.97   20.00
   5  -1  -1  316.47   22.90
   5  -1  -1  285.07   21.20
  -5   1   1  316.17   22.70
  -5   1   1  304.87   22.60
  -5   1   1  299.97   23.00
  -5   1   1  307.17   23.60
  -5   1   1  305.67   21.60
  -5   1   1  316.77   20.40
   4  -1  -1  629.54   40.90
   4  -1  -1  658.73   39.20
   4  -1  -1  674.53   41.00
   4  -1  -1  705.53   39.20
   4  -1  -1  645.14   39.70
   4  -1  -1  605.14   40.00
  -4   1   1  616.94   41.00
  -4   1   1  676.33   41.60
  -4   1   1  760.42   38.30
  -4   1   1  625.94   40.10
  -4   1   1  644.54   41.10
  -4   1   1  598.44   39.60
   3  -1  -1  951.90   58.49
   3  -1  -1  983.90   58.69
   3  -1  -1  924.11   57.99
   3  -1  -1  966.00   57.69
   3  -1  -1 1048.10   57.39
   3  -1  -1  974.20   57.39
   3  -1  -1  957.00   58.69
  -3   1   1  999.00   57.59
  -3   1   1  983.30   58.79
  -3   1   1  858.91   57.89
  -3   1   1  927.91   58.79
  -3   1   1 1080.79   57.39
  -3   1   1  944.51   58.79
  -3   1   1  979.00   59.09
  -3   1   1 1125.19   56.79
   2  -1  -1   23.30    2.70
   2  -1  -1   17.20    2.30
   2  -1  -1   15.90    2.70
   2  -1  -1   22.60    3.60
   2  -1  -1   20.10    3.10
   2  -1  -1   16.90    1.70
   2  -1  -1   15.90    3.00
  -2   1   1   16.20    3.00
  -2   1   1   19.70    3.20
  -2   1   1   11.80    3.40
  -2   1   1   18.50    2.30
  -2   1   1   18.60    2.20
  -2   1   1   14.00    2.70
  -2   1   1   19.50    3.70
   1  -1  -1  238.38   14.30
   1  -1  -1  242.68   14.40
   1  -1  -1  240.08   14.80
   1  -1  -1  239.88   14.80
   1  -1  -1  236.68   14.30
   1  -1  -1  236.18   14.70
  -1   1   1  254.87   14.90
  -1   1   1  230.78   14.40
  -1   1   1  220.08   14.80
  -1   1   1  244.18   14.50
  -1   1   1  241.78   14.30
   0  -1  -1 1676.33  104.19
   0  -1  -1 1775.22  103.89
   0  -1  -1 1913.01  104.19
   0  -1  -1 1853.11  104.09
   0   1   1 1795.92  104.09
   0   1   1 1931.31  104.19
   0   1   1 1576.24  104.19
   0   1   1 1964.40  104.29
  -1  -1  -1  960.70   58.39
  -1  -1  -1 1017.40   58.39
  -1  -1  -1 1040.60   58.29
  -1  -1  -1 1023.70   58.29
  -1  -1  -1 1073.09   59.09
  -1  -1  -1  957.00   58.49
   1   1   1  973.40   58.49
   1   1   1  987.70   58.19
   1   1   1  978.70   58.49
   1   1   1 1041.80   58.99
   1   1   1 1046.30   58.39
   1   1   1 1011.80   58.39
  -2  -1  -1 1549.14   87.39
  -2  -1  -1 1408.56   86.79
  -2  -1  -1 1510.25   87.89
  -2  -1  -1 1468.35   87.19
  -2  -1  -1 1561.34   86.89
  -2  -1  -1 1521.85   86.99
   2   1   1 1546.05   86.79
   2   1   1 1563.04   86.59
   2   1   1 1574.44   88.09
   2   1   1 1581.44   87.39
   2   1   1 1308.57   86.79
   2   1   1 1509.65   87.29
   2   1   1 1413.36   86.69
  -3  -1  -1 1083.19   57.79
  -3  -1  -1 1008.30   57.99
  -3  -1  -1  971.30   57.79
  -3  -1  -1  971.90   59.39
  -3  -1  -1 1022.80   58.79
  -3  -1  -1  977.60   58.49
  -3  -1  -1  991.70   57.69
   3   1   1 1008.20   58.79
   3   1   1  922.11   57.89
   3   1   1  952.90   57.79
   3   1   1 1012.90   57.69
   3   1   1  971.20   58.59
   3   1   1  903.01   57.99
   3   1   1 1018.00   59.59
  -4  -1  -1  723.83   42.00
  -4  -1  -1  746.23   41.70
  -4  -1  -1  745.53   43.20
  -4  -1  -1  735.33   42.10
  -4  -1  -1  694.03   41.60
  -4  -1  -1  632.84   44.00
  -4  -1  -1  691.83   44.00
   4   1   1  654.33   42.60
   4   1   1  673.73   41.90
   4   1   1  705.13   41.70
   4   1   1  716.23   44.20
   4   1   1  713.63   42.30
   4   1   1  700.73   43.10
   4   1   1  639.34   42.20
  -5  -1  -1  106.49    8.10
  -5  -1  -1  113.69    9.70
  -5  -1  -1  105.99    8.50
  -5  -1  -1   97.59   12.20
  -5  -1  -1  110.79   10.50
  -5  -1  -1  113.79    9.00
  -5  -1  -1  102.49   10.40
   5   1   1  105.19    8.50
   5   1   1  108.29   10.50
   5   1   1   99.39    9.70
   5   1   1  107.69   10.20
   5   1   1   95.69   12.80
   5   1   1  112.29   10.80
   5   1   1   85.59    9.90
   5   1   1  109.59   10.70
   5   1   1  108.09    9.00
  -6  -1  -1    0.70    3.00
  -6  -1  -1   -8.50    6.00
  -6  -1  -1    4.00    4.50
  -6  -1  -1   -0.90    5.00
  -6  -1  -1   -0.70    3.40
  -6  -1  -1    0.90    5.10
  -6  -1  -1    6.00    3.20
   6   1   1    4.20    5.30
   6   1   1    2.90    5.00
   6   1   1    0.50    2.90
   6   1   1   -2.90    4.10
   6   1   1    1.50    6.60
   6   1   1   -0.20    5.40
   6   1   1    2.70    5.40
   6   1   1    1.20    2.80
   6   1   1    2.60    7.90
  -7  -1  -1    6.30    4.40
  -7  -1  -1   -4.10    8.70
  -7  -1  -1    7.20    5.90
  -7  -1  -1    6.60    3.50
  -7  -1  -1    4.60    6.10
  -7  -1  -1   10.30    4.60
  -7  -1  -1    7.20    7.40
   7   1   1   -3.40    6.40
   7   1   1   11.00    4.40
   7   1   1   18.20    7.50
   7   1   1    6.60    9.20
   7   1   1    1.40    6.60
   7   1   1    5.30    5.80
   7   1   1    7.40    7.00
   7   1   1   10.30    4.70
   7   1   1   -0.50    6.80
  -8  -1  -1    3.20   11.80
  -8  -1  -1    2.50    6.30
  -8  -1  -1    8.10    8.90
  -8  -1  -1   -7.90    8.20
   8   1   1   -3.40    8.20
   8   1   1    3.50    8.60
   8   1   1   -4.10   15.80
   8   1   1    0.10    9.10
   8   1   1  -10.40    4.60
   8   1   1   -1.30    8.40
   8   1   1   -9.90    9.30
   8   1   1    5.90    5.30
  -9  -1  -1    2.50   16.30
  -9  -1  -1   -2.00   11.10
  -9  -1  -1   -7.40    9.40
   9   1   1   -7.20   15.10
   9   1   1   -5.20    7.20
   9   1   1    3.00   11.00
   9   1   1   -7.70   10.30
   9   1   1   -2.00   10.70
   9   1   1   -9.40    6.30
 -10  -1  -1    0.10   15.40
 -10  -1  -1   31.10   24.40
 -10  -1  -1   15.50   16.70
  10   1   1   46.50   30.00
  10   1   1   11.50   11.40
  10   1   1   -2.70    8.50
  10   1   1   -6.50   12.80
  10   1   1   31.70   14.80
   9  -2  -1   22.00   12.20
   9  -2  -1   50.59   15.80
   9  -2  -1   34.60   10.90
   9  -2  -1   22.00    8.50
  -9   2   1   45.30   18.40
  -9   2   1   10.70   15.70
  -9   2   1   24.70   17.50
  -9   2   1   32.10   23.50
   8  -2  -1    1.10   12.20
   8  -2  -1   17.30    7.80
   8  -2  -1   32.00   15.20
   8  -2  -1   20.00    7.00
   8  -2  -1    2.80    6.40
   8  -2  -1   10.70   10.90
  -8   2   1    8.80   12.30
  -8   2   1    9.70   12.80
  -8   2   1   17.50   15.10
  -8   2   1    4.70   11.80
   7  -2  -1  124.69   11.10
   7  -2  -1   99.99   12.50
   7  -2  -1  114.99   16.00
   7  -2  -1  101.39   15.30
   7  -2  -1  101.09   11.60
   7  -2  -1   91.39   13.50
  -7   2   1  106.39   11.30
  -7   2   1  106.39   13.90
  -7   2   1   83.69   13.70
  -7   2   1  101.19   16.30
  -7   2   1  122.39   17.90
  -7   2   1  104.29   14.30
   6  -2  -1   94.89   12.60
   6  -2  -1   89.49    8.90
   6  -2  -1   66.69   10.80
   6  -2  -1   75.19   12.30
   6  -2  -1   75.99    9.40
   6  -2  -1   48.00    9.00
   6  -2  -1   77.39    8.10
  -6   2   1  120.09   15.50
  -6   2   1   84.69   13.20
  -6   2   1   75.39    8.40
  -6   2   1   80.89   12.90
  -6   2   1   76.09    8.70
  -6   2   1   87.09   12.50
  -6   2   1   84.69   12.00
   5  -2  -1 1093.19   71.29
   5  -2  -1 1259.07   69.19
   5  -2  -1 1199.38   69.39
   5  -2  -1 1159.68   71.19
   5  -2  -1 1127.29   71.29
   5  -2  -1 1164.58   69.89
  -5   2   1 1192.18   72.09
  -5   2   1 1143.39   71.39
  -5   2   1 1189.78   72.49
  -5   2   1 1140.09   72.59
  -5   2   1 1208.08   69.59
  -5   2   1 1171.08   70.79
  -5   2   1 1158.28   69.09
   4  -2  -1   -1.40    2.00
   4  -2  -1    0.20    3.90
   4  -2  -1    2.80    3.40
   4  -2  -1    3.70    4.30
   4  -2  -1   -0.20    2.50
   4  -2  -1   -2.90    4.00
   4  -2  -1    0.70    1.80
  -4   2   1    2.80    5.20
  -4   2   1    4.50    3.60
  -4   2   1   -0.40    2.10
  -4   2   1    1.20    3.90
  -4   2   1    4.60    2.40
  -4   2   1    1.50    3.90
  -4   2   1    1.70    4.20
   3  -2  -1 3665.83  203.78
   3  -2  -1 3562.44  204.68
   3  -2  -1 2984.60  204.58
   3  -2  -1 3687.83  205.58
   3  -2  -1 3417.76  205.18
   3  -2  -1 3510.95  204.18
   3  -2  -1 3551.64  206.18
  -3   2   1 3602.44  205.58
  -3   2   1 3834.62  205.38
  -3   2   1 3540.45  204.98
  -3   2   1 3632.54  206.58
  -3   2   1 3552.74  205.08
  -3   2   1 3431.46  203.98
  -3   2   1 3661.83  205.38
   2  -2  -1   30.50    3.20
   2  -2  -1   28.00    2.90
   2  -2  -1   30.20    4.10
   2  -2  -1   25.70    4.00
   2  -2  -1   28.60    4.10
   2  -2  -1   29.00    3.60
  -2   2   1   26.40    4.80
  -2   2   1   23.50    3.30
  -2   2   1   20.00    3.50
  -2   2   1   29.40    4.20
  -2   2   1   27.00    3.80
  -2   2   1   24.00    2.90
  -2   2   1   34.90    4.60
   0  -2  -1  281.17   17.10
   0  -2  -1  286.47   17.10
   0  -2  -1  243.38   17.60
   0  -2  -1  298.97   17.40
   0  -2  -1  309.07   17.20
   0  -2  -1  304.87   17.30
   0  -2  -1  273.07   17.20
   0   2   1  283.27   17.10
   0   2   1  284.57   17.20
   0   2   1  235.28   17.30
   0   2   1  278.67   17.20
   0   2   1  329.27   17.30
   0   2   1  292.67   17.20
   1   2   1 7865.11  450.85
  -2  -2  -1   51.09    4.30
  -2  -2  -1   49.10    4.50
  -2  -2  -1   58.39    4.30
  -2  -2  -1   53.59    4.80
  -2  -2  -1   54.59    4.20
  -2  -2  -1   57.49    4.60
  -2  -2  -1   49.70    5.70
   2   2   1   51.29    5.60
   2   2   1   57.39    4.60
   2   2   1   48.70    4.60
   2   2   1   54.89    4.40
   2   2   1   53.99    4.20
   2   2   1   54.49    4.90
  -3  -2  -1 4749.12  290.57
  -3  -2  -1 4956.00  290.27
  -3  -2  -1 5321.67  291.27
  -3  -2  -1 5094.39  290.17
  -3  -2  -1 5046.10  291.97
   3   2   1 5080.99  290.37
   3   2   1 5139.49  291.97
   3   2   1 5071.39  290.97
   3   2   1 4841.42  290.17
   3   2   1 5125.69  291.17
   3   2   1 5174.28  290.37
  -4  -2  -1 1009.00   61.89
  -4  -2  -1  961.90   59.29
  -4  -2  -1 1054.59   60.49
  -4  -2  -1 1030.90   60.89
  -4  -2  -1  971.60   60.39
   4   2   1 1001.30   59.59
   4   2   1 1031.60   60.99
   4   2   1  956.80   59.69
   4   2   1  972.30   59.09
   4   2   1 1057.69   59.89
   4   2   1  980.00   60.59
   4   2   1 1071.59   59.59
  -5  -2  -1  426.36   26.90
  -5  -2  -1  449.95   27.40
  -5  -2  -1  408.36   28.30
  -5  -2  -1  461.75   26.50
  -5  -2  -1  373.96   26.90
  -5  -2  -1  392.76   29.70
  -5  -2  -1  447.16   28.20
   5   2   1  440.76   27.50
   5   2   1  455.15   30.40
   5   2   1  436.26   26.70
   5   2   1  426.36   28.40
   5   2   1  347.57   26.70
   5   2   1  422.36   28.50
   5   2   1  464.45   26.90
   5   2   1  419.06   26.80
  -6  -2  -1  201.98   17.20
  -6  -2  -1  179.98   19.10
  -6  -2  -1  219.18   14.50
  -6  -2  -1  195.48   16.70
  -6  -2  -1  219.38   15.90
  -6  -2  -1  213.58   14.30
  -6  -2  -1  194.98   15.10
   6   2   1  193.98   19.50
   6   2   1  208.18   17.50
   6   2   1  207.98   16.50
   6   2   1  200.58   15.30
   6   2   1  200.88   15.10
   6   2   1  204.28   14.80
   6   2   1  199.88   17.60
  -7  -2  -1  203.78   17.40
  -7  -2  -1  181.88   15.20
  -7  -2  -1  175.88   14.20
  -7  -2  -1  227.48   16.90
  -7  -2  -1  187.08   13.90
  -7  -2  -1  192.68   18.40
  -7  -2  -1  200.48   21.30
   7   2   1  173.98   15.70
   7   2   1  185.38   18.10
   7   2   1  188.88   15.10
   7   2   1  198.28   17.10
   7   2   1  191.98   14.80
   7   2   1  190.18   21.30
   7   2   1  155.98   17.90
   7   2   1  163.48   15.90
  -8  -2  -1   24.20    8.90
  -8  -2  -1   13.40    8.70
  -8  -2  -1   10.30    5.40
  -8  -2  -1   11.60   11.20
  -8  -2  -1    5.80    5.30
   8   2   1  -24.20   17.10
   8   2   1    2.80    7.10
   8   2   1   14.40    8.30
   8   2   1    5.80    7.70
   8   2   1    4.50    5.80
   8   2   1   13.70   11.10
   8   2   1   11.00    5.60
  -9  -2  -1   56.89   13.00
  -9  -2  -1   66.79   20.10
  -9  -2  -1   27.50   13.40
  -9  -2  -1   49.20   12.60
   9   2   1   36.10    9.20
   9   2   1   42.80   10.80
   9   2   1   32.90    9.10
   9   2   1   30.10   13.90
   9   2   1   32.70   10.50
 -10  -2  -1   64.19   16.40
 -10  -2  -1   11.10   21.50
 -10  -2  -1   38.00   15.60
  10   2   1   20.00   11.10
  10   2   1   37.40   10.30
  10   2   1   26.20   17.60
  10   2   1    8.80   12.00
   9  -3  -1   20.00   15.00
   9  -3  -1    7.20   11.90
   9  -3  -1   -5.00   10.10
   9  -3  -1   -9.40    8.10
  -9   3   1   14.80   18.20
  -9   3   1  -15.60   23.30
  -9   3   1    4.90   18.30
  -9   3   1    0.80   19.30
  -9   3   1    6.40   13.30
   8  -3  -1    2.60   11.90
   8  -3  -1    3.90    8.60
   8  -3  -1  -10.70   14.60
   8  -3  -1    3.20    6.60
   8  -3  -1    4.70    8.10
   8  -3  -1   -2.00   14.40
  -8   3   1  -21.60   14.70
  -8   3   1   -0.40   14.70
  -8   3   1    8.90   12.60
  -8   3   1   -2.50   17.40
  -8   3   1   16.20   13.00
   7  -3  -1   25.10    6.20
   7  -3  -1   30.10    9.90
   7  -3  -1   18.50   11.50
   7  -3  -1   30.10    7.20
   7  -3  -1   12.10    5.90
   7  -3  -1   45.30   12.40
  -7   3   1   26.90   12.60
  -7   3   1   41.90   11.50
  -7   3   1   47.70   14.10
  -7   3   1   14.40    7.50
  -7   3   1   20.10   10.20
   6  -3  -1  156.18   13.00
   6  -3  -1  150.18   13.50
   6  -3  -1  145.49   17.30
   6  -3  -1  159.78   18.00
   6  -3  -1  154.08   12.00
   6  -3  -1  137.39   17.50
   6  -3  -1  121.29   14.60
  -6   3   1  148.89   16.40
  -6   3   1  105.89   12.50
  -6   3   1  150.38   16.10
  -6   3   1  179.68   20.30
  -6   3   1  134.19   12.60
  -6   3   1  157.38   19.10
  -6   3   1  161.38   18.10
   5  -3  -1  172.08   15.70
   5  -3  -1  145.79   11.40
   5  -3  -1  116.79   14.10
   5  -3  -1  158.68   12.70
   5  -3  -1  164.28   15.00
   5  -3  -1  159.28   16.00
   5  -3  -1  141.39   12.30
  -5   3   1  156.88   15.90
  -5   3   1  162.18   14.60
  -5   3   1  191.58   14.50
  -5   3   1  164.68   18.10
  -5   3   1  144.39   12.00
  -5   3   1  189.78   16.80
  -5   3   1  164.68   14.80
   4  -3  -1  525.85   32.60
   4  -3  -1  538.45   31.90
   4  -3  -1  511.05   33.20
   4  -3  -1  494.35   33.90
   4  -3  -1  515.25   35.90
   4  -3  -1  529.45   32.70
   4  -3  -1  543.95   34.50
  -4   3   1  534.95   34.60
  -4   3   1  509.15   33.50
  -4   3   1  565.74   34.20
  -4   3   1  531.55   36.20
  -4   3   1  538.05   32.40
  -4   3   1  509.75   33.80
  -4   3   1  527.35   34.00
   3  -3  -1  251.97   16.60
   3  -3  -1  262.47   18.10
   3  -3  -1  275.47   16.30
   3  -3  -1  236.48   17.70
   3  -3  -1  284.57   17.40
   3  -3  -1  243.58   16.90
   3  -3  -1  240.18   19.70
  -3   3   1  268.27   17.50
  -3   3   1  268.27   16.60
  -3   3   1  266.97   18.30
  -3   3   1  261.57   18.10
  -3   3   1  272.67   20.10
  -3   3   1  247.78   17.90
  -3   3   1  220.88   16.90
   2  -3  -1 1961.50  115.79
   2  -3  -1 2102.89  116.19
   2  -3  -1 2066.79  116.79
   2  -3  -1 1990.00  116.69
   2  -3  -1 2153.68  115.69
   2  -3  -1 2035.90  115.39
   2  -3  -1 1997.00  118.49
  -2   3   1 1951.50  115.99
  -2   3   1 1942.41  116.29
  -2   3   1 1691.53  116.09
  -2   3   1 2002.40  118.39
  -2   3   1 2138.69  115.69
  -2   3   1 1866.01  117.89
  -2   3   1 2027.00  116.89
  -2   3   1 2111.39  116.69
   1  -3  -1  582.54   34.90
   1  -3  -1  487.35   34.90
   1  -3  -1  588.64   34.90
   1  -3  -1  586.34   34.30
   1  -3  -1  584.04   34.60
  -1   3   1  602.44   34.50
  -1   3   1  551.14   35.60
  -1   3   1  603.64   35.00
  -1   3   1  611.44   34.90
  -1   3   1  621.64   34.80
  -1   3   1  593.44   36.60
   0  -3  -1 1177.98   65.49
   0  -3  -1 1154.48   65.69
   0  -3  -1 1078.39   65.49
   0  -3  -1 1163.68   65.59
   0  -3  -1 1087.99   65.39
   0  -3  -1 1200.78   65.69
   0   3   1 1142.59   65.49
   0   3   1 1082.69   65.69
   0   3   1 1088.39   66.99
   0   3   1 1066.19   65.29
   0   3   1 1153.78   65.19
   0   3   1 1132.49   65.59
   0   3   1 1127.69   65.79
  -1  -3  -1 1765.62  107.39
  -1  -3  -1 1952.90  107.49
  -1  -3  -1 1925.81  107.89
  -1  -3  -1 1802.22  107.49
  -1  -3  -1 1839.92  108.09
  -1  -3  -1 1918.71  107.09
  -1  -3  -1 1837.82  107.39
   1   3   1 1874.21  106.99
   1   3   1 1842.22  107.39
   1   3   1 1800.52  107.59
   1   3   1 1882.81  107.39
   1   3   1 1886.81  107.39
   1   3   1 1830.72  108.19
  -2  -3  -1 4443.56  252.67
  -2  -3  -1 3966.00  253.47
  -2  -3  -1 4402.86  255.07
  -2  -3  -1 4544.35  252.77
  -2  -3  -1 4477.15  252.87
  -2  -3  -1 4574.14  253.27
   2   3   1 4358.56  252.97
   2   3   1 4388.46  253.67
   2   3   1 4495.35  252.77
   2   3   1 4383.36  252.67
   2   3   1 4724.13  253.17
   2   3   1 3843.62  253.17
   2   3   1 4644.54  252.57
   2   3   1 4333.67  253.47
  -3  -3  -1 1380.96   85.89
  -3  -3  -1 1446.66   85.49
  -3  -3  -1 1546.85   86.49
  -3  -3  -1 1417.26   87.19
  -3  -3  -1 1523.05   85.59
  -3  -3  -1 1516.85   85.49
  -3  -3  -1 1495.35   86.19
   3   3   1 1480.65   85.39
   3   3   1 1460.35   85.49
   3   3   1 1486.05   86.29
   3   3   1 1342.97   86.99
   3   3   1 1498.55   86.19
   3   3   1 1483.65   85.99
  -4  -3  -1 2999.60  165.78
  -4  -3  -1 2796.62  165.88
  -4  -3  -1 2640.34  166.38
  -4  -3  -1 2964.20  167.18
  -4  -3  -1 2764.82  168.08
   4   3   1 2779.32  164.88
   4   3   1 2812.42  166.88
   4   3   1 2941.01  167.08
   4   3   1 2967.30  165.78
   4   3   1 2933.91  166.18
   4   3   1 2946.31  168.28
   4   3   1 3034.50  166.48
   4   3   1 2707.63  165.78
  -5  -3  -1  783.62   51.99
  -5  -3  -1  791.32   48.80
  -5  -3  -1  885.71   48.90
  -5  -3  -1  821.52   50.69
  -5  -3  -1  761.52   50.09
  -5  -3  -1  778.52   49.00
  -5  -3  -1  803.62   49.70
   5   3   1  834.82   50.59
   5   3   1  823.02   47.90
   5   3   1  855.31   49.70
   5   3   1  786.42   49.00
   5   3   1  853.41   49.30
   5   3   1  858.21   49.00
   5   3   1  794.02   50.49
   5   3   1  766.42   51.69
  -6  -3  -1  828.02   52.49
  -6  -3  -1  866.61   51.79
  -6  -3  -1  851.91   50.29
  -6  -3  -1  847.62   53.09
  -6  -3  -1  795.42   54.79
  -6  -3  -1  850.61   50.59
   6   3   1  830.42   52.99
   6   3   1  778.62   54.49
   6   3   1  802.52   51.09
   6   3   1  816.42   52.89
   6   3   1  815.32   49.80
   6   3   1  866.61   51.19
   6   3   1  890.01   51.09
   6   3   1  898.01   51.89
  -7  -3  -1  299.27   22.20
  -7  -3  -1  291.17   23.20
  -7  -3  -1  326.47   24.60
  -7  -3  -1  259.27   26.70
  -7  -3  -1  289.47   20.20
  -7  -3  -1  334.27   20.50
   7   3   1  294.17   21.20
   7   3   1  335.97   22.70
   7   3   1  284.27   23.90
   7   3   1  293.37   20.00
   7   3   1  286.47   24.30
   7   3   1  277.47   27.00
   7   3   1  300.17   21.20
   7   3   1  307.87   21.40
  -8  -3  -1  155.78   18.60
  -8  -3  -1  144.09   14.70
  -8  -3  -1  122.49   19.00
  -8  -3  -1  159.78   13.10
  -8  -3  -1  114.69   16.30
   8   3   1  151.28   14.50
   8   3   1  150.38   14.70
   8   3   1  170.48   17.10
   8   3   1  174.68   20.00
   8   3   1  148.49   14.60
  -9  -3  -1  122.39   16.90
  -9  -3  -1   77.99   15.40
  -9  -3  -1  103.39   13.40
  -9  -3  -1  112.79   14.40
   9   3   1   91.09   12.60
   9   3   1  122.09   17.40
   9   3   1  115.19   15.50
   9   3   1   85.59   18.10
   9   3   1  100.09   14.10
 -10  -3  -1    8.30   13.10
 -10  -3  -1   -1.60   19.40
 -10  -3  -1   21.20   14.70
 -10  -3  -1   -7.70   13.10
  10   3   1   -6.30   10.00
  10   3   1   -7.60    9.20
  10   3   1   11.40   11.20
  10   3   1   13.30   10.30
  11   3   1   11.80   15.80
   8  -4  -1   18.30   11.20
   8  -4  -1   11.60    8.60
   8  -4  -1    4.60    6.80
   8  -4  -1   15.00   10.60
  -8   4   1  -16.80   16.10
  -8   4   1    8.80   14.00
  -8   4   1   19.90   17.40
  -8   4   1    9.90   13.20
   7  -4  -1   -1.10   10.00
   7  -4  -1    7.20    6.70
   7  -4  -1   -4.50   12.90
   7  -4  -1   -5.20    7.60
   7  -4  -1   18.00   10.90
  -7   4   1    5.40   10.50
  -7   4   1    0.60    9.60
  -7   4   1    1.90    9.80
  -7   4   1   -8.40    9.30
  -7   4   1  -15.00   13.60
   6  -4  -1   13.50    8.80
   6  -4  -1   16.00    8.30
   6  -4  -1   19.80    7.10
   6  -4  -1   27.50    9.80
   6  -4  -1   12.60    4.60
   6  -4  -1    9.10    5.20
  -6   4   1   20.00    9.40
  -6   4   1   17.10    7.70
  -6   4   1   12.70   11.80
  -6   4   1   20.70    8.70
  -6   4   1   11.50   10.00
  -6   4   1   15.10    7.70
   5  -4  -1   23.20    7.60
   5  -4  -1   26.40    4.70
   5  -4  -1   25.10    7.50
   5  -4  -1   33.70    6.20
   5  -4  -1   29.80    8.40
   5  -4  -1   35.30    7.60
   5  -4  -1   27.90    6.40
   5  -4  -1   26.40    7.00
  -5   4   1   31.30    7.20
  -5   4   1   30.70    7.40
  -5   4   1   48.60   11.80
  -5   4   1   19.80    7.60
  -5   4   1   33.40    7.70
  -5   4   1   31.10    8.80
  -5   4   1   30.90    7.90
  -5   4   1   36.30    6.40
   4  -4  -1  262.77   19.20
   4  -4  -1  249.38   18.80
   4  -4  -1  213.18   18.30
   4  -4  -1  257.57   17.50
   4  -4  -1  234.78   16.60
   4  -4  -1  241.08   15.80
   4  -4  -1  227.68   16.90
  -4   4   1  229.58   22.80
  -4   4   1  255.87   19.60
  -4   4   1  249.97   19.00
  -4   4   1  227.48   17.40
  -4   4   1  250.27   21.80
  -4   4   1  231.18   17.60
  -4   4   1  243.28   16.40
  -4   4   1  244.88   19.40
   3  -4  -1   38.20    6.80
   3  -4  -1   43.90    5.50
   3  -4  -1   48.70    5.70
   3  -4  -1   64.49    8.00
   3  -4  -1   63.79    7.10
   3  -4  -1   35.70    8.20
   3  -4  -1   56.19    7.20
  -3   4   1   55.59    7.40
  -3   4   1   42.50    6.40
  -3   4   1   52.29    6.40
  -3   4   1   43.20    8.50
  -3   4   1   58.29    8.00
  -3   4   1   57.39    5.60
  -3   4   1   62.39    8.30
   2  -4  -1  567.44   33.90
   2  -4  -1  535.95   33.50
   2  -4  -1  616.04   34.70
   2  -4  -1  569.04   34.90
   2  -4  -1  551.64   34.90
   2  -4  -1  567.24   37.50
   2  -4  -1  595.54   33.80
  -2   4   1  575.14   34.00
  -2   4   1  589.44   33.90
  -2   4   1  534.85   34.60
  -2   4   1  558.34   34.50
  -2   4   1  523.05   37.20
  -2   4   1  571.14   35.90
   1  -4  -1  544.35   37.80
   1  -4  -1  590.34   33.70
   1  -4  -1  564.24   33.00
   1  -4  -1  477.55   35.60
   1  -4  -1  492.15   33.50
   1  -4  -1  589.04   33.80
   1  -4  -1  461.35   34.20
   1  -4  -1  591.44   34.20
  -1   4   1  578.74   33.00
  -1   4   1  558.94   36.10
  -1   4   1  554.24   34.00
  -1   4   1  518.55   36.20
  -1   4   1  575.04   33.40
  -1   4   1  617.24   33.80
  -1   4   1  608.84   34.00
   0  -4  -1 2810.72  167.68
   0  -4  -1 2907.51  168.68
   0  -4  -1 2974.00  168.28
   0  -4  -1 2998.10  168.68
   0  -4  -1 2810.62  168.28
   0  -4  -1 3002.60  168.48
   0  -4  -1 3022.50  168.78
   0   4   1 2869.81  168.58
   0   4   1 2775.12  168.88
   0   4   1 2899.51  168.68
   0   4   1 2857.21  170.48
   0   4   1 3048.79  168.38
   0   4   1 3157.68  168.68
   0   4   1 2827.92  168.08
  -1  -4  -1  796.62   49.60
  -1  -4  -1  847.82   50.79
  -1  -4  -1  863.71   49.20
  -1  -4  -1  864.61   49.99
  -1  -4  -1  812.42   49.70
  -1  -4  -1  836.92   49.80
  -1  -4  -1  854.01   49.70
  -1  -4  -1  832.52   49.50
   1   4   1  873.31   49.40
   1   4   1  807.42   49.60
   1   4   1  837.22   49.40
   1   4   1  940.31   49.70
   1   4   1  845.22   49.10
   1   4   1  806.32   50.69
   1   4   1  807.42   49.50
  -2  -4  -1 3287.97  190.18
  -2  -4  -1 2850.31  189.68
  -2  -4  -1 3378.76  191.08
  -2  -4  -1 3291.77  189.68
  -2  -4  -1 3225.48  189.88
  -2  -4  -1 3518.65  190.98
  -2  -4  -1 3433.96  189.98
   2   4   1 3198.98  190.68
   2   4   1 3180.58  190.28
   2   4   1 3475.35  190.08
   2   4   1 3286.87  189.88
   2   4   1 3403.26  191.08
   2   4   1 3321.07  189.28
   2   4   1 3284.57  189.98
  -3  -4  -1  974.00   58.79
  -3  -4  -1 1023.40   58.89
  -3  -4  -1  957.10   60.79
  -3  -4  -1 1033.20   59.79
  -3  -4  -1 1004.00   59.09
  -3  -4  -1 1009.00   59.39
  -3  -4  -1 1044.30   59.99
   3   4   1  972.00   58.79
   3   4   1  969.70   60.49
   3   4   1 1059.59   58.79
   3   4   1 1047.50   59.09
   3   4   1 1009.00   59.99
   3   4   1  971.40   58.89
   3   4   1  927.31   58.99
   3   4   1  998.60   59.49
  -4  -4  -1 3290.17  190.78
  -4  -4  -1 3116.09  188.78
  -4  -4  -1 3414.96  188.18
  -4  -4  -1 3422.06  188.18
  -4  -4  -1 3254.97  189.38
  -4  -4  -1 3176.58  188.08
  -4  -4  -1 3017.10  190.28
   4   4   1 3192.88  190.38
   4   4   1 3265.77  189.18
   4   4   1 3326.27  188.28
   4   4   1 3143.19  187.88
   4   4   1 3370.06  189.18
   4   4   1 3335.47  189.08
  -5  -4  -1  391.56   26.80
  -5  -4  -1  419.86   27.50
  -5  -4  -1  389.96   25.50
  -5  -4  -1  372.56   28.90
  -5  -4  -1  406.46   26.60
  -5  -4  -1  419.96   25.40
   5   4   1  417.56   29.20
   5   4   1  429.36   26.70
   5   4   1  391.36   26.90
   5   4   1  409.26   27.10
   5   4   1  354.86   25.80
   5   4   1  393.16   25.60
   5   4   1  415.76   25.40
  -6  -4  -1 1825.52  107.49
  -6  -4  -1 1764.12  111.09
  -6  -4  -1 1825.52  106.69
  -6  -4  -1 1712.83  108.09
  -6  -4  -1 1885.01  107.09
  -6  -4  -1 1865.41  109.39
  -6  -4  -1 1798.72  108.59
   6   4   1 1761.72  108.99
   6   4   1 1866.31  108.19
   6   4   1 1805.02  107.39
   6   4   1 1807.82  108.99
   6   4   1 1937.21  107.09
   6   4   1 1775.52  110.79
   6   4   1 1899.21  107.89
  -7  -4  -1   91.69   15.80
  -7  -4  -1  109.49   12.90
  -7  -4  -1  127.49   15.30
  -7  -4  -1  111.89   11.60
  -7  -4  -1  131.59   13.60
  -7  -4  -1  132.69   11.00
  -7  -4  -1  127.59   10.70
   7   4   1  108.39   15.40
   7   4   1  121.39   14.90
   7   4   1  100.19   16.60
   7   4   1  132.39   11.50
   7   4   1  130.09   11.90
   7   4   1  118.09   11.50
   7   4   1  106.79   12.60
  -8  -4  -1  328.77   26.70
  -8  -4  -1  346.67   23.20
  -8  -4  -1  343.87   33.40
  -8  -4  -1  343.77   28.90
   8   4   1  336.47   24.80
   8   4   1  329.57   28.40
   8   4   1  364.96   24.70
   8   4   1  374.46   25.40
   8   4   1  350.36   26.50
   8   4   1  309.17   28.80
  -9  -4  -1   19.60    9.80
  -9  -4  -1   15.50   16.90
  -9  -4  -1    0.80   10.90
  -9  -4  -1   11.80    7.70
  -9  -4  -1   27.20    6.70
   9   4   1   16.90    8.30
   9   4   1    3.40    9.40
   9   4   1   27.70    8.10
 -10  -4  -1  114.39   18.50
 -10  -4  -1  159.68   27.10
 -10  -4  -1  128.29   20.00
  10   4   1  108.89   15.00
  10   4   1  140.59   16.60
  10   4   1  114.99   17.20
  10   4   1  110.59   16.00
 -11  -4  -1    0.90   24.90
  11   4   1    6.70   12.50
  11   4   1  -21.10   13.10
  11   4   1    2.80   16.20
   8  -5  -1  -15.80   13.10
   8  -5  -1   12.40   11.00
   8  -5  -1   -2.80    7.60
   8  -5  -1   -7.90    9.80
  -8   5   1    2.70   13.20
  -8   5   1   11.90   15.30
  -8   5   1  -35.80   21.70
   7  -5  -1   10.50    8.80
   7  -5  -1   42.80   11.50
   7  -5  -1    2.50    7.10
   7  -5  -1   -5.40   11.20
  -7   5   1   -2.40   10.40
  -7   5   1   13.30   11.00
  -7   5   1   25.50   15.70
  -7   5   1   20.20   15.30
  -7   5   1   17.00   12.70
   6  -5  -1   -3.60    7.20
   6  -5  -1    3.40   10.80
   6  -5  -1   11.50    9.70
   6  -5  -1    0.90    4.30
   6  -5  -1   16.70   13.10
   6  -5  -1    1.10    6.30
  -6   5   1    4.70   13.40
  -6   5   1   -2.50   10.40
  -6   5   1    0.60    7.60
  -6   5   1   -4.50    8.20
  -6   5   1   10.10    9.20
   5  -5  -1    6.80    5.60
   5  -5  -1    0.60    3.50
   5  -5  -1    6.20    5.60
   5  -5  -1   15.40    7.60
   5  -5  -1    2.80    8.70
   5  -5  -1   -3.50    6.90
   5  -5  -1    6.50    5.30
   5  -5  -1    5.90    7.20
  -5   5   1    1.20   10.80
  -5   5   1    4.50    6.30
  -5   5   1    7.50    6.30
  -5   5   1    3.60    5.50
  -5   5   1   -3.60    7.80
   4  -5  -1   33.10    7.20
   4  -5  -1   20.70    4.30
   4  -5  -1   23.20    6.60
   4  -5  -1   24.20    4.40
   4  -5  -1   23.50    6.70
   4  -5  -1   17.20    7.40
   4  -5  -1   21.40    4.90
  -4   5   1   29.00   10.30
  -4   5   1   24.80    4.80
  -4   5   1   16.00    5.50
  -4   5   1   30.00    7.90
  -4   5   1   23.30    6.50
  -4   5   1   28.80    7.90
   3  -5  -1   86.59   10.60
   3  -5  -1   72.99    7.10
   3  -5  -1   82.99   10.80
   3  -5  -1   77.49    9.50
   3  -5  -1   57.59   10.50
   3  -5  -1   92.09    8.90
  -3   5   1   70.19    7.10
  -3   5   1   55.89   10.80
  -3   5   1   62.29    6.80
  -3   5   1   45.30    8.40
  -3   5   1   58.59    8.40
  -3   5   1   53.29   11.90
   2  -5  -1   30.90    8.70
   2  -5  -1   25.50    4.00
   2  -5  -1   19.00    5.00
   2  -5  -1   23.30    4.70
   2  -5  -1   20.40    4.60
   2  -5  -1   24.90    4.90
   2  -5  -1   26.50    3.90
   2  -5  -1   22.30    3.60
  -2   5   1   26.20    4.40
  -2   5   1   29.30    9.10
  -2   5   1   26.70    4.40
  -2   5   1   25.90    6.20
  -2   5   1   26.30    6.70
  -2   5   1   25.70    4.90
  -2   5   1   24.60    3.70
   1  -5  -1  518.05   31.20
   1  -5  -1  485.55   32.10
   1  -5  -1  465.25   33.00
   1  -5  -1  513.75   32.80
   1  -5  -1  535.45   32.10
   1  -5  -1  557.14   32.30
   1  -5  -1  559.84   32.30
  -1   5   1  573.14   32.80
  -1   5   1  528.95   32.40
  -1   5   1  502.05   31.00
  -1   5   1  553.04   32.30
  -1   5   1  522.75   35.10
  -1   5   1  523.65   32.20
  -1   5   1  495.15   31.20
   0  -5  -1   16.30    3.70
   0  -5  -1   20.20    3.70
   0  -5  -1   20.40    3.80
   0  -5  -1   16.40    3.60
   0  -5  -1   18.90    2.70
   0  -5  -1   19.30    3.00
   0  -5  -1    9.50    3.30
   0   5   1   20.20    3.20
   0   5   1    9.40    4.70
   0   5   1   16.40    2.50
   0   5   1   16.40    3.60
   0   5   1   12.90    2.40
   0   5   1   17.90    3.20
   0   5   1   16.60    3.00
  -1  -5  -1 2038.90  118.49
  -1  -5  -1 2067.69  120.09
  -1  -5  -1 1717.63  118.49
  -1  -5  -1 2054.89  118.79
  -1  -5  -1 2084.79  118.79
  -1  -5  -1 2092.09  118.09
  -1  -5  -1 2098.89  118.79
  -1  -5  -1 2063.19  118.79
   1   5   1 2080.09  118.39
   1   5   1 2030.10  118.19
   1   5   1 2082.89  117.89
   1   5   1 2120.09  117.79
   1   5   1 1981.60  120.29
   1   5   1 2038.20  118.59
   1   5   1 2095.99  118.29
  -2  -5  -1   -1.70    3.50
  -2  -5  -1   -5.60    2.00
  -2  -5  -1    0.30    2.00
  -2  -5  -1   -0.30    2.10
  -2  -5  -1    0.90    2.30
  -2  -5  -1    0.80    3.00
  -2  -5  -1    3.00    2.30
   2   5   1    3.10    2.00
   2   5   1   -0.80    3.00
   2   5   1    0.80    2.20
   2   5   1    0.60    1.50
   2   5   1    1.40    3.10
   2   5   1    1.50    2.20
   2   5   1    0.20    2.20
  -3  -5  -1 2186.28  127.09
  -3  -5  -1 2207.98  129.09
  -3  -5  -1 2333.47  128.49
  -3  -5  -1 2238.08  127.39
  -3  -5  -1 2203.58  127.69
  -3  -5  -1 2078.09  127.29
  -3  -5  -1 2139.29  126.79
   3   5   1 2248.88  127.59
   3   5   1 2158.48  128.49
   3   5   1 2226.08  127.29
   3   5   1 2108.39  127.09
   3   5   1 2176.68  128.59
   3   5   1 2347.47  126.39
   3   5   1 1983.00  127.29
  -4  -5  -1    1.10    4.80
  -4  -5  -1    3.50    3.50
  -4  -5  -1    3.60    2.60
  -4  -5  -1    5.70    3.00
  -4  -5  -1    2.90    2.80
  -4  -5  -1    3.00    3.70
  -4  -5  -1   13.40    4.40
   4   5   1    1.00    2.70
   4   5   1    5.90    2.80
   4   5   1    1.80    3.40
   4   5   1    8.40    4.10
   4   5   1    1.40    5.00
   4   5   1    3.80    2.90
   4   5   1   -5.80    3.20
   4   5   1   -1.10    3.00
  -5  -5  -1 2269.47  131.69
  -5  -5  -1 2212.38  132.69
  -5  -5  -1 2215.88  132.19
  -5  -5  -1 2363.06  130.69
  -5  -5  -1 2158.38  130.59
  -5  -5  -1 2198.58  130.79
  -5  -5  -1 2202.58  134.19
   5   5   1 2203.98  130.39
   5   5   1 2333.57  131.89
   5   5   1 2060.79  130.99
   5   5   1 2304.67  132.19
   5   5   1 2296.97  130.89
   5   5   1 2310.07  132.19
   5   5   1 2249.47  133.69
  -6  -5  -1   21.60    4.50
  -6  -5  -1   23.80    5.20
  -6  -5  -1   13.70    4.90
  -6  -5  -1   15.80    7.90
  -6  -5  -1   15.00    6.80
  -6  -5  -1   22.80    7.50
  -6  -5  -1   20.00    5.30
  -6  -5  -1   16.70    7.40
   6   5   1   20.40    9.90
   6   5   1   35.70    8.00
   6   5   1   22.30    4.60
   6   5   1   28.00    6.10
   6   5   1   35.90    8.80
   6   5   1   20.30    5.90
  -7  -5  -1  820.42   47.20
  -7  -5  -1  818.32   47.70
  -7  -5  -1  801.82   54.39
  -7  -5  -1  694.43   49.10
  -7  -5  -1  722.73   49.30
  -7  -5  -1  769.02   50.49
  -7  -5  -1  738.73   49.40
   7   5   1  693.83   48.40
   7   5   1  770.92   53.19
   7   5   1  796.72   48.30
   7   5   1  821.22   47.50
   7   5   1  741.73   50.29
   7   5   1  802.32   50.19
   7   5   1  808.82   49.60
  -8  -5  -1   59.59   13.00
  -8  -5  -1   40.20    7.10
  -8  -5  -1   50.89   10.30
  -8  -5  -1   26.90   16.40
  -8  -5  -1   45.50    9.40
   8   5   1   51.59    9.70
   8   5   1   58.99   10.60
   8   5   1   47.40    9.00
   8   5   1   44.10   11.40
   8   5   1   44.10    7.80
   8   5   1   63.99   12.80
  -9  -5  -1  343.87   26.10
  -9  -5  -1  388.46   33.90
  -9  -5  -1  405.46   29.10
  -9  -5  -1  390.36   39.30
  -9  -5  -1  376.06   31.50
   9   5   1  395.46   28.00
   9   5   1  405.96   31.00
   9   5   1  373.26   30.50
   9   5   1  416.26   29.30
 -10  -5  -1  -12.90   19.30
 -10  -5  -1   23.80   14.70
 -10  -5  -1   32.20   14.60
 -10  -5  -1    7.00   10.20
  10   5   1    9.30    9.40
  10   5   1   29.10   12.50
  10   5   1    5.90   10.70
  10   5   1   -4.00   11.90
   7  -6  -1   -8.00    9.50
   7  -6  -1    1.00    6.90
   7  -6  -1  -12.60   11.50
   7  -6  -1    5.60    7.70
  -7   6   1  -17.10   10.90
  -7   6   1    8.70   20.20
  -7   6   1    4.40   12.20
   6  -6  -1    0.70    7.80
   6  -6  -1    6.60   12.80
   6  -6  -1   15.70   11.20
   6  -6  -1   -2.00    6.50
   6  -6  -1   -7.40    5.90
   6  -6  -1   10.90    6.00
  -6   6   1  -14.20   16.10
  -6   6   1   27.80   10.10
  -6   6   1    2.00    9.40
  -6   6   1   -6.80   11.10
  -6   6   1    3.30    8.00
   5  -6  -1    5.80    9.10
   5  -6  -1   -4.50    3.90
   5  -6  -1    2.00    3.70
   5  -6  -1    0.90    5.80
   5  -6  -1    1.40    8.40
   5  -6  -1    4.80    6.10
  -5   6   1   11.70    6.00
  -5   6   1    4.90    7.10
  -5   6   1    8.70    7.20
  -5   6   1   20.30   13.90
   4  -6  -1   -5.20    6.60
   4  -6  -1   16.40    7.40
   4  -6  -1    4.30    7.70
   4  -6  -1    3.20    3.70
   4  -6  -1   10.20    4.80
   4  -6  -1   -0.90    6.90
  -4   6   1    6.80    6.40
  -4   6   1    6.60    4.30
  -4   6   1    1.90   10.60
  -4   6   1   11.70    6.20
  -4   6   1   11.40    8.30
   3  -6  -1    1.50    5.80
   3  -6  -1   -7.70    4.80
   3  -6  -1    2.60    3.70
   3  -6  -1   16.20    5.90
   3  -6  -1    4.20    2.80
   3  -6  -1    0.80    5.90
   3  -6  -1   -0.10    2.90
  -3   6   1    8.70    7.70
  -3   6   1   -7.10    8.50
  -3   6   1    4.20    3.40
  -3   6   1   -4.30    5.60
  -3   6   1    3.00    4.60
  -3   6   1    5.30    4.40
  -3   6   1    8.70    4.30
   2  -6  -1    3.90    3.50
   2  -6  -1    0.30    4.30
   2  -6  -1   10.00    5.20
   2  -6  -1   10.90    4.10
   2  -6  -1    3.70    2.50
   2  -6  -1   10.00    4.70
   2  -6  -1    3.90    3.10
  -2   6   1    9.30    6.50
  -2   6   1    2.60    7.40
  -2   6   1    2.40    4.00
  -2   6   1    1.60    4.70
   1  -6  -1    3.30    2.20
   1  -6  -1    7.60    3.70
   1  -6  -1    4.10    4.10
   1  -6  -1   -9.00    4.10
   1  -6  -1    3.60    3.80
   1  -6  -1    6.50    3.80
   1  -6  -1    8.10    4.10
   1  -6  -1   11.50    4.30
  -1   6   1   15.70    6.70
  -1   6   1    6.30    4.10
  -1   6   1    5.50    3.30
  -1   6   1    6.20    3.80
  -1   6   1    5.30    3.50
   0  -6  -1   57.69    4.80
   0  -6  -1   52.29    6.60
   0  -6  -1   52.89    6.60
   0  -6  -1   50.09    7.40
   0  -6  -1   50.29    6.30
   0  -6  -1   41.20    6.10
   0  -6  -1   58.79    5.80
   0  -6  -1   40.50    7.90
   0   6   1   69.49    9.80
   0   6   1   50.19    6.70
   0   6   1   62.09    5.80
   0   6   1   54.49    6.40
   0   6   1   53.29    6.30
  -1  -6  -1   43.20    6.10
  -1  -6  -1   44.00    5.50
  -1  -6  -1   44.30    5.70
  -1  -6  -1   41.50    4.70
  -1  -6  -1   46.80    5.60
  -1  -6  -1   41.40    6.70
  -1  -6  -1   33.40    6.50
  -1  -6  -1   42.70    5.70
  -1  -6  -1   43.20    5.30
   1   6   1   30.20    4.80
   1   6   1   32.00    4.50
   1   6   1   33.60    4.80
   1   6   1   42.70    7.80
   1   6   1   39.60    4.80
  -2  -6  -1  235.58   16.30
  -2  -6  -1  242.68   16.30
  -2  -6  -1  241.88   15.90
  -2  -6  -1  230.58   15.50
  -2  -6  -1  243.18   17.90
  -2  -6  -1  226.68   15.80
  -2  -6  -1  236.08   17.40
   2   6   1  221.38   17.80
   2   6   1  221.88   15.60
   2   6   1  246.88   15.40
   2   6   1  228.38   15.70
   2   6   1  228.98   16.60
  -3  -6  -1  300.17   21.10
  -3  -6  -1  329.27   22.60
  -3  -6  -1  322.77   20.10
  -3  -6  -1  298.57   21.00
  -3  -6  -1  301.17   23.30
  -3  -6  -1  335.47   21.00
  -3  -6  -1  316.57   20.80
   3   6   1  318.47   20.70
   3   6   1  317.07   21.30
   3   6   1  330.47   21.90
   3   6   1  316.57   19.30
   3   6   1  293.27   20.00
   3   6   1  321.97   20.90
  -4  -6  -1  782.72   49.10
  -4  -6  -1  836.42   48.30
  -4  -6  -1  771.22   51.29
  -4  -6  -1  781.32   47.80
  -4  -6  -1  836.62   50.09
  -4  -6  -1  796.72   48.60
  -4  -6  -1  830.72   48.20
   4   6   1  791.42   50.19
   4   6   1  785.62   48.30
   4   6   1  771.42   48.80
   4   6   1  786.42   48.30
   4   6   1  807.62   47.10
   4   6   1  770.02   50.39
  -5  -6  -1  155.98   14.80
  -5  -6  -1  171.08   13.00
  -5  -6  -1  174.98   13.40
  -5  -6  -1  174.98   13.20
  -5  -6  -1  181.38   18.80
  -5  -6  -1  176.58   16.00
  -5  -6  -1  160.58   14.00
   5   6   1  183.78   12.00
   5   6   1  189.08   18.40
   5   6   1  170.48   13.60
   5   6   1  185.08   12.70
   5   6   1  188.48   15.90
   5   6   1  177.38   13.60
   5   6   1  165.38   14.40
   5   6   1  159.88   14.70
  -6  -6  -1  507.75   38.40
  -6  -6  -1  532.15   37.00
  -6  -6  -1  546.45   36.20
  -6  -6  -1  584.44   34.90
  -6  -6  -1  535.85   40.10
  -6  -6  -1  528.65   34.80
   6   6   1  547.95   35.30
   6   6   1  557.84   40.20
   6   6   1  544.45   34.60
   6   6   1  566.44   37.20
   6   6   1  589.94   35.40
   6   6   1  561.74   35.40
   6   6   1  559.14   36.50
   6   6   1  563.34   37.20
  -7  -6  -1  239.48   17.40
  -7  -6  -1  232.68   21.20
  -7  -6  -1  219.28   19.10
  -7  -6  -1  232.18   25.80
  -7  -6  -1  217.28   17.10
  -7  -6  -1  165.38   21.80
  -7  -6  -1  227.08   17.80
  -7  -6  -1  252.07   25.00
   7   6   1  242.08   27.10
   7   6   1  231.78   20.20
   7   6   1  243.28   20.90
   7   6   1  240.68   18.00
   7   6   1  209.38   18.30
   7   6   1  207.38   20.90
   7   6   1  223.58   17.00
  -8  -6  -1  314.77   24.30
  -8  -6  -1  316.17   26.70
  -8  -6  -1  346.57   29.10
  -8  -6  -1  352.96   22.70
  -8  -6  -1  358.26   35.10
   8   6   1  326.97   24.40
   8   6   1  347.97   27.80
   8   6   1  354.36   27.00
   8   6   1  320.87   23.50
   8   6   1  258.17   25.30
  -9  -6  -1   61.09   11.50
  -9  -6  -1   51.49    8.40
  -9  -6  -1   87.69   14.90
  -9  -6  -1   56.09   20.00
  -9  -6  -1   70.49   14.30
   9   6   1   63.39   10.00
   9   6   1   60.99   10.50
   9   6   1   61.19   11.90
   9   6   1   60.39   14.20
 -10  -6  -1  106.89   19.40
 -10  -6  -1   46.00   12.20
 -10  -6  -1   84.49   17.30
 -10  -6  -1   88.69   23.80
  10   6   1   87.79   14.90
  10   6   1   56.99   15.60
  10   6   1   92.79   12.30
  10   6   1   68.29   16.90
   6  -7  -1    0.20   10.80
   6  -7  -1    4.90    9.30
   6  -7  -1  -10.00    7.80
   6  -7  -1   -3.70    6.50
  -6   7   1   -2.60   11.50
  -6   7   1   14.50   17.40
  -6   7   1   -4.00    9.30
   5  -7  -1   27.30    7.70
   5  -7  -1   25.80   11.90
   5  -7  -1   20.60    5.50
   5  -7  -1   17.60    7.40
   5  -7  -1   25.40   11.00
  -5   7   1   26.00   17.20
  -5   7   1   29.20   11.90
  -5   7   1   31.60   10.50
   4  -7  -1    8.90    4.30
   4  -7  -1    7.00    7.70
   4  -7  -1    0.70    9.10
   4  -7  -1    2.20    5.30
   4  -7  -1   20.30    9.40
  -4   7   1   39.20   15.90
  -4   7   1   13.80    8.60
  -4   7   1   12.90    8.60
   3  -7  -1   57.49   10.80
   3  -7  -1   62.49    9.80
   3  -7  -1   62.79    8.10
   3  -7  -1   45.90    9.10
   3  -7  -1   73.59    8.60
   3  -7  -1   70.89    7.40
  -3   7   1   96.19   12.20
  -3   7   1   71.09   10.80
  -3   7   1   57.39   14.60
   2  -7  -1   12.00    6.40
   2  -7  -1    4.00    3.30
   2  -7  -1    2.80    4.20
   2  -7  -1   -2.30    4.70
   2  -7  -1    2.60    5.30
   2  -7  -1    5.00    3.90
   2  -7  -1   -2.20    6.00
  -2   7   1    0.10    5.60
  -2   7   1    9.50    5.30
  -2   7   1    0.30    9.60
  -2   7   1    0.90    5.30
   1  -7  -1   91.39   10.10
   1  -7  -1  109.99   11.80
   1  -7  -1   96.89   10.20
   1  -7  -1   91.19   12.00
   1  -7  -1   92.09    7.60
   1  -7  -1   79.09    9.20
   1  -7  -1   80.39   10.30
   1  -7  -1   70.89    9.50
  -1   7   1   90.99   10.30
  -1   7   1   70.89   12.30
  -1   7   1   85.29    9.60
  -1   7   1  103.09    8.50
  -1   7   1   81.49   10.40
   0  -7  -1   -1.00    4.40
   0  -7  -1    2.10    2.20
   0  -7  -1    3.40    3.10
   0  -7  -1    6.60    4.30
   0  -7  -1    5.40    4.30
   0  -7  -1    9.40    6.40
   0  -7  -1   -3.40    5.00
   0  -7  -1    4.00    4.20
   0   7   1    1.80    3.20
   0   7   1   -0.10    7.10
   0   7   1   -3.50    3.70
   0   7   1    6.00    3.40
  -1  -7  -1   88.09    9.10
  -1  -7  -1   80.99   11.30
  -1  -7  -1  105.69    8.90
  -1  -7  -1   94.19    8.90
  -1  -7  -1   84.99    8.90
  -1  -7  -1   99.29    7.70
  -1  -7  -1   90.89   11.60
  -1  -7  -1   90.59    9.50
   1   7   1   93.39    8.70
   1   7   1   72.09   11.10
   1   7   1   77.79    7.80
   1   7   1   95.69    8.30
  -2  -7  -1    8.70    4.20
  -2  -7  -1    2.60    4.00
  -2  -7  -1    6.20    3.90
  -2  -7  -1   -3.10    3.50
  -2  -7  -1    2.60    5.50
  -2  -7  -1    2.90    4.90
  -2  -7  -1   -2.90    2.90
   2   7   1   -0.50    3.30
   2   7   1    6.40    6.10
   2   7   1   16.30    4.40
   2   7   1    5.40    3.20
   2   7   1    3.20    2.90
  -3  -7  -1    2.30    4.30
  -3  -7  -1    8.60    3.90
  -3  -7  -1    1.50    6.10
  -3  -7  -1   17.40    6.10
  -3  -7  -1   -0.70    4.20
  -3  -7  -1    4.30    4.20
  -3  -7  -1    1.70    4.00
  -3  -7  -1    9.80    3.20
   3   7   1    5.20    5.90
   3   7   1    5.60    3.50
   3   7   1    8.50    3.40
   3   7   1    8.10    4.40
   3   7   1    5.60    5.60
  -4  -7  -1    4.50    4.20
  -4  -7  -1   12.60    6.00
  -4  -7  -1   -9.20    6.50
  -4  -7  -1    5.10    4.30
  -4  -7  -1    2.50    4.00
  -4  -7  -1    7.00    5.00
  -4  -7  -1    6.80    3.30
   4   7   1   15.70    5.20
   4   7   1    9.30    6.70
   4   7   1    7.60    2.60
   4   7   1    9.40    6.10
   4   7   1    7.10    4.10
   4   7   1    2.40    5.20
   4   7   1    1.50    3.80
   4   7   1    2.20    4.50
  -5  -7  -1   19.30    6.00
  -5  -7  -1   21.80    5.20
  -5  -7  -1   26.60    5.40
  -5  -7  -1   13.90    9.50
  -5  -7  -1   20.40    7.80
  -5  -7  -1   32.40    6.90
  -5  -7  -1   23.40    4.90
   5   7   1   10.70    5.70
   5   7   1   30.30    9.60
   5   7   1   30.00    6.20
   5   7   1   28.30    6.60
   5   7   1   27.40    5.40
   5   7   1   26.40    4.30
   5   7   1   19.40    7.00
   5   7   1   22.10    7.00
  -6  -7  -1   36.70   13.00
  -6  -7  -1   42.50    8.00
  -6  -7  -1   43.70    6.80
  -6  -7  -1   43.50    8.20
  -6  -7  -1   49.70    9.80
  -6  -7  -1   40.50   11.50
  -6  -7  -1   62.79    8.20
   6   7   1   57.99    6.90
   6   7   1   49.30    8.70
   6   7   1   43.70    7.30
   6   7   1   45.90   12.50
   6   7   1   49.30    9.90
   6   7   1   53.69   10.40
   6   7   1   54.19    7.80
  -7  -7  -1   74.49   10.90
  -7  -7  -1   80.09   10.50
  -7  -7  -1   87.29   13.80
  -7  -7  -1  105.09   18.80
  -7  -7  -1   94.89   11.50
  -7  -7  -1   72.29   15.70
  -7  -7  -1   82.59   14.50
   7   7   1   82.69   10.80
   7   7   1  103.29   12.90
   7   7   1   78.49   10.90
   7   7   1   82.19   12.70
  -8  -7  -1  116.19   15.50
  -8  -7  -1   81.89   10.40
  -8  -7  -1  125.99   24.30
  -8  -7  -1   93.99   15.10
  -8  -7  -1   86.79   12.80
   8   7   1   67.39   11.30
   8   7   1  111.19   15.80
   8   7   1   86.99   11.80
   8   7   1  104.79   13.10
   8   7   1   91.69   14.50
   8   7   1   93.59   11.90
  -9  -7  -1   32.40   13.80
  -9  -7  -1   13.70   18.90
  -9  -7  -1   36.30    7.80
  -9  -7  -1   33.50   11.10
  -9  -7  -1   31.80   10.10
   9   7   1   28.30   10.60
   9   7   1    4.50    8.20
   9   7   1   37.50   10.30
   9   7   1   26.20   11.80
   9   7   1   20.40   11.10
 -10  -7  -1   26.10   16.30
 -10  -7  -1   24.00   13.60
 -10  -7  -1   36.40   23.10
  10   7   1   15.70   13.90
  10   7   1   16.60    9.80
  10   7   1   39.80   13.70
  10   7   1    9.90   12.50
   5  -8  -1   31.50    9.00
   5  -8  -1   11.80   12.60
   5  -8  -1   27.10    8.90
   5  -8  -1    4.80    7.60
  -5   8   1    4.30   11.80
  -5   8   1    9.70   21.60
   4  -8  -1   -5.70    5.80
   4  -8  -1   -2.80    9.40
   4  -8  -1    6.20    7.80
   4  -8  -1   -1.70    9.70
   4  -8  -1    5.00    5.10
  -4   8   1  -15.40   11.90
  -4   8   1   -5.30   10.30
  -4   8   1  -19.30   14.60
   3  -8  -1   19.80    9.10
   3  -8  -1   33.20   10.10
   3  -8  -1   28.70    9.00
   3  -8  -1   14.00    5.10
  -3   8   1   29.00    9.20
  -3   8   1   20.90    9.50
   2  -8  -1    6.80    4.40
   2  -8  -1    9.50    6.40
   2  -8  -1    1.60    7.60
   2  -8  -1   17.30    7.00
   2  -8  -1    2.10    6.70
   2  -8  -1    6.80    4.40
  -2   8   1   15.80    7.50
  -2   8   1   -3.30   11.00
  -2   8   1    0.80    6.60
   1  -8  -1  136.79   10.50
   1  -8  -1  127.99   17.90
   1  -8  -1  114.39   16.00
   1  -8  -1  139.59   12.90
   1  -8  -1  130.49   14.00
   1  -8  -1  163.28   15.00
   1  -8  -1  116.89   11.80
  -1   8   1  140.29   20.10
  -1   8   1  110.19   11.00
  -1   8   1  156.48   14.40
  -1   8   1  123.99   12.90
   0  -8  -1   78.49    9.30
   0  -8  -1   70.29   10.70
   0  -8  -1   80.29    9.70
   0  -8  -1   72.29    6.50
   0  -8  -1   68.79   11.20
   0  -8  -1   63.49   12.00
   0  -8  -1   79.09   10.40
   0  -8  -1   54.89    9.40
   0  -8  -1   64.39    8.40
   0   8   1   90.89   15.10
   0   8   1   73.99    9.40
   0   8   1   67.29    9.60
   0   8   1   78.99    7.90
  -1  -8  -1  164.98   17.90
  -1  -8  -1  191.68   15.50
  -1  -8  -1  175.08   13.50
  -1  -8  -1  191.98   12.90
  -1  -8  -1  186.58   14.80
  -1  -8  -1  174.28   13.90
  -1  -8  -1  172.38   15.30
  -1  -8  -1  206.48   17.80
  -1  -8  -1  215.28   14.30
   1   8   1  161.38   19.70
   1   8   1  195.18   13.40
   1   8   1  196.68   14.70
   1   8   1  184.28   14.20
  -2  -8  -1   48.90    8.10
  -2  -8  -1   62.69    9.60
  -2  -8  -1   63.39    8.30
  -2  -8  -1   59.99    8.10
  -2  -8  -1   50.59    6.90
  -2  -8  -1   58.69   10.60
   2   8   1   60.69    7.50
   2   8   1   50.39    7.30
   2   8   1   57.39    7.40
   2   8   1   56.39    7.70
   2   8   1   68.09   11.30
  -3  -8  -1   38.20    9.10
  -3  -8  -1   18.00    6.20
  -3  -8  -1   23.30    8.30
  -3  -8  -1   26.40    7.60
  -3  -8  -1   25.70    6.00
  -3  -8  -1   15.70    6.10
  -3  -8  -1   26.10    6.60
  -3  -8  -1   13.70    5.40
  -3  -8  -1   23.10    4.50
   3   8   1   18.80    5.80
   3   8   1   24.50    6.90
   3   8   1   24.90    4.80
   3   8   1   13.90    5.60
   3   8   1   28.80    8.70
  -4  -8  -1   22.00    4.80
  -4  -8  -1   20.00    7.20
  -4  -8  -1   28.10    9.50
  -4  -8  -1   32.60    8.90
  -4  -8  -1   19.60    6.00
  -4  -8  -1   22.50    6.50
  -4  -8  -1   28.70    6.40
  -4  -8  -1   36.60    6.80
   4   8   1   28.90    7.00
   4   8   1   24.20    6.10
   4   8   1   29.20    8.10
   4   8   1   31.90    6.10
   4   8   1   29.90    8.20
  -5  -8  -1   32.50   11.20
  -5  -8  -1   24.20    6.10
  -5  -8  -1   36.10    7.00
  -5  -8  -1   30.60    6.90
  -5  -8  -1   24.00    5.30
  -5  -8  -1   17.30    7.30
  -5  -8  -1    2.50    8.00
   5   8   1   23.70    7.20
   5   8   1   14.20    5.40
   5   8   1   13.10    5.80
   5   8   1   13.90   11.20
   5   8   1   34.40    9.30
   5   8   1   21.80   10.50
   5   8   1   17.40    8.20
   5   8   1   30.00    4.40
  -6  -8  -1   77.69   11.10
  -6  -8  -1   70.79    9.50
  -6  -8  -1   56.19   10.90
  -6  -8  -1   59.19   13.60
  -6  -8  -1   74.99    9.40
  -6  -8  -1  100.59   17.20
  -6  -8  -1   71.39    9.00
   6   8   1   80.39    8.20
   6   8   1   66.09    7.90
   6   8   1   69.79   12.20
   6   8   1   62.19   14.30
   6   8   1   54.69    9.20
   6   8   1   70.19   10.40
  -7  -8  -1    3.50    5.50
  -7  -8  -1    3.20   15.20
  -7  -8  -1    0.20    9.20
  -7  -8  -1    3.90    7.90
  -7  -8  -1   -4.40    7.80
   7   8   1    9.80    9.70
   7   8   1   -9.20    4.60
   7   8   1   -7.40    7.20
   7   8   1    1.90    9.10
   7   8   1    6.00    6.80
  -8  -8  -1    8.50   13.00
  -8  -8  -1   -2.20    7.90
  -8  -8  -1   -8.00    7.80
  -8  -8  -1   14.40   17.40
  -8  -8  -1   -4.60    6.40
   8   8   1   22.60   11.50
   8   8   1    4.00   10.40
   8   8   1   -3.30    5.80
   8   8   1    0.50    8.90
   8   8   1   -0.60    7.90
  -9  -8  -1   12.90   11.80
  -9  -8  -1  -19.60   19.10
  -9  -8  -1   -8.90    7.60
  -9  -8  -1   -4.40   13.30
   9   8   1   -3.10    8.60
   9   8   1   -1.50    9.70
   9   8   1  -27.70   11.90
 -10  -8  -1   10.30   14.00
 -10  -8  -1    9.40   22.60
 -10  -8  -1  -14.80   16.30
  10   8   1   23.20   12.50
  10   8   1    5.10   11.50
  10   8   1  -12.20   14.70
   4  -9  -1   26.30    9.10
   4  -9  -1   12.50    6.30
   4  -9  -1   21.90   12.30
   4  -9  -1   14.70    8.20
  -4   9   1   40.80   14.50
  -4   9   1   34.80   19.90
   3  -9  -1   13.30    9.10
   3  -9  -1  -13.10   10.60
   3  -9  -1   -2.70    6.30
   3  -9  -1  -13.30    9.00
  -3   9   1    9.40   11.00
  -3   9   1   -0.10   10.70
  -3   9   1  -42.70   15.70
   2  -9  -1   82.79   12.00
   2  -9  -1  122.29   11.70
   2  -9  -1   93.79   13.50
   2  -9  -1  112.79   11.00
   2  -9  -1  145.49   17.20
   2  -9  -1   73.49   12.10
  -2   9   1  101.59   12.70
  -2   9   1  127.29   16.80
  -2   9   1   85.59   20.00
   1  -9  -1    7.10    4.40
   1  -9  -1    1.90    6.00
   1  -9  -1    6.30    7.90
   1  -9  -1   -2.00    6.30
   1  -9  -1   19.40    7.30
   1  -9  -1   -2.20    8.70
  -1   9   1    6.60    6.90
  -1   9   1   18.50   12.70
   0  -9  -1  141.49   15.10
   0  -9  -1  142.29   11.10
   0  -9  -1  140.89   17.00
   0  -9  -1  170.68   18.30
   0  -9  -1  161.98   15.30
   0  -9  -1  156.78   13.20
   0   9   1  159.18   21.40
   0   9   1  115.09   13.90
   0   9   1  133.19   12.20
   0   9   1  151.58   14.20
  -1  -9  -1   40.50    9.30
  -1  -9  -1   38.60    9.70
  -1  -9  -1   54.19    7.00
  -1  -9  -1   39.80    8.30
  -1  -9  -1   34.10    5.80
  -1  -9  -1   37.00    6.30
  -1  -9  -1   49.60    5.90
   1   9   1   38.20    6.70
   1   9   1   40.80    6.50
   1   9   1   25.10   12.00
  -2  -9  -1  298.47   21.40
  -2  -9  -1  309.97   20.10
  -2  -9  -1  275.17   19.70
  -2  -9  -1  302.87   25.70
  -2  -9  -1  303.47   22.30
   2   9   1  315.27   20.50
   2   9   1  296.47   20.40
   2   9   1  272.07   26.90
   2   9   1  293.07   21.40
  -3  -9  -1  300.87   20.50
  -3  -9  -1  308.57   22.40
  -3  -9  -1  313.67   22.10
  -3  -9  -1  295.47   22.20
  -3  -9  -1  289.57   23.10
  -3  -9  -1  311.67   25.10
   3   9   1  290.17   21.60
   3   9   1  333.57   26.60
   3   9   1  292.77   20.40
   3   9   1  303.77   21.80
   3   9   1  314.27   22.40
  -4  -9  -1  212.98   18.60
  -4  -9  -1  172.28   17.10
  -4  -9  -1  209.88   15.50
  -4  -9  -1  188.58   23.20
  -4  -9  -1  214.58   17.10
  -4  -9  -1  221.08   18.40
   4   9   1  222.78   20.70
   4   9   1  209.38   16.70
   4   9   1  225.78   20.80
   4   9   1  225.18   16.00
  -5  -9  -1   92.59   10.20
  -5  -9  -1   73.09   12.10
  -5  -9  -1   85.79   11.10
  -5  -9  -1   98.29   12.40
  -5  -9  -1   92.09   11.30
  -5  -9  -1  100.09   16.20
   5   9   1  106.99   13.30
   5   9   1   58.79   13.60
   5   9   1   86.59   12.30
   5   9   1  101.79   11.70
  -6  -9  -1  132.59   20.10
  -6  -9  -1  109.19   14.50
  -6  -9  -1  122.59   15.60
  -6  -9  -1  116.19   13.40
   6   9   1  107.79   16.50
   6   9   1  109.49   15.90
   6   9   1  119.19   10.10
   6   9   1  121.29   12.50
   6   9   1  114.09   14.10
   6   9   1  101.69   17.50
  -7  -9  -1   63.29   19.10
  -7  -9  -1   38.70   10.20
  -7  -9  -1   47.70    8.50
  -7  -9  -1   52.89   12.20
  -7  -9  -1   59.29   11.20
   7   9   1   51.39   10.50
   7   9   1   54.69    7.20
   7   9   1   48.00   10.00
  -8  -9  -1    6.90   10.30
  -8  -9  -1   12.00    9.50
  -8  -9  -1   21.60   12.40
  -8  -9  -1   30.30   19.40
   8   9   1  -14.40   11.90
   8   9   1    5.30    9.10
   8   9   1    7.90   10.50
   8   9   1   -3.90   11.80
   8   9   1    4.00    5.80
  -9  -9  -1   13.90   24.70
  -9  -9  -1    9.90   14.90
  -9  -9  -1  -11.10   10.80
   9   9   1   20.00   14.10
   9   9   1   26.50    9.00
   9   9   1   10.30   11.10
   3 -10  -1   -4.40   14.10
   3 -10  -1   -7.00    7.50
  -3  10   1   -8.80   21.60
  -3  10   1    5.40   14.90
   2 -10  -1   16.10   11.10
   2 -10  -1   19.30    6.50
   2 -10  -1   12.50   11.50
   2 -10  -1   21.50    6.30
  -2  10   1   14.20   12.40
  -2  10   1  -10.60   19.70
   1 -10  -1   12.20   10.40
   1 -10  -1   -5.80    9.50
   1 -10  -1   -4.80    8.00
   1 -10  -1    0.00    5.10
   1 -10  -1    1.70    9.60
   1 -10  -1    5.10    7.20
  -1  10   1    3.50   16.40
   0 -10  -1   29.10    9.30
   0 -10  -1   21.60    8.60
   0 -10  -1   23.50   11.50
   0 -10  -1   22.80    5.50
   0 -10  -1   26.30   10.70
   0 -10  -1    6.20    7.30
   0  10   1   36.00   16.50
   0  10   1   17.50    8.80
  -1 -10  -1   64.39   13.40
  -1 -10  -1   66.09    9.40
  -1 -10  -1   75.69    8.80
  -1 -10  -1   69.39   10.60
  -1 -10  -1   45.60    8.70
   1  10   1   55.89   10.10
   1  10   1   60.39   16.20
  -2 -10  -1   96.69   11.90
  -2 -10  -1   78.09   10.50
  -2 -10  -1   83.99   11.60
  -2 -10  -1   85.59   10.40
  -2 -10  -1   84.09    9.30
  -2 -10  -1  138.29   18.30
   2  10   1   88.19   11.50
   2  10   1   85.89   17.10
  -3 -10  -1   58.29   11.40
  -3 -10  -1   75.39   10.80
  -3 -10  -1   58.69   14.90
  -3 -10  -1   69.59   10.80
  -3 -10  -1   77.79   10.20
  -3 -10  -1   67.29    8.30
  -3 -10  -1   60.59   12.00
   3  10   1   61.99    8.40
   3  10   1   71.69   14.90
   3  10   1   76.99   13.80
  -4 -10  -1  -12.20    6.90
  -4 -10  -1   16.90    8.00
  -4 -10  -1   12.00    8.30
  -4 -10  -1   -7.00   10.70
  -4 -10  -1    1.80    5.00
   4  10   1    8.30    5.70
   4  10   1   -6.20   10.70
   4  10   1   -0.80    8.80
  -5 -10  -1  119.99   19.60
  -5 -10  -1  125.59   15.50
  -5 -10  -1   85.99   12.60
  -5 -10  -1  111.59   14.20
  -5 -10  -1  112.49   14.00
  -5 -10  -1  121.69   12.50
   5  10   1  139.69   17.60
   5  10   1  143.29   13.90
   5  10   1  130.09   14.40
   5  10   1  140.99   19.10
  -6 -10  -1  127.39   17.30
  -6 -10  -1  122.09   21.50
  -6 -10  -1  125.79   13.20
  -6 -10  -1  108.29   14.10
  -6 -10  -1  158.88   19.40
   6  10   1  149.88   18.50
   6  10   1  149.49   15.90
   6  10   1  138.69   17.90
  -7 -10  -1   15.30   10.90
  -7 -10  -1   46.90   11.70
  -7 -10  -1   43.60   13.20
   7  10   1   26.40   10.20
  -8 -10  -1   79.59   15.00
  -8 -10  -1   84.39   17.90
  -8 -10  -1   76.59   25.30
   8  10   1   73.49    9.10
   8  10   1   94.39   20.00
   8  10   1   85.69   14.80
   2 -11  -1  -19.90   13.40
   2 -11  -1    2.40    7.60
  -2  11   1    6.90   23.60
   1 -11  -1   33.70   16.80
   1 -11  -1   26.30    7.40
   1 -11  -1    7.30    8.10
   1 -11  -1   16.10   12.90
  -1  11   1   30.60   25.00
   0 -11  -1   -6.80    7.70
   0 -11  -1   27.00   12.60
   0 -11  -1   -3.50    5.50
   0 -11  -1   16.70   10.30
   0 -11  -1    2.40    9.30
   0  11   1  -16.00   22.50
  -1 -11  -1   50.39    6.90
  -1 -11  -1   47.30   13.00
  -1 -11  -1   63.89   11.60
   1  11   1   41.90   21.90
   1  11   1   53.89   11.10
  -2 -11  -1   -3.60    8.50
  -2 -11  -1    1.20    4.70
  -2 -11  -1   -1.80    6.50
  -2 -11  -1   11.00   12.70
  -2 -11  -1   -7.30    9.40
   2  11   1    4.80    8.40
   2  11   1   16.50   17.90
  -3 -11  -1  116.49   13.30
  -3 -11  -1   97.69   14.20
  -3 -11  -1  131.19   12.50
  -3 -11  -1  126.29   19.10
  -3 -11  -1   97.19   15.40
  -3 -11  -1  128.29   17.50
   3  11   1   88.09   12.80
   3  11   1  134.89   20.50
  -4 -11  -1  -19.50    8.90
  -4 -11  -1   15.00    9.80
  -4 -11  -1   -4.30   12.30
  -4 -11  -1    0.50   10.30
  -4 -11  -1   -5.20    8.60
   4  11   1   -8.50    7.70
   4  11   1   -8.00    7.40
   4  11   1    3.80   13.50
  -5 -11  -1  238.88   30.30
  -5 -11  -1  202.78   18.30
  -5 -11  -1  264.47   24.70
  -5 -11  -1  254.77   22.30
   5  11   1  222.78   21.80
   5  11   1  206.08   26.50
   5  11   1  239.48   27.40
  -6 -11  -1  -12.20   12.00
  -6 -11  -1   13.50   10.40
  -6 -11  -1    6.00   18.60
   6  11   1   -6.80    7.60
   6  11   1   14.20   12.60
  -7 -11  -1  138.69   25.40
  -7 -11  -1  122.09   19.30
  -7 -11  -1  114.29   17.50
   7  11   1  155.18   19.10
  -1 -12  -1   10.00   12.50
  -1 -12  -1    2.50    6.20
  -1 -12  -1    8.40   15.70
   1  12   1    7.60   11.10
   1  12   1   -1.50   26.10
  -2 -12  -1    4.50    9.60
  -2 -12  -1    4.10   14.10
  -2 -12  -1   13.50    5.80
  -2 -12  -1    6.90   12.20
   2  12   1   31.80   23.00
   2  12   1    7.70   10.20
  -3 -12  -1   33.60   13.80
  -3 -12  -1   30.40    7.00
  -3 -12  -1   18.50   15.80
   3  12   1   16.00   10.20
   3  12   1   58.59   22.00
  -4 -12  -1   12.70   12.40
  -4 -12  -1   36.10   17.50
  -4 -12  -1   28.30   17.00
  -4 -12  -1   30.30    8.70
   4  12   1   27.10   10.70
   4  12   1   43.60   19.60
  -5 -12  -1    1.70   11.40
  -5 -12  -1   34.10   18.00
  -5 -12  -1    2.80   13.80
   5  12   1    5.40   18.40
   5  12   1   11.50   10.60
   6  12   1   50.49   12.90
   6  11  -2   61.69   13.10
  -6 -11   2   74.29   17.70
  -6 -11   2   59.79   11.60
  -6 -11   2   29.20   23.80
   5  11  -2    6.00   10.30
  -5 -11   2   -3.70    7.90
  -5 -11   2    2.30   18.20
  -5 -11   2    4.40    6.10
  -5 -11   2    5.00   13.30
   4  11  -2   30.80   10.40
  -4 -11   2   45.80    7.70
  -4 -11   2   52.79    6.70
  -4 -11   2   28.70   12.20
  -4 -11   2   59.99   18.50
   3  11  -2   20.10    9.90
  -3 -11   2    8.60   12.20
  -3 -11   2   13.10   14.20
  -3 -11   2   26.00   16.30
  -3 -11   2   19.40   10.60
   2  11  -2   60.99   21.50
   2  11  -2   30.90   10.60
  -2 -11   2   10.80   14.00
  -2 -11   2   30.50   12.40
  -2 -11   2   42.00   10.10
   1  11  -2    0.80   21.90
  -1 -11   2   23.20   12.90
  -1 -11   2    5.20    7.90
  -1 -11   2  -11.30   10.00
   0  11  -2   43.00   26.40
   0 -11   2    5.90    8.90
   0 -11   2  -12.30   10.10
  -1  11  -2   11.70   25.40
   1 -11   2   -7.20    9.30
   1 -11   2    4.50   11.40
   8  10  -2   50.69   13.00
   8  10  -2   43.60   20.60
  -8 -10   2   70.99   15.20
  -8 -10   2   -0.60   22.30
   7  10  -2  157.38   18.20
   7  10  -2  100.49   22.40
  -7 -10   2  148.29   27.20
  -7 -10   2  121.09   16.90
  -7 -10   2  161.38   21.70
   6  10  -2  124.29   16.10
   6  10  -2  108.79   22.70
  -6 -10   2  128.99   18.30
  -6 -10   2  127.99   13.80
  -6 -10   2  143.99   15.90
  -6 -10   2   95.49   14.00
  -6 -10   2  116.29   28.60
   5  10  -2  178.98   25.20
   5  10  -2  201.58   18.10
  -5 -10   2  187.78   15.30
  -5 -10   2  148.49   16.70
  -5 -10   2  159.28   14.40
  -5 -10   2  159.18   24.30
  -5 -10   2  194.88   16.70
  -5 -10   2  214.58   21.90
   4  10  -2   69.59   14.10
  -4 -10   2   82.19    9.40
  -4 -10   2   86.19   11.30
  -4 -10   2   73.79   11.60
  -4 -10   2   86.49   12.30
  -4 -10   2   75.89    8.70
  -4 -10   2   83.69   16.70
   3  10  -2  115.49   18.80
  -3 -10   2  113.09   15.20
  -3 -10   2  107.19   17.70
  -3 -10   2  104.49   13.90
  -3 -10   2  105.39   10.20
   2  10  -2   74.59   18.00
   2  10  -2   79.39   10.80
  -2 -10   2   44.90   10.90
  -2 -10   2   45.90   12.00
  -2 -10   2   48.40    7.20
  -2 -10   2   48.50   19.80
  -2 -10   2   63.39    9.30
   1  10  -2   48.00   11.10
   1  10  -2   84.89   20.60
  -1 -10   2   91.09    9.00
  -1 -10   2   74.79   12.20
  -1 -10   2   70.69   12.80
  -1 -10   2   74.59   10.40
   0  10  -2   33.50   21.50
   0 -10   2   -3.30    6.10
   0 -10   2   -4.60   10.30
   0 -10   2    5.70    5.40
   0 -10   2   -9.80   10.80
   0 -10   2    6.80    6.80
  -1  10  -2   47.30   23.60
   1 -10   2   31.70    5.70
   1 -10   2   42.00   12.60
   1 -10   2   33.00    9.00
   1 -10   2   21.20   10.10
   1 -10   2   13.10    8.20
  -2  10  -2  -39.00   21.60
  -2  10  -2   -5.40   14.30
   2 -10   2    4.10    9.10
   2 -10   2    5.20    5.00
   2 -10   2    3.50   11.20
  -3  10  -2  -35.70   23.40
  -3  10  -2   -5.70   15.80
   3 -10   2   12.30    9.80
   3 -10   2  -10.50   11.20
   8   9  -2  103.09   15.20
   8   9  -2  132.19   22.20
  -8  -9   2  138.39   21.20
  -8  -9   2  101.99   26.70
  -8  -9   2  122.89   17.10
   7   9  -2  259.07   31.10
  -7  -9   2  267.37   25.00
  -7  -9   2  290.47   28.40
  -7  -9   2  261.57   20.50
  -7  -9   2  284.97   36.70
   6   9  -2  141.89   21.60
   6   9  -2  145.99   15.00
  -6  -9   2  123.69   21.20
  -6  -9   2  142.19   12.60
  -6  -9   2  130.09   12.60
  -6  -9   2  134.59   16.10
  -6  -9   2  150.58   13.40
  -6  -9   2  145.79   19.40
   5   9  -2  550.34   34.20
   5   9  -2  554.64   43.30
   5   9  -2  535.55   40.40
   5   9  -2  526.45   31.40
  -5  -9   2  476.85   35.20
  -5  -9   2  540.25   41.10
  -5  -9   2  517.35   31.90
  -5  -9   2  510.55   32.30
  -5  -9   2  527.15   35.70
  -5  -9   2  420.46   32.40
   4   9  -2   53.89    8.20
   4   9  -2   57.09   16.20
  -4  -9   2   44.50   13.00
  -4  -9   2   61.59    9.10
  -4  -9   2   60.49   10.10
  -4  -9   2   54.09    6.50
  -4  -9   2   40.50    6.10
  -4  -9   2   64.99    8.20
   3   9  -2  400.56   27.10
  -3  -9   2  389.96   24.70
  -3  -9   2  419.96   27.20
  -3  -9   2  346.87   32.40
  -3  -9   2  433.76   25.00
  -3  -9   2  393.96   24.40
  -3  -9   2  345.77   31.50
   2   9  -2   74.79   15.80
   2   9  -2   88.49   10.90
  -2  -9   2   84.09   14.00
  -2  -9   2   91.59   11.00
  -2  -9   2   74.29    8.30
  -2  -9   2   97.09   13.20
  -2  -9   2   65.39   14.80
   1   9  -2  293.77   29.90
   1   9  -2  235.78   19.20
  -1  -9   2  239.18   29.10
  -1  -9   2  245.78   21.00
  -1  -9   2  266.77   22.90
  -1  -9   2  212.38   22.10
   0   9  -2    1.00   14.70
   0  -9   2    7.60    5.20
   0  -9   2    2.50    8.30
   0  -9   2   11.70    5.40
   0  -9   2   11.00    7.00
   0  -9   2   10.30    5.00
   0  -9   2    5.90    8.90
  -1   9  -2   14.70   11.50
  -1   9  -2   19.90   17.90
   1  -9   2   53.09    9.70
   1  -9   2   40.00    4.70
   1  -9   2   29.00    9.10
   1  -9   2   39.10    7.50
   1  -9   2   33.90   11.10
   1  -9   2   24.00    7.40
  -2   9  -2   15.70   18.10
  -2   9  -2   24.60   11.50
   2  -9   2   10.90    4.20
   2  -9   2    6.10    7.00
   2  -9   2   20.80    8.90
   2  -9   2    2.80    9.20
   2  -9   2   12.90    8.10
  -3   9  -2   42.10   13.80
  -3   9  -2   32.50   20.00
   3  -9   2   32.30    6.90
   3  -9   2   21.30    8.40
   3  -9   2   26.20    8.50
   3  -9   2   27.00    5.60
   3  -9   2   31.00   10.00
  -4   9  -2    2.90   22.40
  -4   9  -2   -1.40   15.20
   4  -9   2   -5.30    9.40
   4  -9   2    7.80    6.70
   4  -9   2    3.30    7.10
   4  -9   2   -8.20   10.70
   4  -9   2   17.50   14.20
   9   8  -2   -3.30    6.90
   9   8  -2   -1.60   10.30
   9   8  -2   -7.60   16.20
  -9  -8   2   23.20   14.10
  -9  -8   2   -4.00   22.30
  -9  -8   2    4.40   15.80
   8   8  -2  176.28   22.00
   8   8  -2  188.28   22.00
   8   8  -2  155.18   23.50
   8   8  -2  166.98   13.90
  -8  -8   2  213.48   27.60
  -8  -8   2  178.98   28.20
  -8  -8   2  236.68   23.90
   7   8  -2    1.80   12.60
   7   8  -2   17.10    7.50
  -7  -8   2    1.90    5.40
  -7  -8   2    0.70    8.10
  -7  -8   2   12.00   11.00
   6   8  -2  518.05   41.20
   6   8  -2  540.85   34.10
   6   8  -2  554.34   34.70
  -6  -8   2  524.95   43.10
  -6  -8   2  468.85   32.20
  -6  -8   2  551.84   37.10
  -6  -8   2  572.64   36.60
  -6  -8   2  555.44   34.00
  -6  -8   2  500.45   33.10
   5   8  -2   20.70   10.70
   5   8  -2   29.10    9.50
   5   8  -2   13.30    5.80
   5   8  -2   18.90    5.50
  -5  -8   2   19.30    6.90
  -5  -8   2   20.60    5.00
  -5  -8   2   12.90    4.70
  -5  -8   2   23.70    8.00
  -5  -8   2   18.90    4.50
  -5  -8   2   21.40   12.30
   4   8  -2  789.92   45.80
   4   8  -2  743.53   51.29
  -4  -8   2  755.92   46.40
  -4  -8   2  710.93   47.30
  -4  -8   2  740.23   50.59
  -4  -8   2  661.03   48.40
  -4  -8   2  729.73   45.40
  -4  -8   2  777.82   44.40
  -4  -8   2  711.03   43.90
   3   8  -2   44.50    7.00
   3   8  -2   36.70   12.00
  -3  -8   2   29.50    9.90
  -3  -8   2   46.40    9.60
  -3  -8   2   38.70    4.80
  -3  -8   2   37.40    7.00
  -3  -8   2   34.90    4.80
  -3  -8   2   33.80    9.30
  -3  -8   2   40.20    5.70
  -3  -8   2   39.50    8.40
  -3  -8   2   34.80   10.20
   2   8  -2  676.13   40.70
   2   8  -2  679.03   45.50
  -2  -8   2  630.54   43.20
  -2  -8   2  633.34   43.30
  -2  -8   2  632.64   43.20
  -2  -8   2  646.44   39.40
  -2  -8   2  722.93   47.30
  -2  -8   2  600.44   44.50
  -2  -8   2  636.14   38.70
  -2  -8   2  666.13   42.20
   1   8  -2   35.00   12.00
   1   8  -2   49.90    7.40
  -1  -8   2   40.20   11.90
  -1  -8   2   34.40    8.00
  -1  -8   2   31.60    7.40
  -1  -8   2   27.90    7.90
  -1  -8   2   26.40    8.60
  -1  -8   2   33.50    8.60
   0   8  -2  373.56   31.40
   0   8  -2  315.07   26.30
   0  -8   2  346.67   27.00
   0  -8   2  330.27   30.60
   0  -8   2  369.46   26.00
   0  -8   2  313.47   25.70
   0  -8   2  375.26   25.00
   0  -8   2  343.17   25.20
  -1   8  -2   37.70   13.90
  -1   8  -2   23.10    8.20
   1  -8   2   41.20    7.80
   1  -8   2   18.70    5.90
   1  -8   2   22.90    6.80
   1  -8   2   31.00    4.00
   1  -8   2   14.60   10.90
   1  -8   2   19.40    5.80
   1  -8   2   40.30    8.70
  -2   8  -2  152.28   22.40
  -2   8  -2  160.18   19.00
   2  -8   2  162.58   15.30
   2  -8   2  158.48   15.70
   2  -8   2  165.48   14.90
   2  -8   2  158.18   16.20
   2  -8   2  146.19   13.20
   2  -8   2  156.78   11.70
   2  -8   2  144.29   16.30
   2  -8   2  182.58   15.70
  -3   8  -2   12.40   10.20
  -3   8  -2    9.80   14.00
   3  -8   2   -0.50    7.50
   3  -8   2    8.60    6.00
   3  -8   2   23.60   10.30
   3  -8   2    7.30    7.30
   3  -8   2    4.60    3.70
   3  -8   2    8.50    7.80
   3  -8   2   -1.60    9.20
   3  -8   2   10.50    8.20
  -4   8  -2   24.30   11.80
  -4   8  -2    6.40   17.70
   4  -8   2   11.60   12.10
   4  -8   2    1.50   12.30
   4  -8   2   18.40   11.80
   4  -8   2   27.90    8.50
   4  -8   2   20.30    6.70
   4  -8   2   24.20    5.50
  -5   8  -2   39.70   22.30
  -5   8  -2   -7.80   12.20
   5  -8   2   -3.50    6.30
   5  -8   2    4.00   10.90
   5  -8   2    4.00    8.40
   5  -8   2   10.70    8.30
  10   7  -2   15.40   13.00
  10   7  -2  -21.90   17.90
 -10  -7   2   79.89   27.80
   9   7  -2   28.40   12.40
   9   7  -2   44.50   14.80
   9   7  -2   19.50   16.40
   9   7  -2   32.50   10.50
  -9  -7   2   -1.50   12.00
  -9  -7   2  -14.40   19.80
  -9  -7   2   11.60   15.20
   8   7  -2  -14.80   11.70
   8   7  -2   14.60    8.90
   8   7  -2   20.00    8.50
   8   7  -2   12.80    7.30
   8   7  -2   24.50    8.70
  -8  -7   2   20.50   11.00
  -8  -7   2   14.00   11.80
  -8  -7   2   46.20   19.20
  -8  -7   2   13.50    7.40
   7   7  -2   98.39    9.50
   7   7  -2   73.19   15.00
   7   7  -2  109.89   12.10
   7   7  -2  110.89   17.40
  -7  -7   2   97.79   11.20
  -7  -7   2   67.89   18.50
  -7  -7   2  103.19   14.10
  -7  -7   2  120.09   14.80
  -7  -7   2   92.59    7.20
   6   7  -2   89.79   10.60
   6   7  -2   59.89    8.70
   6   7  -2   72.59   16.00
   6   7  -2   71.09   14.50
  -6  -7   2   64.09   15.30
  -6  -7   2   69.39    8.70
  -6  -7   2   66.59   10.90
  -6  -7   2   83.79   11.00
  -6  -7   2   75.39    6.10
  -6  -7   2   79.89   13.10
  -6  -7   2   62.49    8.10
   5   7  -2  206.38   20.30
   5   7  -2  220.78   22.30
   5   7  -2  208.98   16.70
   5   7  -2  222.48   16.00
  -5  -7   2  205.88   20.60
  -5  -7   2  226.58   18.70
  -5  -7   2  220.88   15.00
  -5  -7   2  216.28   17.20
  -5  -7   2  207.48   23.50
  -5  -7   2  219.08   14.60
  -5  -7   2  203.58   21.90
  -5  -7   2  224.38   15.50
   4   7  -2  330.07   21.40
   4   7  -2  320.47   21.90
   4   7  -2  333.47   24.60
   4   7  -2  321.57   27.20
   4   7  -2  356.26   21.00
  -4  -7   2  339.17   22.50
  -4  -7   2  319.67   23.10
  -4  -7   2  322.97   23.30
  -4  -7   2  343.57   23.90
  -4  -7   2  319.67   25.10
  -4  -7   2  325.27   21.30
  -4  -7   2  321.97   27.40
  -4  -7   2  320.47   20.70
  -4  -7   2  319.77   25.50
  -4  -7   2  341.17   21.10
   3   7  -2  439.56   27.20
   3   7  -2  453.45   32.20
  -3  -7   2  424.16   28.20
  -3  -7   2  423.86   29.50
  -3  -7   2  393.46   30.60
  -3  -7   2  413.66   25.60
  -3  -7   2  386.96   29.70
  -3  -7   2  419.96   27.10
  -3  -7   2  445.76   25.90
  -3  -7   2  433.26   26.70
  -3  -7   2  395.76   29.10
  -3  -7   2  454.55   28.50
  -3  -7   2  417.46   27.00
   2   7  -2  442.26   28.50
   2   7  -2  478.45   32.60
   2   7  -2  454.85   33.40
  -2  -7   2  431.66   30.70
  -2  -7   2  472.05   26.80
  -2  -7   2  430.06   31.20
  -2  -7   2  464.85   30.00
  -2  -7   2  443.36   27.10
  -2  -7   2  438.56   31.80
  -2  -7   2  436.16   27.60
  -2  -7   2  464.55   31.40
  -2  -7   2  455.85   29.40
   1   7  -2  328.17   26.30
   1   7  -2  322.77   21.00
  -1  -7   2  314.77   23.10
  -1  -7   2  298.77   25.60
  -1  -7   2  322.37   23.40
  -1  -7   2  302.27   22.50
  -1  -7   2  320.97   22.30
  -1  -7   2  300.07   23.40
   0   7  -2  480.15   34.80
   0   7  -2  415.46   31.40
   0  -7   2  457.75   34.80
   0  -7   2  437.96   31.70
   0  -7   2  456.95   30.40
   0  -7   2  476.45   30.80
   0  -7   2  485.95   31.30
   0  -7   2  475.35   30.60
  -1   7  -2  208.68   19.30
  -1   7  -2  239.08   23.80
   1  -7   2  238.18   16.20
   1  -7   2  250.07   17.30
   1  -7   2  230.98   21.00
   1  -7   2  249.28   17.60
   1  -7   2  265.17   18.20
   1  -7   2  264.27   18.90
   1  -7   2  210.48   24.50
   1  -7   2  207.58   18.70
   1  -7   2  239.98   20.90
  -2   7  -2  160.28   16.30
  -2   7  -2  167.58   21.10
   2  -7   2  165.08   13.50
   2  -7   2  120.29   19.20
   2  -7   2  157.78   14.60
   2  -7   2  149.99   17.80
   2  -7   2  160.28   13.90
   2  -7   2  113.99   15.70
   2  -7   2  166.08   14.50
   2  -7   2  149.49   10.80
   2  -7   2  132.59   15.20
   2  -7   2  168.28   13.70
  -3   7  -2   25.60   12.60
  -3   7  -2   46.40   10.80
   3  -7   2   47.10    8.90
   3  -7   2   58.49    9.30
   3  -7   2   52.79    8.20
   3  -7   2   53.29   10.00
   3  -7   2   54.79    6.80
   3  -7   2   48.00    8.60
   3  -7   2   50.09    8.90
   3  -7   2   45.10   11.80
   3  -7   2   43.80    6.00
  -4   7  -2   58.09   16.50
  -4   7  -2   66.19    9.00
   4  -7   2   51.79   10.20
   4  -7   2   46.50    6.30
   4  -7   2   58.29    9.50
   4  -7   2   17.30   13.60
   4  -7   2   51.19   10.90
   4  -7   2   34.20    9.50
   4  -7   2   59.09   11.30
  -5   7  -2   -4.10   17.20
  -5   7  -2   18.30    9.70
  -5   7  -2   -2.10    7.70
   5  -7   2   11.10    6.70
   5  -7   2   23.60    7.50
   5  -7   2   15.00   10.60
   5  -7   2   23.40   15.40
   5  -7   2   15.40    5.30
   5  -7   2    3.20   13.90
  -6   7  -2  -43.30   19.70
  -6   7  -2    5.90   11.60
   6  -7   2   -2.90    6.50
   6  -7   2   -9.20    8.20
   6  -7   2   24.60   11.30
   6  -7   2   13.60    8.40
  10   6  -2   17.00   11.40
  10   6  -2    4.20   11.90
  10   6  -2    8.50   16.10
 -10  -6   2   34.80   18.40
 -10  -6   2   21.20   23.50
 -10  -6   2    9.10   14.50
   9   6  -2    6.10    8.80
   9   6  -2  -21.10    8.00
   9   6  -2   -4.80   12.90
   9   6  -2   41.50   15.20
   9   6  -2    7.60   10.60
  -9  -6   2   -7.80   19.20
  -9  -6   2   -3.50   12.30
  -9  -6   2   -9.80   12.90
   8   6  -2   13.70    9.00
   8   6  -2    2.90    8.50
   8   6  -2   11.90    7.60
   8   6  -2   -0.20    7.30
   8   6  -2    7.30   10.20
  -8  -6   2    7.20    7.00
  -8  -6   2    5.40   10.20
  -8  -6   2   35.10   18.20
   7   6  -2    2.00    5.80
   7   6  -2   -1.80    8.50
   7   6  -2    6.60    6.90
   7   6  -2    4.30    5.50
   7   6  -2   -1.80    5.40
  -7  -6   2    1.20    2.30
  -7  -6   2   -1.30    4.70
  -7  -6   2    1.40    4.60
  -7  -6   2    4.40   13.40
  -7  -6   2   11.20    8.80
  -7  -6   2   -5.20    7.40
   6   6  -2   42.80    7.00
   6   6  -2   31.20    7.60
   6   6  -2   33.40    5.80
   6   6  -2   29.00    5.90
   6   6  -2   36.60   10.20
   6   6  -2   25.60    9.50
  -6  -6   2   24.80   11.10
  -6  -6   2   17.40    8.10
  -6  -6   2   40.80    5.50
  -6  -6   2   39.50   10.30
  -6  -6   2   34.70    5.50
  -6  -6   2   32.00    8.40
  -6  -6   2   43.50    9.20
  -6  -6   2   31.80   11.10
  -6  -6   2   38.00    3.70
   5   6  -2   10.60    5.30
   5   6  -2    7.20    6.90
   5   6  -2   14.40    4.20
   5   6  -2    6.30    3.90
   5   6  -2   11.90    2.60
   5   6  -2    9.80    7.90
  -5  -6   2   11.10    8.30
  -5  -6   2   17.40    3.40
  -5  -6   2   11.10    5.10
  -5  -6   2   12.40    6.90
  -5  -6   2    8.10    8.60
  -5  -6   2    9.00    2.80
  -5  -6   2   15.50    6.10
  -5  -6   2   13.90    3.60
   4   6  -2   47.10    8.70
   4   6  -2   27.70    4.70
   4   6  -2   36.10    8.70
   4   6  -2   31.80    4.90
   4   6  -2   31.60    5.70
  -4  -6   2   35.30    4.40
  -4  -6   2   42.40    5.20
  -4  -6   2   42.80    8.80
  -4  -6   2   46.10    6.60
  -4  -6   2   36.50    6.10
  -4  -6   2   43.90    8.80
  -4  -6   2   23.80    8.40
  -4  -6   2   36.30    4.80
  -4  -6   2   41.40    7.50
   3   6  -2  480.55   31.20
   3   6  -2  482.15   29.60
   3   6  -2  511.75   28.60
   3   6  -2  468.95   28.70
   3   6  -2  459.35   33.20
  -3  -6   2  439.26   31.00
  -3  -6   2  467.05   29.20
  -3  -6   2  468.35   32.20
  -3  -6   2  475.65   28.70
  -3  -6   2  504.65   30.50
  -3  -6   2  494.45   29.60
  -3  -6   2  465.05   32.90
  -3  -6   2  481.95   30.60
  -3  -6   2  457.35   28.40
  -3  -6   2  466.45   29.80
  -3  -6   2  484.65   32.00
   2   6  -2   17.00    3.70
   2   6  -2   20.70    6.90
   2   6  -2   16.80    6.60
  -2  -6   2   14.10    6.30
  -2  -6   2   18.60    2.60
  -2  -6   2   18.70    5.90
  -2  -6   2   23.60    3.50
  -2  -6   2   18.60    4.50
  -2  -6   2   22.30    2.90
  -2  -6   2    8.80    5.60
  -2  -6   2   10.00    4.60
  -2  -6   2   25.40    6.60
  -2  -6   2   20.90    3.40
   1   6  -2  475.75   32.50
   1   6  -2  443.96   28.40
  -1  -6   2  431.86   31.50
  -1  -6   2  452.55   30.20
  -1  -6   2  441.46   28.80
  -1  -6   2  483.25   29.50
  -1  -6   2  444.26   30.40
  -1  -6   2  490.75   30.70
   0   6  -2   94.99   10.60
   0   6  -2  102.69   14.40
   0   6  -2  107.39    9.40
   0  -6   2  110.09   11.00
   0  -6   2  109.19   10.30
   0  -6   2  106.19   10.20
   0  -6   2  105.19   10.10
   0  -6   2   85.59   11.40
   0  -6   2  117.09   10.30
   0  -6   2  110.69   14.30
  -1   6  -2  468.65   34.70
   1  -6   2  435.16   30.80
   1  -6   2  414.56   34.20
   1  -6   2  458.15   29.90
   1  -6   2  498.15   30.20
   1  -6   2  490.15   32.30
   1  -6   2  522.55   31.00
   1  -6   2  495.25   30.60
   1  -6   2  478.75   28.00
  -2   6  -2   -1.30    7.80
  -2   6  -2   -2.70    4.30
   2  -6   2   -0.90    4.10
   2  -6   2   -2.50    3.80
   2  -6   2    0.20    2.20
   2  -6   2   -2.40    4.30
   2  -6   2    3.30    3.70
   2  -6   2    2.90    6.40
   2  -6   2    4.10    5.90
   2  -6   2   10.80    9.90
   2  -6   2    0.00    4.70
  -3   6  -2  269.17   19.90
  -3   6  -2  254.67   19.20
  -3   6  -2  270.57   24.70
  -3   6  -2  245.08   15.20
   3  -6   2  256.07   16.20
   3  -6   2  182.78   25.10
   3  -6   2  204.38   19.50
   3  -6   2  261.37   18.50
   3  -6   2  182.28   18.90
   3  -6   2  234.88   19.20
   3  -6   2  208.48   17.80
   3  -6   2  235.68   21.10
   3  -6   2  250.47   17.80
   3  -6   2  252.47   15.30
  -4   6  -2    1.70    5.10
  -4   6  -2    9.00   10.90
  -4   6  -2   -8.70    5.80
  -4   6  -2    5.90    8.10
   4  -6   2    4.40    8.10
   4  -6   2   10.50    9.90
   4  -6   2  -10.70    6.10
   4  -6   2    0.20    8.00
   4  -6   2   -9.80    3.90
   4  -6   2    8.80    5.80
   4  -6   2    1.80    3.00
   4  -6   2    3.90    5.60
  -5   6  -2   38.50    8.50
  -5   6  -2   52.59   11.50
  -5   6  -2   37.40   16.30
   5  -6   2   45.40    9.10
   5  -6   2   52.79    9.00
   5  -6   2   56.39   12.00
   5  -6   2   36.40    6.10
   5  -6   2   32.90   10.20
   5  -6   2   27.60   11.10
   5  -6   2   40.20    8.00
  -6   6  -2    3.40    8.50
  -6   6  -2   12.50   16.20
  -6   6  -2   -6.40   16.90
   6  -6   2   -7.70    6.00
   6  -6   2   -1.30    5.50
   6  -6   2   -7.50    7.00
   6  -6   2    0.50    8.10
   6  -6   2   16.40   13.40
   6  -6   2   -2.40   11.50
  -7   6  -2  -13.60   20.70
  -7   6  -2   14.20   11.30
   7  -6   2   -2.80    7.80
   7  -6   2   13.00   11.60
   7  -6   2   10.40    8.10
   7  -6   2   15.80    9.80
  10   5  -2  139.49   15.50
  10   5  -2  158.28   23.90
  10   5  -2  115.39   17.50
  10   5  -2  144.79   20.10
 -10  -5   2  172.08   24.90
 -10  -5   2  141.29   22.20
 -10  -5   2  129.29   29.30
   9   5  -2  -13.20    9.70
   9   5  -2  -21.40   12.60
   9   5  -2    2.10    8.40
   9   5  -2    8.20    5.90
  -9  -5   2    5.90   12.50
  -9  -5   2    1.50   12.40
  -9  -5   2   -1.00    8.10
  -9  -5   2   -2.20   18.10
   8   5  -2  476.75   32.60
   8   5  -2  509.75   33.50
   8   5  -2  489.45   30.10
   8   5  -2  415.26   36.70
   8   5  -2  433.96   33.60
  -8  -5   2  555.84   39.90
  -8  -5   2  496.75   37.50
  -8  -5   2  545.45   44.70
  -8  -5   2  440.56   35.90
  -8  -5   2  469.45   33.70
   7   5  -2   11.70    5.80
   7   5  -2   12.40    5.30
   7   5  -2    7.40    3.70
   7   5  -2   12.10    8.80
   7   5  -2   15.10    7.20
   7   5  -2    3.50    5.10
  -7  -5   2   11.00    8.10
  -7  -5   2   12.60   13.20
  -7  -5   2   10.20    4.60
  -7  -5   2   21.80    6.40
  -7  -5   2    7.30    8.10
  -7  -5   2    4.20    7.70
  -7  -5   2    8.60    8.40
   6   5  -2  404.16   24.70
   6   5  -2  304.27   27.90
   6   5  -2  382.36   24.70
   6   5  -2  399.86   25.20
   6   5  -2  341.87   26.20
   6   5  -2  366.16   24.90
  -6  -5   2  403.56   26.60
  -6  -5   2  399.46   32.20
  -6  -5   2  374.86   27.80
  -6  -5   2  368.96   26.60
  -6  -5   2  339.87   22.10
  -6  -5   2  381.16   23.60
  -6  -5   2  370.66   24.50
  -6  -5   2  386.26   27.40
   5   5  -2   54.79    9.10
   5   5  -2   50.89    6.90
   5   5  -2   41.20    8.50
   5   5  -2   58.49    6.90
   5   5  -2   63.89    8.50
   5   5  -2   51.89    6.80
  -5  -5   2   58.39    5.80
  -5  -5   2   54.89   11.20
  -5  -5   2   53.99    7.20
  -5  -5   2   72.89   11.50
  -5  -5   2   59.09    8.60
  -5  -5   2   51.99    4.10
  -5  -5   2   74.29    9.90
  -5  -5   2   65.29   10.20
  -5  -5   2   56.39    8.50
   4   5  -2   64.19    6.60
   4   5  -2   59.29   10.00
   4   5  -2   66.89    7.60
   4   5  -2   75.39    7.00
   4   5  -2   69.99    5.20
   4   5  -2   69.29    5.70
   4   5  -2   75.79   10.10
  -4  -5   2   59.29    5.80
  -4  -5   2   66.59    6.90
  -4  -5   2   67.79    8.00
  -4  -5   2   66.09    9.90
  -4  -5   2   63.19    8.50
  -4  -5   2   59.89   10.30
  -4  -5   2   72.39   11.00
  -4  -5   2   70.79    6.30
  -4  -5   2   67.79    5.40
   3   5  -2   67.39    6.30
   3   5  -2   59.79    5.60
   3   5  -2   59.89    6.10
   3   5  -2   68.99    8.60
   3   5  -2   63.89    9.50
  -3  -5   2   73.19    5.70
  -3  -5   2   65.39    8.90
  -3  -5   2   72.49    8.80
  -3  -5   2   57.89    7.80
  -3  -5   2   62.89    9.50
  -3  -5   2   56.19    6.60
  -3  -5   2   62.79    5.20
  -3  -5   2   65.69    5.50
  -3  -5   2   62.09    7.10
  -3  -5   2   63.69    7.30
   2   5  -2    0.70    2.10
   2   5  -2    6.70    4.30
  -2  -5   2    0.00    4.10
  -2  -5   2    2.10    2.80
  -2  -5   2    1.10    2.10
  -2  -5   2   -2.40    4.00
  -2  -5   2    2.70    1.40
  -2  -5   2    1.10    2.10
  -2  -5   2    0.10    3.80
  -2  -5   2   -4.60    3.30
  -2  -5   2    2.90    1.50
  -2  -5   2    2.60    2.90
   1   5  -2   18.30    3.30
   1   5  -2   16.10    5.00
   1   5  -2   25.80    6.80
  -1  -5   2   21.50    4.10
  -1  -5   2   23.70    5.20
  -1  -5   2   22.20    5.00
  -1  -5   2   16.00    3.70
  -1  -5   2   30.20    5.20
   0   5  -2   45.60    5.70
   0   5  -2   53.09    9.00
   0   5  -2   46.20    6.50
   0  -5   2   61.39    9.80
   0  -5   2   54.79    7.40
   0  -5   2   50.89    7.20
   0  -5   2   54.39    6.20
   0  -5   2   49.80    6.40
   0  -5   2   53.99    6.80
   0  -5   2   56.69    6.70
  -1   5  -2   85.29   11.50
  -1   5  -2   62.19    8.00
   1  -5   2   83.09    8.30
   1  -5   2   77.19    7.90
   1  -5   2   71.39    8.90
   1  -5   2   74.09    5.30
   1  -5   2   79.89    7.10
   1  -5   2   83.09    9.10
   1  -5   2   57.99   10.60
  -2   5  -2   92.09    9.20
  -2   5  -2   88.89   13.70
   2  -5   2  103.59   14.30
   2  -5   2   87.99    8.20
   2  -5   2   75.49    9.70
   2  -5   2   85.89    8.00
   2  -5   2   83.99    8.20
   2  -5   2   86.29   10.80
   2  -5   2  102.49    9.40
   2  -5   2   87.89    9.30
   2  -5   2   90.09    6.90
  -3   5  -2   37.10    6.80
  -3   5  -2   47.40    6.00
  -3   5  -2   44.50   10.50
  -3   5  -2   29.50    4.40
  -3   5  -2   45.30    7.10
   3  -5   2   40.20    4.40
   3  -5   2   30.20    6.80
   3  -5   2   37.50    8.20
   3  -5   2   37.40    6.50
   3  -5   2   46.50    7.80
   3  -5   2   39.30    8.40
   3  -5   2   42.90    5.60
   3  -5   2   35.70    9.40
   3  -5   2   31.50    5.20
   3  -5   2   41.70    6.30
   3  -5   2   45.60    7.00
  -4   5  -2    8.10    3.40
  -4   5  -2    7.60    6.00
  -4   5  -2   12.60   10.00
  -4   5  -2    3.40    4.30
  -4   5  -2    3.50    5.00
   4  -5   2    8.90    4.00
   4  -5   2   10.30    7.30
   4  -5   2   -0.80   11.20
   4  -5   2    4.60    5.30
   4  -5   2   11.00    3.20
   4  -5   2   -2.50    6.00
   4  -5   2   14.30    5.10
   4  -5   2   12.30    5.60
   4  -5   2    5.30    8.30
  -5   5  -2    5.60    7.60
  -5   5  -2    3.20    6.10
  -5   5  -2   16.00    7.10
  -5   5  -2   18.30   13.80
   5  -5   2   16.20    8.60
   5  -5   2    1.80    3.50
   5  -5   2   10.80    5.90
   5  -5   2    5.10    7.00
   5  -5   2   18.60    6.80
   5  -5   2   21.80    9.40
   5  -5   2    7.40    5.00
  -6   5  -2   23.70    8.40
   6  -5   2   12.70    5.00
   6  -5   2   17.80   10.10
   6  -5   2    1.40    7.20
   6  -5   2   10.90    7.10
   6  -5   2    9.40    6.90
   6  -5   2    2.20   12.60
  -7   5  -2   13.50   10.10
  -7   5  -2  -13.30   18.50
   7  -5   2   10.30    7.30
   7  -5   2   -5.70    9.60
   7  -5   2   -5.10    6.00
   7  -5   2  -10.70   18.20
   7  -5   2   -1.50    7.50
  -8   5  -2   -4.20   23.00
  -8   5  -2   -3.10   12.60
   8  -5   2    5.30   10.70
   8  -5   2   -6.10   12.50
   8  -5   2   20.30   10.40
   8  -5   2    1.40    8.50
  10   4  -2  -14.80   16.10
  10   4  -2    8.80   11.00
  10   4  -2    6.00   12.00
  10   4  -2   -3.20    8.10
 -10  -4   2   51.89   24.10
 -10  -4   2   17.70   15.80
 -10  -4   2    7.90   14.60
   9   4  -2  128.69   17.20
   9   4  -2   96.79   15.50
   9   4  -2  100.29   11.90
  -9  -4   2   91.09   22.40
  -9  -4   2   63.89   16.00
  -9  -4   2  122.89   20.40
  -9  -4   2  106.19   13.60
  -9  -4   2   94.69   18.20
   8   4  -2  134.39   16.90
   8   4  -2   87.99   12.70
   8   4  -2   98.49    9.90
   8   4  -2  116.59   14.30
   8   4  -2   81.19   15.70
  -8  -4   2  118.69   16.30
  -8  -4   2  106.09   21.00
  -8  -4   2  100.59   15.70
  -8  -4   2   87.89   12.50
  -8  -4   2   89.89   16.20
   7   4  -2   22.30    8.80
   7   4  -2   34.40   10.40
   7   4  -2   16.30    5.30
   7   4  -2   -5.00    8.60
   7   4  -2   16.10    3.90
   7   4  -2   17.10    7.10
   7   4  -2   15.70    6.20
  -7  -4   2   26.40    8.20
  -7  -4   2    8.00    7.40
  -7  -4   2   28.00    8.20
  -7  -4   2   24.70    5.60
  -7  -4   2   14.90    7.60
  -7  -4   2   20.60    4.80
  -7  -4   2   34.50   12.90
   6   4  -2   81.49   12.00
   6   4  -2  119.69   11.30
   6   4  -2   89.29   12.30
   6   4  -2   78.69    9.40
   6   4  -2  110.09   12.50
   6   4  -2  108.29   10.40
  -6  -4   2  126.69   12.40
  -6  -4   2  107.39   12.80
  -6  -4   2  103.99    9.80
  -6  -4   2  100.19   15.20
  -6  -4   2  104.09   12.30
  -6  -4   2   99.99    8.40
  -6  -4   2  114.59   13.70
   5   4  -2  992.80   60.19
   5   4  -2  927.01   58.49
   5   4  -2  989.70   61.39
   5   4  -2  969.50   57.29
   5   4  -2 1036.30   59.19
   5   4  -2  983.90   58.59
  -5  -4   2  934.51   56.89
  -5  -4   2 1030.70   59.99
  -5  -4   2  965.10   60.29
  -5  -4   2  988.00   58.69
  -5  -4   2 1039.50   63.39
  -5  -4   2  987.90   60.69
  -5  -4   2 1003.80   60.99
  -5  -4   2  959.10   57.89
   4   4  -2  380.06   23.50
   4   4  -2  366.86   25.70
   4   4  -2  378.16   24.40
   4   4  -2  418.46   23.40
   4   4  -2  373.56   23.30
  -4  -4   2  363.56   24.80
  -4  -4   2  361.76   22.80
  -4  -4   2  366.96   23.30
  -4  -4   2  363.16   21.80
  -4  -4   2  384.26   27.60
  -4  -4   2  396.06   25.00
  -4  -4   2  368.26   25.60
  -4  -4   2  363.46   22.60
  -4  -4   2  356.96   24.50
   3   4  -2  952.30   53.29
   3   4  -2  923.31   52.49
   3   4  -2  939.61   55.39
   3   4  -2  930.51   53.49
   3   4  -2  914.81   52.39
   3   4  -2  897.21   53.79
  -3  -4   2  924.01   54.09
  -3  -4   2  827.62   52.39
  -3  -4   2  862.21   56.09
  -3  -4   2  922.91   55.89
  -3  -4   2  920.21   53.19
  -3  -4   2  887.41   52.79
  -3  -4   2  908.91   55.39
  -3  -4   2  894.01   53.69
  -3  -4   2  887.51   53.99
   2   4  -2  121.29    8.00
   2   4  -2  115.19   10.80
   2   4  -2  116.69    7.60
   2   4  -2  111.79    8.10
   2   4  -2  114.29    9.60
  -2  -4   2  118.09    9.80
  -2  -4   2  108.69    7.60
  -2  -4   2  126.99    8.80
  -2  -4   2  119.49   10.90
  -2  -4   2  116.69   10.30
  -2  -4   2  117.29    8.10
  -2  -4   2  116.59    7.40
  -2  -4   2  112.19    8.40
  -2  -4   2  114.59    9.00
  -2  -4   2  121.29   10.20
   1   4  -2 1124.59   67.69
   1   4  -2 1107.09   65.39
   1   4  -2 1199.78   67.79
  -1  -4   2 1125.89   65.79
  -1  -4   2 1022.30   67.39
  -1  -4   2 1138.59   65.69
  -1  -4   2 1095.39   67.19
  -1  -4   2 1144.99   66.59
   0   4  -2    6.00    2.30
   0   4  -2    1.60    2.90
   0   4  -2    9.30    3.20
   0   4  -2    5.40    4.20
   0  -4   2    4.30    2.60
   0  -4   2    4.60    2.60
   0  -4   2    6.40    1.90
   0  -4   2    4.10    2.80
   0  -4   2    1.20    2.60
   0  -4   2    8.50    3.00
   0  -4   2   -1.90    4.30
   0  -4   2    3.00    2.20
  -1   4  -2   75.99   10.70
  -1   4  -2   46.90    6.10
  -1   4  -2   59.79    6.80
   1  -4   2   58.19    6.40
   1  -4   2   58.99    5.60
   1  -4   2   65.79    7.50
   1  -4   2   57.19    6.10
   1  -4   2   64.59    6.60
   1  -4   2   48.50    8.60
   1  -4   2   60.69    5.00
   1  -4   2   63.19    7.20
  -2   4  -2    5.30    5.70
  -2   4  -2    2.20    2.80
  -2   4  -2    4.70    4.10
  -2   4  -2    6.70    3.20
  -2   4  -2    0.90    1.80
  -2   4  -2    2.10    1.40
   2  -4   2   -3.90    5.40
   2  -4   2    1.60    3.80
   2  -4   2    1.00    3.60
   2  -4   2    1.10    1.70
   2  -4   2   -1.30    2.60
   2  -4   2   -0.20    2.20
   2  -4   2    3.10    3.10
   2  -4   2    2.30    4.00
   2  -4   2    1.80    2.60
   2  -4   2    0.20    1.10
  -3   4  -2   78.09    7.90
  -3   4  -2   72.09    7.20
  -3   4  -2   80.19    6.40
  -3   4  -2   88.09   13.30
  -3   4  -2   72.59    8.60
  -3   4  -2   82.99    8.70
   3  -4   2   75.59    8.30
   3  -4   2   76.99    9.00
   3  -4   2   80.89    7.80
   3  -4   2   79.49    5.90
   3  -4   2   66.09   11.20
   3  -4   2   67.59    8.50
   3  -4   2   81.49   10.00
   3  -4   2   77.59    8.50
   3  -4   2   78.39    6.80
  -4   4  -2   37.70   10.10
  -4   4  -2   45.30    5.80
  -4   4  -2   59.69    8.30
  -4   4  -2   61.99    8.70
  -4   4  -2   46.60    6.90
   4  -4   2   37.00    7.50
   4  -4   2   51.29   11.10
   4  -4   2   34.50    5.70
   4  -4   2   64.79    8.60
   4  -4   2   64.29    8.80
   4  -4   2   49.60    6.30
   4  -4   2   43.10    5.30
  -5   4  -2   26.10    5.90
  -5   4  -2   40.50    8.50
  -5   4  -2   46.30    5.50
  -5   4  -2   46.10    6.10
  -5   4  -2   38.40   12.00
  -5   4  -2   36.10    7.10
  -5   4  -2   40.20    7.40
   5  -4   2   42.30    6.80
   5  -4   2   47.80    6.00
   5  -4   2   45.10    8.90
   5  -4   2   53.69    8.10
   5  -4   2   23.80    5.30
   5  -4   2   42.00    8.20
   5  -4   2   43.80    9.90
   5  -4   2   40.80   13.60
  -6   4  -2   -9.60   12.50
  -6   4  -2    1.40    7.30
  -6   4  -2    9.80    6.80
  -6   4  -2    1.70    7.80
  -6   4  -2    8.00    6.20
  -6   4  -2   -8.80    4.80
   6  -4   2    4.40    4.20
   6  -4   2    4.50    8.60
   6  -4   2   -9.80   10.30
   6  -4   2   22.00    7.20
   6  -4   2   11.30    9.90
   6  -4   2    0.20    4.60
   6  -4   2   13.50    5.90
  -7   4  -2   29.20   11.00
  -7   4  -2   32.70    8.60
  -7   4  -2   20.30    7.20
   7  -4   2   27.60    8.70
   7  -4   2   22.30   12.50
   7  -4   2   25.80    6.40
   7  -4   2   29.80    8.30
   7  -4   2   10.00   14.80
   7  -4   2   36.10    9.90
  -8   4  -2   28.90   12.80
  -8   4  -2   11.40   22.60
  -8   4  -2   21.60   10.10
   8  -4   2   17.10    8.10
   8  -4   2   14.20   11.90
   8  -4   2   15.20   10.80
   8  -4   2   25.00   10.40
  10   3  -2   74.19   14.10
  10   3  -2   34.70    9.60
  10   3  -2   13.10   16.20
  10   3  -2   30.50   12.00
 -10  -3   2   12.30   15.60
 -10  -3   2   36.50   24.30
 -10  -3   2   48.00   16.30
   9   3  -2  235.08   22.60
   9   3  -2  272.37   19.40
   9   3  -2  261.07   22.40
   9   3  -2  175.38   27.40
  -9  -3   2  270.47   29.20
  -9  -3   2  222.18   21.70
  -9  -3   2  233.08   22.30
  -9  -3   2  345.47   39.30
  -9  -3   2  252.07   27.00
   8   3  -2  134.89   19.30
   8   3  -2  184.48   13.40
   8   3  -2  159.08   15.20
   8   3  -2  179.58   23.30
   8   3  -2  159.68   15.80
  -8  -3   2  141.09   15.00
  -8  -3   2  171.28   19.40
  -8  -3   2  168.98   22.40
  -8  -3   2  151.98   20.60
  -8  -3   2  145.29   17.00
   7   3  -2  659.43   41.30
   7   3  -2  641.04   40.50
   7   3  -2  713.13   39.20
   7   3  -2  595.64   44.00
   7   3  -2  628.64   43.40
   7   3  -2  606.74   44.40
   7   3  -2  660.13   42.30
  -7  -3   2  661.83   41.80
  -7  -3   2  678.83   47.60
  -7  -3   2  640.94   43.80
  -7  -3   2  644.84   39.30
  -7  -3   2  630.54   40.50
  -7  -3   2  640.74   43.40
  -7  -3   2  571.84   41.60
   6   3  -2 1037.10   65.79
   6   3  -2 1020.50   65.59
   6   3  -2 1152.18   63.49
   6   3  -2 1022.70   62.59
   6   3  -2 1096.59   61.29
   6   3  -2 1037.40   64.79
   6   3  -2 1005.80   63.59
  -6  -3   2 1006.50   62.49
  -6  -3   2  961.40   63.29
  -6  -3   2 1039.60   61.79
  -6  -3   2 1079.89   64.09
  -6  -3   2 1081.69   67.79
  -6  -3   2 1051.79   64.79
  -6  -3   2 1034.00   65.19
   5   3  -2 2183.78  131.19
   5   3  -2 2276.87  133.29
   5   3  -2 2071.39  130.39
   5   3  -2 2221.88  129.19
   5   3  -2 2378.86  132.39
   5   3  -2 2113.89  132.79
   5   3  -2 2256.27  130.99
  -5  -3   2 2277.97  131.49
  -5  -3   2 2284.97  132.59
  -5  -3   2 2199.08  132.29
  -5  -3   2 2230.88  129.89
  -5  -3   2 2377.56  132.29
  -5  -3   2 2236.78  130.59
  -5  -3   2 2316.67  134.59
   4   3  -2  839.12   49.30
   4   3  -2  788.02   46.70
   4   3  -2  805.32   50.09
   4   3  -2  720.53   49.99
   4   3  -2  851.41   48.40
   4   3  -2  698.43   47.70
   4   3  -2  831.82   48.50
  -4  -3   2  824.02   49.40
  -4  -3   2  818.42   48.00
  -4  -3   2  800.52   47.40
  -4  -3   2  799.72   46.60
  -4  -3   2  809.52   48.90
  -4  -3   2  826.52   49.70
  -4  -3   2  845.52   49.70
  -4  -3   2  862.51   51.69
   3   3  -2 2718.43  173.08
   3   3  -2 2994.50  171.18
   3   3  -2 2866.81  170.28
   3   3  -2 3076.09  170.48
  -3  -3   2 2878.51  171.28
  -3  -3   2 2900.11  170.38
  -3  -3   2 2981.40  170.68
  -3  -3   2 3042.40  173.08
  -3  -3   2 3091.69  171.38
  -3  -3   2 2755.62  169.98
  -3  -3   2 3152.38  173.08
  -3  -3   2 3041.90  171.38
   2   3  -2  338.57   21.60
   2   3  -2  366.26   23.00
   2   3  -2  370.66   21.90
   2   3  -2  363.66   21.50
  -2  -3   2  364.86   23.30
  -2  -3   2  343.67   21.10
  -2  -3   2  360.66   21.40
  -2  -3   2  349.87   23.60
  -2  -3   2  358.76   21.80
  -2  -3   2  346.87   21.80
  -2  -3   2  371.26   22.20
  -2  -3   2  371.56   23.60
  -2  -3   2  354.86   22.70
   1   3  -2 3885.21  243.58
   1   3  -2 4083.19  242.18
   1   3  -2 4324.47  243.88
  -1  -3   2 4289.77  243.28
  -1  -3   2 4429.46  243.48
  -1  -3   2 4370.16  242.38
  -1  -3   2 4105.29  241.78
  -1  -3   2 4114.79  242.48
  -1  -3   2 4271.37  243.28
  -1  -3   2 4224.28  243.68
  -1  -3   2 4329.67  241.88
   0   3  -2  416.06   26.90
   0   3  -2  393.16   24.60
   0   3  -2  414.76   25.90
   0   3  -2  435.86   26.10
   0   3  -2  384.76   25.30
   0  -3   2  429.76   25.50
   0  -3   2  387.46   26.50
   0  -3   2  389.96   25.40
   0  -3   2  416.76   25.10
   0  -3   2  406.06   24.90
   0  -3   2  428.06   24.90
  -1   3  -2 1160.68   77.89
  -1   3  -2 1401.76   78.39
  -1   3  -2 1342.17   80.19
   1  -3   2 1417.26   78.29
   1  -3   2 1182.68   77.59
   1  -3   2 1316.67   77.39
   1  -3   2 1357.26   79.89
   1  -3   2 1399.66   77.69
   1  -3   2 1327.07   76.99
   1  -3   2 1330.77   78.09
   1  -3   2 1388.46   76.69
   1  -3   2 1347.77   78.59
  -2   3  -2   -1.90    2.50
  -2   3  -2   -0.80    2.40
  -2   3  -2    1.00    2.30
  -2   3  -2   -0.30    1.70
  -2   3  -2    2.20    1.50
  -2   3  -2    0.60    4.90
   2  -3   2   12.70    5.30
   2  -3   2   -1.80    2.00
   2  -3   2   -0.60    2.70
   2  -3   2   -0.40    1.80
   2  -3   2    7.50    2.70
   2  -3   2   -1.60    1.90
   2  -3   2   -0.80    1.60
   2  -3   2    0.70    1.00
   2  -3   2    0.80    3.40
  -3   3  -2  224.08   16.30
  -3   3  -2  225.18   15.80
  -3   3  -2  219.88   15.20
  -3   3  -2  229.98   19.40
  -3   3  -2  210.88   13.80
  -3   3  -2  252.97   14.70
  -3   3  -2  227.08   13.80
   3  -3   2  208.48   17.20
   3  -3   2  243.88   15.80
   3  -3   2  235.38   14.90
   3  -3   2  226.68   14.10
   3  -3   2  211.68   15.70
   3  -3   2  231.08   19.00
   3  -3   2  227.48   15.20
   3  -3   2  218.98   15.70
  -4   3  -2  186.58   13.60
  -4   3  -2  183.18   15.10
  -4   3  -2  189.08   14.20
  -4   3  -2  185.18   15.00
  -4   3  -2  207.38   19.20
  -4   3  -2  199.88   13.50
  -4   3  -2  192.78   13.30
  -4   3  -2  196.68   12.40
   4  -3   2  201.98   14.50
   4  -3   2  201.58   13.80
   4  -3   2  196.88   15.40
   4  -3   2  177.18   14.80
   4  -3   2  180.68   12.60
   4  -3   2  179.88   18.60
   4  -3   2  195.48   13.80
  -5   3  -2  140.89   17.70
  -5   3  -2   97.09   10.40
  -5   3  -2   91.59   10.90
  -5   3  -2  119.89    8.90
  -5   3  -2  127.59   12.10
  -5   3  -2  108.49    9.10
  -5   3  -2  122.79   10.20
   5  -3   2  119.39   11.70
   5  -3   2  121.19   15.50
   5  -3   2  112.09   10.40
   5  -3   2  100.69   10.20
   5  -3   2  125.69   17.00
   5  -3   2  111.59    9.30
   5  -3   2  108.49   12.60
   5  -3   2  100.79   13.10
  -6   3  -2   12.80    6.60
  -6   3  -2   31.90    6.90
  -6   3  -2    7.30    6.20
  -6   3  -2    9.60    4.30
  -6   3  -2   20.60    6.50
  -6   3  -2    8.60   11.20
   6  -3   2   16.80    9.20
   6  -3   2   11.70    4.30
   6  -3   2    6.60   11.90
   6  -3   2   16.10    8.30
   6  -3   2    6.70    6.10
   6  -3   2   12.00   10.20
   6  -3   2   21.60    5.90
   6  -3   2    7.40    5.60
  -7   3  -2   -9.80    7.90
  -7   3  -2    1.30    7.10
  -7   3  -2    8.70    7.30
  -7   3  -2    9.00    5.30
  -7   3  -2   24.90   13.20
   7  -3   2   -5.70    4.50
   7  -3   2   28.80   14.10
   7  -3   2    0.10   10.00
   7  -3   2  -15.30    7.00
   7  -3   2    4.50    6.00
   7  -3   2   -5.60    6.10
  -8   3  -2    9.10    7.20
  -8   3  -2   12.80    9.40
  -8   3  -2   35.10   13.10
  -8   3  -2   11.60    9.10
   8  -3   2    5.90   10.10
   8  -3   2   12.40    8.90
   8  -3   2  -11.90   16.90
   8  -3   2   26.10   18.50
   8  -3   2   20.80    9.40
   8  -3   2   21.40    7.30
  -9   3  -2    7.30   12.90
  -9   3  -2   -0.20   13.30
   9  -3   2    7.30   10.50
   9  -3   2    8.10    9.00
   9  -3   2    8.40   13.00
   9  -3   2    7.30   10.80
  10   2  -2   42.90   12.30
  10   2  -2   44.10   11.90
  10   2  -2   32.80   19.90
  10   2  -2   67.79   12.20
 -10  -2   2   13.10   21.20
 -10  -2   2   49.40   28.10
 -10  -2   2   38.40   16.80
   9   2  -2   16.80    8.80
   9   2  -2    0.40    7.90
   9   2  -2    1.10   14.10
   9   2  -2    5.70    8.10
  -9  -2   2   11.00   12.40
  -9  -2   2    8.20    8.60
  -9  -2   2    7.30    9.00
  -9  -2   2   -8.20   19.20
  -9  -2   2   10.20   14.10
   8   2  -2  308.67   23.70
   8   2  -2  276.77   27.30
   8   2  -2  309.27   23.20
   8   2  -2  310.27   22.90
   8   2  -2  326.67   29.40
  -8  -2   2  275.97   26.60
  -8  -2   2  363.76   33.90
  -8  -2   2  287.87   22.90
  -8  -2   2  293.77   22.80
  -8  -2   2  322.67   22.90
  -8  -2   2  284.57   28.00
   7   2  -2    9.40    6.60
   7   2  -2   -4.60    3.90
   7   2  -2    1.40    8.70
   7   2  -2    3.10    7.80
   7   2  -2    1.10    4.70
   7   2  -2   -1.00    4.50
   7   2  -2   -2.10    9.10
   7   2  -2   11.20    8.50
  -7  -2   2    0.10    5.50
  -7  -2   2   -2.70    7.60
  -7  -2   2    6.60    3.30
  -7  -2   2    3.60    7.20
  -7  -2   2    8.70    6.60
  -7  -2   2   -0.20    4.70
  -7  -2   2   21.10   11.50
  -7  -2   2    1.30    5.20
   6   2  -2 1392.46   83.69
   6   2  -2 1444.56   82.39
   6   2  -2 1316.87   84.79
   6   2  -2 1405.26   85.79
   6   2  -2 1453.95   83.79
   6   2  -2 1335.47   81.69
   6   2  -2 1412.06   84.59
   6   2  -2 1443.66   82.79
  -6  -2   2 1471.05   84.79
  -6  -2   2 1379.06   81.29
  -6  -2   2 1397.36   82.79
  -6  -2   2 1463.95   87.09
  -6  -2   2 1317.27   82.09
  -6  -2   2 1334.57   81.49
  -6  -2   2 1203.08   82.69
  -6  -2   2 1464.15   85.19
   5   2  -2    2.60    3.80
   5   2  -2    9.50    5.70
   5   2  -2    0.70    4.50
   5   2  -2    5.00    3.00
   5   2  -2   -0.40    3.90
   5   2  -2    7.70    2.60
   5   2  -2    7.90    5.80
  -5  -2   2    8.50    3.30
  -5  -2   2    3.80    2.00
  -5  -2   2   -0.90    3.80
  -5  -2   2   -4.10    5.90
  -5  -2   2    2.10    2.80
  -5  -2   2    5.40    4.90
  -5  -2   2    5.10    3.60
  -5  -2   2    3.60    3.70
   4   2  -2 4575.14  264.47
   4   2  -2 4718.93  265.37
   4   2  -2 4764.82  267.27
   4   2  -2 4696.53  266.57
   4   2  -2 4332.67  263.67
   4   2  -2 4806.92  266.07
   4   2  -2 4483.35  264.87
  -4  -2   2 4403.96  264.47
  -4  -2   2 4792.72  266.27
  -4  -2   2 4782.52  267.67
  -4  -2   2 4332.97  264.97
  -4  -2   2 4618.54  266.07
  -4  -2   2 4613.34  265.47
  -4  -2   2 4470.35  263.97
   3   2  -2   71.59    6.40
   3   2  -2   68.69    4.60
   3   2  -2   78.39    8.70
   3   2  -2   73.59    5.90
   3   2  -2   74.69    6.90
   3   2  -2   70.49    5.60
   3   2  -2   63.29    7.60
  -3  -2   2   72.29    7.00
  -3  -2   2   71.09    5.70
  -3  -2   2   70.59    7.00
  -3  -2   2   70.29    7.10
  -3  -2   2   67.79    5.20
  -3  -2   2   68.49    6.60
  -3  -2   2   72.89    8.60
   2   2  -2 9051.59  516.25
   2   2  -2 9166.08  516.95
   2   2  -2 8647.33  517.25
  -2  -2   2 8828.52  517.35
  -2  -2   2 9129.79  516.85
  -2  -2   2 9769.22  517.65
  -2  -2   2 8854.81  516.25
  -2  -2   2 8843.72  515.65
  -2  -2   2 8761.92  516.35
   1   2  -2    9.00    3.80
   1   2  -2   10.10    3.00
   1   2  -2   12.70    1.80
   1   2  -2   12.30    1.80
   1   2  -2   12.90    1.60
  -1  -2   2   11.00    1.30
  -1  -2   2   13.70    2.40
  -1  -2   2   11.70    1.50
  -1  -2   2   14.30    2.00
  -1  -2   2   11.30    1.70
  -1  -2   2   10.40    1.30
  -1  -2   2   15.50    3.30
  -1  -2   2   12.00    2.20
  -1  -2   2    8.80    2.90
  -1  -2   2   14.30    3.00
   0   2  -2 5703.73  343.27
   0  -2   2 5920.41  343.27
   0  -2   2 6380.76  343.67
   0  -2   2 5695.13  342.57
   0  -2   2 5830.52  342.97
   0  -2   2 6175.58  342.97
   0  -2   2 6177.18  344.77
  -1   2  -2  355.56   20.40
  -1   2  -2  339.37   20.90
  -1   2  -2  318.87   19.60
  -1   2  -2  347.97   19.60
  -1   2  -2  364.86   21.40
   1  -2   2  327.47   20.00
   1  -2   2  299.27   21.30
   1  -2   2  323.67   20.50
   1  -2   2  325.77   20.20
   1  -2   2  336.07   19.80
   1  -2   2  329.27   19.40
   1  -2   2  353.06   20.20
   1  -2   2  336.37   19.70
   1  -2   2  318.87   22.20
  -2   2  -2 4605.64  250.17
  -2   2  -2 4545.04  249.48
  -2   2  -2 4518.15  249.78
  -2   2  -2 4371.16  250.67
  -2   2  -2 4060.99  248.78
  -2   2  -2 4530.05  252.47
  -2   2  -2 3715.53  250.07
  -2   2  -2 4488.35  249.88
   2  -2   2 4464.95  249.58
   2  -2   2 4411.06  250.07
   2  -2   2 4255.37  249.08
   2  -2   2 4341.37  249.78
   2  -2   2 4581.54  252.27
   2  -2   2 4477.25  249.97
   2  -2   2 3877.51  250.27
  -3   2  -2    9.60    5.60
  -3   2  -2   16.00    3.10
  -3   2  -2   16.00    3.60
  -3   2  -2   11.50    3.60
  -3   2  -2   12.40    2.60
   3  -2   2   12.40    2.80
   3  -2   2   11.70    2.70
   3  -2   2   11.30    4.70
   3  -2   2   12.70    3.30
   3  -2   2   11.90    3.40
   3  -2   2   13.30    5.70
   3  -2   2   13.90    2.30
   3  -2   2   16.90    3.80
  -4   2  -2  559.24   31.90
  -4   2  -2  521.45   32.00
  -4   2  -2  488.75   32.00
  -4   2  -2  533.55   35.50
  -4   2  -2  531.15   32.10
   4  -2   2  521.55   31.80
   4  -2   2  488.05   33.00
   4  -2   2  497.65   31.80
   4  -2   2  498.25   31.10
   4  -2   2  566.64   32.40
   4  -2   2  510.75   35.10
   4  -2   2  488.85   33.00
  -5   2  -2   38.80    9.60
  -5   2  -2   32.50    6.50
  -5   2  -2   35.70    5.90
  -5   2  -2   40.50    5.90
  -5   2  -2   45.40    7.00
  -5   2  -2   38.60    6.30
   5  -2   2   29.60    4.60
   5  -2   2   36.70    7.60
   5  -2   2   33.10    8.70
   5  -2   2   30.90    8.50
   5  -2   2   39.20    5.70
   5  -2   2   28.40    5.30
   5  -2   2   28.70    6.80
   5  -2   2   34.20    6.50
  -6   2  -2  103.89   11.40
  -6   2  -2   91.89   11.10
  -6   2  -2   91.99   13.90
  -6   2  -2  105.09   12.40
  -6   2  -2   98.79   11.00
  -6   2  -2   86.89   10.20
   6  -2   2   71.99   13.40
   6  -2   2  112.49   10.70
   6  -2   2  110.09   12.10
   6  -2   2   90.89   12.30
   6  -2   2   86.09   13.70
   6  -2   2  101.69    9.20
   6  -2   2  111.49   10.40
   6  -2   2   97.19   13.80
  -7   2  -2    9.60    7.90
  -7   2  -2   32.30    7.80
  -7   2  -2   19.30   12.50
  -7   2  -2   13.80    7.50
  -7   2  -2   20.10    5.50
   7  -2   2   26.50    6.00
   7  -2   2   12.10    6.90
   7  -2   2   20.10   10.90
   7  -2   2   16.90    7.60
   7  -2   2   16.40   12.70
   7  -2   2   43.00   13.80
   7  -2   2   22.60    8.00
  -8   2  -2    4.20    8.40
  -8   2  -2    6.10    6.30
  -8   2  -2   -1.80    9.40
   8  -2   2   12.50    8.20
   8  -2   2  -20.20   14.00
   8  -2   2   -9.80   17.40
   8  -2   2   22.80    8.90
   8  -2   2    9.20    9.70
  -9   2  -2  -11.00   11.60
  -9   2  -2   -4.00   13.40
   9  -2   2    7.00   11.70
   9  -2   2  -11.60   12.50
   9  -2   2    1.40   11.30
   9  -2   2   -3.70    7.60
  10   1  -2    6.80   13.40
  10   1  -2    5.80   17.30
  10   1  -2   -1.80   10.50
  10   1  -2    4.90   20.90
  10   1  -2    5.80   10.50
 -10  -1   2    6.90   15.80
 -10  -1   2    2.20   17.80
 -10  -1   2   33.80   27.40
 -10  -1   2   -0.80   14.90
   9   1  -2   31.10   15.90
   9   1  -2   40.80   10.70
   9   1  -2   33.10   13.30
   9   1  -2   31.20    9.70
   9   1  -2   40.70   10.70
  -9  -1   2   23.10   11.90
  -9  -1   2   17.00   14.50
  -9  -1   2   27.00   11.70
  -9  -1   2   59.19   10.00
   8   1  -2   69.69   14.40
   8   1  -2   74.89   10.60
   8   1  -2   88.39   16.00
   8   1  -2   83.69   15.60
  -8  -1   2   80.29   11.20
  -8  -1   2   88.09   12.60
  -8  -1   2   96.29   15.80
  -8  -1   2   77.69   10.80
  -8  -1   2   74.39   18.30
  -8  -1   2   78.89   14.20
   7   1  -2  281.47   20.70
   7   1  -2  326.77   24.80
   7   1  -2  227.18   22.80
   7   1  -2  280.37   22.70
   7   1  -2  275.87   19.60
   7   1  -2  279.77   19.80
   7   1  -2  299.77   25.30
   7   1  -2  288.27   23.70
  -7  -1   2  266.27   21.60
  -7  -1   2  255.67   18.50
  -7  -1   2  227.98   21.80
  -7  -1   2  272.77   19.50
  -7  -1   2  293.37   24.40
  -7  -1   2  275.67   23.40
  -7  -1   2  305.47   27.30
  -7  -1   2  264.37   19.80
   6   1  -2  205.28   14.40
   6   1  -2  186.18   17.50
   6   1  -2  194.68   14.10
   6   1  -2  201.98   18.60
   6   1  -2  181.38   14.80
   6   1  -2  194.88   16.30
   6   1  -2  186.58   17.00
  -6  -1   2  191.98   14.60
  -6  -1   2  181.28   20.30
  -6  -1   2  223.98   18.10
  -6  -1   2  183.68   13.30
  -6  -1   2  184.08   17.20
  -6  -1   2  155.28   15.80
  -6  -1   2  205.28   14.40
  -6  -1   2  214.18   16.10
   5   1  -2  998.70   56.59
   5   1  -2  910.21   57.59
   5   1  -2  929.41   54.59
   5   1  -2  930.51   55.89
   5   1  -2  968.60   55.39
   5   1  -2  928.51   56.79
   5   1  -2  899.21   57.19
  -5  -1   2  901.31   55.89
  -5  -1   2  889.31   57.39
  -5  -1   2  912.11   55.49
  -5  -1   2  942.01   58.99
  -5  -1   2  921.31   55.39
  -5  -1   2  926.01   54.69
  -5  -1   2  922.61   57.69
   4   1  -2 1282.37   76.49
   4   1  -2 1243.88   75.89
   4   1  -2 1280.57   77.29
   4   1  -2 1332.47   74.79
   4   1  -2 1339.37   75.39
   4   1  -2 1378.96   76.29
  -4  -1   2 1280.37   77.19
  -4  -1   2 1237.68   75.49
  -4  -1   2 1313.87   77.19
  -4  -1   2 1302.67   74.89
  -4  -1   2 1327.47   75.89
  -4  -1   2 1311.87   78.29
  -4  -1   2 1089.89   75.69
  -4  -1   2 1306.17   75.69
   3   1  -2 3626.64  218.68
   3   1  -2 3888.31  217.78
   3   1  -2 3891.51  218.38
   3   1  -2 3837.22  219.58
   3   1  -2 3939.11  218.98
   3   1  -2 3861.91  219.88
   3   1  -2 3864.91  219.28
  -3  -1   2 3756.32  219.68
  -3  -1   2 3950.20  220.58
  -3  -1   2 3261.67  218.58
  -3  -1   2 3799.52  218.08
  -3  -1   2 3737.63  218.58
  -3  -1   2 3867.01  218.98
  -3  -1   2 3917.91  219.78
   2   1  -2 3005.50  169.58
   2   1  -2 3331.07  170.08
   2   1  -2 2800.22  167.78
   2   1  -2 3048.20  168.88
   2   1  -2 2889.31  168.38
   2   1  -2 2952.40  169.28
   2   1  -2 2952.10  168.68
   2   1  -2 2985.10  168.88
  -2  -1   2 2939.61  169.38
  -2  -1   2 2792.62  168.18
  -2  -1   2 2825.32  168.48
  -2  -1   2 2535.85  168.58
  -2  -1   2 2949.21  169.98
  -2  -1   2 3057.59  169.18
   1   1  -2 4445.46  259.37
   1   1  -2 4520.75  260.47
   1   1  -2 4915.61  260.17
  -1  -1   2 4210.98  259.17
  -1  -1   2 4963.50  260.07
  -1  -1   2 4475.35  259.57
  -1  -1   2 4161.78  259.07
  -1  -1   2 4480.95  259.97
   0   1  -2 2873.01  176.48
   0   1  -2 3148.49  176.68
   0   1  -2 3290.87  177.78
   0   1  -2 2725.03  176.68
   0  -1   2 3181.48  176.78
   0  -1   2 3162.38  177.28
   0  -1   2 3205.88  177.88
   0  -1   2 3144.69  176.48
   0  -1   2 3039.00  176.68
   0  -1   2 2920.21  176.48
   0  -1   2 3187.78  176.58
  -1   1  -2 7271.17  422.66
  -1   1  -2 6998.60  423.36
   1  -1   2 7694.53  424.46
   1  -1   2 7542.25  422.36
  -2   1  -2 2090.49  117.09
  -2   1  -2 2108.99  117.19
  -2   1  -2 1893.61  116.59
  -2   1  -2 2193.28  117.59
  -2   1  -2 1965.60  116.99
   2  -1   2 2052.29  119.09
   2  -1   2 1978.10  118.59
   2  -1   2 2016.60  117.49
   2  -1   2 2025.20  117.29
   2  -1   2 2043.30  117.59
   2  -1   2 1992.60  116.79
   2  -1   2 2010.40  117.09
   2  -1   2 2032.10  117.09
  -3   1  -2 1055.59   67.99
  -3   1  -2 1196.28   71.19
  -3   1  -2 1252.67   68.79
  -3   1  -2 1020.10   68.99
  -3   1  -2 1050.39   69.09
  -3   1  -2 1213.18   69.09
  -3   1  -2 1251.07   68.99
  -3   1  -2 1211.08   68.59
   3  -1   2 1235.28   68.79
   3  -1   2 1168.68   69.49
   3  -1   2 1145.09   70.39
   3  -1   2 1183.68   68.79
   3  -1   2 1190.98   70.49
   3  -1   2 1205.98   68.29
   3  -1   2 1233.18   68.69
   3  -1   2 1184.48   70.79
  -4   1  -2 1012.40   58.59
  -4   1  -2  992.10   59.09
  -4   1  -2 1024.10   58.89
  -4   1  -2 1001.70   59.39
  -4   1  -2  957.90   61.19
   4  -1   2  973.30   57.99
   4  -1   2  972.70   58.49
   4  -1   2  937.71   59.49
   4  -1   2  958.30   60.79
   4  -1   2  991.70   58.49
   4  -1   2 1080.59   58.89
   4  -1   2  934.31   59.59
  -5   1  -2  623.34   38.30
  -5   1  -2  650.73   38.80
  -5   1  -2  625.14   41.80
  -5   1  -2  587.14   38.80
  -5   1  -2  626.54   39.50
  -5   1  -2  628.64   38.30
   5  -1   2  581.54   39.80
   5  -1   2  604.14   41.20
   5  -1   2  603.94   39.90
   5  -1   2  608.94   38.30
   5  -1   2  666.23   39.00
   5  -1   2  605.94   37.60
   5  -1   2  644.24   41.30
   5  -1   2  647.14   38.40
  -6   1  -2  329.77   26.80
  -6   1  -2  335.87   22.60
  -6   1  -2  345.07   22.70
  -6   1  -2  295.37   23.60
  -6   1  -2  303.17   23.20
  -6   1  -2  369.46   28.40
   6  -1   2  319.27   26.10
   6  -1   2  323.17   24.80
   6  -1   2  326.57   21.50
   6  -1   2  329.87   22.50
   6  -1   2  328.57   22.30
   6  -1   2  358.46   23.60
   6  -1   2  324.67   27.20
   6  -1   2  297.37   24.50
  -7   1  -2   60.99    9.30
  -7   1  -2   80.39   14.40
  -7   1  -2   51.09    9.10
  -7   1  -2   58.69    9.90
  -7   1  -2   42.30    6.80
  -7   1  -2   64.99    9.80
  -7   1  -2   65.99    9.30
   7  -1   2   62.09   13.80
   7  -1   2   50.49   11.80
   7  -1   2   58.29    8.10
   7  -1   2   77.59   10.40
   7  -1   2   65.79   12.40
   7  -1   2   61.69    9.30
   7  -1   2   61.89   14.00
   7  -1   2   61.29    8.00
  -8   1  -2   26.50    9.70
  -8   1  -2   35.70   11.50
  -8   1  -2   22.20    7.90
  -8   1  -2   29.00    6.90
   8  -1   2   49.80   12.20
   8  -1   2   42.50    8.00
   8  -1   2   32.10    9.40
   8  -1   2   49.00   14.70
   8  -1   2   19.80   16.80
   8  -1   2   52.99   10.00
   8  -1   2   12.70   14.40
  -9   1  -2   -4.40   13.30
  -9   1  -2    7.20   13.40
   9  -1   2   -2.30   11.60
   9  -1   2    1.30   18.60
   9  -1   2   -5.70   10.70
   9  -1   2   18.20   11.30
   9  -1   2    9.10   10.20
   9  -1   2   14.60    8.00
 -10   1  -2  -11.30   15.30
  10  -1   2    2.60   15.40
  10  -1   2   -5.20   14.50
  10  -1   2    3.80    9.30
  10  -1   2   32.20   15.70
  10  -1   2    1.60   12.80
  10   0  -2  -24.40   17.30
  10   0  -2   -4.50   15.90
  10   0  -2  -29.30   20.10
  10   0  -2    5.30   12.60
  10   0  -2    1.30   10.00
 -10   0   2   -7.60   27.80
 -10   0   2  -34.90   18.00
 -10   0   2   -4.90   17.20
 -10   0   2   22.00   17.90
   9   0  -2  -10.60    9.20
   9   0  -2   24.60   13.40
   9   0  -2   11.80    8.60
   9   0  -2   17.70    9.70
   9   0  -2   26.10   25.30
  -9   0   2    6.50   21.40
  -9   0   2   20.80    9.70
  -9   0   2   -1.50   12.30
  -9   0   2   -5.40   13.50
  -9   0   2   20.90   13.20
   8   0  -2   -3.40    6.50
   8   0  -2   13.60   11.10
   8   0  -2    6.40    6.20
   8   0  -2   -1.50    9.40
   8   0  -2    2.70    6.80
   8   0  -2    5.10   13.20
  -8   0   2    2.90    6.60
  -8   0   2   12.20    7.80
  -8   0   2   -7.60   14.60
  -8   0   2    3.40    9.00
  -8   0   2    0.40    9.30
  -8   0   2    8.00   11.90
   7   0  -2   50.39   11.50
   7   0  -2   71.39   11.90
   7   0  -2   76.59    9.10
   7   0  -2  112.69   15.10
   7   0  -2   94.69    9.60
   7   0  -2   58.19    9.20
   7   0  -2   69.49   12.70
  -7   0   2   76.59   12.10
  -7   0   2   83.69   12.80
  -7   0   2   71.09    9.40
  -7   0   2   85.59   13.30
  -7   0   2   53.19   11.40
  -7   0   2   93.29   15.40
  -7   0   2   93.09    9.50
   6   0  -2   19.50    4.30
   6   0  -2    6.20    3.40
   6   0  -2   18.50    5.70
   6   0  -2   13.50    6.60
   6   0  -2   17.80    6.60
   6   0  -2   14.10    7.80
   6   0  -2   10.70    6.40
  -6   0   2    9.10    7.10
  -6   0   2   16.50    3.80
  -6   0   2   -2.60    5.30
  -6   0   2   15.40    4.10
  -6   0   2   11.10    7.20
  -6   0   2   16.70    9.60
  -6   0   2   16.50    5.90
  -6   0   2   11.80    4.50
   5   0  -2  605.14   35.50
   5   0  -2  592.94   36.80
   5   0  -2  562.84   37.80
   5   0  -2  584.14   37.50
   5   0  -2  554.24   37.50
   5   0  -2  612.94   35.10
   5   0  -2  566.84   36.00
  -5   0   2  549.95   35.60
  -5   0   2  560.74   37.20
  -5   0   2  603.24   38.30
  -5   0   2  554.64   38.80
  -5   0   2  595.44   35.10
  -5   0   2  565.04   38.00
  -5   0   2  587.24   35.00
   4   0  -2  316.37   20.70
   4   0  -2  308.97   21.90
   4   0  -2  337.37   20.30
   4   0  -2  336.47   21.40
   4   0  -2  330.47   19.90
   4   0  -2  306.17   21.80
  -4   0   2  340.97   20.10
  -4   0   2  322.37   19.90
  -4   0   2  313.77   21.70
  -4   0   2  292.47   22.00
  -4   0   2  331.07   23.30
  -4   0   2  310.97   20.40
  -4   0   2  313.07   22.30
   3   0  -2 1685.93   93.69
   3   0  -2 1551.34   94.89
   3   0  -2 1598.44   94.89
   3   0  -2 1639.54   94.79
   3   0  -2 1659.33   94.19
   3   0  -2 1423.66   93.79
   3   0  -2 1566.04   93.99
  -3   0   2 1663.63   95.69
  -3   0   2 1664.43   93.49
  -3   0   2 1595.14   95.09
  -3   0   2 1647.84   95.19
  -3   0   2 1556.64   93.79
  -3   0   2 1751.62   93.89
   2   0  -2  714.43   42.00
   2   0  -2  693.93   42.50
   2   0  -2  760.72   41.70
   2   0  -2  707.93   42.00
   2   0  -2  722.53   42.40
   2   0  -2  675.63   42.50
  -2   0   2  680.23   42.50
  -2   0   2  803.02   42.30
  -2   0   2  631.34   42.70
   1   0  -2 5283.47  296.37
   1   0  -2 5196.38  296.77
   1   0  -2 5844.72  297.27
   1   0  -2 5143.39  296.57
  -1   0   2 4625.04  297.27
  -1   0   2 5425.86  297.07
  -1   0   2 4501.55  296.37
  -1   0   2 5319.27  296.77
  -1   0   2 5230.68  296.97
   0   0  -2 1363.06   84.39
   0   0  -2 1347.27   84.29
   0   0  -2 1502.95   84.69
   0   0  -2 1551.84   84.89
   0   0  -2 1508.15   84.69
   0   0  -2 1386.16   84.69
   0   0   2 1417.76   84.89
   0   0   2 1560.54   84.79
   0   0   2 1543.05   84.99
   0   0   2 1468.95   84.99
   0   0   2 1392.76   84.29
   0   0   2 1587.14   84.79
  -1   0  -2 5665.83  305.97
  -1   0  -2 5401.66  306.27
  -1   0  -2 5350.66  305.77
  -1   0  -2 4636.84  305.77
   1   0   2 5089.59  306.17
   1   0   2 5879.01  306.27
  -2   0  -2  754.72   44.20
  -2   0  -2  625.64   44.00
  -2   0  -2  768.62   43.70
  -2   0  -2  743.93   43.90
  -2   0  -2  782.32   44.20
  -2   0  -2  793.72   44.40
   2   0   2  773.42   44.50
   2   0   2  737.53   45.50
   2   0   2  744.73   44.10
   2   0   2  729.63   44.50
   2   0   2  779.62   44.60
   2   0   2  748.13   43.90
   2   0   2  764.92   43.90
  -3   0  -2 5436.86  315.57
  -3   0  -2 5766.22  316.37
  -3   0  -2 5620.94  317.87
  -3   0  -2 5337.87  315.87
  -3   0  -2 5296.37  315.47
  -3   0  -2 5504.05  316.37
  -3   0  -2 5531.45  315.87
   3   0   2 5574.64  316.67
   3   0   2 5249.57  315.77
   3   0   2 5558.44  316.67
   3   0   2 5364.86  317.47
   3   0   2 5661.13  317.37
   3   0   2 5419.16  315.57
   3   0   2 5522.35  315.87
   3   0   2 5662.13  316.27
  -4   0  -2  269.27   20.70
  -4   0  -2  289.27   17.80
  -4   0  -2  274.07   18.50
  -4   0  -2  284.07   18.60
  -4   0  -2  267.27   17.60
  -4   0  -2  252.27   16.90
  -4   0  -2  280.47   17.60
   4   0   2  266.27   17.90
   4   0   2  240.78   19.00
   4   0   2  267.07   17.60
   4   0   2  263.27   18.80
   4   0   2  274.17   18.10
   4   0   2  269.57   17.20
   4   0   2  279.07   18.80
  -5   0  -2 1823.22  100.49
  -5   0  -2 1714.03  101.79
  -5   0  -2 1752.62  100.69
  -5   0  -2 1680.93  103.39
  -5   0  -2 1829.92  100.69
  -5   0  -2 1733.83  101.49
  -5   0  -2 1556.44   99.69
   5   0   2 1578.04  101.79
   5   0   2 1682.13  102.19
   5   0   2 1669.73  100.49
   5   0   2 1695.93  100.09
   5   0   2 1664.63  102.09
   5   0   2 1826.22  101.09
   5   0   2 1657.63  103.19
   5   0   2 1845.72  101.19
  -6   0  -2   71.59    8.60
  -6   0  -2   73.79   10.20
  -6   0  -2   72.39    7.30
  -6   0  -2   77.99    9.10
  -6   0  -2   64.69   12.40
  -6   0  -2   78.69   10.80
  -6   0  -2   79.09    9.70
   6   0   2   83.59   10.50
   6   0   2   53.29   11.50
   6   0   2   93.89   10.20
   6   0   2   77.09   11.40
   6   0   2   90.09   12.10
   6   0   2   70.29    8.50
   6   0   2   66.89    7.40
   6   0   2   59.69    9.40
  -7   0  -2  365.56   28.30
  -7   0  -2  394.16   27.60
  -7   0  -2  373.96   32.60
  -7   0  -2  422.06   29.70
  -7   0  -2  412.56   27.60
  -7   0  -2  391.36   27.20
   7   0   2  434.46   30.70
   7   0   2  362.76   33.30
   7   0   2  379.46   26.30
   7   0   2  428.26   28.80
   7   0   2  359.26   30.10
   7   0   2  458.85   29.50
   7   0   2  437.16   27.70
  -8   0  -2   -4.30    7.30
  -8   0  -2   17.30   10.30
  -8   0  -2   -0.90    5.30
  -8   0  -2   -4.80   13.60
   8   0   2   -6.80    4.60
   8   0   2   -4.30    7.70
   8   0   2   -1.60    5.90
   8   0   2   -3.80   10.90
   8   0   2    1.50    8.60
   8   0   2   -7.00   12.30
   8   0   2   -7.80    7.20
   8   0   2  -31.10   14.70
  -9   0  -2   71.89   14.70
  -9   0  -2   58.39   22.10
   9   0   2   97.19   21.20
   9   0   2   63.19   12.50
   9   0   2   60.29   14.20
   9   0   2   61.19   15.90
   9   0   2   61.79    9.80
   9   0   2   55.19   13.40
   9   0   2   63.69   14.70
 -10   0  -2   10.90   16.90
 -10   0  -2  -18.70   24.60
 -10   0  -2  -18.00   13.80
  10   0   2   -7.50   12.20
  10   0   2   -2.80    9.00
  10   0   2   23.50   16.30
  10   0   2   -3.40   13.60
  10   0   2  -15.70   12.50
   9  -1  -2   -7.60   13.90
   9  -1  -2   -8.80   10.10
   9  -1  -2    3.20   10.80
   9  -1  -2    1.20    8.00
   9  -1  -2   35.40   18.30
  -9   1   2    4.10   20.70
  -9   1   2  -21.30   13.60
  -9   1   2    4.40   14.50
  -9   1   2   -7.40   16.00
   8  -1  -2    5.30    7.50
   8  -1  -2   -3.20   13.00
   8  -1  -2    4.40    5.80
   8  -1  -2   30.80   13.90
   8  -1  -2    8.90   10.00
   8  -1  -2   -5.30    6.10
  -8   1   2    9.10   13.00
  -8   1   2   11.30   11.60
  -8   1   2   -9.50   11.30
  -8   1   2    9.00   15.00
   7  -1  -2    3.10    5.50
   7  -1  -2   15.80   10.10
   7  -1  -2    9.80    5.20
   7  -1  -2    3.70    7.30
   7  -1  -2   -3.70    9.60
   7  -1  -2   -3.40    4.30
  -7   1   2   -3.40    8.90
  -7   1   2    8.30    8.60
  -7   1   2    0.90    9.20
  -7   1   2    0.90   10.20
  -7   1   2    6.70    5.00
  -7   1   2    8.30    5.60
   6  -1  -2   17.40    7.80
   6  -1  -2    2.10    3.40
   6  -1  -2    0.00    3.40
   6  -1  -2   10.10    5.10
   6  -1  -2   -1.10    6.50
   6  -1  -2    4.80    5.40
   6  -1  -2   -1.40    7.20
  -6   1   2    0.70    8.00
  -6   1   2   -0.90    6.20
  -6   1   2    8.50    7.30
  -6   1   2    1.70    6.40
  -6   1   2    4.70    4.10
  -6   1   2   -2.70    6.60
  -6   1   2    2.60    4.00
   5  -1  -2    2.10    4.10
   5  -1  -2    4.30    2.70
   5  -1  -2   10.00    5.50
   5  -1  -2    7.90    5.40
   5  -1  -2    5.70    3.30
   5  -1  -2    6.00    5.10
   5  -1  -2   10.60    3.30
  -5   1   2   12.90    6.30
  -5   1   2   13.30    6.30
  -5   1   2    3.30    2.90
  -5   1   2   11.50    5.60
  -5   1   2   14.80    4.00
  -5   1   2    3.60    5.30
  -5   1   2    4.00    7.00
  -5   1   2   10.20    4.20
   4  -1  -2  199.98   15.50
   4  -1  -2  205.08   15.50
   4  -1  -2  223.08   15.00
   4  -1  -2  191.68   13.50
   4  -1  -2  202.08   14.10
   4  -1  -2  217.58   15.80
   4  -1  -2  216.18   13.60
  -4   1   2  183.48   16.30
  -4   1   2  223.68   13.60
  -4   1   2  160.68   14.70
  -4   1   2  194.98   15.80
  -4   1   2  204.58   16.40
   3  -1  -2    1.30    1.50
   3  -1  -2    0.30    1.40
   3  -1  -2   -1.80    2.50
   3  -1  -2   -0.50    1.50
   3  -1  -2   -3.40    2.80
   3  -1  -2   -0.50    2.60
   3  -1  -2    1.00    2.30
  -3   1   2    1.30    3.10
  -3   1   2    1.70    2.80
  -3   1   2    1.20    3.20
  -3   1   2    0.80    1.40
  -3   1   2    6.90    3.10
  -3   1   2    1.40    3.50
  -3   1   2   -2.10    1.50
   2  -1  -2 1429.96   80.19
   2  -1  -2 1288.17   80.39
   2  -1  -2 1314.67   80.49
   2  -1  -2 1463.15   80.79
   2  -1  -2 1529.75   80.29
   2  -1  -2 1414.86   81.09
   2  -1  -2 1338.07   81.09
  -2   1   2 1384.36   81.09
  -2   1   2 1415.16   81.29
  -2   1   2 1313.67   81.29
  -2   1   2 1290.27   80.19
  -2   1   2 1415.96   80.29
   1  -1  -2  144.89    9.30
   1  -1  -2  142.29    9.50
   1  -1  -2  140.99    8.50
   1  -1  -2  144.49    9.30
   1  -1  -2  126.69   10.10
   1  -1  -2  150.18    9.00
  -1   1   2  120.39    9.20
  -1   1   2  144.39    9.20
  -1   1   2  147.49    9.50
  -1   1   2  129.99    9.30
  -1   1   2  141.99    8.90
  -1   1   2  129.89    8.50
  -1   1   2  144.79    9.70
   0  -1  -2 4453.45  249.28
   0  -1  -2 4273.27  248.98
   0  -1  -2 4517.35  249.28
   0  -1  -2 4284.07  249.08
   0  -1  -2 4377.46  248.98
   0   1   2 3943.41  249.18
   0   1   2 4569.94  249.18
   0   1   2 4259.97  249.48
   0   1   2 4706.43  249.58
   0   1   2 4051.69  249.08
  -1  -1  -2  213.28   13.30
  -1  -1  -2  219.98   13.10
  -1  -1  -2  204.98   13.10
  -1  -1  -2  198.78   13.20
   1   1   2  219.98   13.30
   1   1   2  191.38   13.10
   1   1   2  215.08   13.30
   1   1   2  235.28   13.50
  -2  -1  -2 4433.76  254.17
  -2  -1  -2 4341.97  253.87
  -2  -1  -2 4745.43  253.87
  -2  -1  -2 4569.24  253.67
  -2  -1  -2 3823.92  253.57
   2   1   2 4494.95  255.07
   2   1   2 4494.75  252.97
   2   1   2 4581.94  254.17
   2   1   2 4332.57  254.07
   2   1   2 4380.46  253.67
  -3  -1  -2   50.09    7.20
  -3  -1  -2   35.50    4.50
  -3  -1  -2   43.10    4.20
  -3  -1  -2   45.00    4.50
  -3  -1  -2   43.70    4.50
  -3  -1  -2   38.10    5.00
  -3  -1  -2   51.39    5.00
   3   1   2   43.00    4.10
   3   1   2   43.30    5.20
   3   1   2   36.50    6.10
   3   1   2   43.60    3.60
   3   1   2   49.80    5.10
   3   1   2   48.90    4.30
   3   1   2   43.50    5.00
  -4  -1  -2 3805.82  219.18
  -4  -1  -2 3796.32  218.48
  -4  -1  -2 3911.31  218.28
  -4  -1  -2 3751.12  220.78
  -4  -1  -2 3847.82  219.38
   4   1   2 3982.00  219.68
   4   1   2 3732.93  219.18
   4   1   2 3710.43  218.28
   4   1   2 3704.83  218.08
   4   1   2 3727.63  219.38
   4   1   2 3649.23  218.68
   4   1   2 3815.32  221.08
   4   1   2 3671.73  218.98
   4   1   2 3902.71  217.98
  -5  -1  -2   51.39    7.30
  -5  -1  -2   41.00    8.20
  -5  -1  -2   50.79    7.50
  -5  -1  -2   52.39    6.70
  -5  -1  -2   47.30    6.20
  -5  -1  -2   46.50    5.40
  -5  -1  -2   55.69    6.20
   5   1   2   56.09    6.00
   5   1   2   60.59    8.90
   5   1   2   48.90    6.90
   5   1   2   52.99    8.20
   5   1   2   50.79    6.60
   5   1   2   53.49    7.80
   5   1   2   46.50    6.10
   5   1   2   54.29    8.90
   5   1   2   56.59    7.80
  -6  -1  -2  854.61   56.19
  -6  -1  -2  962.70   52.59
  -6  -1  -2  805.82   51.59
  -6  -1  -2  913.61   54.19
  -6  -1  -2  863.31   52.59
  -6  -1  -2  932.41   52.39
  -6  -1  -2  826.62   53.59
   6   1   2  808.82   53.19
   6   1   2  861.71   56.29
   6   1   2  790.22   54.19
   6   1   2  758.22   54.99
   6   1   2  834.32   52.29
   6   1   2  843.32   54.29
   6   1   2  890.51   52.09
   6   1   2  904.41   52.79
   6   1   2  915.71   53.59
  -7  -1  -2   43.90    7.60
  -7  -1  -2   23.20    6.10
  -7  -1  -2   26.50    7.00
  -7  -1  -2   28.40   10.50
  -7  -1  -2   28.30    6.00
  -7  -1  -2   29.70    7.60
  -7  -1  -2   33.90    5.50
   7   1   2   29.70   12.10
   7   1   2   29.50    5.90
   7   1   2   35.10    7.70
   7   1   2   28.70    8.00
   7   1   2   25.30    8.80
   7   1   2   50.59   10.70
   7   1   2   28.90    7.50
   7   1   2   22.80    7.90
   7   1   2   25.00    5.40
  -8  -1  -2  301.47   25.30
  -8  -1  -2  343.57   25.80
  -8  -1  -2  319.67   30.20
  -8  -1  -2  273.37   22.70
  -8  -1  -2  246.98   21.10
   8   1   2  293.47   27.30
   8   1   2  316.27   24.20
   8   1   2  285.57   38.10
   8   1   2  287.17   22.60
   8   1   2  307.57   22.10
   8   1   2  325.57   26.20
   8   1   2  316.47   25.50
  -9  -1  -2    0.60   17.20
  -9  -1  -2    6.50   10.10
   9   1   2   10.20    6.90
   9   1   2    2.30   11.00
   9   1   2    7.50   12.80
   9   1   2    4.30    9.00
   9   1   2    7.80    8.10
   9   1   2   -4.50   12.60
 -10  -1  -2   21.30   15.40
 -10  -1  -2   53.79   16.60
 -10  -1  -2   15.20   24.20
  10   1   2   36.20   15.00
  10   1   2   49.80   11.30
  10   1   2   45.70   12.90
  10   1   2   42.60   12.40
   9  -2  -2   20.10   15.20
   9  -2  -2   10.30    8.10
   9  -2  -2   12.30   10.50
   9  -2  -2   26.90   12.00
  -9   2   2   -8.40   21.10
  -9   2   2   21.40   17.50
  -9   2   2    6.50   16.50
  -9   2   2   -5.80   17.30
   8  -2  -2    6.20    8.10
   8  -2  -2    2.90   11.80
   8  -2  -2    5.30   14.40
   8  -2  -2   20.50   14.00
   8  -2  -2    2.40    6.00
   8  -2  -2    2.80    7.30
  -8   2   2   10.90   13.50
  -8   2   2    0.90   14.50
  -8   2   2   -3.80   11.80
   7  -2  -2   39.00    6.90
   7  -2  -2   29.10    6.50
   7  -2  -2   31.10   11.20
   7  -2  -2   28.30    7.00
   7  -2  -2   33.00    9.90
   7  -2  -2   35.40   11.20
  -7   2   2   19.60    6.40
  -7   2   2   48.10   12.90
  -7   2   2   28.40   10.30
  -7   2   2   14.10   12.00
  -7   2   2   30.20    7.80
  -7   2   2   37.00   11.30
   6  -2  -2   10.30    4.70
   6  -2  -2   19.90    4.60
   6  -2  -2   18.10    9.00
   6  -2  -2   17.00    4.50
   6  -2  -2   14.80    7.60
   6  -2  -2    9.30    7.70
   6  -2  -2   16.90    8.00
  -6   2   2    7.20    8.50
  -6   2   2   20.90    8.80
  -6   2   2   25.70    9.20
  -6   2   2   11.70    7.80
  -6   2   2   10.70    4.90
  -6   2   2   15.20    5.50
  -6   2   2    9.70    7.80
   5  -2  -2   64.79    9.40
   5  -2  -2   48.90    6.90
   5  -2  -2   60.79    6.50
   5  -2  -2   64.79    9.40
   5  -2  -2   52.59    7.40
   5  -2  -2   45.60    9.20
   5  -2  -2   58.09    8.80
  -5   2   2   76.09   11.10
  -5   2   2   51.49    8.60
  -5   2   2   54.49    7.10
  -5   2   2   59.09    7.00
  -5   2   2   60.59    9.90
  -5   2   2   52.79    9.20
  -5   2   2   65.49   11.20
   4  -2  -2   33.20    4.50
   4  -2  -2   25.40    5.10
   4  -2  -2   34.70    5.30
   4  -2  -2   35.10    6.70
   4  -2  -2   31.40    6.40
   4  -2  -2   41.50    6.30
  -4   2   2   31.50    6.30
  -4   2   2   30.50    7.40
  -4   2   2   32.20    5.80
  -4   2   2   36.60    7.20
  -4   2   2   35.50    4.90
  -4   2   2   28.30    5.90
  -4   2   2   30.50    4.30
   3  -2  -2  570.84   33.70
   3  -2  -2  543.35   33.10
   3  -2  -2  546.45   34.00
   3  -2  -2  593.34   32.60
   3  -2  -2  504.55   31.60
   3  -2  -2  530.15   34.00
   3  -2  -2  546.05   32.90
  -3   2   2  545.15   34.40
  -3   2   2  473.15   33.50
  -3   2   2  538.55   34.10
  -3   2   2  563.64   34.40
  -3   2   2  546.95   35.50
   2  -2  -2   27.00    4.40
   2  -2  -2   27.90    3.30
   2  -2  -2   28.40    3.30
   2  -2  -2   24.40    3.20
   2  -2  -2   33.60    4.60
   2  -2  -2   27.10    4.20
   2  -2  -2   27.60    3.20
  -2   2   2   35.40    5.20
  -2   2   2   20.20    3.40
  -2   2   2   20.40    3.70
  -2   2   2   27.20    3.90
  -2   2   2   23.90    3.10
  -2   2   2   40.40    5.10
  -2   2   2   31.30    4.20
  -2   2   2   22.00    4.90
   1  -2  -2  459.05   26.60
   1  -2  -2  451.45   26.70
   1  -2  -2  372.36   26.40
   1  -2  -2  443.86   26.70
   1  -2  -2  414.26   25.80
  -1   2   2  476.05   25.80
  -1   2   2  448.36   26.80
  -1   2   2  426.36   26.90
  -1   2   2  427.76   25.90
  -1   2   2  454.35   26.00
   0  -2  -2 1095.69   65.39
   0  -2  -2 1160.38   65.09
   0  -2  -2 1061.39   65.79
   0  -2  -2 1166.88   65.69
   0  -2  -2 1182.58   65.79
   0  -2  -2 1091.79   65.19
   0   2   2 1014.10   65.89
   0   2   2 1199.58   65.99
   0   2   2 1104.79   65.19
   0   2   2 1229.98   65.79
   0   2   2 1092.09   65.49
  -1  -2  -2  476.95   32.40
  -1  -2  -2  525.25   32.20
  -1  -2  -2  584.44   32.20
  -1  -2  -2  515.05   32.20
  -1  -2  -2  574.24   32.50
   1   2   2  538.25   32.40
   1   2   2  580.74   32.20
   1   2   2  599.24   32.60
   1   2   2  548.45   32.40
   1   2   2  558.24   32.00
   1   2   2  470.35   32.50
   1   2   2  543.85   32.90
  -2  -2  -2    6.40    1.90
  -2  -2  -2    8.30    1.80
  -2  -2  -2   10.10    3.80
  -2  -2  -2   11.30    2.30
  -2  -2  -2    6.60    1.70
  -2  -2  -2    5.20    1.80
  -2  -2  -2    5.40    2.00
   2   2   2    3.50    1.80
   2   2   2    4.60    1.60
   2   2   2    5.20    1.70
   2   2   2    6.30    2.10
   2   2   2    6.80    1.80
   2   2   2    4.30    2.80
  -3  -2  -2 3034.70  173.58
  -3  -2  -2 3111.39  173.88
  -3  -2  -2 3063.19  174.18
  -3  -2  -2 2705.33  173.28
   3   2   2 2946.41  174.18
   3   2   2 3060.09  175.48
   3   2   2 2927.41  172.98
   3   2   2 3124.09  173.78
   3   2   2 2903.71  173.38
   3   2   2 3028.10  174.18
   3   2   2 3178.68  173.78
  -4  -2  -2  285.87   19.00
  -4  -2  -2  303.67   18.90
  -4  -2  -2  296.37   19.80
  -4  -2  -2  296.97   20.20
  -4  -2  -2  299.37   19.30
  -4  -2  -2  255.97   19.10
   4   2   2  313.07   19.00
   4   2   2  305.87   18.50
   4   2   2  304.77   22.00
   4   2   2  277.87   19.90
   4   2   2  283.77   19.30
   4   2   2  291.07   20.20
   4   2   2  313.87   19.10
   4   2   2  292.47   19.90
  -5  -2  -2  320.47   24.60
  -5  -2  -2  332.57   21.30
  -5  -2  -2  333.87   23.00
  -5  -2  -2  295.47   21.30
  -5  -2  -2  362.96   22.00
   5   2   2  271.37   21.60
   5   2   2  368.56   25.80
   5   2   2  347.57   21.20
   5   2   2  310.17   21.80
   5   2   2  371.56   21.80
   5   2   2  326.27   23.00
   5   2   2  344.17   21.60
  -6  -2  -2  224.48   15.90
  -6  -2  -2  221.08   16.10
  -6  -2  -2  216.28   17.20
  -6  -2  -2  211.88   17.30
  -6  -2  -2  212.58   15.00
  -6  -2  -2  213.98   15.40
  -6  -2  -2  210.38   19.80
   6   2   2  213.58   15.30
   6   2   2  216.58   16.50
   6   2   2  221.68   20.70
   6   2   2  219.88   18.00
   6   2   2  216.98   15.60
   6   2   2  177.18   16.10
   6   2   2  201.78   17.70
   6   2   2  211.68   15.50
  -7  -2  -2  371.36   31.50
  -7  -2  -2  393.26   28.10
  -7  -2  -2  412.76   26.30
  -7  -2  -2  391.76   28.50
  -7  -2  -2  407.16   26.90
  -7  -2  -2  372.56   25.40
   7   2   2  361.16   29.00
   7   2   2  381.06   32.00
   7   2   2  389.66   26.40
   7   2   2  389.66   27.50
   7   2   2  392.96   26.20
   7   2   2  406.46   29.30
   7   2   2  392.66   26.20
   7   2   2  393.26   27.50
  -8  -2  -2   59.59   14.90
  -8  -2  -2   69.39   12.60
  -8  -2  -2   52.19    8.90
  -8  -2  -2   45.30   10.50
  -8  -2  -2   79.19   10.00
   8   2   2   43.20   11.50
   8   2   2   66.89    9.20
   8   2   2   80.99   11.90
   8   2   2   71.39   10.60
   8   2   2   75.19   11.70
   8   2   2   78.99   12.10
  -9  -2  -2   58.79   29.50
  -9  -2  -2   44.50   15.80
  -9  -2  -2   77.89   14.20
   9   2   2   30.80   12.10
   9   2   2   43.00   15.10
   9   2   2   41.30    9.90
   9   2   2   67.69   10.70
   9   2   2   57.09   10.00
   9   2   2   86.99   13.40
 -10  -2  -2   54.49   23.60
 -10  -2  -2   54.89   15.60
 -10  -2  -2   23.10   15.80
  10   2   2   42.70   12.60
  10   2   2   28.90   11.20
  10   2   2   49.00   14.60
  10   2   2   55.49   10.30
   9  -3  -2   10.00   11.00
   9  -3  -2   20.30    9.90
   9  -3  -2   19.40   16.20
   9  -3  -2   11.00   12.90
  -9   3   2   14.10   20.30
  -9   3   2  -15.40   20.90
  -9   3   2    8.00   15.20
  -9   3   2    1.60   23.80
  -9   3   2   -3.80   18.80
   8  -3  -2    7.00    6.80
   8  -3  -2    0.70   13.30
   8  -3  -2  -17.60   11.20
   8  -3  -2   14.80   10.10
   8  -3  -2   11.40   16.70
   8  -3  -2    0.00    7.90
  -8   3   2   29.40   18.20
  -8   3   2   13.10   16.60
  -8   3   2    6.80   16.00
  -8   3   2   -5.80   10.50
  -8   3   2   31.00   15.40
   7  -3  -2   22.20    7.50
   7  -3  -2   35.10   11.40
   7  -3  -2   15.80    5.60
   7  -3  -2   21.20    8.20
   7  -3  -2   13.10   15.20
   7  -3  -2   22.20   12.30
  -7   3   2    7.80    8.50
  -7   3   2    5.70   11.40
  -7   3   2    8.10    8.90
  -7   3   2   19.50   13.90
  -7   3   2   16.70   12.60
  -7   3   2   12.90   10.80
   6  -3  -2   59.39    9.80
   6  -3  -2   56.29   11.80
   6  -3  -2   46.30    7.40
   6  -3  -2   65.79   10.20
   6  -3  -2   54.59    7.60
   6  -3  -2   50.69    7.30
  -6   3   2   56.89   11.30
  -6   3   2   72.29   12.60
  -6   3   2   87.29   15.00
  -6   3   2   35.70    7.30
  -6   3   2   48.20   11.70
  -6   3   2   51.59    9.30
  -6   3   2   38.30    6.80
   5  -3  -2    7.80    3.70
   5  -3  -2   17.20    7.40
   5  -3  -2    5.80    3.80
   5  -3  -2    8.60    3.20
   5  -3  -2    3.90    5.30
   5  -3  -2   18.90    7.30
  -5   3   2   -3.80    6.70
  -5   3   2   11.50    5.20
  -5   3   2    1.10    8.00
  -5   3   2   11.10    3.70
  -5   3   2    7.80    6.90
  -5   3   2    9.80    8.00
  -5   3   2   10.20    9.30
  -5   3   2    8.50    6.10
   4  -3  -2  213.08   16.50
   4  -3  -2  191.88   14.50
   4  -3  -2  196.98   14.30
   4  -3  -2  211.48   14.50
   4  -3  -2  215.68   16.40
   4  -3  -2  199.88   16.10
   4  -3  -2  215.28   13.60
  -4   3   2  206.18   16.30
  -4   3   2  202.78   14.00
  -4   3   2  203.28   16.80
  -4   3   2  165.68   14.70
  -4   3   2  202.58   16.50
  -4   3   2  197.58   16.20
  -4   3   2  175.08   14.80
  -4   3   2  190.58   18.60
   3  -3  -2  132.89    9.50
   3  -3  -2  124.99    9.60
   3  -3  -2  138.99    9.80
   3  -3  -2  107.69   10.90
   3  -3  -2  118.79   11.10
   3  -3  -2  138.79   11.30
  -3   3   2  147.09    9.80
  -3   3   2  146.89   12.00
  -3   3   2  142.29   11.70
  -3   3   2  112.59   13.40
  -3   3   2  106.79   11.20
  -3   3   2  120.49   10.60
   2  -3  -2   87.49    8.10
   2  -3  -2   82.69    6.60
   2  -3  -2   86.39    6.60
   2  -3  -2   89.69    7.70
   2  -3  -2   73.59    7.50
   2  -3  -2   85.99    6.60
  -2   3   2   76.79   10.10
  -2   3   2   80.39    8.10
  -2   3   2   73.69    6.60
  -2   3   2   90.69    6.70
  -2   3   2   70.59    8.00
  -2   3   2   69.29    7.40
  -2   3   2   86.59    8.10
   1  -3  -2   44.00    5.60
   1  -3  -2   64.09    5.00
   1  -3  -2   64.19    5.60
   1  -3  -2   63.69    5.00
   1  -3  -2   64.19    5.70
   1  -3  -2   68.39    6.30
   1  -3  -2   50.49    5.50
  -1   3   2   66.79    6.00
  -1   3   2   63.99    6.00
  -1   3   2   64.09    5.10
  -1   3   2   51.09    6.30
  -1   3   2   66.39    5.80
  -1   3   2   67.29    8.10
  -1   3   2   62.99    4.60
  -1   3   2   69.29    5.30
  -1   3   2   63.79    5.40
   0  -3  -2  537.55   34.50
   0  -3  -2  607.74   33.60
   0  -3  -2  547.45   33.80
   0  -3  -2  529.45   33.50
   0  -3  -2  601.34   34.20
   0  -3  -2  605.04   34.10
   0  -3  -2  554.84   33.70
   0   3   2  549.35   33.60
   0   3   2  581.94   33.70
   0   3   2  530.85   33.90
   0   3   2  589.34   34.00
   0   3   2  581.74   34.20
  -1  -3  -2   98.99    8.50
  -1  -3  -2  122.79    8.00
  -1  -3  -2  128.19    8.60
  -1  -3  -2  117.39    7.90
  -1  -3  -2  107.39    8.10
  -1  -3  -2  112.69    8.40
   1   3   2  119.39    8.00
   1   3   2  121.19    9.00
   1   3   2   96.79    8.10
   1   3   2  131.49    8.60
   1   3   2  113.09    8.30
   1   3   2  116.19    8.40
  -2  -3  -2  522.05   31.40
  -2  -3  -2  508.25   31.00
  -2  -3  -2  505.15   31.30
  -2  -3  -2  512.25   31.20
  -2  -3  -2  488.95   31.30
  -2  -3  -2  521.25   32.40
   2   3   2  482.25   31.30
   2   3   2  547.45   31.00
   2   3   2  515.05   31.30
   2   3   2  551.84   32.60
   2   3   2  510.65   30.90
   2   3   2  519.55   31.20
   2   3   2  505.85   31.30
  -3  -3  -2   68.89    5.80
  -3  -3  -2   70.49    6.10
  -3  -3  -2   63.99    5.60
  -3  -3  -2   66.49    8.20
  -3  -3  -2   62.99    6.10
  -3  -3  -2   58.99    6.40
  -3  -3  -2   50.09    5.50
   3   3   2   73.89    6.70
   3   3   2   56.29    6.10
   3   3   2   61.79    5.90
   3   3   2   47.30    6.30
   3   3   2   63.39    8.40
   3   3   2   48.00    5.90
  -4  -3  -2   26.50    4.10
  -4  -3  -2   31.90    4.50
  -4  -3  -2   25.10    6.50
  -4  -3  -2   30.10    5.50
  -4  -3  -2   30.20    5.30
  -4  -3  -2   35.10    5.20
  -4  -3  -2   23.30    4.50
   4   3   2   21.00    3.80
   4   3   2   18.80    3.80
   4   3   2   14.90    6.10
   4   3   2   40.00    6.30
   4   3   2   27.20    4.00
   4   3   2   31.20    4.70
   4   3   2   13.30    4.00
  -5  -3  -2  297.17   18.50
  -5  -3  -2  226.98   18.60
  -5  -3  -2  262.97   21.80
  -5  -3  -2  270.57   19.50
  -5  -3  -2  269.27   18.60
  -5  -3  -2  284.07   19.20
   5   3   2  273.87   20.10
   5   3   2  275.77   22.60
   5   3   2  258.87   18.50
   5   3   2  298.67   19.10
   5   3   2  304.37   19.10
   5   3   2  269.87   18.40
   5   3   2  288.97   18.50
   5   3   2  285.97   20.10
  -6  -3  -2  126.99   10.60
  -6  -3  -2   95.99   13.60
  -6  -3  -2  109.79   11.80
  -6  -3  -2  119.59   10.80
  -6  -3  -2  131.49   10.30
  -6  -3  -2  120.59   11.60
  -6  -3  -2  120.89   12.30
   6   3   2  142.19   13.30
   6   3   2  124.59   10.60
   6   3   2   97.39   14.40
   6   3   2  123.19   10.50
   6   3   2  117.79   13.20
   6   3   2  110.79   10.50
   6   3   2  111.49   10.30
   6   3   2  123.39   11.40
  -7  -3  -2  114.59   11.50
  -7  -3  -2  100.39   13.40
  -7  -3  -2  103.19   10.10
  -7  -3  -2  101.79   12.00
  -7  -3  -2  111.49   12.90
  -7  -3  -2   96.19   10.50
  -7  -3  -2  106.09   17.00
   7   3   2  130.19   11.50
   7   3   2  112.69   14.40
   7   3   2  125.49   11.40
   7   3   2   99.39   12.00
   7   3   2   93.19   16.00
   7   3   2   99.89   10.50
   7   3   2  105.19   11.70
   7   3   2  114.49   15.10
  -8  -3  -2   25.60    7.40
  -8  -3  -2   35.90   13.40
  -8  -3  -2   41.10    7.50
  -8  -3  -2   33.10    9.00
  -8  -3  -2   41.20   10.50
   8   3   2   37.70    7.90
   8   3   2   40.20    8.30
   8   3   2   47.30    8.40
   8   3   2   19.90   11.10
   8   3   2   35.30    7.80
   8   3   2   37.10    8.60
  -9  -3  -2  158.98   20.10
  -9  -3  -2  149.39   20.40
  -9  -3  -2  132.49   28.60
   9   3   2  153.68   16.70
   9   3   2  129.19   18.80
   9   3   2  166.18   17.40
   9   3   2  187.28   17.50
   9   3   2  164.08   22.00
   9   3   2  136.99   18.70
 -10  -3  -2   24.60   12.40
 -10  -3  -2    3.20   21.70
 -10  -3  -2   15.70   14.60
  10   3   2    3.30    9.50
  10   3   2   17.00   10.90
  10   3   2   21.80   10.00
   8  -4  -2    0.00    7.30
   8  -4  -2   28.20    9.70
   8  -4  -2   -3.00   13.20
   8  -4  -2   16.90   10.60
  -8   4   2   16.60   16.10
  -8   4   2    9.70   18.00
  -8   4   2   22.10   18.10
  -8   4   2   34.30   17.60
  -8   4   2   20.00   13.20
   7  -4  -2   23.80    6.90
   7  -4  -2   16.00   13.50
   7  -4  -2   12.90    9.80
   7  -4  -2    3.50    9.80
   7  -4  -2   18.60   10.70
  -7   4   2   16.90   12.10
  -7   4   2   22.70   14.40
  -7   4   2    4.40   11.60
  -7   4   2   20.20   13.10
  -7   4   2    0.00    9.70
  -7   4   2   21.40   15.90
   6  -4  -2  107.99   15.90
   6  -4  -2  147.59   14.10
   6  -4  -2  139.39   15.60
   6  -4  -2  181.28   20.00
   6  -4  -2  154.78   14.90
   6  -4  -2  129.99   17.10
   6  -4  -2  162.58   13.20
  -6   4   2  175.38   21.00
  -6   4   2  171.88   21.00
  -6   4   2  134.89   16.70
  -6   4   2  145.59   18.70
  -6   4   2  161.88   22.00
   5  -4  -2    3.40    3.40
   5  -4  -2    1.80    5.90
   5  -4  -2   -1.60    3.80
   5  -4  -2   -2.90    7.20
   5  -4  -2    0.90    5.20
   5  -4  -2    3.60    4.30
   5  -4  -2    5.10    6.70
   5  -4  -2    8.60    5.20
  -5   4   2    7.30    7.20
  -5   4   2    3.10    6.00
  -5   4   2   -1.00    6.70
  -5   4   2    7.70    7.40
  -5   4   2  -10.40    7.50
  -5   4   2    8.70    9.40
  -5   4   2   -5.30    6.60
   4  -4  -2  493.95   33.10
   4  -4  -2  497.45   31.40
   4  -4  -2  530.85   31.70
   4  -4  -2  581.54   31.00
   4  -4  -2  491.65   33.20
   4  -4  -2  461.15   30.50
   4  -4  -2  425.46   32.70
  -4   4   2  432.66   32.00
  -4   4   2  503.85   36.50
  -4   4   2  580.64   33.10
  -4   4   2  425.66   31.80
  -4   4   2  488.35   33.40
  -4   4   2  520.25   34.00
  -4   4   2  522.45   31.30
  -4   4   2  526.65   33.40
   3  -4  -2   25.00    4.60
   3  -4  -2   37.80    6.50
   3  -4  -2   23.00    5.90
   3  -4  -2   23.20    3.80
   3  -4  -2   19.60    5.10
   3  -4  -2   31.30    4.70
  -3   4   2   34.60    6.90
  -3   4   2   22.80    5.90
  -3   4   2   24.80    4.60
  -3   4   2   29.40    6.20
  -3   4   2   26.30    5.10
  -3   4   2   36.30    5.00
  -3   4   2   30.40    5.10
  -3   4   2   10.30    6.40
   2  -4  -2 4407.56  250.77
   2  -4  -2 4231.78  251.67
   2  -4  -2 4447.06  250.87
   2  -4  -2 4295.17  250.77
   2  -4  -2 4286.87  251.57
   2  -4  -2 3687.93  251.57
  -2   4   2 4516.95  249.88
  -2   4   2 4558.54  251.07
  -2   4   2 4628.24  251.07
  -2   4   2 4546.75  251.17
  -2   4   2 4571.04  251.97
  -2   4   2 4405.16  254.27
  -2   4   2 4424.06  252.17
  -2   4   2 4003.00  252.27
   1  -4  -2   33.80    4.20
   1  -4  -2   34.10    5.40
   1  -4  -2   47.00    5.60
   1  -4  -2   37.40    3.90
   1  -4  -2   34.20    4.70
   1  -4  -2   24.20    4.50
   1  -4  -2   36.10    5.30
  -1   4   2   30.60    4.20
  -1   4   2   38.80    4.80
  -1   4   2   34.70    4.90
  -1   4   2   43.00    6.70
  -1   4   2   37.40    7.50
  -1   4   2   41.40    5.40
  -1   4   2   29.90    4.60
  -1   4   2   37.50    4.80
   0  -4  -2 1324.67   79.39
   0  -4  -2 1464.55   79.59
   0  -4  -2 1190.58   80.39
   0  -4  -2 1412.46   79.59
   0  -4  -2 1457.55   79.79
   0  -4  -2 1414.76   80.19
   0  -4  -2 1313.37   79.39
   0   4   2 1334.57   79.89
   0   4   2 1349.56   80.09
   0   4   2 1391.96   79.69
   0   4   2 1346.27   79.49
   0   4   2 1367.96   78.89
   0   4   2 1406.06   81.99
   0   4   2 1327.07   79.49
  -1  -4  -2   12.70    2.70
  -1  -4  -2   14.30    2.60
  -1  -4  -2   17.30    3.70
  -1  -4  -2   22.30    3.30
  -1  -4  -2   15.70    3.10
  -1  -4  -2   11.70    3.40
   1   4   2   16.70    2.70
   1   4   2   18.80    3.40
   1   4   2   17.60    3.10
   1   4   2   19.30    2.80
   1   4   2   23.60    3.90
   1   4   2   17.10    3.20
  -2  -4  -2 1459.85   90.39
  -2  -4  -2 1618.84   90.49
  -2  -4  -2 1591.34   91.29
  -2  -4  -2 1530.05   90.59
  -2  -4  -2 1555.34   91.49
  -2  -4  -2 1480.95   90.49
  -2  -4  -2 1611.64   90.59
   2   4   2 1567.64   90.39
   2   4   2 1603.24   89.99
   2   4   2 1519.65   90.69
   2   4   2 1523.65   90.59
   2   4   2 1537.25   91.49
  -3  -4  -2  719.13   42.00
  -3  -4  -2  587.94   42.40
  -3  -4  -2  707.93   44.00
  -3  -4  -2  727.83   42.80
  -3  -4  -2  695.83   42.70
  -3  -4  -2  703.03   42.40
  -3  -4  -2  728.83   42.10
   3   4   2  704.73   42.70
   3   4   2  679.33   42.00
   3   4   2  720.83   44.20
   3   4   2  704.53   42.70
   3   4   2  733.23   42.00
   3   4   2  667.63   42.10
   3   4   2  719.03   42.30
  -4  -4  -2   20.40    4.60
  -4  -4  -2   15.10    3.30
  -4  -4  -2    8.90    3.50
  -4  -4  -2   12.80    3.30
  -4  -4  -2   11.40    4.30
  -4  -4  -2   11.80    5.70
   4   4   2   19.60    6.70
   4   4   2    8.00    3.60
   4   4   2   11.90    3.90
   4   4   2   16.20    4.90
   4   4   2    9.10    3.40
   4   4   2   14.60    3.60
  -5  -4  -2  233.48   17.90
  -5  -4  -2  259.27   18.30
  -5  -4  -2  263.87   17.10
  -5  -4  -2  222.28   17.70
  -5  -4  -2  257.17   17.20
  -5  -4  -2  256.57   18.80
  -5  -4  -2  239.68   20.50
   5   4   2  234.38   17.50
   5   4   2  247.88   21.40
   5   4   2  238.58   18.60
   5   4   2  241.78   18.40
   5   4   2  271.97   17.40
   5   4   2  257.17   17.10
   5   4   2  232.38   17.80
  -6  -4  -2   18.00    5.60
  -6  -4  -2    6.90    5.00
  -6  -4  -2   12.10    7.40
  -6  -4  -2    8.80    4.70
  -6  -4  -2   17.70    6.30
  -6  -4  -2   18.50    4.50
   6   4   2   15.30    4.10
   6   4   2   14.20    4.80
   6   4   2   14.70    8.60
   6   4   2   12.10    4.80
   6   4   2   16.50    4.90
   6   4   2   11.00    6.40
   6   4   2   10.50    4.30
   6   4   2   22.90    7.40
  -7  -4  -2   27.50    5.90
  -7  -4  -2   12.20    6.40
  -7  -4  -2   17.10    9.90
  -7  -4  -2   23.50    5.60
  -7  -4  -2   27.00    7.40
  -7  -4  -2   29.10    8.80
  -7  -4  -2   19.80    5.50
   7   4   2   24.60    7.00
   7   4   2   18.00    7.80
   7   4   2    4.20    9.10
   7   4   2   26.70    6.40
   7   4   2   31.00    6.60
   7   4   2   28.90    5.60
   7   4   2   17.30    7.70
   7   4   2   21.70    6.20
  -8  -4  -2    7.70    7.00
  -8  -4  -2    3.30   13.10
  -8  -4  -2   10.90    8.00
  -8  -4  -2    3.20    7.80
  -8  -4  -2    6.30    5.20
   8   4   2    8.70    6.70
   8   4   2    7.30    5.40
   8   4   2    9.20    6.50
   8   4   2   -6.00    5.70
   8   4   2   -3.90    5.60
   8   4   2    1.30   10.10
  -9  -4  -2   61.49   12.70
  -9  -4  -2   71.69   12.10
  -9  -4  -2   57.79   10.00
  -9  -4  -2   39.70   13.00
  -9  -4  -2   60.29   17.90
   9   4   2   42.80    9.30
   9   4   2   59.29   11.10
   9   4   2   53.19   10.10
   9   4   2   56.79   12.30
 -10  -4  -2   -5.60   13.20
 -10  -4  -2   -3.50   13.20
 -10  -4  -2  -23.30   19.70
  10   4   2  -11.90   11.30
  10   4   2  -17.40    8.40
  10   4   2   -5.70    9.40
  10   4   2    0.50    9.60
  11   4   2   -5.90   15.20
   8  -5  -2    0.80    9.60
   8  -5  -2   10.00    8.30
   8  -5  -2   -8.20   11.00
   8  -5  -2   14.00   14.60
  -8   5   2   -9.80   20.90
  -8   5   2  -36.30   16.90
  -8   5   2   36.50   15.20
   7  -5  -2   25.40   10.00
   7  -5  -2    7.60    6.90
   7  -5  -2    9.40   11.70
   7  -5  -2   10.20    8.00
  -7   5   2  -10.30   10.50
  -7   5   2   35.80   17.10
  -7   5   2   24.00   13.50
  -7   5   2   15.90   12.90
  -7   5   2   30.60   16.60
   6  -5  -2   13.30   11.40
   6  -5  -2   13.40    9.70
   6  -5  -2   22.70    5.80
   6  -5  -2    6.60    6.80
   6  -5  -2   12.00    6.90
   6  -5  -2   19.00   11.10
  -6   5   2    9.20    9.20
  -6   5   2    0.70   10.80
  -6   5   2   20.90   10.70
  -6   5   2   37.90   15.60
  -6   5   2   25.80    9.50
   5  -5  -2   66.89    8.90
   5  -5  -2   85.79   10.70
   5  -5  -2   98.79    9.20
   5  -5  -2   72.29   12.20
   5  -5  -2  108.79   12.80
   5  -5  -2   87.59   12.70
   5  -5  -2   71.79   12.20
   5  -5  -2   91.99   10.90
  -5   5   2   80.59   11.70
  -5   5   2   58.79   11.30
  -5   5   2   70.89   10.30
  -5   5   2   90.19   13.60
  -5   5   2   73.79   15.50
   4  -5  -2   19.70    6.90
   4  -5  -2   30.90    6.30
   4  -5  -2   27.20    5.20
   4  -5  -2   17.80    7.20
   4  -5  -2   18.90    7.80
   4  -5  -2   30.90    4.80
  -4   5   2   12.80    7.70
  -4   5   2   28.70    5.50
  -4   5   2   24.10    5.70
  -4   5   2   27.30   11.00
  -4   5   2   20.10    7.50
  -4   5   2   21.70    5.70
  -4   5   2   12.80    7.40
   3  -5  -2  406.56   26.60
   3  -5  -2  349.47   28.30
   3  -5  -2  404.86   28.10
   3  -5  -2  430.96   27.20
   3  -5  -2  400.36   27.90
   3  -5  -2  481.25   26.60
  -3   5   2  465.35   27.70
  -3   5   2  422.96   29.60
  -3   5   2  433.96   27.10
  -3   5   2  405.66   26.80
  -3   5   2  427.46   29.00
  -3   5   2  421.16   32.20
  -3   5   2  418.16   28.20
   2  -5  -2  125.99    9.70
   2  -5  -2   99.39   10.60
   2  -5  -2  114.69    8.80
   2  -5  -2  113.69   10.10
   2  -5  -2  105.19    8.90
   2  -5  -2  102.99   10.20
  -2   5   2  114.79    9.50
  -2   5   2  114.29   14.20
  -2   5   2  100.39   10.50
  -2   5   2  109.79   11.30
  -2   5   2   99.19    9.40
  -2   5   2  127.29   12.90
  -2   5   2  126.99    9.50
   1  -5  -2  382.26   23.90
   1  -5  -2  317.37   25.00
   1  -5  -2  374.26   24.10
   1  -5  -2  382.66   23.40
   1  -5  -2  456.25   28.80
   1  -5  -2  369.16   24.50
  -1   5   2  396.66   23.70
  -1   5   2  425.46   24.30
  -1   5   2  373.26   27.50
  -1   5   2  316.77   24.40
  -1   5   2  385.46   24.40
  -1   5   2  400.66   24.30
   0  -5  -2  313.37   20.80
   0  -5  -2  347.27   21.50
   0  -5  -2  319.07   21.10
   0  -5  -2  333.07   20.80
   0  -5  -2  337.07   21.50
   0  -5  -2  340.97   21.40
   0   5   2  352.86   21.60
   0   5   2  334.47   24.20
   0   5   2  350.56   21.30
   0   5   2  331.77   21.10
   0   5   2  313.27   20.80
  -1  -5  -2 1496.55   88.39
  -1  -5  -2 1601.64   88.49
  -1  -5  -2 1401.66   89.09
  -1  -5  -2 1546.75   87.99
  -1  -5  -2 1433.16   88.29
   1   5   2 1525.95   90.59
   1   5   2 1612.24   88.59
   1   5   2 1465.85   88.29
   1   5   2 1478.35   88.29
   1   5   2 1594.64   88.09
   1   5   2 1484.55   88.29
  -2  -5  -2  487.75   29.40
  -2  -5  -2  430.56   29.20
  -2  -5  -2  485.25   29.00
  -2  -5  -2  456.15   30.30
  -2  -5  -2  508.95   29.30
  -2  -5  -2  488.15   30.30
  -2  -5  -2  452.35   29.20
   2   5   2  463.35   30.10
   2   5   2  464.85   29.40
   2   5   2  483.85   28.50
   2   5   2  466.75   29.20
   2   5   2  441.96   28.90
   2   5   2  484.55   30.90
   2   5   2  482.05   29.30
  -3  -5  -2 1234.68   72.69
  -3  -5  -2 1236.78   74.29
  -3  -5  -2 1214.48   72.39
  -3  -5  -2 1261.57   73.49
  -3  -5  -2 1253.07   72.29
  -3  -5  -2 1199.38   72.89
   3   5   2 1201.18   72.39
   3   5   2 1127.99   72.79
   3   5   2 1184.48   72.69
   3   5   2 1244.08   72.99
   3   5   2 1244.58   74.29
   3   5   2 1321.77   71.99
  -4  -5  -2  493.75   31.90
  -4  -5  -2  518.75   31.50
  -4  -5  -2  486.25   32.30
  -4  -5  -2  522.35   34.30
  -4  -5  -2  484.05   31.50
  -4  -5  -2  536.95   31.50
  -4  -5  -2  533.55   32.70
   4   5   2  495.85   32.40
   4   5   2  475.95   31.40
   4   5   2  511.95   32.60
   4   5   2  511.35   34.40
   4   5   2  452.55   31.30
   4   5   2  516.75   31.70
   4   5   2  502.25   32.20
   4   5   2  533.15   31.30
  -5  -5  -2  390.86   26.50
  -5  -5  -2  380.86   25.70
  -5  -5  -2  403.46   25.10
  -5  -5  -2  376.56   28.60
  -5  -5  -2  349.37   26.10
  -5  -5  -2  385.66   25.00
  -5  -5  -2  408.76   25.40
   5   5   2  383.96   25.90
   5   5   2  387.66   29.30
   5   5   2  332.17   24.90
   5   5   2  388.36   25.00
   5   5   2  370.06   26.00
   5   5   2  433.76   26.90
  -6  -5  -2  297.47   25.00
  -6  -5  -2  311.77   20.30
  -6  -5  -2  276.27   21.10
  -6  -5  -2  290.37   20.00
  -6  -5  -2  304.67   22.30
  -6  -5  -2  231.98   20.50
  -6  -5  -2  254.77   22.70
  -6  -5  -2  286.77   22.10
   6   5   2  295.57   22.10
   6   5   2  304.97   20.10
   6   5   2  288.97   20.90
   6   5   2  306.47   20.10
   6   5   2  297.27   22.30
   6   5   2  293.47   25.50
   6   5   2  246.58   20.60
   6   5   2  292.27   18.40
  -7  -5  -2   80.99   15.90
  -7  -5  -2   82.59   10.40
  -7  -5  -2  103.39   10.20
  -7  -5  -2   95.29   12.20
  -7  -5  -2   83.89   11.50
  -7  -5  -2   67.89   10.00
  -7  -5  -2   87.19   13.10
   7   5   2   65.49    9.00
   7   5   2   77.89   14.40
   7   5   2   73.49   11.90
   7   5   2   65.29   11.10
   7   5   2   77.69   11.00
   7   5   2   78.39   11.50
   7   5   2   86.39   10.80
  -8  -5  -2  145.89   19.00
  -8  -5  -2  175.88   15.40
  -8  -5  -2  145.39   13.60
  -8  -5  -2  152.58   16.80
  -8  -5  -2  119.09   20.20
   8   5   2  170.78   21.80
   8   5   2  135.89   16.00
   8   5   2  141.59   15.80
   8   5   2  155.28   20.00
   8   5   2  144.19   15.10
   8   5   2  133.99   14.10
  -9  -5  -2    4.40    6.90
  -9  -5  -2   15.20   10.90
  -9  -5  -2  -10.80    9.00
  -9  -5  -2  -11.60    7.10
  -9  -5  -2   -4.40   15.00
   9   5   2    9.80    8.30
   9   5   2   -1.20    7.80
   9   5   2   11.90    7.10
 -10  -5  -2    1.40   12.00
 -10  -5  -2   24.60   19.30
 -10  -5  -2   11.20   13.90
  10   5   2    4.10   10.30
  10   5   2   -0.70   10.20
  10   5   2   11.30   11.70
  10   5   2    3.20    9.90
   7  -6  -2   13.40   10.60
   7  -6  -2   19.60    7.60
   7  -6  -2   -3.20    8.90
   7  -6  -2   12.60   13.00
  -7   6   2   13.10   23.10
  -7   6   2  -10.90   11.60
  -7   6   2  -19.20   13.70
   6  -6  -2   15.00    9.10
   6  -6  -2   10.50    7.70
   6  -6  -2    2.10   11.90
   6  -6  -2    8.40    6.30
   6  -6  -2   11.50   10.90
  -6   6   2   51.49   18.20
  -6   6   2    8.60   10.90
  -6   6   2    6.10    9.00
  -6   6   2  -11.40    9.00
  -6   6   2   -1.50   13.10
   5  -6  -2   25.90   11.50
   5  -6  -2   26.80    5.60
   5  -6  -2   30.30    7.90
   5  -6  -2   28.60    7.50
   5  -6  -2   52.59   11.10
  -5   6   2   35.10    9.00
  -5   6   2   50.39    9.30
  -5   6   2   43.00    9.90
  -5   6   2   48.50   12.70
  -5   6   2   33.90   14.30
   4  -6  -2   22.30    7.80
   4  -6  -2   20.80    8.20
   4  -6  -2   12.00    4.20
   4  -6  -2   23.20    8.60
   4  -6  -2   21.30    5.60
   4  -6  -2    9.90    7.30
  -4   6   2   17.00    7.30
  -4   6   2   14.70    8.50
  -4   6   2   17.30   11.90
  -4   6   2   25.00    6.50
  -4   6   2   16.50    5.90
   3  -6  -2   96.69   13.10
   3  -6  -2  107.09   12.00
   3  -6  -2   92.49   12.60
   3  -6  -2  126.19   10.10
   3  -6  -2  122.69   10.00
   3  -6  -2  118.59   11.60
  -3   6   2  122.69   11.60
  -3   6   2  111.99   16.60
  -3   6   2   77.99   10.60
  -3   6   2  103.09   12.10
  -3   6   2  107.79   15.70
  -3   6   2  117.49   12.60
   2  -6  -2  133.59   11.90
   2  -6  -2  134.69   11.80
   2  -6  -2  100.79   12.80
   2  -6  -2  142.09   10.60
   2  -6  -2  156.88   11.40
   2  -6  -2  183.48   18.20
  -2   6   2  128.19   14.80
  -2   6   2  134.69   12.10
  -2   6   2  114.59   12.00
  -2   6   2  139.59   10.70
  -2   6   2  136.69   17.50
  -2   6   2  159.18   17.60
   1  -6  -2  571.04   37.50
   1  -6  -2  644.74   37.20
   1  -6  -2  588.54   36.50
   1  -6  -2  600.54   36.70
   1  -6  -2  612.24   35.80
   1  -6  -2  508.65   36.90
  -1   6   2  564.24   35.70
  -1   6   2  620.54   36.60
  -1   6   2  589.24   37.20
  -1   6   2  610.44   37.10
  -1   6   2  609.84   37.10
  -1   6   2  554.24   40.60
  -1   6   2  637.94   36.90
   0  -6  -2  312.17   19.30
   0  -6  -2  284.17   18.90
   0  -6  -2  229.18   20.10
   0  -6  -2  263.77   19.10
   0  -6  -2  282.17   19.10
   0  -6  -2  285.87   18.20
   0  -6  -2  274.87   18.40
   0   6   2  291.37   18.90
   0   6   2  301.37   18.60
   0   6   2  284.17   22.60
   0   6   2  280.87   19.10
   0   6   2  321.77   19.00
   0   6   2  273.07   18.20
  -1  -6  -2 1202.18   65.89
  -1  -6  -2 1097.49   65.19
  -1  -6  -2 1148.29   65.89
  -1  -6  -2 1104.79   65.79
  -1  -6  -2 1057.29   67.49
  -1  -6  -2  979.00   66.09
  -1  -6  -2 1087.19   65.79
   1   6   2 1090.79   65.59
   1   6   2 1122.79   65.19
   1   6   2 1081.69   68.29
   1   6   2 1084.59   65.19
   1   6   2 1175.68   65.19
   1   6   2 1147.29   65.59
   1   6   2 1117.79   65.59
  -2  -6  -2  456.15   28.60
  -2  -6  -2  437.46   28.50
  -2  -6  -2  457.45   29.90
  -2  -6  -2  446.16   27.90
  -2  -6  -2  430.56   28.20
  -2  -6  -2  475.25   28.20
  -2  -6  -2  440.16   29.00
  -2  -6  -2  445.06   28.20
  -2  -6  -2  442.66   28.40
   2   6   2  460.65   28.90
   2   6   2  418.56   27.90
   2   6   2  444.46   27.20
   2   6   2  457.85   28.10
   2   6   2  452.35   30.50
   2   6   2  449.46   28.10
  -3  -6  -2 1526.95   92.99
  -3  -6  -2 1549.05   93.29
  -3  -6  -2 1666.53   93.39
  -3  -6  -2 1622.54   94.49
  -3  -6  -2 1638.74   92.79
  -3  -6  -2 1646.34   94.99
   3   6   2 1658.73   93.29
   3   6   2 1559.94   92.99
   3   6   2 1435.16   93.29
   3   6   2 1525.75   93.09
   3   6   2 1581.24   91.99
   3   6   2 1648.54   94.29
   3   6   2 1498.55   95.89
  -4  -6  -2  265.27   19.40
  -4  -6  -2  248.98   19.30
  -4  -6  -2  286.67   22.60
  -4  -6  -2  283.47   18.90
  -4  -6  -2  283.67   20.80
  -4  -6  -2  266.87   19.90
  -4  -6  -2  280.47   19.10
   4   6   2  307.77   18.50
   4   6   2  287.07   19.90
   4   6   2  311.47   22.80
   4   6   2  258.67   19.50
   4   6   2  279.77   19.20
   4   6   2  298.37   20.00
  -5  -6  -2 1345.97   79.79
  -5  -6  -2 1353.86   81.09
  -5  -6  -2 1399.06   81.39
  -5  -6  -2 1337.97   80.39
  -5  -6  -2 1299.57   79.59
  -5  -6  -2 1307.67   83.29
  -5  -6  -2 1412.56   79.79
   5   6   2 1333.57   79.29
   5   6   2 1340.07   79.89
   5   6   2 1376.96   80.89
   5   6   2 1338.27   79.89
   5   6   2 1317.47   80.99
   5   6   2 1345.47   83.19
   5   6   2 1295.57   80.69
   5   6   2 1248.88   79.59
   5   6   2 1393.66   79.39
  -6  -6  -2   80.99   14.40
  -6  -6  -2   87.79   13.00
  -6  -6  -2   99.29   10.10
  -6  -6  -2   98.89   11.80
  -6  -6  -2  100.79   11.10
  -6  -6  -2   99.39   10.10
  -6  -6  -2   97.19   12.40
   6   6   2  100.29   13.20
   6   6   2   84.99   12.10
   6   6   2   89.09   10.40
   6   6   2   85.59   10.50
   6   6   2   89.39   10.40
   6   6   2   95.39   12.30
   6   6   2  113.49   16.70
   6   6   2   97.99    8.50
  -7  -6  -2  408.76   27.80
  -7  -6  -2  376.36   31.40
  -7  -6  -2  343.57   24.50
  -7  -6  -2  315.07   28.10
  -7  -6  -2  385.46   29.30
  -7  -6  -2  350.76   26.00
   7   6   2  370.16   34.20
   7   6   2  326.77   27.40
   7   6   2  365.46   27.60
   7   6   2  366.26   24.60
   7   6   2  290.07   25.50
   7   6   2  369.66   25.00
   7   6   2  340.17   26.10
  -8  -6  -2   10.30    9.00
  -8  -6  -2  -10.10   11.70
  -8  -6  -2   -8.90    7.10
  -8  -6  -2    0.60    6.00
  -8  -6  -2    9.00    6.60
   8   6   2    5.50    6.20
   8   6   2    4.40    6.80
   8   6   2    4.40    7.20
   8   6   2    1.50    7.80
   8   6   2   -0.70   10.60
  -9  -6  -2  185.68   19.30
  -9  -6  -2  178.98   21.80
  -9  -6  -2  182.58   17.60
  -9  -6  -2  188.08   26.90
  -9  -6  -2  215.78   24.60
   9   6   2  170.78   17.80
   9   6   2  163.98   20.40
   9   6   2  160.78   18.40
 -10  -6  -2   32.30   19.50
 -10  -6  -2    6.90   14.20
 -10  -6  -2    9.10   11.90
  10   6   2    2.90   11.60
  10   6   2   26.30   13.10
  10   6   2    6.60   10.40
  10   6   2   -6.60    9.70
   6  -7  -2   -3.00   12.20
   6  -7  -2   20.30    9.70
   6  -7  -2   -1.90    7.20
  -6   7   2   15.80   12.50
  -6   7   2   20.80   21.10
  -6   7   2   18.60   12.00
   5  -7  -2    5.70    7.20
   5  -7  -2   -1.70   11.10
   5  -7  -2    4.80    7.10
   5  -7  -2   10.00   10.40
   5  -7  -2    1.40    5.40
  -5   7   2  -25.00   15.50
  -5   7   2    2.90   10.20
  -5   7   2    3.70    9.10
  -5   7   2    3.40    7.90
   4  -7  -2   14.40    8.90
   4  -7  -2   30.10   11.00
   4  -7  -2   26.10    5.60
   4  -7  -2   42.80   12.40
  -4   7   2   31.00    7.70
  -4   7   2   20.10   10.40
  -4   7   2   12.90   16.30
  -4   7   2   29.90    8.90
   3  -7  -2    4.40    3.40
   3  -7  -2   10.70    4.40
   3  -7  -2    9.60    7.90
   3  -7  -2    1.40    6.70
   3  -7  -2   12.00    9.60
   3  -7  -2    1.40    4.30
  -3   7   2    6.00    4.80
  -3   7   2    9.60    6.50
  -3   7   2   12.20   11.60
  -3   7   2    7.80    6.40
   2  -7  -2  147.09   14.20
   2  -7  -2  130.89   15.50
   2  -7  -2  159.58   14.60
   2  -7  -2  160.28   14.20
   2  -7  -2  150.18   13.20
   2  -7  -2  163.98   12.20
   2  -7  -2  181.08   13.30
  -2   7   2  157.58   11.90
  -2   7   2  189.58   14.70
  -2   7   2  156.28   13.10
  -2   7   2  156.58   15.30
  -2   7   2  147.49   14.40
  -2   7   2  161.38   21.80
   1  -7  -2    5.00    5.80
   1  -7  -2    8.90    5.40
   1  -7  -2   -2.40    4.60
   1  -7  -2    0.40    4.10
   1  -7  -2    7.70    2.90
   1  -7  -2    2.80    6.30
   1  -7  -2    3.10    5.30
  -1   7   2   14.90    5.10
  -1   7   2    8.50    4.60
  -1   7   2    1.30    4.30
  -1   7   2    2.00    4.50
  -1   7   2    3.20    4.30
  -1   7   2    4.70    9.30
  -1   7   2    0.10    3.50
   0  -7  -2  506.75   32.00
   0  -7  -2  518.85   31.50
   0  -7  -2  560.04   33.00
   0  -7  -2  511.25   32.80
   0  -7  -2  464.95   34.20
   0  -7  -2  464.95   32.40
   0   7   2  570.14   32.50
   0   7   2  543.95   32.70
   0   7   2  523.85   37.00
   0   7   2  544.55   32.90
   0   7   2  472.75   31.80
  -1  -7  -2    4.20    3.10
  -1  -7  -2    2.70    3.90
  -1  -7  -2    5.60    5.70
  -1  -7  -2    6.50    4.20
  -1  -7  -2   -6.40    2.60
  -1  -7  -2   -3.40    5.40
  -1  -7  -2   -2.20    3.80
  -1  -7  -2    0.00    3.80
   1   7   2    0.60    3.60
   1   7   2    2.10    7.20
   1   7   2    0.00    2.90
   1   7   2    5.30    2.90
   1   7   2    3.10    3.70
   1   7   2   -2.30    3.30
  -2  -7  -2  865.01   51.39
  -2  -7  -2  876.31   52.39
  -2  -7  -2  851.31   51.99
  -2  -7  -2  849.22   51.69
  -2  -7  -2  822.02   52.19
  -2  -7  -2  909.91   51.59
  -2  -7  -2  825.12   51.89
   2   7   2  873.01   54.59
   2   7   2  912.81   50.59
   2   7   2  783.62   51.29
   2   7   2  847.02   52.99
   2   7   2  847.32   51.99
   2   7   2  826.12   51.49
   2   7   2  869.01   50.99
  -3  -7  -2    8.70    3.80
  -3  -7  -2    8.00    7.10
  -3  -7  -2    7.60    4.80
  -3  -7  -2    7.90    4.10
  -3  -7  -2    3.70    5.60
  -3  -7  -2    0.50    3.60
  -3  -7  -2    9.80    4.70
  -3  -7  -2    5.00    4.60
   3   7   2    2.20    3.20
   3   7   2    6.90    4.40
   3   7   2    4.20    6.00
   3   7   2   10.60    4.20
   3   7   2    8.90    4.20
   3   7   2    7.50    6.00
   3   7   2    8.00    3.10
  -4  -7  -2 1176.48   76.29
  -4  -7  -2 1305.07   78.89
  -4  -7  -2 1277.07   75.69
  -4  -7  -2 1277.77   76.09
  -4  -7  -2 1205.18   76.49
  -4  -7  -2 1319.57   76.49
  -4  -7  -2 1354.26   78.09
   4   7   2 1328.27   76.39
   4   7   2 1316.27   74.79
   4   7   2 1326.67   77.09
   4   7   2 1350.96   78.79
   4   7   2 1237.28   76.39
   4   7   2 1280.87   76.09
   4   7   2 1107.59   76.59
  -5  -7  -2   27.70    7.80
  -5  -7  -2   17.50    9.20
  -5  -7  -2   27.50    7.90
  -5  -7  -2   34.60    6.30
  -5  -7  -2   26.10    5.30
  -5  -7  -2   28.10    6.20
  -5  -7  -2   28.90    6.30
   5   7   2   31.50    6.70
   5   7   2   30.80   10.00
   5   7   2   15.70    6.50
   5   7   2   26.10    6.60
   5   7   2   28.90    6.60
   5   7   2   25.40    4.80
   5   7   2   17.10    5.70
  -6  -7  -2  697.93   45.20
  -6  -7  -2  705.73   44.20
  -6  -7  -2  711.13   47.00
  -6  -7  -2  689.53   49.50
  -6  -7  -2  680.23   45.90
  -6  -7  -2  689.93   44.10
  -6  -7  -2  723.83   44.70
   6   7   2  672.53   45.80
   6   7   2  707.73   49.50
   6   7   2  760.22   43.80
   6   7   2  734.13   42.70
   6   7   2  712.53   44.80
   6   7   2  692.63   44.50
   6   7   2  694.33   45.70
   6   7   2  701.43   46.30
  -7  -7  -2   66.29   11.60
  -7  -7  -2   84.59   17.70
  -7  -7  -2   81.79   10.80
  -7  -7  -2   52.89   10.90
  -7  -7  -2   43.90   13.60
  -7  -7  -2  102.49   13.40
   7   7   2   86.59   12.90
   7   7   2   89.99   12.60
   7   7   2   91.29   11.50
   7   7   2   89.59   12.60
   7   7   2   90.69   10.80
   7   7   2   70.79    9.60
  -8  -7  -2  428.96   31.50
  -8  -7  -2  449.16   39.90
  -8  -7  -2  375.76   29.20
  -8  -7  -2  447.76   33.70
  -8  -7  -2  427.56   29.90
   8   7   2  346.77   33.60
   8   7   2  388.46   33.30
   8   7   2  437.16   30.10
   8   7   2  413.66   29.20
   8   7   2  426.36   31.70
  -9  -7  -2   17.90    8.80
  -9  -7  -2   44.70   14.00
  -9  -7  -2   25.10   12.20
  -9  -7  -2   23.30    9.20
  -9  -7  -2    6.40   18.60
   9   7   2   27.60    8.90
   9   7   2   22.60   14.00
   9   7   2   19.10   11.90
 -10  -7  -2   94.89   24.80
 -10  -7  -2   87.89   18.30
 -10  -7  -2   84.59   20.00
  10   7   2  104.59   16.10
  10   7   2   84.89   17.60
  10   7   2  101.59   18.90
  10   7   2  108.29   14.60
   5  -8  -2    2.10    8.10
   5  -8  -2   -6.90    6.60
   5  -8  -2    3.70   13.10
   5  -8  -2    5.00    8.40
  -5   8   2   -8.10   11.50
  -5   8   2   -5.90   19.70
   4  -8  -2   -0.30    6.90
   4  -8  -2    7.20    5.60
   4  -8  -2    0.80   10.70
  -4   8   2    4.70   12.80
  -4   8   2   10.00    9.90
  -4   8   2    7.90   17.20
   3  -8  -2   -4.70    5.60
   3  -8  -2    2.00    8.20
   3  -8  -2   16.70    9.10
   3  -8  -2   -1.00    5.10
   3  -8  -2    9.10    4.40
  -3   8   2    1.40   10.10
  -3   8   2   11.90    8.20
  -3   8   2    9.40   15.20
   2  -8  -2    6.70    4.70
   2  -8  -2    8.80    5.50
   2  -8  -2   -4.50    6.70
   2  -8  -2   10.80    6.60
   2  -8  -2    8.00    8.70
  -2   8   2    4.90   12.40
  -2   8   2    2.00    6.60
  -2   8   2    7.60    8.20
   1  -8  -2   39.80    7.40
   1  -8  -2   62.59   12.10
   1  -8  -2   26.20    8.20
   1  -8  -2   34.50    6.70
   1  -8  -2   37.90    5.40
   1  -8  -2   41.00    8.60
   1  -8  -2   28.80    7.90
   1  -8  -2   47.50    8.60
  -1   8   2   37.70   14.10
  -1   8   2   37.00    7.30
  -1   8   2   52.29    9.00
   0  -8  -2   49.30    9.30
   0  -8  -2   51.39    8.80
   0  -8  -2   51.69    8.60
   0  -8  -2   46.30   10.60
   0  -8  -2   67.29    6.70
   0  -8  -2   56.29    9.40
   0  -8  -2   62.69    8.90
   0  -8  -2   59.99    8.20
   0   8   2   67.59    9.00
   0   8   2   60.89   14.30
   0   8   2   55.49    8.10
   0   8   2   64.59    8.60
  -1  -8  -2  174.78   12.80
  -1  -8  -2  193.48   14.90
  -1  -8  -2  184.18   14.70
  -1  -8  -2  177.28   13.30
  -1  -8  -2  159.58   17.80
  -1  -8  -2  176.58   14.60
  -1  -8  -2  180.58   14.60
  -1  -8  -2  148.89   16.70
   1   8   2  185.98   19.60
   1   8   2  176.48   14.30
   1   8   2  165.58   13.30
   1   8   2  164.78   14.00
  -2  -8  -2  223.28   16.70
  -2  -8  -2  193.48   16.60
  -2  -8  -2  182.28   15.60
  -2  -8  -2  188.78   16.50
  -2  -8  -2  220.38   14.90
  -2  -8  -2  182.08   15.00
  -2  -8  -2  199.68   15.50
  -2  -8  -2  181.48   18.80
  -2  -8  -2  197.78   19.00
  -2  -8  -2  215.58   16.30
   2   8   2  189.68   20.00
   2   8   2  167.98   14.80
   2   8   2  208.78   15.50
   2   8   2  208.28   14.90
   2   8   2  219.78   15.40
  -3  -8  -2  550.44   36.50
  -3  -8  -2  498.55   34.10
  -3  -8  -2  520.25   36.00
  -3  -8  -2  522.35   33.80
  -3  -8  -2  504.95   34.10
  -3  -8  -2  440.66   33.60
  -3  -8  -2  540.65   32.90
   3   8   2  502.95   33.40
   3   8   2  521.05   36.50
   3   8   2  546.45   31.80
   3   8   2  541.85   33.50
   3   8   2  527.65   32.20
   3   8   2  567.44   33.30
   3   8   2  543.55   35.10
  -4  -8  -2  167.38   14.30
  -4  -8  -2  164.48   15.20
  -4  -8  -2  166.78   14.40
  -4  -8  -2  164.58   15.90
  -4  -8  -2  150.18   14.80
  -4  -8  -2  158.48   18.30
  -4  -8  -2  143.59   17.30
   4   8   2  156.28   12.00
   4   8   2  178.38   14.60
   4   8   2  192.38   17.50
   4   8   2  166.18   13.50
   4   8   2  146.99   13.60
   4   8   2  147.29   14.50
   4   8   2  195.28   18.30
  -5  -8  -2  450.45   32.20
  -5  -8  -2  431.96   34.20
  -5  -8  -2  451.45   29.60
  -5  -8  -2  449.26   29.10
  -5  -8  -2  455.55   30.20
  -5  -8  -2  391.56   28.00
  -5  -8  -2  425.76   29.20
   5   8   2  382.66   30.40
   5   8   2  372.26   29.80
   5   8   2  447.76   27.10
   5   8   2  470.75   33.80
   5   8   2  437.46   29.50
   5   8   2  436.76   29.10
   5   8   2  461.35   30.30
  -6  -8  -2  270.57   21.50
  -6  -8  -2  265.47   21.10
  -6  -8  -2  313.97   28.70
  -6  -8  -2  267.77   23.20
  -6  -8  -2  290.47   25.80
  -6  -8  -2  276.67   20.90
  -6  -8  -2  304.27   22.40
   6   8   2  310.47   29.60
   6   8   2  273.57   22.70
   6   8   2  329.17   23.10
   6   8   2  289.77   19.60
   6   8   2  279.47   21.60
  -7  -8  -2  275.37   30.90
  -7  -8  -2  297.77   25.90
  -7  -8  -2  241.98   23.60
  -7  -8  -2  284.77   23.90
  -7  -8  -2  282.37   22.10
   7   8   2  280.57   24.00
   7   8   2  291.67   25.50
   7   8   2  324.97   26.10
   7   8   2  327.57   21.60
   7   8   2  314.87   23.40
  -8  -8  -2  145.39   17.60
  -8  -8  -2  135.89   23.70
  -8  -8  -2  100.69   19.90
   8   8   2  120.59   16.80
   8   8   2  123.09   17.80
   8   8   2  146.09   19.40
   8   8   2  126.79   14.80
   8   8   2  163.78   22.30
  -9  -8  -2  103.19   18.00
  -9  -8  -2   95.49   16.70
  -9  -8  -2  154.58   27.30
  -9  -8  -2  111.29   16.00
   9   8   2  100.29   18.80
   9   8   2  151.58   19.00
   9   8   2  140.69   18.00
   9   8   2  116.19   16.30
 -10  -8  -2   86.09   27.10
 -10  -8  -2  103.19   18.10
 -10  -8  -2   52.79   18.10
  10   8   2   90.89   17.20
  10   8   2   83.49   15.80
  10   8   2   57.49   15.70
  10   8   2   77.09   13.30
   4  -9  -2   18.60   12.80
   4  -9  -2    8.70    8.60
  -4   9   2   60.69   21.60
  -4   9   2   -9.20   12.70
   3  -9  -2   -5.30   11.40
   3  -9  -2   18.70   10.50
   3  -9  -2    5.90    6.40
   3  -9  -2   25.30    7.40
  -3   9   2   18.60   18.40
  -3   9   2   11.60   14.70
  -3   9   2   12.60   20.60
   2  -9  -2   10.10    5.40
   2  -9  -2   -4.80    8.30
   2  -9  -2   31.30    9.00
   2  -9  -2    2.10    5.90
   2  -9  -2   -9.40    9.10
   2  -9  -2    0.10    7.40
  -2   9   2   -3.30    9.20
  -2   9   2    2.30   10.40
  -2   9   2   18.00   16.80
   1  -9  -2   17.90    9.90
   1  -9  -2    4.90    8.00
   1  -9  -2    7.80    4.50
   1  -9  -2    9.70    6.30
   1  -9  -2   19.10    8.00
   1  -9  -2   14.70    7.80
  -1   9   2   22.00    8.90
  -1   9   2   12.10   14.30
   0  -9  -2    2.80    8.00
   0  -9  -2    9.20    8.60
   0  -9  -2   10.70    4.10
   0  -9  -2    2.20    6.90
   0  -9  -2    4.60    5.60
   0   9   2    6.60    7.00
   0   9   2    9.60    5.70
   0   9   2  -15.00   11.60
  -1  -9  -2   20.30   14.30
  -1  -9  -2   11.90    4.20
  -1  -9  -2    2.10    6.50
  -1  -9  -2    4.20    5.60
  -1  -9  -2    5.40    5.20
  -1  -9  -2   10.10    9.10
   1   9   2    3.50   10.70
   1   9   2   16.20    6.30
   1   9   2    2.50    4.90
  -2  -9  -2   -6.80    4.20
  -2  -9  -2   13.40    6.50
  -2  -9  -2    4.40    4.20
  -2  -9  -2    0.80    8.40
  -2  -9  -2   -2.30    5.40
  -2  -9  -2    0.10    6.60
  -2  -9  -2   -0.40    8.20
   2   9   2    3.90    5.30
   2   9   2    1.10    5.50
   2   9   2    9.20   11.00
   2   9   2   -1.10    4.20
  -3  -9  -2   29.10    8.00
  -3  -9  -2   45.60    8.70
  -3  -9  -2   36.00   10.40
  -3  -9  -2   41.40    8.50
  -3  -9  -2   34.90    6.20
  -3  -9  -2   41.00    8.40
   3   9   2   42.70    9.10
   3   9   2   39.80    6.90
   3   9   2   57.69    8.70
   3   9   2   52.19   12.40
  -4  -9  -2    8.90    9.70
  -4  -9  -2   10.10    6.50
  -4  -9  -2    1.90    6.80
  -4  -9  -2   12.30    4.60
  -4  -9  -2   20.20    7.70
  -4  -9  -2    8.70    6.70
   4   9   2    7.40    5.80
   4   9   2   13.70    5.80
   4   9   2   21.00    9.50
   4   9   2   21.40    9.60
  -5  -9  -2  106.99   13.30
  -5  -9  -2  110.49   14.80
  -5  -9  -2   90.89   12.90
  -5  -9  -2   89.99   10.80
  -5  -9  -2  109.39   13.10
  -5  -9  -2  107.29   16.10
   5   9   2   83.79   11.40
   5   9   2  104.99   12.50
   5   9   2  110.09   16.90
   5   9   2  109.99   13.90
   5   9   2  100.59    9.80
  -6  -9  -2   67.39   11.80
  -6  -9  -2   94.29   12.00
  -6  -9  -2   84.59   16.90
  -6  -9  -2   81.69   10.90
  -6  -9  -2  118.79   18.00
   6   9   2   67.79   11.10
   6   9   2  110.99   13.80
   6   9   2   76.99   11.50
   6   9   2   84.29   17.10
   6   9   2   72.69    9.30
  -7  -9  -2  144.79   15.90
  -7  -9  -2  188.68   24.50
  -7  -9  -2  158.38   19.50
  -7  -9  -2  161.08   20.60
  -7  -9  -2  157.08   18.80
   7   9   2  166.08   19.80
   7   9   2  124.99   16.90
   7   9   2  173.08   16.80
   7   9   2  171.18   14.30
  -8  -9  -2   10.50   18.10
  -8  -9  -2    3.90   12.90
  -8  -9  -2   19.70   11.70
  -8  -9  -2   32.50   10.80
   8   9   2   46.10    8.40
   8   9   2   46.00   16.00
   8   9   2   27.80   12.00
   8   9   2   41.60   10.20
   8   9   2   40.20   14.80
  -9  -9  -2   66.89   18.10
  -9  -9  -2   78.59   15.40
  -9  -9  -2   96.99   24.60
   9   9   2   58.39   16.50
   9   9   2   87.59   12.20
   9   9   2   54.19   11.90
   3 -10  -2   -8.10   14.90
   3 -10  -2    2.40    7.90
  -3  10   2  -16.50   13.10
  -3  10   2   15.90   22.00
   2 -10  -2  -15.80   11.40
   2 -10  -2   -5.80    7.20
   2 -10  -2  -10.40   12.20
   2 -10  -2    7.00    6.90
  -2  10   2  -14.70   18.40
   1 -10  -2   36.70   12.70
   1 -10  -2   21.30    6.20
   1 -10  -2   30.30    9.00
   1 -10  -2   41.60   11.50
   1 -10  -2   23.90   10.40
   1 -10  -2   33.20   10.20
  -1  10   2   22.40   11.80
  -1  10   2   -7.70   17.30
   0 -10  -2   15.50   10.20
   0 -10  -2   14.90    8.90
   0 -10  -2   -4.50   10.30
   0 -10  -2    5.00    4.60
   0 -10  -2    7.20    7.50
   0 -10  -2   -2.70    9.50
   0  10   2   -8.10   21.80
   0  10   2   19.90    8.20
  -1 -10  -2   27.00    6.50
  -1 -10  -2   48.80    8.90
  -1 -10  -2   37.70   12.20
  -1 -10  -2   29.40   12.20
  -1 -10  -2   39.50   10.10
  -1 -10  -2   47.80    8.50
   1  10   2   48.90    9.50
   1  10   2   24.80   17.00
   1  10   2   42.70    8.80
  -2 -10  -2   17.80    9.10
  -2 -10  -2   10.70    8.20
  -2 -10  -2   18.60    7.60
   2  10   2   11.50   14.80
   2  10   2    4.60    7.40
  -3 -10  -2   40.00   12.90
  -3 -10  -2   32.40    6.50
  -3 -10  -2   31.60   11.30
  -3 -10  -2   37.00    9.10
  -3 -10  -2   36.10    8.70
   3  10   2   36.10    8.00
   3  10   2   20.30    7.50
   3  10   2   35.10   14.90
  -4 -10  -2  -10.00    8.90
  -4 -10  -2   -6.00    4.90
  -4 -10  -2    8.30    9.20
  -4 -10  -2    1.10    8.20
  -4 -10  -2   -8.50   10.40
  -4 -10  -2    3.20    9.70
   4  10   2  -19.60   10.40
   4  10   2   -5.20    7.40
   4  10   2    7.70    6.60
   4  10   2    1.00   10.10
  -5 -10  -2   11.80   13.20
  -5 -10  -2   14.20    8.90
  -5 -10  -2   13.60    6.20
  -5 -10  -2   18.20    9.40
  -5 -10  -2   13.40    8.20
   5  10   2   15.20    7.90
   5  10   2   32.10   13.60
   5  10   2    8.90    7.20
   5  10   2   12.70   11.20
  -6 -10  -2   17.80    9.10
  -6 -10  -2   -2.20    9.60
  -6 -10  -2   13.30    7.30
  -6 -10  -2   18.80   14.80
  -6 -10  -2   20.60    9.70
   6  10   2   25.60   10.60
   6  10   2    6.90    7.80
   6  10   2   14.20   10.40
  -7 -10  -2    2.10   19.30
  -7 -10  -2   -2.90    9.60
   7  10   2    7.60    9.60
   7  10   2    0.00    5.90
  -8 -10  -2  -10.50   12.70
  -8 -10  -2    0.90   10.80
  -8 -10  -2   -7.60   21.50
   8  10   2    6.40    7.50
   8  10   2   22.20   10.90
   2 -11  -2   30.90   15.60
  -2  11   2   -7.00   27.10
   1 -11  -2   26.50    7.80
   1 -11  -2   17.50   15.40
   1 -11  -2   12.00    9.80
  -1  11   2   -7.60   23.20
   0 -11  -2    5.00   11.50
   0 -11  -2    7.40    5.90
   0 -11  -2  -12.80   14.50
   0 -11  -2   -6.10   10.70
   0 -11  -2    6.00   11.90
   0  11   2  -16.90    8.50
   0  11   2  -33.70   20.70
  -1 -11  -2   14.00   10.00
  -1 -11  -2   22.30   11.40
  -1 -11  -2   31.30   12.00
  -1 -11  -2   36.70    6.70
  -1 -11  -2   11.40   10.20
   1  11   2   23.40   20.60
   1  11   2   15.00   14.30
   1  11   2   34.00    9.80
  -2 -11  -2   22.10   10.30
  -2 -11  -2   24.70   10.50
  -2 -11  -2   36.20    7.90
  -2 -11  -2   42.10    7.30
  -2 -11  -2   38.30   13.80
   2  11   2   29.20    9.70
   2  11   2   15.80   18.90
   2  11   2   30.50    9.00
  -3 -11  -2   15.10    6.60
  -3 -11  -2    8.70   15.20
  -3 -11  -2   38.30   11.00
  -3 -11  -2   29.50   12.20
  -3 -11  -2   27.90    7.40
  -3 -11  -2    7.50   11.70
   3  11   2    5.10    8.90
   3  11   2   53.29   19.00
   3  11   2   12.00    9.60
  -4 -11  -2   -1.30    6.50
  -4 -11  -2   -4.50    9.70
  -4 -11  -2    4.60   10.20
  -4 -11  -2  -14.10   13.10
   4  11   2    7.40    8.70
   4  11   2    3.70    8.10
   4  11   2    3.70   10.10
   4  11   2  -13.30   14.60
  -5 -11  -2   17.50   14.90
  -5 -11  -2   -0.60    6.80
  -5 -11  -2   41.70   11.90
  -5 -11  -2   30.70   11.30
   5  11   2    9.80   14.40
   5  11   2   11.60    8.70
   5  11   2   26.60   14.90
  -6 -11  -2   -4.00   11.90
  -6 -11  -2    9.40   11.00
  -6 -11  -2  -13.30   18.10
   6  11   2    0.00   12.80
   6  11   2    9.10    8.30
  -7 -11  -2   25.00   14.30
  -7 -11  -2   -9.50   20.50
  -7 -11  -2   18.20   12.00
   7  11   2    8.90    9.70
  -1 -12  -2   11.30    6.70
  -1 -12  -2  -18.40   14.40
  -1 -12  -2   -0.50   15.40
   1  12   2   16.50   11.70
   1  12   2   14.80   27.10
  -2 -12  -2    9.30   16.10
  -2 -12  -2    7.40    5.80
  -2 -12  -2  -25.90   12.70
   2  12   2    9.90   11.00
   2  12   2   33.60   25.90
  -3 -12  -2  -21.70   13.00
  -3 -12  -2    1.70   15.90
  -3 -12  -2   -8.00    6.50
   3  12   2   -9.30    9.50
  -4 -12  -2   45.00   10.60
  -4 -12  -2   57.09   19.50
  -4 -12  -2   53.49   16.20
  -4 -12  -2   35.60   17.10
   4  12   2   56.69   21.60
   4  12   2   47.10   11.10
  -5 -12  -2   28.40   15.80
  -5 -12  -2   16.60   12.20
  -5 -12  -2   43.60   19.40
   5  12   2   14.20   18.60
   5  12   2   25.30   12.40
  -6 -12  -2   -9.80   12.20
  -6 -12  -2    5.80   20.20
  -6 -12  -2   32.20   15.90
   6  12   2   36.30   19.70
   6  12   2    1.00   10.50
   5  11  -3   36.30   11.80
  -5 -11   3   38.50    7.20
  -5 -11   3   54.59    8.30
  -5 -11   3   43.00   21.90
  -5 -11   3   63.89   17.10
   4  11  -3   18.20   11.00
  -4 -11   3   17.00    6.70
  -4 -11   3    2.20   13.80
  -4 -11   3    8.70   17.70
   3  11  -3   59.99   12.60
  -3 -11   3   50.69    8.50
  -3 -11   3   56.49   17.80
  -3 -11   3   51.69   14.20
  -2 -11   3   28.90   16.40
  -2 -11   3   24.50    8.40
  -2 -11   3   26.80   12.20
  -1 -11   3   45.90   16.70
  -1 -11   3   65.19   12.30
  -1 -11   3   63.09   13.70
   0 -11   3   -2.20    8.60
   0 -11   3   -6.60   10.40
   7  10  -3    4.10   10.30
   7  10  -3  -26.10   19.60
  -7 -10   3  -23.00   21.50
  -7 -10   3    9.10   15.20
  -7 -10   3    3.10   10.70
   6  10  -3   17.40   19.10
   6  10  -3   -1.90    8.30
  -6 -10   3   -6.60   18.60
  -6 -10   3    0.30    6.50
  -6 -10   3    9.70    9.30
  -6 -10   3    0.30   12.60
   5  10  -3   13.10    9.30
   5  10  -3   11.10   17.90
  -5 -10   3   -3.10   18.10
  -5 -10   3    8.60   11.50
  -5 -10   3    1.50    5.40
  -5 -10   3    2.00    6.70
  -5 -10   3   11.40    8.00
  -5 -10   3    0.50    4.70
   4  10  -3   13.50    8.70
  -4 -10   3    6.20    9.30
  -4 -10   3   32.40   11.20
  -4 -10   3   -4.80   16.10
  -4 -10   3   24.40    5.70
  -4 -10   3   56.59   17.20
  -4 -10   3   24.20    5.40
   3  10  -3   23.90    9.10
  -3 -10   3   26.50    5.10
  -3 -10   3   33.40    6.40
  -3 -10   3   16.40   17.70
  -3 -10   3   25.30   15.50
  -3 -10   3   42.30   10.50
  -3 -10   3   26.10   10.30
   2  10  -3   27.40    9.30
  -2 -10   3   20.70   14.00
  -2 -10   3   37.60   10.30
  -2 -10   3   33.20    6.80
  -1 -10   3   26.00    7.10
  -1 -10   3   55.89   14.10
  -1 -10   3   12.70    8.60
   0  10  -3   95.19   24.90
   0 -10   3   37.60    8.40
   0 -10   3   22.60    9.80
   0 -10   3   40.20   14.20
  -1  10  -3   28.30   23.20
   1 -10   3   12.40    7.90
   1 -10   3    9.10    9.60
   1 -10   3   16.70   14.40
  -2  10  -3    6.00   15.40
  -2  10  -3   57.89   26.50
   2 -10   3    9.20    9.10
   2 -10   3    1.00   10.60
   8   9  -3    9.90   17.70
   8   9  -3    3.50    9.70
  -8  -9   3   12.70   12.70
  -8  -9   3   30.60   22.70
  -8  -9   3   -9.90   16.30
   7   9  -3   31.60   16.00
  -7  -9   3   30.70   10.60
  -7  -9   3   46.80   15.30
  -7  -9   3   39.10   21.50
   6   9  -3  -11.40    6.60
   6   9  -3   -0.20   14.70
   6   9  -3    1.80    7.00
  -6  -9   3   -2.80   17.80
  -6  -9   3   -6.70   11.00
  -6  -9   3   13.70    5.90
  -6  -9   3   -1.30   10.90
  -6  -9   3    2.10    8.30
   5   9  -3   22.40    7.60
   5   9  -3   20.90   14.90
  -5  -9   3   21.50    9.70
  -5  -9   3   40.80    6.20
  -5  -9   3   37.70    4.90
  -5  -9   3   43.60   16.90
  -5  -9   3   37.30    5.90
  -5  -9   3   41.00    6.10
  -5  -9   3   25.60    8.20
   4   9  -3   35.90    7.80
   4   9  -3   30.40   14.00
  -4  -9   3   41.30    5.40
  -4  -9   3   51.49    9.70
  -4  -9   3   43.10   14.70
  -4  -9   3   32.20   13.20
  -4  -9   3   42.20    7.20
  -4  -9   3   23.70    7.50
  -4  -9   3   44.70    5.70
   3   9  -3    4.60    6.10
  -3  -9   3    3.50   13.60
  -3  -9   3    4.50    4.20
  -3  -9   3    2.20   11.30
  -3  -9   3   -0.30    7.40
   2   9  -3    5.90    6.20
  -2  -9   3    2.00    7.40
  -2  -9   3   -5.80    4.20
  -2  -9   3   10.60   12.50
  -2  -9   3   27.30   13.70
  -1  -9   3   21.10    5.80
  -1  -9   3   35.30   11.70
  -1  -9   3   21.00    8.10
   0   9  -3   12.90   15.80
   0  -9   3    9.30    6.80
   0  -9   3   25.70   13.40
   0  -9   3   15.10    6.20
   0  -9   3   11.40   11.10
  -1   9  -3  -12.20   16.80
  -1   9  -3  -12.10   10.20
   1  -9   3    0.40    7.20
   1  -9   3    6.20    6.10
   1  -9   3   16.20   10.30
   1  -9   3    3.00   10.40
  -2   9  -3   -7.70   10.70
  -2   9  -3  -21.00   18.10
   2  -9   3   -5.80   11.10
   2  -9   3   10.60    8.00
   2  -9   3    4.40   12.00
   2  -9   3    5.50    4.20
   2  -9   3    4.60    8.30
  -3   9  -3   39.80   21.20
  -3   9  -3   41.70   14.20
   3  -9   3    2.70    7.70
   3  -9   3    0.80   13.50
   3  -9   3   18.90    9.60
   3  -9   3    9.80    5.30
  -4   9  -3   13.30   22.90
  -4   9  -3   33.20   16.20
   4  -9   3   29.60    7.90
   4  -9   3   21.60   11.30
   4  -9   3   16.30    8.90
   9   8  -3   55.89   12.40
   9   8  -3   32.90   18.90
   9   8  -3   32.30   12.60
  -9  -8   3   41.50   19.10
  -9  -8   3   43.80   16.50
  -9  -8   3   75.29   27.50
   8   8  -3  169.08   18.00
   8   8  -3  129.69   22.60
  -8  -8   3  114.89   26.60
  -8  -8   3  153.68   19.90
  -8  -8   3  138.89   26.90
   7   8  -3  123.49   15.10
   7   8  -3   75.49   17.70
   7   8  -3  119.99   13.70
  -7  -8   3  191.78   26.60
  -7  -8   3  124.49   12.80
  -7  -8   3  123.69   16.70
  -7  -8   3  117.99   17.20
   6   8  -3  309.57   20.80
   6   8  -3  206.68   29.30
  -6  -8   3  248.18   24.20
  -6  -8   3  242.08   18.50
  -6  -8   3  284.67   23.10
  -6  -8   3  270.57   31.00
  -6  -8   3  303.17   19.40
   5   8  -3   70.29   16.30
   5   8  -3   97.49    9.30
   5   8  -3   91.79   10.90
  -5  -8   3   96.09   13.00
  -5  -8   3   99.19   17.80
  -5  -8   3   98.19   12.60
  -5  -8   3   87.79   11.50
  -5  -8   3   90.69    7.70
  -5  -8   3   85.19    8.90
   4   8  -3  155.38   22.50
   4   8  -3  220.08   15.70
  -4  -8   3  212.78   13.80
  -4  -8   3  203.78   15.80
  -4  -8   3  229.08   24.00
  -4  -8   3  201.68   13.70
  -4  -8   3  162.98   14.50
  -4  -8   3  207.88   17.60
  -4  -8   3  206.78   20.50
   3   8  -3  112.89   10.90
   3   8  -3   67.89   13.50
  -3  -8   3  127.29   16.00
  -3  -8   3   82.19    7.50
  -3  -8   3   97.19   13.70
  -3  -8   3  105.39   11.40
  -3  -8   3  131.69   16.50
   2   8  -3  167.78   13.60
  -2  -8   3  148.79   19.90
  -2  -8   3  149.69   19.30
  -2  -8   3  160.48   12.20
  -2  -8   3  146.09   16.90
  -2  -8   3  157.38   21.40
  -2  -8   3  173.88   18.90
   1   8  -3    2.20    5.50
  -1  -8   3   -0.90   11.80
  -1  -8   3    2.50    7.10
  -1  -8   3   24.30    9.60
  -1  -8   3    1.50    3.80
  -1  -8   3   -3.90    7.50
  -1  -8   3    4.50    5.90
  -1  -8   3   -5.30    8.20
   0   8  -3   62.39   16.50
   0   8  -3   45.70   10.20
   0  -8   3   57.79    9.10
   0  -8   3   43.70   15.90
   0  -8   3   47.30   10.30
   0  -8   3   58.89   10.40
   0  -8   3   35.50   11.00
   0  -8   3   61.29    8.10
  -1   8  -3   -9.40   12.70
  -1   8  -3   -3.20    8.00
   1  -8   3    7.40    5.00
   1  -8   3   13.50   10.50
   1  -8   3   17.30    8.30
   1  -8   3    5.10    6.20
   1  -8   3   12.60    8.00
   2  -8   3    3.10   11.90
   2  -8   3  -18.10    6.90
   2  -8   3    0.50    6.10
   2  -8   3   -6.50    7.80
   2  -8   3    1.90    3.00
   2  -8   3   14.10    6.50
   2  -8   3   10.30    9.50
  -3   8  -3   17.20    9.90
  -3   8  -3  -22.50   15.90
   3  -8   3   -3.90    8.40
   3  -8   3   -6.40   13.30
   3  -8   3   12.30    7.30
   3  -8   3    0.40    8.50
   3  -8   3    0.00   12.40
   3  -8   3    0.90    6.30
   3  -8   3  -10.70    9.20
   3  -8   3    2.90    3.90
   3  -8   3    8.20    6.80
  -4   8  -3   10.80   11.00
  -4   8  -3  -10.40   17.10
   4  -8   3   -5.90   10.50
   4  -8   3   -6.20    4.80
   4  -8   3   -0.30    7.20
   4  -8   3  -11.10   10.10
   4  -8   3   -3.20   10.50
   4  -8   3    6.20    6.20
  -5   8  -3    8.90   13.00
  -5   8  -3    4.00   25.10
   5  -8   3   12.30    7.30
   5  -8   3   -3.90    7.50
   5  -8   3    0.40    8.90
   5  -8   3   -4.20   10.20
   9   7  -3   48.90   17.40
   9   7  -3  101.99   12.50
  -9  -7   3   92.09   16.80
  -9  -7   3   96.79   19.50
  -9  -7   3  100.89   27.70
   8   7  -3  319.47   24.60
   8   7  -3  316.37   23.20
   8   7  -3  361.96   25.20
   8   7  -3  256.57   33.10
  -8  -7   3  334.47   30.10
  -8  -7   3  318.47   34.80
  -8  -7   3  408.06   40.30
  -8  -7   3  333.47   25.10
   7   7  -3  214.38   17.30
   7   7  -3  187.28   17.50
   7   7  -3  173.98   23.50
   7   7  -3  205.38   14.60
   7   7  -3  186.78   13.70
  -7  -7   3  215.18   21.00
  -7  -7   3  198.18   16.20
  -7  -7   3  205.08   21.70
  -7  -7   3  116.99   27.20
   6   7  -3  697.83   49.40
   6   7  -3  828.02   49.80
  -6  -7   3  858.71   57.89
  -6  -7   3  864.71   52.19
  -6  -7   3  782.52   48.60
  -6  -7   3  846.52   52.79
  -6  -7   3  822.72   49.30
   5   7  -3  130.89   18.00
   5   7  -3  164.48   16.70
   5   7  -3  138.79   11.90
   5   7  -3  128.09   11.30
   5   7  -3  128.59   12.70
  -5  -7   3  123.39   10.70
  -5  -7   3  119.49   15.00
  -5  -7   3  173.08   19.30
  -5  -7   3  128.39   12.80
  -5  -7   3  131.99   10.50
  -5  -7   3  153.98   14.00
  -5  -7   3  123.19   18.90
   4   7  -3  951.40   54.29
   4   7  -3  916.11   53.09
  -4  -7   3  890.71   59.09
  -4  -7   3  962.90   54.79
  -4  -7   3  882.61   55.69
  -4  -7   3  887.41   57.59
  -4  -7   3  847.42   58.09
  -4  -7   3  872.21   54.99
  -4  -7   3  876.01   55.69
  -4  -7   3  882.71   52.99
   3   7  -3  202.18   22.80
   3   7  -3  262.87   17.80
  -3  -7   3  260.97   21.60
  -3  -7   3  275.67   16.10
  -3  -7   3  250.57   16.00
  -3  -7   3  250.77   19.80
  -3  -7   3  272.77   23.20
  -3  -7   3  261.87   21.20
  -3  -7   3  259.97   17.20
  -3  -7   3  266.37   21.60
  -3  -7   3  252.17   18.00
  -3  -7   3  233.38   19.20
   2   7  -3  666.03   48.50
   2   7  -3  732.33   44.00
  -2  -7   3  723.23   47.80
  -2  -7   3  698.53   46.20
  -2  -7   3  709.43   44.60
  -2  -7   3  736.13   43.10
  -2  -7   3  756.12   46.80
  -2  -7   3  714.43   45.30
  -2  -7   3  736.43   47.60
   1   7  -3   63.29    7.90
  -1  -7   3   54.09    9.70
  -1  -7   3   71.59   11.60
  -1  -7   3   54.59    6.70
  -1  -7   3   46.80    7.80
  -1  -7   3   59.19   12.90
  -1  -7   3   58.39    8.60
  -1  -7   3   62.99    9.30
  -1  -7   3   53.79   10.30
   0   7  -3  122.79   14.70
   0   7  -3  168.28   20.90
   0  -7   3  144.49   15.60
   0  -7   3  151.18   13.10
   0  -7   3  101.19   13.90
   0  -7   3  159.18   12.10
   0  -7   3  127.49   17.60
   0  -7   3  166.28   15.80
   0  -7   3  150.28   14.70
   0  -7   3  170.58   15.20
  -1   7  -3   41.50   12.70
  -1   7  -3   49.50    9.10
   1  -7   3   48.00    6.90
   1  -7   3   37.90    9.10
   1  -7   3   74.09   15.40
   1  -7   3   47.50    7.30
   1  -7   3   51.39    9.10
   1  -7   3   53.19    9.40
   1  -7   3   64.69    9.70
  -2   7  -3   84.59   18.20
  -2   7  -3  128.19   14.00
   2  -7   3  101.49   11.40
   2  -7   3   83.69   10.90
   2  -7   3  117.29   13.10
   2  -7   3  117.99   15.90
   2  -7   3   73.99   11.70
   2  -7   3   90.29   10.70
   2  -7   3   91.59    7.20
  -3   7  -3   47.50   16.10
  -3   7  -3   23.20    8.60
   3  -7   3   15.30   10.20
   3  -7   3   26.30    8.10
   3  -7   3   35.00    6.60
   3  -7   3   28.40    7.80
   3  -7   3   35.30    4.60
   3  -7   3   16.70   10.90
   3  -7   3   36.30    5.60
   3  -7   3   44.20    7.60
   3  -7   3   13.00   10.60
  -4   7  -3    7.40   15.30
  -4   7  -3    7.50    8.70
   4  -7   3    5.10    5.30
   4  -7   3   -3.50    6.90
   4  -7   3    2.50    9.60
   4  -7   3   12.00   10.50
   4  -7   3    6.10    6.10
   4  -7   3    8.00    4.30
   4  -7   3   16.20   12.40
   4  -7   3    3.40   12.00
  -5   7  -3   10.50   19.20
  -5   7  -3    7.90    9.30
   5  -7   3    6.90    7.00
   5  -7   3    7.00    6.00
   5  -7   3   15.00   13.60
   5  -7   3   13.70   15.00
   5  -7   3    3.30    9.00
   5  -7   3    1.10    7.10
  -6   7  -3   -7.40   11.20
  -6   7  -3   32.80   24.40
   6  -7   3   -5.50   10.00
   6  -7   3    8.00    7.10
   6  -7   3    1.00    8.30
   6  -7   3   13.50    9.40
  10   6  -3  -12.10   17.20
 -10  -6   3    6.30   24.00
   9   6  -3  261.07   23.20
   9   6  -3  222.68   25.40
   9   6  -3  262.57   34.20
   9   6  -3  266.67   22.80
  -9  -6   3  212.18   29.50
  -9  -6   3  370.86   40.90
  -9  -6   3  257.87   32.10
   8   6  -3    3.40    6.40
   8   6  -3    0.70    8.60
   8   6  -3    3.80   11.60
   8   6  -3   10.90    7.20
   8   6  -3    9.10    9.40
  -8  -6   3   22.40   12.30
  -8  -6   3    2.90   17.40
  -8  -6   3   -1.60    6.70
  -8  -6   3   -4.30    9.30
   7   6  -3  692.03   54.99
   7   6  -3  816.32   49.99
   7   6  -3  820.72   51.49
   7   6  -3  827.62   50.09
   7   6  -3  889.31   50.79
  -7  -6   3  816.52   54.29
  -7  -6   3  855.01   54.09
  -7  -6   3  798.72   59.19
  -7  -6   3  810.62   50.49
   6   6  -3   -0.10    6.60
   6   6  -3   10.10    4.20
   6   6  -3    8.80    8.90
   6   6  -3   11.00    4.30
   6   6  -3   18.30    4.80
  -6  -6   3   11.70   10.10
  -6  -6   3    0.90   10.30
  -6  -6   3    7.10    7.00
  -6  -6   3    8.50    7.30
  -6  -6   3    8.20    4.40
  -6  -6   3    7.50    7.10
  -6  -6   3    5.40    3.50
   5   6  -3 1715.43   95.29
   5   6  -3 1514.55   95.09
   5   6  -3 1623.44   97.89
   5   6  -3 1485.05   95.49
  -5  -6   3 1690.93   98.59
  -5  -6   3 1603.84   96.99
  -5  -6   3 1600.14   94.89
  -5  -6   3 1653.63  100.69
  -5  -6   3 1565.84   94.49
  -5  -6   3 1553.74   94.29
  -5  -6   3 1761.42   97.19
  -5  -6   3 1689.63   96.99
   4   6  -3   43.40    5.70
   4   6  -3   43.10    5.30
   4   6  -3   23.50    8.30
   4   6  -3   41.20    6.20
   4   6  -3   45.80    8.20
  -4  -6   3   40.90    7.20
  -4  -6   3   51.19    7.60
  -4  -6   3   39.90    4.90
  -4  -6   3   39.80    6.70
  -4  -6   3   31.60    7.60
  -4  -6   3   41.20    9.50
  -4  -6   3   45.60    7.80
  -4  -6   3   40.20    3.30
  -4  -6   3   42.90    5.20
  -4  -6   3   49.10   10.50
  -4  -6   3   44.50    3.90
   3   6  -3 1996.30  114.09
  -3  -6   3 1921.21  115.89
  -3  -6   3 1916.11  114.09
  -3  -6   3 2021.90  114.09
  -3  -6   3 2046.40  116.89
  -3  -6   3 1865.61  112.79
  -3  -6   3 2050.49  114.99
  -3  -6   3 2015.20  115.09
  -3  -6   3 1957.40  113.39
  -3  -6   3 1908.51  117.39
  -3  -6   3 1880.41  116.49
  -3  -6   3 1897.21  112.89
   2   6  -3   33.10    4.90
   2   6  -3   23.00    7.60
  -2  -6   3   27.00    8.30
  -2  -6   3   35.60    6.20
  -2  -6   3   29.00    7.10
  -2  -6   3   34.60    6.30
  -2  -6   3   31.80    7.60
  -2  -6   3   30.90    4.20
  -2  -6   3   43.30    7.80
   1   6  -3 1371.96   81.69
   1   6  -3 1336.17   85.29
  -1  -6   3 1405.96   83.69
  -1  -6   3 1429.36   82.69
  -1  -6   3 1427.66   81.29
  -1  -6   3 1355.56   85.19
  -1  -6   3 1323.27   82.09
  -1  -6   3 1336.87   83.39
  -1  -6   3 1516.05   83.99
   0   6  -3   73.59   10.10
   0   6  -3   96.49   14.00
   0  -6   3   92.19   11.10
   0  -6   3   84.79    9.10
   0  -6   3   83.79    9.80
   0  -6   3   92.99    8.00
   0  -6   3   98.99   11.30
   0  -6   3  101.29   11.10
   0  -6   3   72.09    9.70
   0  -6   3  107.29   15.50
  -1   6  -3  680.53   48.20
  -1   6  -3  656.33   44.30
   1  -6   3  710.53   44.00
   1  -6   3  707.13   44.30
   1  -6   3  714.53   42.50
   1  -6   3  652.53   44.00
   1  -6   3  734.43   43.60
   1  -6   3  668.23   47.70
   1  -6   3  725.23   42.80
  -2   6  -3   17.60    5.90
  -2   6  -3   11.10    9.40
   2  -6   3   19.20    5.40
   2  -6   3   18.50    5.20
   2  -6   3   15.10    7.20
   2  -6   3   28.30   13.30
   2  -6   3   23.50    3.50
   2  -6   3   11.20    4.00
   2  -6   3   16.80    7.10
   2  -6   3   30.40    7.70
   2  -6   3   15.00    4.80
  -3   6  -3  130.79   13.40
  -3   6  -3  143.79   21.10
   3  -6   3  132.69   11.90
   3  -6   3  128.39   16.00
   3  -6   3  137.09   10.40
   3  -6   3  132.69   13.10
   3  -6   3  122.19   13.20
   3  -6   3  135.59   12.50
   3  -6   3  124.99    9.50
   3  -6   3  157.98   18.30
   3  -6   3  108.69   15.00
   3  -6   3  108.59   16.60
  -4   6  -3   27.90    5.00
  -4   6  -3   24.70   14.80
  -4   6  -3   27.20    7.60
  -4   6  -3   13.20    7.70
   4  -6   3   22.60    6.90
   4  -6   3   22.50    9.10
   4  -6   3   27.50   10.20
   4  -6   3   28.40   10.60
   4  -6   3   19.40    4.40
   4  -6   3   30.90    9.30
   4  -6   3   16.60    5.50
   4  -6   3   23.00    6.70
  -5   6  -3   33.40   16.60
  -5   6  -3   22.50    7.00
  -5   6  -3   28.90    8.90
   5  -6   3   23.00   10.40
   5  -6   3   23.70    5.40
   5  -6   3   23.00    7.50
   5  -6   3   29.80    7.20
   5  -6   3   31.40   13.70
   5  -6   3   17.40   10.80
   5  -6   3   22.70   12.30
   5  -6   3   39.80    8.60
  -6   6  -3   -0.40    8.30
  -6   6  -3  -11.70   19.10
   6  -6   3   13.10   14.20
   6  -6   3    3.20    7.90
   6  -6   3   13.40    6.50
   6  -6   3    4.60   12.50
   6  -6   3  -14.70    7.10
  -7   6  -3   17.10   11.50
   7  -6   3  -13.10   11.10
   7  -6   3   -3.30    8.30
   7  -6   3  -10.80    9.20
   7  -6   3    3.10    9.70
  10   5  -3   25.70   18.30
  10   5  -3   25.50   13.20
 -10  -5   3   51.49   25.30
 -10  -5   3    8.80   16.80
 -10  -5   3   27.30   16.60
   9   5  -3   43.00   13.20
   9   5  -3   55.19   10.60
   9   5  -3   54.89    7.10
   9   5  -3   71.59   11.70
   9   5  -3    7.50   15.00
  -9  -5   3   46.70   16.10
  -9  -5   3   52.09   21.80
  -9  -5   3   20.80   14.20
   8   5  -3  216.58   17.80
   8   5  -3  194.68   18.90
   8   5  -3  204.48   17.40
  -8  -5   3  199.98   24.10
  -8  -5   3  202.18   27.80
  -8  -5   3  186.18   18.30
   7   5  -3  182.38   14.40
   7   5  -3  154.18   16.00
   7   5  -3  156.98   15.40
   7   5  -3  188.28   21.10
   7   5  -3  185.68   14.90
  -7  -5   3  195.08   26.30
  -7  -5   3  180.18   14.90
  -7  -5   3  174.28   19.40
  -7  -5   3  159.88   18.50
  -7  -5   3  142.79   19.80
  -7  -5   3  161.38   13.90
   6   5  -3  570.54   40.50
   6   5  -3  506.75   37.30
   6   5  -3  619.34   35.80
   6   5  -3  524.65   39.30
   6   5  -3  599.14   36.10
   6   5  -3  543.05   35.90
   6   5  -3  595.94   36.90
  -6  -5   3  551.84   38.70
  -6  -5   3  617.44   37.90
  -6  -5   3  588.14   36.20
  -6  -5   3  612.24   39.00
  -6  -5   3  600.64   39.50
  -6  -5   3  610.44   43.60
  -6  -5   3  532.95   35.00
   5   5  -3  613.84   40.30
   5   5  -3  632.84   42.20
   5   5  -3  659.93   38.70
   5   5  -3  637.34   39.30
   5   5  -3  700.73   38.90
   5   5  -3  597.94   43.10
   5   5  -3  695.63   41.00
  -5  -5   3  673.73   42.50
  -5  -5   3  606.74   38.50
  -5  -5   3  649.93   39.20
  -5  -5   3  623.74   38.40
  -5  -5   3  634.04   41.20
  -5  -5   3  648.14   40.70
  -5  -5   3  621.04   41.30
  -5  -5   3  649.54   44.40
   4   5  -3 1404.86   84.09
   4   5  -3 1161.68   84.59
   4   5  -3 1366.46   82.19
   4   5  -3 1430.36   81.79
   4   5  -3 1439.66   81.69
  -4  -5   3 1479.75   84.69
  -4  -5   3 1438.56   81.49
  -4  -5   3 1425.86   82.99
  -4  -5   3 1452.25   83.09
  -4  -5   3 1400.66   83.09
  -4  -5   3 1365.66   82.19
  -4  -5   3 1385.16   85.79
  -4  -5   3 1397.76   85.39
  -4  -5   3 1348.86   80.99
   3   5  -3 1129.49   63.69
   3   5  -3 1103.19   63.99
   3   5  -3 1005.80   63.39
  -3  -5   3 1055.79   62.59
  -3  -5   3 1100.99   62.99
  -3  -5   3 1122.09   64.59
  -3  -5   3 1086.59   65.49
  -3  -5   3 1085.59   63.49
  -3  -5   3 1104.39   64.59
  -3  -5   3 1099.69   64.99
  -3  -5   3 1068.99   63.19
  -3  -5   3 1100.59   66.49
  -3  -5   3 1064.89   66.89
  -3  -5   3 1095.99   67.49
   2   5  -3 1444.76   83.29
  -2  -5   3 1455.45   85.39
  -2  -5   3 1417.96   83.89
  -2  -5   3 1412.16   85.89
  -2  -5   3 1371.36   82.09
  -2  -5   3 1332.07   82.59
  -2  -5   3 1524.85   84.09
  -2  -5   3 1410.46   82.79
  -2  -5   3 1399.16   85.49
  -2  -5   3 1365.56   82.49
  -2  -5   3 1538.05   85.79
  -2  -5   3 1458.25   82.99
   1   5  -3 1623.54   94.99
   1   5  -3 1461.35   97.59
  -1  -5   3 1791.92   97.09
  -1  -5   3 1638.54   96.89
  -1  -5   3 1635.74   95.59
  -1  -5   3 1551.34   96.39
  -1  -5   3 1637.54   97.99
  -1  -5   3 1658.33   95.49
  -1  -5   3 1666.53   94.49
   0   5  -3 1448.66   94.29
   0  -5   3 1696.93   93.79
   0  -5   3 1612.04   92.59
   0  -5   3 1536.55   95.59
   0  -5   3 1520.55   92.69
   0  -5   3 1587.34   91.89
   0  -5   3 1567.04   92.79
   0  -5   3 1666.23   93.59
   0  -5   3 1565.54   93.49
  -1   5  -3  698.03   46.30
  -1   5  -3  695.53   45.70
  -1   5  -3  775.72   49.99
   1  -5   3  751.62   44.60
   1  -5   3  754.62   44.40
   1  -5   3  725.53   45.70
   1  -5   3  741.43   45.90
   1  -5   3  769.72   49.30
   1  -5   3  753.52   45.80
  -2   5  -3  397.26   27.40
  -2   5  -3  411.36   31.40
  -2   5  -3  418.76   27.10
   2  -5   3  394.46   23.90
   2  -5   3  419.66   24.40
   2  -5   3  364.76   26.60
   2  -5   3  419.16   27.50
   2  -5   3  414.26   25.80
   2  -5   3  416.66   25.90
   2  -5   3  363.86   30.90
   2  -5   3  378.76   25.10
   2  -5   3  430.86   25.40
  -3   5  -3  327.47   28.60
  -3   5  -3  330.77   23.10
  -3   5  -3  327.67   22.60
  -3   5  -3  352.26   23.20
  -3   5  -3  310.07   19.90
   3  -5   3  332.87   21.80
   3  -5   3  345.37   21.80
   3  -5   3  328.67   19.90
   3  -5   3  298.77   22.70
   3  -5   3  284.67   23.20
   3  -5   3  321.47   25.60
   3  -5   3  284.87   25.10
   3  -5   3  353.76   23.90
   3  -5   3  331.37   20.50
   3  -5   3  290.57   27.80
  -4   5  -3   72.59   15.70
  -4   5  -3  117.69   10.50
  -4   5  -3  125.09   12.90
  -4   5  -3  121.89    9.50
  -4   5  -3  123.99   12.70
  -4   5  -3  122.39   13.00
   4  -5   3  139.29   13.30
   4  -5   3  135.99   11.60
   4  -5   3  137.39   14.90
   4  -5   3  128.79   12.40
   4  -5   3  124.29   17.20
   4  -5   3  106.89   14.00
   4  -5   3   77.19   18.20
   4  -5   3  128.79   14.00
   4  -5   3  127.29   10.40
   4  -5   3  127.29    9.60
  -5   5  -3   79.29   10.40
  -5   5  -3   44.20   14.80
  -5   5  -3   66.59   10.00
  -5   5  -3   58.49   10.00
   5  -5   3   40.40   10.40
   5  -5   3   69.69    8.40
   5  -5   3   76.19   10.90
   5  -5   3   47.10   11.00
   5  -5   3   63.79    8.00
   5  -5   3   53.79   12.70
   5  -5   3   60.39    9.30
   5  -5   3   55.79   11.10
  -6   5  -3   22.50    8.60
  -6   5  -3   31.80   17.80
  -6   5  -3    8.60    7.90
   6  -5   3   26.10   14.00
   6  -5   3   12.10    6.70
   6  -5   3   35.00   11.70
   6  -5   3    9.40    5.70
   6  -5   3    8.60   11.40
   6  -5   3   24.30    7.20
   6  -5   3   13.80    7.80
  -7   5  -3   12.90   10.80
   7  -5   3    6.20    8.80
   7  -5   3    3.90    7.10
   7  -5   3   26.10    9.20
   7  -5   3    9.70    9.80
  10   4  -3   22.70   17.50
  10   4  -3   20.00   15.50
  10   4  -3   13.60    7.60
  10   4  -3   16.70   11.70
 -10  -4   3   23.00   18.60
 -10  -4   3   -7.80   17.10
 -10  -4   3   36.20   27.10
   9   4  -3   13.30    5.80
   9   4  -3   19.10   13.20
   9   4  -3   13.70   10.50
  -9  -4   3   21.60    9.70
  -9  -4   3    3.80   14.10
  -9  -4   3    5.40   22.00
  -9  -4   3   13.70   13.00
   8   4  -3   76.39   12.50
   8   4  -3   56.89    9.70
   8   4  -3   84.99    8.00
   8   4  -3   77.49   15.00
   8   4  -3   47.70   10.00
  -8  -4   3   82.99   15.40
  -8  -4   3   79.49   12.50
  -8  -4   3   56.29   11.90
  -8  -4   3  112.89   30.90
  -8  -4   3   77.29   11.10
   7   4  -3    9.90    5.50
   7   4  -3   17.20    6.70
   7   4  -3    0.90    2.90
   7   4  -3    9.70    8.10
  -7  -4   3  -17.20   11.40
  -7  -4   3    2.90    5.30
  -7  -4   3    2.00    7.40
  -7  -4   3   -3.50    7.20
  -7  -4   3    4.90    4.30
  -7  -4   3   -4.60    7.90
  -7  -4   3   11.50    7.40
   6   4  -3  176.08   16.10
   6   4  -3  172.78   18.40
   6   4  -3  166.78   13.10
   6   4  -3  188.28   14.60
   6   4  -3  185.18   18.30
   6   4  -3  158.18   14.00
   6   4  -3  161.68   13.30
  -6  -4   3  179.48   21.70
  -6  -4   3  181.48   17.10
  -6  -4   3  157.88   13.40
  -6  -4   3  196.68   16.80
  -6  -4   3  189.98   16.50
  -6  -4   3  178.08   15.60
  -6  -4   3  158.68   12.20
   5   4  -3  127.59   11.00
   5   4  -3  132.09   12.30
   5   4  -3  142.09   10.40
   5   4  -3  124.49   11.10
   5   4  -3  122.09   14.60
   5   4  -3  125.49   14.20
   5   4  -3  130.49   10.40
  -5  -4   3  128.39   10.00
  -5  -4   3  141.09   10.50
  -5  -4   3  135.39   12.80
  -5  -4   3  147.49   12.50
  -5  -4   3  121.29   16.50
  -5  -4   3  117.39   12.80
  -5  -4   3  135.69   13.30
  -5  -4   3  132.69    9.60
   4   4  -3 1690.23   98.29
   4   4  -3 1646.84  100.09
   4   4  -3 1647.34   98.79
   4   4  -3 1598.24  100.89
   4   4  -3 1722.93   97.89
   4   4  -3 1809.22   97.59
   4   4  -3 1722.13   97.59
  -4  -4   3 1752.82   99.09
  -4  -4   3 1693.33   97.99
  -4  -4   3 1585.64   99.29
  -4  -4   3 1666.73  101.79
  -4  -4   3 1552.74   97.29
  -4  -4   3 1659.23   99.49
  -4  -4   3 1690.53   98.49
  -4  -4   3 1764.52  100.39
   3   4  -3    7.70    3.70
   3   4  -3   14.90    2.90
   3   4  -3   10.10    5.30
   3   4  -3   12.50    3.40
   3   4  -3   12.70    2.60
  -3  -4   3   12.10    5.80
  -3  -4   3   12.70    2.10
  -3  -4   3   15.90    4.00
  -3  -4   3   15.80    3.70
  -3  -4   3   15.10    5.70
  -3  -4   3   13.10    3.80
  -3  -4   3   12.00    2.50
  -3  -4   3   15.00    4.90
  -3  -4   3   13.80    4.50
   2   4  -3 2104.29  122.39
   2   4  -3 2072.79  122.89
   2   4  -3 1915.01  125.39
   2   4  -3 2239.88  122.39
  -2  -4   3 2152.08  125.19
  -2  -4   3 2135.39  123.59
  -2  -4   3 2141.79  123.29
  -2  -4   3 2248.48  123.49
  -2  -4   3 2078.29  122.89
  -2  -4   3 2013.60  122.09
  -2  -4   3 2299.17  125.19
  -2  -4   3 2143.69  125.09
  -2  -4   3 2185.88  122.49
  -2  -4   3 2062.29  122.19
  -2  -4   3 2121.09  125.39
   1   4  -3  781.52   55.29
   1   4  -3  906.01   53.19
   1   4  -3  862.81   55.49
  -1  -4   3  904.91   54.99
  -1  -4   3  902.31   53.59
  -1  -4   3  930.31   55.99
  -1  -4   3  995.50   55.09
  -1  -4   3  954.80   53.69
  -1  -4   3  899.71   54.59
   0   4  -3 2671.43  153.78
   0   4  -3 2565.74  153.68
   0  -4   3 2653.03  151.88
   0  -4   3 2558.84  154.48
   0  -4   3 2608.74  152.08
   0  -4   3 2547.75  151.18
   0  -4   3 2761.82  152.98
  -1   4  -3   49.90    7.60
  -1   4  -3   59.39    6.60
   1  -4   3   59.19    5.80
   1  -4   3   59.79    5.60
   1  -4   3   60.79    7.70
   1  -4   3   57.19    6.90
   1  -4   3   52.89    7.70
   1  -4   3   50.39    6.40
   1  -4   3   62.39    9.90
  -2   4  -3 1760.72  106.89
  -2   4  -3 1801.52  104.59
  -2   4  -3 1845.32  103.69
   2  -4   3 1679.73  101.79
   2  -4   3 1763.22  101.19
   2  -4   3 1740.43  101.89
   2  -4   3 1739.73  103.19
   2  -4   3 1858.31  102.19
   2  -4   3 1719.43  102.09
   2  -4   3 1720.83  106.09
   2  -4   3 1692.53  100.79
   2  -4   3 1697.23  102.79
  -3   4  -3   53.49    8.90
  -3   4  -3   58.59    7.50
  -3   4  -3   55.49    5.70
  -3   4  -3   53.79   10.40
  -3   4  -3   56.09    5.40
  -3   4  -3   63.99    7.80
   3  -4   3   51.39    7.40
   3  -4   3   48.30    9.60
   3  -4   3   48.70    6.40
   3  -4   3   58.89    5.80
   3  -4   3   53.19   12.20
   3  -4   3   45.70    6.80
   3  -4   3   47.10    7.40
   3  -4   3   69.79    7.40
   3  -4   3   53.69    4.90
   3  -4   3   54.49    7.30
  -4   4  -3  452.85   29.40
  -4   4  -3  410.66   27.00
  -4   4  -3  426.86   34.10
  -4   4  -3  438.56   27.60
  -4   4  -3  474.85   28.90
  -4   4  -3  447.06   28.50
   4  -4   3  443.66   27.40
   4  -4   3  450.05   28.10
   4  -4   3  421.46   26.60
   4  -4   3  421.86   29.00
   4  -4   3  416.96   29.20
   4  -4   3  427.56   29.30
   4  -4   3  437.96   34.20
   4  -4   3  445.16   28.10
   4  -4   3  390.26   31.10
  -5   4  -3    0.80    5.70
  -5   4  -3    1.80   11.50
  -5   4  -3   11.80    5.60
  -5   4  -3   12.90    5.50
  -5   4  -3    6.40    5.30
  -5   4  -3   -0.80    5.60
   5  -4   3    6.30    5.10
   5  -4   3    7.90    4.60
   5  -4   3   -4.90    6.90
   5  -4   3    0.20    4.20
   5  -4   3    6.70    3.80
   5  -4   3    2.00    9.80
   5  -4   3    8.60    7.50
   5  -4   3    9.50   12.60
  -6   4  -3  134.59   12.50
  -6   4  -3  130.09   14.20
  -6   4  -3  150.38   23.60
  -6   4  -3  108.99   15.30
  -6   4  -3  146.89   16.10
   6  -4   3  149.49   14.20
   6  -4   3  135.99   12.20
   6  -4   3  143.09   14.10
   6  -4   3  114.59   17.50
   6  -4   3  123.89   17.40
   6  -4   3  158.78   19.50
   6  -4   3  116.39   14.60
  -7   4  -3   -5.10    9.30
  -7   4  -3    4.40    6.00
  -7   4  -3   11.80    6.40
  -7   4  -3   -0.60    8.70
   7  -4   3  -15.20   15.50
   7  -4   3   -4.30   11.30
   7  -4   3    7.60    8.10
   7  -4   3    4.60    6.30
   7  -4   3   13.00    8.70
   7  -4   3   12.90    7.80
  -8   4  -3   10.70   12.50
  -8   4  -3   12.20    9.10
   8  -4   3    4.80    9.70
   8  -4   3   17.60    8.60
   8  -4   3   34.40   12.20
   8  -4   3   18.10   10.60
  10   3  -3    5.40    8.10
  10   3  -3   25.90   11.90
  10   3  -3   12.00   13.70
  10   3  -3    2.20   18.00
 -10  -3   3   -5.90   17.10
 -10  -3   3    5.60   17.60
 -10  -3   3   21.00   25.90
   9   3  -3   70.19   12.40
   9   3  -3   98.39   19.20
   9   3  -3   97.69   11.80
   9   3  -3   80.49   13.30
  -9  -3   3   76.49   24.60
  -9  -3   3   92.39   17.40
  -9  -3   3   90.59   13.20
  -9  -3   3  106.39   17.60
  -9  -3   3   99.79   22.90
   8   3  -3   18.00    5.10
   8   3  -3   22.30   11.40
   8   3  -3    2.60    6.30
   8   3  -3   22.50    8.50
  -8  -3   3    5.40    9.60
  -8  -3   3   14.80    8.30
  -8  -3   3   13.50    6.90
  -8  -3   3   14.80   11.10
  -8  -3   3   19.90   16.40
   7   3  -3   22.40    4.10
   7   3  -3   30.60    9.50
   7   3  -3   20.40   10.80
   7   3  -3   18.40    9.00
   7   3  -3   18.50    6.00
   7   3  -3   27.60    7.60
   7   3  -3   25.70    7.70
  -7  -3   3   28.30    5.50
  -7  -3   3   18.60   12.30
  -7  -3   3   22.20    8.20
  -7  -3   3   42.30   10.10
  -7  -3   3   12.70    8.00
  -7  -3   3   28.20    7.90
  -7  -3   3   23.60    4.90
   6   3  -3   31.10    6.80
   6   3  -3   35.40    8.70
   6   3  -3   34.10    4.30
   6   3  -3   47.00    9.00
   6   3  -3   40.20    7.20
   6   3  -3   31.00    9.10
   6   3  -3   25.20    5.50
  -6  -3   3   41.90    8.70
  -6  -3   3   37.40    5.30
  -6  -3   3   49.10    7.60
  -6  -3   3   34.40   10.70
  -6  -3   3   42.00    7.20
  -6  -3   3   34.70    8.50
  -6  -3   3   38.40    6.40
  -6  -3   3   36.70    4.80
   5   3  -3  141.99   11.20
   5   3  -3   98.09   13.80
   5   3  -3  136.79   14.60
   5   3  -3  125.49    8.20
   5   3  -3  136.69   11.20
   5   3  -3  111.29   10.10
   5   3  -3  140.59   12.70
  -5  -3   3  136.49   12.20
  -5  -3   3  147.89   12.10
  -5  -3   3  138.49   13.00
  -5  -3   3  132.19   10.60
  -5  -3   3  142.79   16.20
  -5  -3   3  128.59    9.40
  -5  -3   3  124.59   13.20
   4   3  -3   60.49    7.30
   4   3  -3   59.19    5.80
   4   3  -3   55.59    8.60
   4   3  -3   48.10    5.70
   4   3  -3   68.49    6.40
   4   3  -3   70.89    6.50
   4   3  -3   69.19    8.80
  -4  -3   3   58.49    7.90
  -4  -3   3   50.59    7.60
  -4  -3   3   65.99    8.00
  -4  -3   3   59.49    5.90
  -4  -3   3   56.49    5.10
  -4  -3   3   73.09    7.50
  -4  -3   3   56.19    9.90
   3   3  -3  687.43   43.80
   3   3  -3  709.03   41.60
   3   3  -3  714.73   43.20
   3   3  -3  590.04   43.10
   3   3  -3  714.63   41.10
   3   3  -3  709.53   42.10
   3   3  -3  710.23   41.00
  -3  -3   3  693.73   42.30
  -3  -3   3  671.83   44.10
  -3  -3   3  665.43   40.80
  -3  -3   3  732.93   43.20
  -3  -3   3  729.63   41.40
  -3  -3   3  735.33   42.10
  -3  -3   3  671.33   42.50
   2   3  -3   47.70    7.20
   2   3  -3   55.49    4.40
   2   3  -3   42.10    6.80
   2   3  -3   47.50    5.30
  -2  -3   3   57.09    6.80
  -2  -3   3   54.39    5.60
  -2  -3   3   61.49    4.90
  -2  -3   3   51.19    5.20
  -2  -3   3   48.20    3.80
  -2  -3   3   52.79    7.30
  -2  -3   3   50.69    4.10
  -2  -3   3   46.30    8.70
  -2  -3   3   55.89    5.00
   1   3  -3 1371.36   81.19
   1   3  -3 1442.66   83.59
  -1  -3   3 1454.55   81.59
  -1  -3   3 1394.96   81.69
  -1  -3   3 1453.75   80.89
  -1  -3   3 1380.96   80.69
  -1  -3   3 1468.15   81.39
  -1  -3   3 1406.66   82.89
  -1  -3   3 1308.07   80.49
  -1  -3   3 1409.36   84.09
  -1  -3   3 1296.97   80.79
  -1  -3   3 1465.65   83.09
   0   3  -3  174.78   13.10
   0   3  -3  172.98   12.80
   0  -3   3  167.68   11.10
   0  -3   3  149.79   11.10
   0  -3   3  158.98   11.70
   0  -3   3  164.68   14.30
   0  -3   3  161.98   10.60
   0  -3   3  174.78   12.60
   0  -3   3  169.68   11.50
  -1   3  -3 1528.55   83.99
  -1   3  -3 1384.16   82.89
   1  -3   3 1400.86   82.09
   1  -3   3 1444.66   82.29
   1  -3   3 1435.96   81.79
   1  -3   3 1281.67   83.59
   1  -3   3 1396.26   82.69
   1  -3   3 1588.54   83.39
   1  -3   3 1220.48   82.29
   1  -3   3 1446.06   85.49
  -2   3  -3  157.58   11.10
  -2   3  -3  130.39    9.00
  -2   3  -3  148.49   11.70
  -2   3  -3  143.69    9.10
  -2   3  -3  138.99   10.10
   2  -3   3  141.89   10.10
   2  -3   3  143.29   10.00
   2  -3   3  155.08   10.70
   2  -3   3  134.19   10.00
   2  -3   3  121.19   13.10
   2  -3   3  158.68   10.10
   2  -3   3  139.59    9.30
   2  -3   3  131.49   14.00
   2  -3   3  122.49    8.80
  -3   3  -3  247.98   19.80
  -3   3  -3  302.77   20.40
  -3   3  -3  302.37   24.80
  -3   3  -3  310.57   18.60
  -3   3  -3  318.87   19.30
  -3   3  -3  298.57   18.80
   3  -3   3  257.97   24.10
   3  -3   3  300.97   19.80
   3  -3   3  294.57   19.70
   3  -3   3  294.97   18.60
   3  -3   3  294.37   19.80
   3  -3   3  310.77   19.30
   3  -3   3  274.07   19.00
   3  -3   3  301.97   23.80
   3  -3   3  296.87   18.10
  -4   3  -3   25.70    5.90
  -4   3  -3   31.70    6.30
  -4   3  -3   30.70    9.60
  -4   3  -3   34.50    3.60
  -4   3  -3   38.80    5.60
  -4   3  -3   38.60    5.20
  -4   3  -3   29.10    4.20
  -4   3  -3   36.10    5.30
   4  -3   3   34.50    6.50
   4  -3   3   40.50    5.40
   4  -3   3   29.30    4.10
   4  -3   3   29.80    9.00
   4  -3   3   29.80    4.90
   4  -3   3   40.70    5.70
   4  -3   3   32.10    6.70
   4  -3   3   23.80    9.50
  -5   3  -3  269.37   20.50
  -5   3  -3  291.67   17.30
  -5   3  -3  272.87   19.10
  -5   3  -3  284.07   18.50
  -5   3  -3  277.47   19.40
   5  -3   3  264.57   21.10
   5  -3   3  278.47   21.70
   5  -3   3  276.37   24.40
   5  -3   3  267.67   19.10
   5  -3   3  244.58   25.20
   5  -3   3  293.37   19.80
   5  -3   3  249.38   18.10
   5  -3   3  286.27   19.40
  -6   3  -3   21.90    6.80
  -6   3  -3    9.30    6.00
  -6   3  -3   16.70    5.90
  -6   3  -3    7.90    5.40
   6  -3   3   23.90    6.40
   6  -3   3    6.00    4.20
   6  -3   3   17.50    6.20
   6  -3   3   11.80   13.70
   6  -3   3   21.30   11.60
   6  -3   3   30.90    9.20
   6  -3   3   15.90    6.00
   6  -3   3   15.60    8.90
  -7   3  -3   75.49   11.50
  -7   3  -3   98.29   15.00
  -7   3  -3   70.19    9.70
  -7   3  -3   65.69    7.80
   7  -3   3   61.99   14.20
   7  -3   3   57.39   10.20
   7  -3   3   73.49   10.20
   7  -3   3   55.29   16.20
   7  -3   3   84.59   11.40
   7  -3   3   60.89   10.30
  -8   3  -3   -0.20    7.60
  -8   3  -3    2.70    9.90
  -8   3  -3    9.90    8.60
  -8   3  -3    8.00   11.00
   8  -3   3    4.60   10.10
   8  -3   3   23.20    7.90
   8  -3   3    5.40    8.90
   8  -3   3   11.30    9.10
  -9   3  -3   18.30   11.70
  -9   3  -3   12.80   13.00
   9  -3   3    6.80    8.80
   9  -3   3   -6.80   12.00
   9  -3   3   26.50   13.60
   9  -3   3   24.50   12.30
  10   2  -3   14.40   11.90
  10   2  -3    9.40   11.10
  10   2  -3   24.50   20.60
  10   2  -3   16.30   12.20
 -10  -2   3  -50.69   25.60
 -10  -2   3   21.70   18.10
 -10  -2   3  -10.40   17.80
   9   2  -3   21.10    8.30
   9   2  -3   -4.20    8.50
   9   2  -3    3.40    8.90
   9   2  -3    7.40   15.00
  -9  -2   3   16.20   10.10
  -9  -2   3  -18.90    9.90
  -9  -2   3  -11.00   10.40
  -9  -2   3   15.70   15.00
  -9  -2   3   -0.50   19.50
  -9  -2   3    8.80   13.60
   8   2  -3    6.80    6.90
   8   2  -3    3.40    6.50
   8   2  -3    5.80   10.60
   8   2  -3    8.00    6.10
  -8  -2   3   21.00    7.40
  -8  -2   3   -3.50   10.40
  -8  -2   3   -8.90   14.60
  -8  -2   3    5.60    9.60
  -8  -2   3   -2.30    7.20
  -8  -2   3   -2.10    6.60
   7   2  -3   -1.70    6.50
   7   2  -3    8.90    9.30
   7   2  -3    3.60    5.20
   7   2  -3    8.90    7.70
   7   2  -3    1.00    5.10
   7   2  -3   -0.60   10.20
   7   2  -3   -0.60    9.30
  -7  -2   3   -1.90    4.50
  -7  -2   3    2.50    7.40
  -7  -2   3    9.20    6.20
  -7  -2   3   -5.30    4.50
  -7  -2   3   -7.60    7.20
  -7  -2   3    6.50    7.50
  -7  -2   3    1.70   11.30
  -7  -2   3    4.20    5.80
   6   2  -3  210.68   15.80
   6   2  -3  185.38   19.40
   6   2  -3  218.68   20.70
   6   2  -3  210.88   16.70
   6   2  -3  223.38   15.00
   6   2  -3  215.88   17.80
   6   2  -3  226.28   19.20
   6   2  -3  206.28   17.10
  -6  -2   3  218.68   17.60
  -6  -2   3  230.48   16.90
  -6  -2   3  202.38   14.60
  -6  -2   3  236.48   16.90
  -6  -2   3  232.38   19.10
  -6  -2   3  215.48   22.20
  -6  -2   3  224.08   16.00
  -6  -2   3  214.58   19.20
   5   2  -3   18.40    4.90
   5   2  -3   15.30    3.00
   5   2  -3   15.20    6.20
   5   2  -3    9.70    6.60
   5   2  -3   18.40    3.90
   5   2  -3   15.30    4.60
   5   2  -3   20.10    7.20
   5   2  -3   17.70    5.40
  -5  -2   3   20.10    7.10
  -5  -2   3   21.00    5.30
  -5  -2   3   21.70    5.90
  -5  -2   3   17.40    3.80
  -5  -2   3   12.40    2.70
  -5  -2   3   15.80    6.10
  -5  -2   3   17.70    4.80
   4   2  -3  164.18   10.70
   4   2  -3  178.48   15.70
   4   2  -3  176.18   13.60
   4   2  -3  164.98   11.80
   4   2  -3  168.98   12.50
   4   2  -3  189.68   14.90
  -4  -2   3  162.08   15.80
  -4  -2   3  175.38   12.90
  -4  -2   3  175.58   11.40
  -4  -2   3  167.68   14.10
  -4  -2   3  173.78   13.30
  -4  -2   3  172.38   13.90
  -4  -2   3  187.38   12.20
   3   2  -3  499.55   32.30
   3   2  -3  507.35   29.10
   3   2  -3  506.05   30.70
   3   2  -3  436.36   31.00
   3   2  -3  442.66   29.30
   3   2  -3  508.65   29.90
   3   2  -3  502.95   29.90
   3   2  -3  498.55   31.30
  -3  -2   3  519.25   30.20
  -3  -2   3  515.25   32.30
  -3  -2   3  486.85   31.00
  -3  -2   3  494.25   30.70
  -3  -2   3  475.75   29.10
  -3  -2   3  488.85   29.60
  -3  -2   3  487.35   32.00
   2   2  -3  261.37   16.90
   2   2  -3  270.47   17.00
   2   2  -3  286.37   18.70
   2   2  -3  263.57   16.10
   2   2  -3  253.67   15.90
   2   2  -3  251.77   18.10
  -2  -2   3  283.27   17.90
  -2  -2   3  258.97   16.00
  -2  -2   3  263.67   16.30
  -2  -2   3  274.47   16.80
  -2  -2   3  254.07   18.40
  -2  -2   3  281.17   17.60
   1   2  -3  124.29    8.40
   1   2  -3  130.69   10.20
   1   2  -3  136.39   10.50
   1   2  -3  125.69    8.20
   1   2  -3  133.29    8.20
   1   2  -3  128.89    8.40
  -1  -2   3  127.89    8.70
  -1  -2   3  130.89   10.10
  -1  -2   3  149.59   10.40
  -1  -2   3  129.59    8.10
  -1  -2   3  131.19    8.60
  -1  -2   3  123.29    8.20
  -1  -2   3  134.89    9.10
  -1  -2   3  139.39    8.40
  -1  -2   3  138.99    8.50
  -1  -2   3  133.29   10.60
   0   2  -3  127.59    8.20
   0   2  -3  140.49   10.40
   0   2  -3  106.69    8.60
   0   2  -3  124.59    7.60
   0  -2   3  120.69    8.10
   0  -2   3  120.59    7.50
   0  -2   3  133.49   10.20
   0  -2   3  115.69    9.00
   0  -2   3  129.79    7.80
   0  -2   3  117.69    8.20
   0  -2   3  127.19    8.60
   0  -2   3  131.29    8.10
   0  -2   3  102.79    8.10
  -1   2  -3  337.97   20.90
  -1   2  -3  346.57   20.80
  -1   2  -3  349.07   19.60
  -1   2  -3  335.97   19.70
  -1   2  -3  335.27   20.40
   1  -2   3  341.67   23.70
   1  -2   3  313.07   19.40
   1  -2   3  343.47   19.70
   1  -2   3  318.27   19.60
   1  -2   3  324.47   20.10
   1  -2   3  320.87   20.20
   1  -2   3  293.77   19.70
   1  -2   3  330.57   20.00
  -2   2  -3 1427.76   84.39
  -2   2  -3 1359.26   83.79
  -2   2  -3 1450.95   82.79
  -2   2  -3 1359.36   82.49
  -2   2  -3 1463.05   83.69
   2  -2   3 1444.76   83.29
   2  -2   3 1420.26   82.89
   2  -2   3 1414.06   83.09
   2  -2   3 1410.46   85.99
   2  -2   3 1445.86   83.09
   2  -2   3 1368.76   82.29
   2  -2   3 1552.54   82.79
   2  -2   3 1419.16   82.59
  -3   2  -3  509.05   30.60
  -3   2  -3  500.35   30.40
  -3   2  -3  518.85   31.20
  -3   2  -3  449.46   28.70
  -3   2  -3  477.45   29.70
  -3   2  -3  489.45   29.40
  -3   2  -3  498.95   29.50
   3  -2   3  477.25   29.80
   3  -2   3  509.55   29.50
   3  -2   3  482.25   30.30
   3  -2   3  445.36   34.20
   3  -2   3  500.15   29.50
   3  -2   3  484.55   29.50
   3  -2   3  463.55   30.20
   3  -2   3  462.55   32.90
   3  -2   3  473.65   29.00
  -4   2  -3  626.74   37.50
  -4   2  -3  581.54   36.50
  -4   2  -3  616.94   37.60
  -4   2  -3  609.24   37.70
  -4   2  -3  636.34   38.70
  -4   2  -3  670.73   39.10
  -4   2  -3  628.04   41.70
   4  -2   3  619.24   37.70
   4  -2   3  619.74   38.00
   4  -2   3  605.64   39.00
   4  -2   3  611.84   41.60
   4  -2   3  648.74   37.90
   4  -2   3  596.24   38.90
   4  -2   3  608.34   40.90
   4  -2   3  619.84   37.20
  -5   2  -3  116.69   10.50
  -5   2  -3  124.49   10.80
  -5   2  -3  111.59   10.90
  -5   2  -3  129.59   12.10
  -5   2  -3  122.39   11.20
  -5   2  -3  121.49    8.90
   5  -2   3  117.09   12.70
   5  -2   3  141.89   11.30
   5  -2   3  121.09   13.30
   5  -2   3  120.29    9.50
   5  -2   3  116.79   16.60
   5  -2   3  110.29   10.50
   5  -2   3  118.59   11.00
   5  -2   3  129.39   16.80
  -6   2  -3  225.88   17.40
  -6   2  -3  205.28   17.70
  -6   2  -3  244.68   17.70
  -6   2  -3  206.68   16.90
  -6   2  -3  224.68   17.20
   6  -2   3  248.98   17.90
   6  -2   3  208.38   16.80
   6  -2   3  224.28   23.60
   6  -2   3  220.98   17.30
   6  -2   3  224.58   15.90
   6  -2   3  200.38   19.60
   6  -2   3  208.68   19.40
   6  -2   3  192.08   23.10
  -7   2  -3  181.28   14.70
  -7   2  -3  143.39   15.00
  -7   2  -3  142.59   14.90
  -7   2  -3  152.78   16.50
   7  -2   3  127.39   14.60
   7  -2   3  135.29   12.80
   7  -2   3   96.09   20.50
   7  -2   3  135.19   19.10
   7  -2   3  165.68   15.90
   7  -2   3  116.99   18.60
   7  -2   3  145.59   15.10
  -8   2  -3   10.00   10.20
  -8   2  -3    9.20    8.50
  -8   2  -3    5.50    7.00
  -8   2  -3    2.60    5.60
   8  -2   3   -5.40   15.10
   8  -2   3    3.80    8.70
   8  -2   3    5.60    8.90
   8  -2   3  -10.10    9.00
  -9   2  -3   53.99   12.60
   9  -2   3   63.69   13.60
   9  -2   3   78.19   14.10
   9  -2   3   28.10   12.30
   9  -2   3   42.10   10.70
  10   1  -3   46.10   13.90
  10   1  -3    6.30   20.10
  10   1  -3   87.09   19.60
  10   1  -3   35.00   14.50
  10   1  -3    7.50   11.90
 -10  -1   3   40.20   28.90
 -10  -1   3   21.90   19.40
 -10  -1   3   30.20   18.60
 -10  -1   3   43.70   17.80
   9   1  -3   37.10   10.20
   9   1  -3   36.60   10.10
   9   1  -3   24.50   14.90
   9   1  -3   27.90   10.40
   9   1  -3   41.70   13.70
  -9  -1   3   56.29   23.60
  -9  -1   3   41.50   17.10
  -9  -1   3   26.20   12.00
  -9  -1   3   49.00   17.20
  -9  -1   3   26.50   11.60
   8   1  -3   97.09   13.20
   8   1  -3  138.59   14.30
   8   1  -3  116.59   17.20
   8   1  -3  113.29   17.50
   8   1  -3   68.79   16.10
   8   1  -3   86.79   12.10
  -8  -1   3  113.99   17.50
  -8  -1   3  117.99   26.40
  -8  -1   3  100.89   14.00
  -8  -1   3   91.49   12.20
  -8  -1   3   81.59   20.50
   7   1  -3  299.17   21.60
   7   1  -3  300.57   22.80
   7   1  -3  275.57   24.20
   7   1  -3  261.87   25.90
   7   1  -3  349.17   26.00
   7   1  -3  345.47   24.60
   7   1  -3  285.47   25.60
  -7  -1   3  302.37   29.90
  -7  -1   3  337.67   22.20
  -7  -1   3  306.07   25.10
  -7  -1   3  302.47   26.10
  -7  -1   3  319.67   25.80
  -7  -1   3  280.57   21.70
  -7  -1   3  302.37   24.10
   6   1  -3  477.55   34.10
   6   1  -3  510.55   35.60
   6   1  -3  483.35   31.60
   6   1  -3  508.75   35.40
   6   1  -3  539.75   32.80
   6   1  -3  513.75   33.50
   6   1  -3  560.04   34.40
  -6  -1   3  509.75   32.80
  -6  -1   3  546.25   32.80
  -6  -1   3  502.95   31.60
  -6  -1   3  500.45   35.70
  -6  -1   3  536.65   34.30
  -6  -1   3  518.95   38.10
  -6  -1   3  482.95   35.60
  -6  -1   3  526.55   34.20
   5   1  -3  250.07   18.00
   5   1  -3  257.07   20.20
   5   1  -3  268.47   19.10
   5   1  -3  273.27   16.60
   5   1  -3  262.67   17.50
   5   1  -3  250.27   19.60
   5   1  -3  277.57   19.00
  -5  -1   3  246.58   20.10
  -5  -1   3  249.08   19.80
  -5  -1   3  254.47   17.70
  -5  -1   3  242.58   16.70
  -5  -1   3  272.67   19.20
  -5  -1   3  264.67   18.80
  -5  -1   3  265.57   22.60
   4   1  -3  775.92   48.60
   4   1  -3  763.82   47.50
   4   1  -3  771.62   47.90
   4   1  -3  797.12   48.90
   4   1  -3  818.82   47.80
   4   1  -3  791.42   47.00
   4   1  -3  826.82   46.10
  -4  -1   3  780.52   47.70
  -4  -1   3  831.52   47.70
  -4  -1   3  766.02   47.10
  -4  -1   3  752.82   48.80
  -4  -1   3  781.02   49.99
  -4  -1   3  794.52   46.50
  -4  -1   3  774.42   48.90
   3   1  -3  155.78   10.50
   3   1  -3  160.28   11.30
   3   1  -3  145.29   11.60
   3   1  -3  151.28   11.10
   3   1  -3  157.88   11.00
  -3  -1   3  163.18   11.70
  -3  -1   3  155.48   13.50
  -3  -1   3  157.08   10.60
  -3  -1   3  156.48   12.20
  -3  -1   3  163.68   11.20
  -3  -1   3  148.09   12.00
  -3  -1   3  151.38   10.60
   2   1  -3 1885.51  102.79
   2   1  -3 1661.03  100.59
   2   1  -3 1672.33  100.59
   2   1  -3 1783.52  102.09
   2   1  -3 1639.34  101.09
   2   1  -3 1773.92  101.59
   2   1  -3 1733.23  101.49
  -2  -1   3 1790.82  101.49
  -2  -1   3 1792.92  102.49
  -2  -1   3 1721.23  101.29
  -2  -1   3 1727.13  102.79
  -2  -1   3 1902.71  102.59
  -2  -1   3 1709.33  101.99
   1   1  -3  269.37   16.10
   1   1  -3  252.67   16.60
   1   1  -3  289.17   18.10
   1   1  -3  269.17   18.00
   1   1  -3  259.87   16.20
  -1  -1   3  264.37   16.20
  -1  -1   3  275.27   16.20
  -1  -1   3  245.48   16.20
  -1  -1   3  282.17   17.20
  -1  -1   3  278.57   15.90
  -1  -1   3  275.57   16.30
  -1  -1   3  280.07   16.70
  -1  -1   3  260.77   16.20
   0   1  -3  447.26   30.80
   0   1  -3  545.85   30.90
   0   1  -3  573.24   31.70
   0   1  -3  550.84   31.10
   0   1  -3  583.64   30.60
   0  -1   3  543.35   30.10
   0  -1   3  463.85   30.70
   0  -1   3  503.25   30.80
   0  -1   3  539.85   31.10
   0  -1   3  416.86   30.90
   0  -1   3  537.45   31.00
   0  -1   3  545.65   31.00
  -1   1  -3  235.58   17.50
  -1   1  -3  277.47   16.50
  -1   1  -3  282.67   18.70
  -1   1  -3  254.37   16.60
  -1   1  -3  292.17   18.10
  -1   1  -3  275.87   15.90
  -1   1  -3  263.67   16.10
   1  -1   3  245.18   17.00
   1  -1   3  243.18   19.10
   1  -1   3  272.17   16.70
   1  -1   3  271.47   16.80
   1  -1   3  260.67   16.60
   1  -1   3  276.47   16.40
   1  -1   3  285.77   16.60
   1  -1   3  276.47   15.80
  -2   1  -3   35.70    6.30
  -2   1  -3   54.39    3.90
  -2   1  -3   39.60    3.80
  -2   1  -3   38.20    4.20
  -2   1  -3   36.80    4.50
  -2   1  -3   35.80    3.40
  -2   1  -3   47.40    4.20
   2  -1   3   47.40    4.90
   2  -1   3   51.59    4.80
   2  -1   3   45.50    3.50
   2  -1   3   42.20    4.70
   2  -1   3   42.30    4.00
   2  -1   3   50.59    3.90
   2  -1   3   35.10    3.90
   2  -1   3   68.99    9.10
  -3   1  -3  159.38   14.20
  -3   1  -3  185.98   12.40
  -3   1  -3  179.38   13.00
  -3   1  -3  199.38   12.70
  -3   1  -3  177.88   12.10
   3  -1   3  195.68   12.50
   3  -1   3  200.58   13.20
   3  -1   3  200.38   16.00
   3  -1   3  178.28   13.30
   3  -1   3  193.68   15.80
   3  -1   3  195.58   13.50
   3  -1   3  183.38   12.10
   3  -1   3  183.98   11.80
   3  -1   3  189.68   12.40
  -4   1  -3   29.80    4.80
  -4   1  -3   28.60    4.90
  -4   1  -3   21.50    3.30
  -4   1  -3   27.20    4.90
  -4   1  -3   35.10    4.50
  -4   1  -3   42.30    5.50
  -4   1  -3   28.90    6.00
   4  -1   3   20.10    4.60
   4  -1   3   33.40    4.30
   4  -1   3   28.10    6.80
   4  -1   3   26.50    4.80
   4  -1   3   32.50    4.70
   4  -1   3   28.10    7.90
   4  -1   3   33.60    5.00
   4  -1   3   17.20    4.90
  -5   1  -3    9.50    4.10
  -5   1  -3   15.60    4.40
  -5   1  -3   10.30    5.80
  -5   1  -3    5.60    3.80
  -5   1  -3    5.60    2.50
  -5   1  -3    7.40    4.60
  -5   1  -3    8.20    3.80
   5  -1   3    7.60    2.90
   5  -1   3    5.30    5.50
   5  -1   3    9.20    4.20
   5  -1   3   11.10    7.80
   5  -1   3   20.00    7.20
   5  -1   3    4.70    3.90
   5  -1   3    6.40    4.60
   5  -1   3    4.70    3.20
  -6   1  -3   50.09    7.80
  -6   1  -3   44.50    8.20
  -6   1  -3   60.09    8.60
  -6   1  -3   53.99    8.30
  -6   1  -3   51.89    6.60
  -6   1  -3   62.39    9.70
  -6   1  -3   52.99    7.50
   6  -1   3   46.40   11.40
   6  -1   3   57.29    8.70
   6  -1   3   46.40    9.40
   6  -1   3   64.09    8.40
   6  -1   3   61.49   10.70
   6  -1   3   69.59    9.00
   6  -1   3   53.69   11.90
   6  -1   3   49.99    7.00
  -7   1  -3    1.30    6.30
  -7   1  -3   -3.90    6.10
  -7   1  -3   -1.40    7.60
  -7   1  -3    6.30    4.20
  -7   1  -3   12.40    7.70
   7  -1   3    2.60    6.00
   7  -1   3    1.10    5.10
   7  -1   3    2.20    4.20
   7  -1   3   15.00   11.90
   7  -1   3    9.50    6.50
   7  -1   3   11.10   10.90
   7  -1   3   21.20    9.30
   7  -1   3    5.50   10.70
  -8   1  -3    2.10    7.90
  -8   1  -3   12.70    6.20
  -8   1  -3   -5.90    8.30
  -8   1  -3   11.80    9.50
   8  -1   3    3.20    7.40
   8  -1   3   -0.30    5.90
   8  -1   3    0.40    8.70
   8  -1   3   24.50   15.50
  -9   1  -3   11.70   14.00
  -9   1  -3   45.30   11.10
  -9   1  -3   42.40   12.70
   9  -1   3   36.80   13.00
   9  -1   3   17.60   11.40
   9  -1   3   25.00    8.70
   9  -1   3   29.20   10.80
   9  -1   3   15.80   12.30
  10   0  -3    8.20   14.80
  10   0  -3  -26.30   13.90
  10   0  -3  -24.20   18.00
  10   0  -3  -15.10   20.00
  10   0  -3   19.40   11.50
 -10   0   3    1.80   16.90
 -10   0   3   52.29   30.60
 -10   0   3  -30.90   19.90
 -10   0   3   14.90   21.70
   9   0  -3   77.29   16.60
   9   0  -3   76.49   11.70
   9   0  -3   57.09   12.00
   9   0  -3   34.80   11.20
  -9   0   3   85.89   19.50
  -9   0   3   44.40   14.10
  -9   0   3   54.99   36.80
  -9   0   3   70.09   17.10
   8   0  -3  -11.30    6.20
   8   0  -3   -1.80    7.20
   8   0  -3   -1.40   10.40
   8   0  -3   -5.90    6.70
   8   0  -3  -18.50   12.30
  -8   0   3   -5.10    9.70
  -8   0   3    5.80    9.20
  -8   0   3   16.60   11.00
  -8   0   3    1.20    7.10
  -8   0   3   -3.40   14.70
  -8   0   3   10.90   15.00
   7   0  -3  411.96   25.50
   7   0  -3  358.86   29.80
   7   0  -3  424.56   28.50
   7   0  -3  373.56   27.10
   7   0  -3  359.86   30.30
   7   0  -3  403.96   26.30
  -7   0   3  356.96   30.30
  -7   0   3  347.77   25.70
  -7   0   3  403.26   26.50
  -7   0   3  371.26   29.20
  -7   0   3  346.67   34.20
  -7   0   3  357.26   29.90
   6   0  -3    7.20    4.70
   6   0  -3    9.70    7.50
   6   0  -3    4.80    7.10
   6   0  -3    3.20    5.70
   6   0  -3    3.40    3.90
   6   0  -3    5.20    3.60
   6   0  -3   -4.80    5.10
  -6   0   3    5.30    4.20
  -6   0   3   -2.50    6.00
  -6   0   3   11.50    6.80
  -6   0   3    3.30    7.10
  -6   0   3    9.50    6.30
  -6   0   3    0.20    3.30
  -6   0   3    6.60    4.90
  -6   0   3   18.20   10.20
   5   0  -3 1385.26   85.59
   5   0  -3 1335.77   84.79
   5   0  -3 1521.45   82.99
   5   0  -3 1482.65   84.49
   5   0  -3 1387.86   85.29
   5   0  -3 1439.26   83.49
   5   0  -3 1418.86   84.19
  -5   0   3 1358.96   85.89
  -5   0   3 1417.86   85.49
  -5   0   3 1453.45   87.09
  -5   0   3 1366.96   85.89
  -5   0   3 1327.47   84.39
  -5   0   3 1574.54   83.99
  -5   0   3 1422.26   83.09
  -5   0   3 1353.56   83.49
   4   0  -3    8.20    3.20
   4   0  -3    6.90    3.80
   4   0  -3    4.00    4.10
   4   0  -3   13.60    3.80
   4   0  -3    8.20    4.00
   4   0  -3    8.20    4.60
   4   0  -3    7.70    2.80
   4   0  -3    8.20    2.40
  -4   0   3   10.90    5.90
  -4   0   3   14.20    4.50
  -4   0   3    9.30    2.80
  -4   0   3   12.50    2.80
  -4   0   3    8.90    3.80
  -4   0   3    6.10    4.30
  -4   0   3   18.40    5.70
   3   0  -3 3655.73  211.28
   3   0  -3 3773.92  210.58
   3   0  -3 3762.42  211.58
   3   0  -3 3601.74  210.18
   3   0  -3 3497.55  210.58
   3   0  -3 3634.14  210.78
   3   0  -3 3679.23  212.08
  -3   0   3 3514.25  211.78
  -3   0   3 3904.51  211.28
  -3   0   3 3563.34  211.58
  -3   0   3 3695.53  212.18
  -3   0   3 3669.33  210.08
  -3   0   3 3501.15  210.28
  -3   0   3 3679.93  210.78
   2   0  -3   22.60    3.90
   2   0  -3   16.40    3.10
   2   0  -3   17.80    2.80
   2   0  -3   17.70    3.50
   2   0  -3   17.30    2.60
   2   0  -3   18.30    3.00
  -2   0   3   14.00    2.30
  -2   0   3   21.50    4.00
  -2   0   3   24.70    3.40
  -2   0   3   16.60    4.40
  -2   0   3   15.60    2.40
  -2   0   3   18.00    3.80
  -2   0   3   19.10    3.80
   1   0  -3 3381.56  190.38
   1   0  -3 3440.36  190.78
   1   0  -3 3318.07  190.68
   1   0  -3 3303.47  191.08
   1   0  -3 3346.27  190.48
  -1   0   3 3510.45  190.78
  -1   0   3 3660.43  191.68
  -1   0   3 2930.81  192.18
  -1   0   3 3245.68  189.98
  -1   0   3 2982.20  191.58
  -1   0   3 3432.96  190.58
  -1   0   3 3275.87  190.58
   0   0  -3  477.25   29.10
   0   0  -3  502.35   28.90
   0   0  -3  435.26   29.50
   0   0  -3  520.45   30.00
   0   0  -3  519.25   29.60
   0   0  -3  509.05   29.50
   0   0  -3  513.05   29.50
   0   0   3  523.75   29.90
   0   0   3  420.86   30.10
   0   0   3  532.75   29.80
   0   0   3  495.75   29.70
   0   0   3  552.84   29.20
  -1   0  -3 4288.67  243.68
  -1   0  -3 4475.65  243.88
  -1   0  -3 4381.86  243.78
  -1   0  -3 3769.62  245.08
  -1   0  -3 4147.39  244.28
  -1   0  -3 3866.81  243.98
   1   0   3 3921.91  244.18
   1   0   3 4554.54  244.18
   1   0   3 4556.54  244.38
   1   0   3 4523.25  244.28
  -2   0  -3   26.60    2.60
  -2   0  -3   17.70    2.80
  -2   0  -3   24.90    3.20
  -2   0  -3   20.10    3.00
  -2   0  -3   27.20    4.20
  -2   0  -3   29.70    3.90
   2   0   3   31.70    4.40
   2   0   3   24.10    3.00
   2   0   3   28.10    3.90
   2   0   3   28.10    4.20
  -3   0  -3  391.76   23.60
  -3   0  -3  411.46   24.50
  -3   0  -3  395.16   24.50
  -3   0  -3  407.76   24.50
  -3   0  -3  338.37   23.70
   3   0   3  413.46   25.10
   3   0   3  412.36   27.40
   3   0   3  415.86   25.20
   3   0   3  408.96   25.10
   3   0   3  377.46   24.00
   3   0   3  398.36   24.00
   3   0   3  362.26   25.00
   3   0   3  374.96   26.80
  -4   0  -3  105.29    9.60
  -4   0  -3  135.79    9.70
  -4   0  -3  130.79    9.20
  -4   0  -3  124.29   10.20
  -4   0  -3   98.59    8.60
  -4   0  -3  123.49   10.30
   4   0   3  122.09   11.00
   4   0   3  132.59   10.00
   4   0   3  109.09   10.40
   4   0   3  121.59    9.20
   4   0   3  130.49    9.10
   4   0   3  135.59   10.80
   4   0   3  121.99   12.80
   4   0   3  106.89   13.10
  -5   0  -3   80.39    8.70
  -5   0  -3   66.59    6.80
  -5   0  -3   86.29    7.90
  -5   0  -3   92.99    8.50
  -5   0  -3   78.19    9.20
  -5   0  -3   79.99    9.00
   5   0   3   78.09    7.30
   5   0   3  100.19   12.10
   5   0   3   71.49    9.40
   5   0   3   85.59   10.10
   5   0   3   87.19   12.70
   5   0   3   86.69    8.80
   5   0   3   76.29    7.80
   5   0   3   74.79    9.00
  -6   0  -3   71.69    9.20
  -6   0  -3   52.19    7.00
  -6   0  -3   66.09    8.50
  -6   0  -3   76.19   10.20
  -6   0  -3   62.19    8.90
   6   0   3   74.99    8.60
   6   0   3   64.19    7.70
   6   0   3   78.49   11.80
   6   0   3   78.49   11.70
   6   0   3   59.49   12.80
   6   0   3   73.79   10.20
   6   0   3   73.39    9.80
   6   0   3   63.59    8.20
   6   0   3   82.29   11.50
  -7   0  -3    0.90    3.80
  -7   0  -3   -4.90    5.10
  -7   0  -3   13.40    6.80
  -7   0  -3    8.00    6.30
  -7   0  -3    9.30    7.20
  -7   0  -3    1.60    5.60
   7   0   3   -3.50    9.30
   7   0   3    2.00    4.80
   7   0   3    0.80    6.40
   7   0   3   10.10   11.80
   7   0   3    3.60    5.70
   7   0   3   -2.70    4.00
   7   0   3   -1.70    6.60
   7   0   3   -8.20    7.60
   7   0   3    2.40    7.90
  -8   0  -3    3.20    8.00
  -8   0  -3    5.20    5.70
  -8   0  -3    3.20    8.70
   8   0   3   14.30    7.30
   8   0   3   17.60   12.40
   8   0   3   23.00   12.00
   8   0   3   18.30    9.10
   8   0   3   16.00    9.50
   8   0   3   15.80    6.30
   8   0   3   17.20    8.00
  -9   0  -3   -4.10   12.20
  -9   0  -3   -7.40   11.90
   9   0   3   -2.60    7.10
   9   0   3  -10.80    8.50
   9   0   3   13.10    8.60
   9   0   3  -19.90   17.00
   9   0   3  -26.70   16.50
   9   0   3   17.40   11.10
   9   0   3    8.20   11.70
 -10   0  -3   30.70   14.90
 -10   0  -3   -2.10   15.40
 -10   0  -3  -19.80   20.30
  10   0   3  -20.00   13.40
  10   0   3   -1.60   10.00
  10   0   3    0.90    9.30
  10   0   3   -0.70   12.30
   9  -1  -3   -0.40    8.50
   9  -1  -3   34.80   14.90
   9  -1  -3    8.80   11.80
   9  -1  -3    9.60   10.20
  -9   1   3    1.20   14.70
  -9   1   3   32.80   16.60
  -9   1   3   -6.30   16.20
  -9   1   3   22.40   23.10
   8  -1  -3   73.39   14.10
   8  -1  -3   63.79   17.10
   8  -1  -3   77.69   11.00
   8  -1  -3   83.09   12.40
   8  -1  -3  102.19   13.20
   8  -1  -3   64.39   16.50
  -8   1   3   48.50   14.40
  -8   1   3   53.79   15.40
  -8   1   3   45.70   18.30
  -8   1   3   98.19   17.50
   7  -1  -3   45.20    7.50
   7  -1  -3   37.70   10.40
   7  -1  -3   50.99    9.50
   7  -1  -3   75.59    9.60
   7  -1  -3   58.09   11.90
   7  -1  -3   26.40   12.30
  -7   1   3   37.70    7.70
  -7   1   3   68.19   13.10
  -7   1   3   53.89   12.80
  -7   1   3   38.10   12.70
  -7   1   3   56.89   13.80
   6  -1  -3  339.97   21.70
   6  -1  -3  317.87   22.40
   6  -1  -3  301.07   24.60
   6  -1  -3  322.47   25.80
   6  -1  -3  323.17   21.20
   6  -1  -3  297.57   24.20
   6  -1  -3  326.47   23.50
  -6   1   3  302.57   25.20
  -6   1   3  317.97   25.70
  -6   1   3  299.37   24.40
  -6   1   3  306.87   27.10
  -6   1   3  314.37   21.20
  -6   1   3  324.37   25.80
   5  -1  -3  331.77   25.20
   5  -1  -3  356.96   24.10
   5  -1  -3  397.86   23.60
   5  -1  -3  398.76   24.90
   5  -1  -3  373.66   23.20
   5  -1  -3  358.16   25.60
   5  -1  -3  355.96   26.30
  -5   1   3  382.56   23.30
  -5   1   3  362.96   23.70
  -5   1   3  383.06   27.70
  -5   1   3  312.97   26.10
  -5   1   3  383.66   26.80
  -5   1   3  313.77   25.00
  -5   1   3  353.06   26.30
   4  -1  -3 1612.24   88.99
   4  -1  -3 1603.94   88.19
   4  -1  -3 1454.55   89.39
   4  -1  -3 1494.75   89.49
   4  -1  -3 1482.95   91.29
   4  -1  -3 1521.05   88.69
  -4   1   3 1420.56   88.99
  -4   1   3 1511.35   90.39
  -4   1   3 1466.65   90.29
  -4   1   3 1514.95   90.59
  -4   1   3 1595.74   88.09
  -4   1   3 1304.87   88.69
  -4   1   3 1588.84   90.89
   3  -1  -3 1032.10   59.49
   3  -1  -3 1049.30   58.79
   3  -1  -3 1040.60   58.49
   3  -1  -3  996.30   59.69
   3  -1  -3  970.40   58.89
   3  -1  -3  995.50   58.19
  -3   1   3  998.90   59.99
  -3   1   3  838.92   59.79
  -3   1   3 1012.60   58.29
  -3   1   3  985.90   58.29
  -3   1   3  963.60   59.99
   2  -1  -3 2466.95  145.09
   2  -1  -3 2587.44  145.09
   2  -1  -3 2379.36  143.49
   2  -1  -3 2310.87  145.09
   2  -1  -3 2713.73  144.59
   2  -1  -3 2530.65  144.89
  -2   1   3 2419.46  144.59
  -2   1   3 2522.35  145.29
  -2   1   3 2560.54  144.49
  -2   1   3 2475.55  144.29
  -2   1   3 2529.45  145.59
  -2   1   3 2504.55  145.09
   1  -1  -3 1841.82  107.59
   1  -1  -3 1932.41  107.29
   1  -1  -3 1894.71  107.09
   1  -1  -3 1794.52  106.29
   1  -1  -3 1590.44  106.99
   1  -1  -3 1919.41  107.39
  -1   1   3 1950.10  107.69
  -1   1   3 1908.01  107.19
  -1   1   3 1859.41  107.29
   0  -1  -3 5470.65  316.77
   0  -1  -3 5575.94  316.57
   0  -1  -3 5443.06  317.37
   0  -1  -3 5704.23  317.27
   0  -1  -3 5554.14  316.97
   0  -1  -3 4739.93  316.87
   0   1   3 5922.41  317.67
   0   1   3 5794.72  317.17
   0   1   3 4711.73  317.07
   0   1   3 5881.91  317.37
   0   1   3 5740.63  317.57
   0   1   3 5792.62  316.87
  -1  -1  -3 1847.52  108.39
  -1  -1  -3 1825.12  107.99
  -1  -1  -3 1920.11  108.29
  -1  -1  -3 1858.11  108.29
  -1  -1  -3 1924.81  108.39
   1   1   3 1699.93  108.39
   1   1   3 1874.21  108.49
   1   1   3 2000.60  108.49
  -2  -1  -3 1302.77   76.29
  -2  -1  -3 1323.57   76.49
  -2  -1  -3 1236.48   76.09
  -2  -1  -3 1293.77   76.09
  -2  -1  -3 1273.87   76.09
   2   1   3 1155.68   76.29
   2   1   3 1396.36   76.59
   2   1   3 1238.58   77.69
   2   1   3 1400.26   76.79
   2   1   3 1381.16   76.19
   2   1   3 1349.56   76.69
  -3  -1  -3 1591.54   87.09
  -3  -1  -3 1260.17   86.09
  -3  -1  -3 1480.15   86.79
  -3  -1  -3 1503.05   85.99
  -3  -1  -3 1538.15   86.79
  -3  -1  -3 1474.45   86.79
   3   1   3 1518.95   87.29
   3   1   3 1437.16   86.99
   3   1   3 1503.55   88.69
   3   1   3 1546.15   86.59
   3   1   3 1459.55   87.19
   3   1   3 1470.35   86.39
  -4  -1  -3  766.92   46.80
  -4  -1  -3  707.53   46.20
  -4  -1  -3  797.62   46.50
  -4  -1  -3  804.02   45.80
  -4  -1  -3  767.92   46.80
   4   1   3  775.62   48.90
   4   1   3  780.92   46.00
   4   1   3  770.82   47.30
   4   1   3  854.01   47.20
   4   1   3  781.02   48.40
   4   1   3  735.23   46.00
   4   1   3  752.32   44.60
   4   1   3  699.13   47.00
  -5  -1  -3  689.03   40.10
  -5  -1  -3  653.53   41.30
  -5  -1  -3  602.54   39.90
  -5  -1  -3  576.84   40.30
  -5  -1  -3  651.73   43.90
  -5  -1  -3  708.03   41.70
  -5  -1  -3  702.53   40.80
   5   1   3  647.34   41.90
   5   1   3  679.63   39.10
   5   1   3  667.33   40.20
   5   1   3  674.83   42.10
   5   1   3  677.03   44.00
   5   1   3  680.23   40.40
   5   1   3  711.43   41.70
   5   1   3  568.44   43.70
  -6  -1  -3   41.50    6.40
  -6  -1  -3   65.89    9.10
  -6  -1  -3   47.40    6.80
  -6  -1  -3   44.90    7.10
  -6  -1  -3   49.80   11.80
  -6  -1  -3   63.99    9.00
  -6  -1  -3   68.99    7.90
   6   1   3   81.19   10.20
   6   1   3   64.39    7.40
   6   1   3   54.19    6.40
   6   1   3   43.00    7.70
   6   1   3   35.20    9.70
   6   1   3   58.49    7.00
   6   1   3   62.19   10.00
   6   1   3   67.19   10.10
  -7  -1  -3  148.99   19.40
  -7  -1  -3  142.49   13.00
  -7  -1  -3  157.98   15.90
  -7  -1  -3  125.99   13.60
  -7  -1  -3  125.19   13.50
  -7  -1  -3  119.39   14.60
   7   1   3  159.28   17.40
   7   1   3  117.59   17.10
   7   1   3  163.58   15.60
   7   1   3  141.39   12.40
   7   1   3  146.59   13.30
   7   1   3  141.29   16.60
   7   1   3  150.58   12.10
   7   1   3  134.09   18.90
  -8  -1  -3   -9.90   11.40
  -8  -1  -3    5.80    7.80
  -8  -1  -3    7.40    8.80
  -8  -1  -3    3.90    5.70
   8   1   3   -0.30   11.30
   8   1   3    8.70    5.80
   8   1   3  -16.10   10.40
   8   1   3   -6.90    5.20
   8   1   3    5.40    6.70
   8   1   3    6.40    8.40
  -9  -1  -3   -5.20   20.10
  -9  -1  -3   23.50   12.00
   9   1   3    4.30   14.80
   9   1   3   16.60   11.70
   9   1   3   23.40    7.70
   9   1   3   13.40    7.60
   9   1   3   24.10    9.10
   9   1   3   23.00   15.00
 -10  -1  -3   12.70   15.00
 -10  -1  -3   17.70   14.40
  10   1   3  -11.70    9.10
  10   1   3   12.10    9.40
  10   1   3  -10.00   10.10
  10   1   3    1.30   14.10
   9  -2  -3   10.50   16.00
   9  -2  -3  -16.10    8.50
   9  -2  -3  -17.70   13.30
   9  -2  -3    9.30   10.10
  -9   2   3   16.60   19.70
  -9   2   3  -24.80   21.70
  -9   2   3   15.30   18.50
  -9   2   3    7.10   17.10
   8  -2  -3   34.50   11.20
   8  -2  -3   43.20   13.50
   8  -2  -3   28.80    8.20
   8  -2  -3   44.10   16.90
   8  -2  -3   41.70    9.60
   8  -2  -3   39.40   14.50
  -8   2   3   40.10   15.90
  -8   2   3   41.30   15.70
  -8   2   3   35.90   15.70
  -8   2   3   28.90   16.90
   7  -2  -3   19.90    5.90
   7  -2  -3   -7.60    8.40
   7  -2  -3   16.00   10.00
   7  -2  -3    0.70    6.40
   7  -2  -3    5.30    5.50
   7  -2  -3    6.00   11.80
  -7   2   3   12.40   12.60
  -7   2   3   14.40   10.30
  -7   2   3   -1.00    7.80
  -7   2   3   19.50   12.20
  -7   2   3  -23.30   10.80
   6  -2  -3  154.78   19.40
   6  -2  -3  165.98   17.20
   6  -2  -3  143.99   17.50
   6  -2  -3  182.78   13.70
   6  -2  -3  188.28   16.90
   6  -2  -3  179.48   13.80
   6  -2  -3  180.18   15.00
  -6   2   3  167.38   20.20
  -6   2   3  158.88   13.60
  -6   2   3  160.08   19.10
  -6   2   3  152.68   20.50
  -6   2   3  125.39   17.20
  -6   2   3  176.38   19.00
  -6   2   3  173.58   14.40
   5  -2  -3   58.69    8.80
   5  -2  -3   66.59    7.20
   5  -2  -3   44.40    6.50
   5  -2  -3   60.29    7.40
   5  -2  -3   54.69    8.30
   5  -2  -3   64.69   10.30
   5  -2  -3   61.39    8.30
  -5   2   3   59.89    7.20
  -5   2   3   47.90    8.70
  -5   2   3   72.69   10.80
  -5   2   3   56.79    9.60
  -5   2   3   66.49   10.30
  -5   2   3   54.49   11.20
  -5   2   3   62.49    7.90
   4  -2  -3  624.54   38.60
   4  -2  -3  592.74   36.80
   4  -2  -3  582.64   37.00
   4  -2  -3  652.03   37.80
   4  -2  -3  523.95   35.40
   4  -2  -3  630.14   38.30
  -4   2   3  609.94   40.10
  -4   2   3  630.64   36.80
  -4   2   3  583.24   38.80
  -4   2   3  614.84   36.50
  -4   2   3  610.34   38.80
  -4   2   3  615.04   38.90
  -4   2   3  512.65   37.50
   3  -2  -3  210.18   13.50
   3  -2  -3  191.98   15.10
   3  -2  -3  199.38   13.00
   3  -2  -3  228.28   14.80
   3  -2  -3  210.98   13.20
   3  -2  -3  207.68   13.90
   3  -2  -3  196.28   14.90
  -3   2   3  214.08   15.50
  -3   2   3  193.88   15.70
  -3   2   3  162.58   14.00
  -3   2   3  198.58   16.80
  -3   2   3  205.98   14.30
  -3   2   3  209.08   15.50
  -3   2   3  176.68   14.50
   2  -2  -3 2784.52  149.79
   2  -2  -3 2719.83  149.99
   2  -2  -3 2379.76  149.39
   2  -2  -3 2539.35  148.89
   2  -2  -3 2613.94  150.38
  -2   2   3 2685.83  150.78
  -2   2   3 2622.74  149.49
  -2   2   3 2658.73  149.09
  -2   2   3 2458.65  150.38
  -2   2   3 2421.96  150.08
   1  -2  -3  816.52   46.10
   1  -2  -3  754.32   45.30
   1  -2  -3  770.92   46.10
   1  -2  -3  746.63   46.20
   1  -2  -3  802.32   46.20
   1  -2  -3  770.02   46.40
  -1   2   3  760.02   46.40
  -1   2   3  773.62   46.50
  -1   2   3  686.73   46.30
  -1   2   3  788.72   45.10
  -1   2   3  844.02   46.10
  -1   2   3  806.62   45.50
  -1   2   3  795.82   47.00
   0  -2  -3 4065.19  226.98
   0  -2  -3 3976.60  225.78
   0  -2  -3 3809.52  226.08
   0  -2  -3 3811.12  226.48
   0  -2  -3 3869.71  226.68
   0  -2  -3 4041.10  226.98
   0  -2  -3 3944.91  226.88
   0   2   3 3796.22  226.98
   0   2   3 4242.98  227.48
   0   2   3 3922.91  226.08
   0   2   3 3968.40  226.88
   0   2   3 3855.41  227.38
  -1  -2  -3  865.31   50.39
  -1  -2  -3  833.32   49.70
  -1  -2  -3  813.72   49.60
  -1  -2  -3  911.01   49.70
   1   2   3  881.71   50.19
   1   2   3  907.31   49.80
   1   2   3  840.42   49.99
   1   2   3  785.92   50.09
   1   2   3  745.33   50.09
  -2  -2  -3 6738.63  371.86
  -2  -2  -3 6157.88  372.16
  -2  -2  -3 6565.44  372.56
  -2  -2  -3 6245.97  372.26
   2   2   3 6150.78  372.56
   2   2   3 6701.93  372.76
   2   2   3 6826.62  372.66
   2   2   3 6480.15  373.66
  -3  -2  -3  272.97   16.60
  -3  -2  -3  255.67   16.20
  -3  -2  -3  246.18   16.40
  -3  -2  -3  201.48   15.70
   3   2   3  246.58   16.50
   3   2   3  244.98   15.90
   3   2   3  231.98   18.00
   3   2   3  240.58   16.60
   3   2   3  240.58   16.40
   3   2   3  237.88   16.60
  -4  -2  -3 3157.58  182.18
  -4  -2  -3 3162.58  184.98
  -4  -2  -3 3188.08  183.08
  -4  -2  -3 3265.17  182.88
  -4  -2  -3 3256.27  182.68
  -4  -2  -3 3172.28  182.88
   4   2   3 2958.30  183.18
   4   2   3 3228.28  182.58
   4   2   3 3197.48  185.08
   4   2   3 3180.98  183.38
   4   2   3 3032.00  182.18
   4   2   3 3021.00  181.18
  -5  -2  -3  102.09    8.70
  -5  -2  -3   69.19   11.30
  -5  -2  -3   92.39   10.00
  -5  -2  -3  100.79    9.10
  -5  -2  -3   85.69    8.30
  -5  -2  -3  101.69    9.90
  -5  -2  -3   93.19    9.00
   5   2   3   92.19   10.10
   5   2   3   94.19    7.30
   5   2   3   91.29   10.30
   5   2   3  119.49   11.60
   5   2   3   74.79    9.00
   5   2   3   88.99    8.20
   5   2   3  104.39   13.70
  -6  -2  -3 1081.79   61.39
  -6  -2  -3  880.81   61.19
  -6  -2  -3 1077.89   63.09
  -6  -2  -3 1058.49   63.09
  -6  -2  -3 1038.40   65.59
  -6  -2  -3  921.71   60.99
   6   2   3 1053.59   61.69
   6   2   3 1036.40   62.49
   6   2   3  975.70   63.39
   6   2   3 1028.40   65.79
   6   2   3 1058.89   60.29
   6   2   3 1046.00   61.59
  -7  -2  -3   -1.70    6.00
  -7  -2  -3    0.20    4.80
  -7  -2  -3    6.80    4.40
  -7  -2  -3   -5.90    4.90
  -7  -2  -3    1.80    6.00
  -7  -2  -3    7.80   10.50
  -7  -2  -3   -7.80    4.80
   7   2   3   -4.60    4.00
   7   2   3    2.10    3.90
   7   2   3    6.10    7.70
   7   2   3    0.80    7.40
   7   2   3  -16.30   10.70
   7   2   3   -8.00    7.00
   7   2   3    3.70    5.00
   7   2   3    0.20    4.00
  -8  -2  -3  202.08   20.30
  -8  -2  -3  212.28   20.20
  -8  -2  -3  210.68   26.90
  -8  -2  -3  201.18   18.80
  -8  -2  -3  238.38   19.90
   8   2   3  208.88   20.90
   8   2   3  173.58   22.20
   8   2   3  195.98   17.40
   8   2   3  222.18   19.90
   8   2   3  190.98   16.10
   8   2   3  185.18   17.00
  -9  -2  -3    9.20   10.90
  -9  -2  -3  -18.10   10.00
  -9  -2  -3   -6.60   15.80
   9   2   3   15.30   13.20
   9   2   3   -1.30    6.20
   9   2   3   -7.10   12.10
   9   2   3   -1.60    9.60
   9   2   3    7.10    8.00
   9   2   3    5.40    6.50
 -10  -2  -3   41.80   14.70
 -10  -2  -3   23.20   23.00
 -10  -2  -3   26.10   13.40
  10   2   3   27.70    9.50
  10   2   3   27.60   11.60
  10   2   3   48.70   23.00
  10   2   3   16.30    9.90
  10   2   3   18.50   13.80
   9  -3  -3    5.70   10.40
   9  -3  -3    0.40   16.50
   9  -3  -3   -2.90   12.50
   9  -3  -3  -21.80   13.00
  -9   3   3    1.10   21.10
  -9   3   3   17.70   22.80
  -9   3   3   -4.80   19.80
  -9   3   3    3.60   24.50
  -9   3   3   -6.30   15.70
   8  -3  -3    4.50   10.90
   8  -3  -3   10.00    9.60
   8  -3  -3   42.80   17.10
   8  -3  -3  -10.70    6.80
   8  -3  -3  -17.50   12.20
   8  -3  -3   -7.00   12.30
  -8   3   3   15.00   11.90
  -8   3   3   10.20   16.70
  -8   3   3   23.60   17.00
  -8   3   3  -13.10   15.20
  -8   3   3  -25.40   17.60
   7  -3  -3   17.60    8.40
   7  -3  -3   10.70   12.30
   7  -3  -3    9.40    9.50
   7  -3  -3    2.50    6.40
   7  -3  -3    2.30    9.00
   7  -3  -3    7.50    9.40
   7  -3  -3   10.20    7.10
  -7   3   3   27.10   12.70
  -7   3   3    1.70   12.30
  -7   3   3   32.30   13.80
  -7   3   3   19.20    8.80
  -7   3   3  -14.20   12.40
   6  -3  -3   20.40    9.40
   6  -3  -3   10.80    5.30
   6  -3  -3   14.00    8.10
   6  -3  -3   19.70    6.60
   6  -3  -3    8.50    5.20
   6  -3  -3    9.70    7.20
   6  -3  -3    6.90    5.80
  -6   3   3   -9.50    8.60
  -6   3   3    8.00    7.20
  -6   3   3   16.90   10.90
  -6   3   3   13.80    8.20
  -6   3   3   15.30    6.50
  -6   3   3    9.30    6.40
  -6   3   3   15.20   10.30
   5  -3  -3  195.68   16.20
   5  -3  -3  213.58   16.30
   5  -3  -3  190.68   15.20
   5  -3  -3  233.48   15.10
   5  -3  -3  201.08   17.50
   5  -3  -3  206.58   18.50
  -5   3   3  199.58   15.20
  -5   3   3  255.97   20.60
  -5   3   3  202.98   17.10
  -5   3   3  197.08   21.20
  -5   3   3  191.48   19.10
  -5   3   3  180.78   18.60
  -5   3   3  208.98   19.80
   4  -3  -3    2.90    3.30
   4  -3  -3    7.40    3.60
   4  -3  -3    0.30    4.90
   4  -3  -3    2.50    3.10
   4  -3  -3   -1.00    4.10
   4  -3  -3    5.40    3.60
   4  -3  -3    5.60    4.90
  -4   3   3    1.60    5.00
  -4   3   3    5.60    3.60
  -4   3   3    0.30    4.10
  -4   3   3    7.90    6.50
  -4   3   3    2.30    4.90
  -4   3   3    4.10    5.30
  -4   3   3    0.40    6.00
  -4   3   3    7.20    6.10
   3  -3  -3  694.33   43.30
   3  -3  -3  750.92   44.30
   3  -3  -3  671.23   44.40
   3  -3  -3  807.22   42.50
   3  -3  -3  751.62   44.60
  -3   3   3  598.04   43.90
  -3   3   3  700.63   46.80
  -3   3   3  721.73   47.30
  -3   3   3  724.13   43.20
  -3   3   3  731.53   43.20
  -3   3   3  718.93   44.10
  -3   3   3  721.73   45.10
   2  -3  -3   16.50    4.00
   2  -3  -3   21.30    4.60
   2  -3  -3   15.60    3.50
   2  -3  -3   22.50    4.60
   2  -3  -3   17.70    2.90
   2  -3  -3   13.20    3.20
   2  -3  -3   19.30    4.50
  -2   3   3   12.70    3.80
  -2   3   3   22.60    6.60
  -2   3   3   20.90    4.70
  -2   3   3   10.60    2.50
  -2   3   3   16.80    4.20
  -2   3   3   17.90    4.50
  -2   3   3   17.30    3.80
   1  -3  -3 2522.25  138.69
   1  -3  -3 2334.67  137.99
   1  -3  -3 2312.57  138.19
   1  -3  -3 2382.66  139.09
   1  -3  -3 2155.88  138.89
   1  -3  -3 2358.86  138.79
   1  -3  -3 2501.65  139.19
  -1   3   3 2369.26  137.89
  -1   3   3 2280.37  138.89
  -1   3   3 2258.97  139.49
  -1   3   3 2505.75  138.89
  -1   3   3 2481.35  139.69
  -1   3   3 2484.55  139.29
  -1   3   3 2598.84  138.39
   0  -3  -3  216.28   14.10
   0  -3  -3  230.38   15.00
   0  -3  -3  231.18   15.00
   0  -3  -3  242.78   14.00
   0  -3  -3  198.68   14.50
   0  -3  -3  233.08   15.10
   0  -3  -3  218.38   14.40
   0   3   3  239.28   15.20
   0   3   3  207.98   15.30
   0   3   3  216.58   14.70
   0   3   3  238.98   15.50
   0   3   3  235.18   14.20
  -1  -3  -3 3910.81  231.48
  -1  -3  -3 4007.60  231.08
  -1  -3  -3 4042.50  231.98
  -1  -3  -3 4048.09  232.18
  -1  -3  -3 3904.21  231.28
   1   3   3 4104.79  231.28
   1   3   3 3887.11  231.98
   1   3   3 4083.69  231.88
   1   3   3 4106.69  231.68
   1   3   3 4095.39  231.08
  -2  -3  -3  149.29   11.10
  -2  -3  -3  163.68   11.00
  -2  -3  -3  145.69   11.10
  -2  -3  -3  157.98   11.30
  -2  -3  -3  152.08   11.20
  -2  -3  -3  159.48   10.90
   2   3   3  168.98   11.60
   2   3   3  166.08   12.00
   2   3   3  148.69   12.60
   2   3   3  151.48   10.90
   2   3   3  144.79   11.30
  -3  -3  -3 5710.13  318.57
  -3  -3  -3 5018.10  316.97
  -3  -3  -3 5732.43  316.67
  -3  -3  -3 5495.45  316.87
  -3  -3  -3 5767.62  316.27
  -3  -3  -3 5355.76  316.57
   3   3   3 5078.89  316.47
   3   3   3 5012.60  317.87
   3   3   3 5738.93  317.17
   3   3   3 5481.65  316.77
   3   3   3 5791.32  318.57
   3   3   3 5837.82  316.97
  -4  -3  -3  173.98   12.70
  -4  -3  -3  163.18   12.20
  -4  -3  -3  139.89   11.70
  -4  -3  -3  165.08   12.80
  -4  -3  -3  163.98   12.50
  -4  -3  -3  163.48   15.20
  -4  -3  -3  149.79   11.60
   4   3   3  174.88   12.70
   4   3   3  169.78   12.70
   4   3   3  160.28   13.20
   4   3   3  170.18   13.30
   4   3   3  174.48   15.50
  -5  -3  -3 1974.40  113.49
  -5  -3  -3 1937.51  112.79
  -5  -3  -3 2006.90  112.49
  -5  -3  -3 1963.80  113.09
  -5  -3  -3 1851.81  115.29
  -5  -3  -3 1993.20  112.79
  -5  -3  -3 1720.93  111.89
   5   3   3 1941.21  115.59
   5   3   3 1888.31  111.99
   5   3   3 1894.71  113.59
   5   3   3 1865.01  113.49
   5   3   3 1878.51  111.39
   5   3   3 1976.90  112.79
  -6  -3  -3  123.09   11.50
  -6  -3  -3  127.69   11.80
  -6  -3  -3  111.99   10.90
  -6  -3  -3  137.79   17.20
  -6  -3  -3  121.79   11.50
  -6  -3  -3  130.79   12.60
  -6  -3  -3  122.59   12.90
   6   3   3  127.59   17.90
   6   3   3  118.59   10.00
   6   3   3  114.49   12.40
   6   3   3  111.59   13.30
   6   3   3  144.29   11.50
   6   3   3  123.99   12.40
   6   3   3  135.39   11.00
  -7  -3  -3  887.21   54.09
  -7  -3  -3  881.81   53.09
  -7  -3  -3  780.82   51.89
  -7  -3  -3  937.21   52.69
  -7  -3  -3  868.71   54.29
  -7  -3  -3  804.82   51.89
  -7  -3  -3  832.72   57.19
   7   3   3  803.42   52.99
   7   3   3  857.41   57.89
   7   3   3  856.01   52.19
   7   3   3  864.31   51.39
   7   3   3  820.92   54.59
   7   3   3  878.91   55.09
   7   3   3  920.01   52.79
   7   3   3  716.03   52.69
  -8  -3  -3   56.99   11.10
  -8  -3  -3   23.90   13.00
  -8  -3  -3   48.70    9.40
  -8  -3  -3   31.80    7.60
  -8  -3  -3   47.30   11.10
   8   3   3   30.20   10.70
   8   3   3   43.40   10.10
   8   3   3   56.59    9.40
   8   3   3   47.00    8.80
   8   3   3   50.59    7.50
   8   3   3   29.80    9.70
  -9  -3  -3  177.98   26.90
  -9  -3  -3  174.18   20.90
  -9  -3  -3  166.88   21.10
   9   3   3  171.88   16.30
   9   3   3  161.08   22.30
   9   3   3  143.39   20.40
   9   3   3  155.38   20.80
   9   3   3  171.18   17.40
   9   3   3  176.38   17.40
 -10  -3  -3   -2.40   19.90
 -10  -3  -3   25.40   13.70
 -10  -3  -3   12.50   14.00
  10   3   3   16.50    8.60
  10   3   3   13.80    9.70
  10   3   3   16.00    9.60
  10   3   3   33.30   13.70
   8  -4  -3   -6.60    7.70
   8  -4  -3   -8.30    9.30
   8  -4  -3   -5.40   13.50
   8  -4  -3    1.10   11.90
  -8   4   3   12.30   19.20
  -8   4   3    6.30   20.30
  -8   4   3   18.10   20.20
  -8   4   3    6.40   18.60
   7  -4  -3   17.10    9.40
   7  -4  -3    0.20    5.70
   7  -4  -3   -0.30   13.30
   7  -4  -3  -10.60   10.20
   7  -4  -3   -8.70    8.20
  -7   4   3   17.50   13.60
  -7   4   3    9.20   15.40
  -7   4   3   11.50   14.20
  -7   4   3  -15.90    9.20
  -7   4   3    1.90   13.90
   6  -4  -3   -3.60    6.10
   6  -4  -3   -3.40    4.70
   6  -4  -3    1.20    6.90
   6  -4  -3  -11.10    9.60
   6  -4  -3   -1.30    8.10
   6  -4  -3   -4.80    5.90
   6  -4  -3    3.40    6.70
  -6   4   3   -2.60   11.60
  -6   4   3   -2.90   11.90
  -6   4   3   -1.30   10.00
  -6   4   3    4.20   10.10
  -6   4   3  -11.30    6.70
  -6   4   3    3.60    9.50
   5  -4  -3   -5.40    6.50
   5  -4  -3   -5.90    4.90
   5  -4  -3   -3.90    4.40
   5  -4  -3   -9.20    7.20
   5  -4  -3   -3.50    3.60
   5  -4  -3    1.40    5.60
  -5   4   3   -3.90    5.30
  -5   4   3    2.00   10.20
  -5   4   3   -0.40    8.10
  -5   4   3    8.30    4.90
  -5   4   3    2.90    8.70
  -5   4   3    1.50    8.30
  -5   4   3    4.80    7.60
  -5   4   3   -0.40    8.10
   4  -4  -3   14.20    5.90
   4  -4  -3   16.90    6.00
   4  -4  -3   22.10    4.90
   4  -4  -3   20.40    4.60
   4  -4  -3   20.50    6.70
   4  -4  -3   28.90    5.20
  -4   4   3   21.40    6.90
  -4   4   3   22.90   10.90
  -4   4   3   24.50    8.10
  -4   4   3   34.30    8.30
  -4   4   3   25.70    5.10
  -4   4   3   19.40    7.80
  -4   4   3   23.00    5.30
  -4   4   3   11.00    6.20
   3  -4  -3   16.30    5.40
   3  -4  -3   12.30    5.40
   3  -4  -3   13.40    3.40
   3  -4  -3   12.00    3.70
   3  -4  -3   19.30    3.70
   3  -4  -3    8.40    3.80
   3  -4  -3   12.50    4.90
  -3   4   3   17.40    7.60
  -3   4   3   16.30    4.30
  -3   4   3   10.50    5.70
  -3   4   3   23.00    4.00
  -3   4   3   15.10    4.90
  -3   4   3    9.60    5.10
  -3   4   3   18.60    6.20
  -3   4   3   11.40    5.60
   2  -4  -3  423.06   25.80
   2  -4  -3  406.56   26.80
   2  -4  -3  437.46   27.60
   2  -4  -3  429.66   26.10
   2  -4  -3  397.86   26.90
   2  -4  -3  384.16   26.00
  -2   4   3  349.67   27.50
  -2   4   3  434.76   25.80
  -2   4   3  447.46   26.50
  -2   4   3  416.66   26.80
  -2   4   3  417.66   27.80
  -2   4   3  441.96   27.70
  -2   4   3  424.06   25.80
  -2   4   3  437.16   30.30
   1  -4  -3  658.73   45.40
   1  -4  -3  793.62   46.30
   1  -4  -3  767.12   46.60
   1  -4  -3  760.52   45.30
   1  -4  -3  642.54   46.10
   1  -4  -3  774.82   45.90
  -1   4   3  772.52   46.70
  -1   4   3  740.53   45.20
  -1   4   3  821.52   49.10
  -1   4   3  691.83   47.00
  -1   4   3  837.52   46.30
  -1   4   3  816.62   46.60
  -1   4   3  871.51   45.80
  -1   4   3  738.23   44.70
  -1   4   3  796.62   46.50
   0  -4  -3  807.82   45.70
   0  -4  -3  815.12   46.40
   0  -4  -3  730.53   45.60
   0  -4  -3  765.42   46.90
   0  -4  -3  787.32   46.50
   0  -4  -3  705.23   45.90
   0   4   3  722.43   45.90
   0   4   3  742.03   46.20
   0   4   3  802.52   45.80
   0   4   3  807.42   46.40
   0   4   3  812.92   46.90
  -1  -4  -3  187.68   14.70
  -1  -4  -3  195.58   14.90
  -1  -4  -3  198.58   13.60
  -1  -4  -3  205.08   16.90
  -1  -4  -3  205.78   13.60
  -1  -4  -3  227.58   14.20
   1   4   3  206.48   14.20
   1   4   3  194.08   14.70
   1   4   3  211.78   13.80
   1   4   3  219.48   14.70
   1   4   3  218.58   14.70
   1   4   3  209.28   13.60
  -2  -4  -3 3371.56  186.68
  -2  -4  -3 2854.61  185.88
  -2  -4  -3 3267.67  186.18
  -2  -4  -3 3113.39  185.88
   2   4   3 3453.55  186.48
   2   4   3 3191.58  186.18
   2   4   3 3389.26  185.68
   2   4   3 3410.16  187.38
   2   4   3 2847.81  186.28
   2   4   3 3273.17  185.68
  -3  -4  -3  723.53   45.50
  -3  -4  -3  816.72   46.00
  -3  -4  -3  746.53   45.30
  -3  -4  -3  770.42   46.00
  -3  -4  -3  805.52   47.80
  -3  -4  -3  793.42   45.70
   3   4   3  617.44   46.60
   3   4   3  793.62   48.00
   3   4   3  755.72   45.70
   3   4   3  785.72   46.00
   3   4   3  670.03   46.90
   3   4   3  755.52   45.30
  -4  -4  -3  709.23   46.40
  -4  -4  -3  768.12   43.90
  -4  -4  -3  730.53   44.40
  -4  -4  -3  662.83   43.50
  -4  -4  -3  706.83   43.90
  -4  -4  -3  604.94   43.30
  -4  -4  -3  751.02   43.60
   4   4   3  717.13   44.50
   4   4   3  723.73   43.60
   4   4   3  790.02   44.10
   4   4   3  668.93   43.60
   4   4   3  766.62   46.80
  -5  -4  -3  673.63   41.60
  -5  -4  -3  632.14   40.80
  -5  -4  -3  670.33   40.70
  -5  -4  -3  581.64   40.00
  -5  -4  -3  635.44   43.70
  -5  -4  -3  702.73   41.20
  -5  -4  -3  648.44   40.80
   5   4   3  621.84   41.50
   5   4   3  714.23   41.00
   5   4   3  643.44   41.10
   5   4   3  658.63   44.10
   5   4   3  647.44   41.70
   5   4   3  650.33   40.10
  -6  -4  -3  932.91   55.49
  -6  -4  -3  920.51   55.59
  -6  -4  -3  846.72   58.69
  -6  -4  -3  931.11   56.09
  -6  -4  -3  923.31   55.39
  -6  -4  -3  826.22   54.59
  -6  -4  -3  902.11   56.59
   6   4   3  888.01   56.69
   6   4   3  897.91   54.59
   6   4   3  895.81   55.39
   6   4   3  927.01   59.49
   6   4   3  998.10   55.79
   6   4   3  843.12   54.69
   6   4   3  908.71   55.89
   6   4   3  885.91   56.79
  -7  -4  -3  266.87   26.20
  -7  -4  -3  277.17   20.60
  -7  -4  -3  300.67   23.00
  -7  -4  -3  216.58   19.90
  -7  -4  -3  289.07   21.90
  -7  -4  -3  244.88   19.80
  -7  -4  -3  301.07   21.30
   7   4   3  272.17   19.80
   7   4   3  281.27   20.00
   7   4   3  293.27   23.90
   7   4   3  293.77   21.00
   7   4   3  260.17   22.80
   7   4   3  263.97   20.00
   7   4   3  308.17   21.90
   7   4   3  285.57   27.70
  -8  -4  -3  166.18   24.50
  -8  -4  -3  182.08   17.50
  -8  -4  -3  183.38   18.60
  -8  -4  -3  185.28   20.00
  -8  -4  -3  148.79   16.30
   8   4   3  159.18   15.80
   8   4   3  173.28   15.90
   8   4   3  209.68   17.10
   8   4   3  202.98   17.20
   8   4   3  190.38   21.70
   8   4   3  194.48   18.50
  -9  -4  -3  188.08   20.30
  -9  -4  -3  216.38   23.70
  -9  -4  -3  155.48   25.80
  -9  -4  -3  210.18   21.80
   9   4   3  152.58   23.30
   9   4   3  218.48   21.50
   9   4   3  165.38   19.40
   9   4   3  181.88   17.50
   9   4   3  186.98   18.00
   9   4   3  208.58   19.60
 -10  -4  -3   20.60   14.10
 -10  -4  -3   31.80   20.30
 -10  -4  -3   48.30   12.90
  10   4   3   46.20   14.80
  10   4   3   36.30   11.90
  10   4   3   60.09   12.10
  10   4   3   31.90   10.00
   7  -5  -3    3.70    9.40
   7  -5  -3    0.00   11.00
   7  -5  -3    7.00    7.00
   7  -5  -3   20.40    8.90
  -7   5   3   27.10   15.30
  -7   5   3    9.90   16.00
  -7   5   3   10.40   15.80
  -7   5   3   34.50   11.00
  -7   5   3   13.80   18.50
   6  -5  -3   -1.60    9.70
   6  -5  -3   -6.00   12.40
   6  -5  -3   13.10   10.60
  -6   5   3   10.40   13.90
  -6   5   3    7.00   11.50
  -6   5   3   17.50   11.70
  -6   5   3   -3.20    9.70
  -6   5   3   20.10    7.40
  -6   5   3   16.50   13.20
   5  -5  -3   24.40    5.80
   5  -5  -3   32.10   10.60
   5  -5  -3   18.60   10.10
   5  -5  -3   27.70    7.30
   5  -5  -3   26.00    7.40
  -5   5   3   22.30    8.30
  -5   5   3   26.90    9.20
  -5   5   3   36.00   12.10
  -5   5   3   26.60   14.20
  -5   5   3   29.00    7.00
  -5   5   3   13.50    9.60
   4  -5  -3  102.39    9.70
   4  -5  -3   94.39   12.80
   4  -5  -3   87.79   11.90
   4  -5  -3  105.39   10.40
   4  -5  -3   98.99   12.80
   4  -5  -3   74.69   10.40
  -4   5   3   86.49   11.00
  -4   5   3   86.99   13.20
  -4   5   3   87.39   10.60
  -4   5   3  108.59   11.70
  -4   5   3   96.19   15.00
  -4   5   3   86.59   12.50
  -4   5   3   98.49   10.20
  -4   5   3  100.69   14.00
   3  -5  -3   21.60    4.30
   3  -5  -3   33.00    6.80
   3  -5  -3   30.20    5.40
   3  -5  -3   17.30    6.60
   3  -5  -3   21.40    4.70
   3  -5  -3   21.60    5.90
   3  -5  -3   23.80    6.00
  -3   5   3   27.00    4.50
  -3   5   3   17.90    7.00
  -3   5   3   30.00    5.10
  -3   5   3   15.50    9.00
  -3   5   3   22.80    7.00
  -3   5   3   28.20    6.10
  -3   5   3   21.80    7.40
  -3   5   3   23.60    5.10
   2  -5  -3   30.00    6.20
   2  -5  -3   28.80    4.80
   2  -5  -3   31.80    6.30
   2  -5  -3   33.40    4.60
   2  -5  -3   40.90    7.70
   2  -5  -3   27.50    5.30
  -2   5   3   32.20    8.00
  -2   5   3   33.70    6.50
  -2   5   3   36.80    7.70
  -2   5   3   34.40    5.90
  -2   5   3   34.30    5.00
  -2   5   3   29.70    8.50
  -2   5   3   27.30    5.30
   1  -5  -3  151.48   10.90
   1  -5  -3  148.89   12.60
   1  -5  -3  142.69   11.50
   1  -5  -3  125.19   12.30
   1  -5  -3  155.58   12.10
   1  -5  -3  159.68   11.20
  -1   5   3  140.39   11.00
  -1   5   3  161.88   11.50
  -1   5   3  187.28   16.30
  -1   5   3  154.18   12.80
  -1   5   3  126.99   12.50
  -1   5   3  164.98   12.70
  -1   5   3  151.58   12.40
   0  -5  -3   40.10    5.20
   0  -5  -3   35.20    4.90
   0  -5  -3   40.70    5.60
   0  -5  -3   35.70    4.90
   0  -5  -3   39.80    5.60
   0  -5  -3   35.80    5.90
   0  -5  -3   30.10    4.50
   0   5   3   42.40    5.50
   0   5   3   40.80    5.50
   0   5   3   45.70    6.80
   0   5   3   51.49    6.80
   0   5   3   33.10    8.00
   0   5   3   36.00    5.30
   0   5   3   37.40    4.90
  -1  -5  -3  112.39    9.20
  -1  -5  -3  103.09    8.70
  -1  -5  -3  110.59   10.50
  -1  -5  -3  106.69    9.70
  -1  -5  -3  105.99   10.30
  -1  -5  -3  108.79    8.50
  -1  -5  -3   92.79    9.60
  -1  -5  -3  112.39    8.90
   1   5   3  100.89    9.20
   1   5   3  106.59    8.70
   1   5   3  127.59    9.90
   1   5   3  126.29    8.80
   1   5   3  114.09    9.60
   1   5   3  118.19   10.20
  -2  -5  -3  123.29    9.90
  -2  -5  -3  115.79    9.90
  -2  -5  -3  116.59    9.50
  -2  -5  -3  116.19    9.80
  -2  -5  -3  116.69    9.40
  -2  -5  -3  123.69   11.30
   2   5   3  105.99    9.70
   2   5   3  106.59    9.70
   2   5   3  125.99   10.10
   2   5   3  133.19   11.80
   2   5   3  120.69    9.00
   2   5   3  111.89    9.20
  -3  -5  -3    4.20    2.50
  -3  -5  -3    5.70    5.90
  -3  -5  -3   -0.60    2.90
  -3  -5  -3   -2.10    2.70
  -3  -5  -3   -2.90    3.60
  -3  -5  -3   -0.80    3.20
  -3  -5  -3    1.40    3.30
   3   5   3   -1.90    2.80
   3   5   3   -1.00    3.80
   3   5   3    4.60    2.70
   3   5   3    1.00    2.70
   3   5   3    5.20    3.80
  -4  -5  -3  812.12   50.29
  -4  -5  -3  791.82   48.10
  -4  -5  -3  743.73   47.40
  -4  -5  -3  649.43   47.20
  -4  -5  -3  794.92   47.20
  -4  -5  -3  781.92   48.00
  -4  -5  -3  836.52   47.60
   4   5   3  794.12   47.60
   4   5   3  769.02   47.20
   4   5   3  769.02   48.00
   4   5   3  775.52   48.20
   4   5   3  821.72   50.49
   4   5   3  769.32   47.00
   4   5   3  777.12   47.50
  -5  -5  -3  206.98   15.30
  -5  -5  -3  193.98   15.00
  -5  -5  -3  189.38   19.00
  -5  -5  -3  154.58   15.60
  -5  -5  -3  224.78   15.80
  -5  -5  -3  205.78   15.70
  -5  -5  -3  201.38   16.20
   5   5   3  192.38   15.10
   5   5   3  226.58   15.40
   5   5   3  186.68   15.60
   5   5   3  195.58   16.40
   5   5   3  204.68   16.70
   5   5   3  218.38   15.60
   5   5   3  214.98   20.80
  -6  -5  -3  469.65   30.70
  -6  -5  -3  457.35   32.40
  -6  -5  -3  529.85   32.30
  -6  -5  -3  459.25   31.50
  -6  -5  -3  480.95   32.40
  -6  -5  -3  478.45   35.30
  -6  -5  -3  481.45   32.50
  -6  -5  -3  421.56   31.60
   6   5   3  502.35   36.50
   6   5   3  446.26   31.70
   6   5   3  458.75   32.40
   6   5   3  472.25   31.00
   6   5   3  508.15   31.40
   6   5   3  444.16   32.50
  -7  -5  -3   82.39   11.00
  -7  -5  -3   79.29   13.10
  -7  -5  -3   77.69   10.30
  -7  -5  -3   83.29   15.00
  -7  -5  -3   80.49   11.40
  -7  -5  -3   74.59    9.70
  -7  -5  -3   97.49   12.00
   7   5   3   75.39   10.40
   7   5   3   86.49   10.70
   7   5   3   77.39   16.10
   7   5   3   98.59   11.80
   7   5   3   70.79   11.60
   7   5   3   86.59   12.00
   7   5   3   63.99    9.60
   7   5   3  101.49   13.90
  -8  -5  -3  552.54   43.90
  -8  -5  -3  585.64   39.70
  -8  -5  -3  541.25   38.10
  -8  -5  -3  473.05   35.90
  -8  -5  -3  560.74   37.30
   8   5   3  556.44   38.30
   8   5   3  642.14   38.10
   8   5   3  552.94   40.40
   8   5   3  517.55   36.10
   8   5   3  556.54   36.50
   8   5   3  517.35   34.60
  -9  -5  -3   11.50   16.20
  -9  -5  -3   38.60   10.20
  -9  -5  -3   39.10   10.20
  -9  -5  -3   28.50   11.30
   9   5   3   22.30   11.00
   9   5   3   40.10    7.70
   9   5   3   38.30    8.80
   9   5   3   40.60   10.30
   9   5   3   26.60    8.40
 -10  -5  -3  109.39   19.40
 -10  -5  -3  112.79   27.70
 -10  -5  -3  145.29   18.20
  10   5   3  106.99   14.80
  10   5   3  126.19   18.20
  10   5   3  132.59   17.80
  10   5   3   87.39   13.30
   7  -6  -3   12.50    8.90
   7  -6  -3   36.50   15.20
   7  -6  -3    7.30   11.50
   7  -6  -3    6.40    7.90
  -7   6   3    6.40   12.60
  -7   6   3   22.90   21.40
  -7   6   3   35.40   16.50
   6  -6  -3   -3.00    7.60
   6  -6  -3   -5.80   12.50
   6  -6  -3    4.70    6.20
   6  -6  -3  -15.70    8.20
  -6   6   3    2.30   17.00
  -6   6   3    5.60    9.30
  -6   6   3    7.60   12.80
  -6   6   3   25.80   11.10
   5  -6  -3   27.40    9.80
   5  -6  -3   23.20    6.10
   5  -6  -3   41.60   12.20
  -5   6   3   48.40   13.60
  -5   6   3   42.80   20.10
  -5   6   3   39.60    9.90
  -5   6   3   27.60   11.30
   4  -6  -3   20.50    5.80
   4  -6  -3   19.70    8.10
   4  -6  -3   18.80    7.10
   4  -6  -3   20.50    5.00
   4  -6  -3    6.70    8.00
   4  -6  -3    5.00    7.30
  -4   6   3   22.80    8.60
  -4   6   3   21.30    6.50
  -4   6   3   22.70    7.30
  -4   6   3   15.70   13.60
  -4   6   3   18.50    8.90
   3  -6  -3  464.75   27.50
   3  -6  -3  381.96   29.60
   3  -6  -3  405.16   29.10
   3  -6  -3  406.76   27.30
   3  -6  -3  387.46   27.50
   3  -6  -3  384.36   28.50
  -3   6   3  483.15   29.90
  -3   6   3  366.36   31.10
  -3   6   3  483.95   31.00
  -3   6   3  391.16   28.20
  -3   6   3  435.96   27.90
  -3   6   3  440.46   27.90
  -3   6   3  474.95   35.20
   2  -6  -3    1.80    4.10
   2  -6  -3    6.90    5.50
   2  -6  -3   -5.50    4.70
   2  -6  -3    2.30    4.20
   2  -6  -3   11.00    5.10
   2  -6  -3   -4.90    3.00
  -2   6   3    1.60    4.80
  -2   6   3   14.40    9.60
  -2   6   3   -3.20    7.00
  -2   6   3    5.30    5.40
  -2   6   3   -3.50    5.20
  -2   6   3   -6.30    4.90
  -2   6   3   -0.30    3.40
   1  -6  -3   75.49    6.80
   1  -6  -3   56.39    8.30
   1  -6  -3   45.20    7.70
   1  -6  -3   53.59    7.60
   1  -6  -3   71.99    8.10
   1  -6  -3   53.89    8.60
   1  -6  -3   86.79    9.20
  -1   6   3   71.59    7.40
  -1   6   3   95.49    9.80
  -1   6   3   56.59    8.50
  -1   6   3   76.29   12.50
  -1   6   3   70.19    7.70
  -1   6   3   77.69    9.70
  -1   6   3   65.19    9.40
   0  -6  -3    6.20    3.10
   0  -6  -3   12.70    4.30
   0  -6  -3   -3.10    4.00
   0  -6  -3    0.40    4.00
   0  -6  -3    2.90    3.00
   0  -6  -3    2.50    3.50
   0  -6  -3    4.90    3.30
   0   6   3    6.20    3.20
   0   6   3    3.20    3.80
   0   6   3    9.10    4.10
   0   6   3    4.50    3.70
   0   6   3    6.70    3.70
   0   6   3    7.60    6.70
  -1  -6  -3   69.59    9.90
  -1  -6  -3   86.29    7.70
  -1  -6  -3   73.09    7.90
  -1  -6  -3   71.39   10.30
  -1  -6  -3   93.89    8.90
  -1  -6  -3  101.79    8.80
  -1  -6  -3   71.99    8.30
   1   6   3   73.99    8.50
   1   6   3   91.59    8.20
   1   6   3   86.49    8.60
   1   6   3   92.89    8.90
   1   6   3   84.89    7.70
   1   6   3   87.89   12.70
   1   6   3   85.69    8.80
  -2  -6  -3  100.69    9.20
  -2  -6  -3   88.39    9.40
  -2  -6  -3   91.99    9.20
  -2  -6  -3   96.19   11.10
  -2  -6  -3   85.79    8.70
  -2  -6  -3   93.79    9.80
  -2  -6  -3  103.79    8.70
   2   6   3   94.39    8.40
   2   6   3   97.69    9.30
   2   6   3   99.49   10.90
   2   6   3   89.29    9.20
   2   6   3   94.79    8.10
   2   6   3   94.59   12.40
   2   6   3   99.99    9.40
  -3  -6  -3   95.69    8.80
  -3  -6  -3   77.09   10.60
  -3  -6  -3   88.29    8.90
  -3  -6  -3   85.39    9.10
  -3  -6  -3  112.79   12.70
  -3  -6  -3   92.89    8.90
  -3  -6  -3   82.29    9.50
   3   6   3   87.79    8.60
   3   6   3  109.49   12.70
   3   6   3  101.39    8.10
   3   6   3   87.09    9.30
   3   6   3   80.39    9.80
   3   6   3  101.99   10.00
  -4  -6  -3   51.29    6.50
  -4  -6  -3   41.80    7.00
  -4  -6  -3   47.10    6.40
  -4  -6  -3   49.20    6.70
  -4  -6  -3   51.69   10.60
  -4  -6  -3   57.99    8.80
  -4  -6  -3   34.60    6.40
   4   6   3   32.80    5.60
   4   6   3   50.79    7.80
   4   6   3   43.60    6.00
   4   6   3   33.20    6.70
   4   6   3   29.90    9.20
   4   6   3   41.40    7.50
  -5  -6  -3   94.39   10.00
  -5  -6  -3   86.89   11.10
  -5  -6  -3  107.29   14.40
  -5  -6  -3   83.69    9.70
  -5  -6  -3   76.19    9.90
  -5  -6  -3  102.19   11.80
  -5  -6  -3  108.59   10.30
   5   6   3   92.69   10.10
   5   6   3   92.09   12.00
   5   6   3   89.89   10.20
   5   6   3   90.29   11.30
   5   6   3   94.99    9.50
   5   6   3  102.39   15.20
  -6  -6  -3   -8.30    5.20
  -6  -6  -3   14.80    5.50
  -6  -6  -3    5.30    6.70
  -6  -6  -3   12.10    6.10
  -6  -6  -3    9.80    5.30
  -6  -6  -3    1.50    5.40
  -6  -6  -3   31.10    9.80
   6   6   3    0.10    4.90
   6   6   3   14.50    6.80
   6   6   3    8.10    4.60
   6   6   3    5.50    5.40
   6   6   3    1.80    5.30
   6   6   3    0.90   10.90
   6   6   3   14.50    7.20
  -7  -6  -3   79.69   14.70
  -7  -6  -3   60.99   11.70
  -7  -6  -3   65.59   11.00
  -7  -6  -3   72.99   10.70
  -7  -6  -3   84.49   13.30
  -7  -6  -3   75.59   10.70
  -7  -6  -3   76.59   10.70
   7   6   3   85.09   10.40
   7   6   3   30.50   15.10
   7   6   3   58.69   10.10
   7   6   3   93.29   14.30
   7   6   3   90.99   11.30
   7   6   3   55.59   11.90
   7   6   3   81.29   11.80
   7   6   3   81.89   10.70
  -8  -6  -3   46.40   10.20
  -8  -6  -3   45.00   11.60
  -8  -6  -3   73.39   16.90
  -8  -6  -3   27.30    8.80
   8   6   3   58.69   10.00
   8   6   3   56.59   10.10
   8   6   3   49.80   11.50
  -9  -6  -3   39.10   12.00
  -9  -6  -3   61.99   18.90
  -9  -6  -3   31.10   11.30
  -9  -6  -3   45.00   14.40
   9   6   3   40.50   11.10
   9   6   3   36.70    9.90
   9   6   3   44.80   10.20
   9   6   3   37.60   12.60
 -10  -6  -3  -14.00   19.10
 -10  -6  -3   -6.90   13.40
 -10  -6  -3    7.70   13.90
  10   6   3   -2.60   10.30
  10   6   3   -6.20   12.20
  10   6   3    1.50   10.50
  10   6   3    7.70   13.40
   6  -7  -3    7.20    9.70
   6  -7  -3   -6.30    7.40
   6  -7  -3   12.70    8.50
   6  -7  -3    2.10   13.30
  -6   7   3  -23.80   18.70
  -6   7   3   14.20   13.60
  -6   7   3   -1.90   12.80
   5  -7  -3    5.10    6.00
   5  -7  -3    7.50   10.80
   5  -7  -3  -14.90   10.70
   5  -7  -3   -5.40    8.10
  -5   7   3   15.20    9.90
  -5   7   3    6.20   14.00
  -5   7   3   -1.30   16.70
  -5   7   3    0.50   11.70
  -5   7   3    2.00    8.90
   4  -7  -3   50.79   13.10
   4  -7  -3   51.29    7.00
   4  -7  -3   32.10   12.50
   4  -7  -3   42.40   11.30
  -4   7   3   38.60   27.80
  -4   7   3   52.29   10.90
  -4   7   3   56.79    9.60
  -4   7   3   47.80    9.20
  -4   7   3   30.30   12.40
   3  -7  -3   -6.50    8.20
   3  -7  -3    1.50    4.70
   3  -7  -3  -13.60    7.00
   3  -7  -3   14.60    7.70
   3  -7  -3    3.40    4.00
   3  -7  -3    6.40    4.60
   3  -7  -3    7.80    7.50
  -3   7   3   10.90    6.10
  -3   7   3    3.50    8.40
  -3   7   3   17.60    6.30
  -3   7   3   11.60    7.80
  -3   7   3   -2.40   12.50
   2  -7  -3   50.59    7.00
   2  -7  -3   39.20    8.90
   2  -7  -3   46.50    8.30
   2  -7  -3   39.60    7.10
   2  -7  -3   26.70    6.90
   2  -7  -3   45.40    6.90
  -2   7   3   68.29   14.90
  -2   7   3   47.80    7.50
  -2   7   3   55.29    8.50
  -2   7   3   33.70    8.80
  -2   7   3   44.40    7.20
  -2   7   3   20.80    7.90
   1  -7  -3    3.20    6.50
   1  -7  -3    8.60    6.50
   1  -7  -3    7.80    3.90
   1  -7  -3   12.70    4.60
   1  -7  -3   -3.50    5.40
   1  -7  -3    9.80    5.80
   1  -7  -3    8.20    5.00
  -1   7   3   10.90    9.70
  -1   7   3   16.60    5.70
  -1   7   3   11.80    5.80
  -1   7   3    9.30    4.70
  -1   7   3   13.20    5.00
   0  -7  -3  230.68   15.50
   0  -7  -3  212.78   17.50
   0  -7  -3  178.08   17.80
   0  -7  -3  223.88   16.80
   0  -7  -3  208.68   16.20
   0  -7  -3  214.68   15.90
   0  -7  -3  235.78   17.70
   0   7   3  227.98   22.00
   0   7   3  239.18   17.00
   0   7   3  237.98   16.50
   0   7   3  243.08   17.10
   0   7   3  239.08   16.20
  -1  -7  -3   26.70    6.50
  -1  -7  -3   26.30    5.70
  -1  -7  -3   20.80    6.80
  -1  -7  -3   11.70    4.20
  -1  -7  -3   23.70    5.60
  -1  -7  -3   25.30    4.80
  -1  -7  -3   27.40    5.50
   1   7   3   23.00    5.40
   1   7   3   30.40    5.50
   1   7   3   27.70    4.80
   1   7   3   28.20    9.30
   1   7   3   17.20    5.30
   1   7   3   21.30    5.00
  -2  -7  -3  174.38   16.60
  -2  -7  -3  189.48   14.30
  -2  -7  -3  189.88   14.40
  -2  -7  -3  171.38   15.00
  -2  -7  -3  145.69   14.40
  -2  -7  -3  179.08   13.90
  -2  -7  -3  178.58   13.70
  -2  -7  -3  180.98   14.20
   2   7   3  169.48   14.20
   2   7   3  183.38   15.40
   2   7   3  209.28   14.50
   2   7   3  173.78   13.00
   2   7   3  169.78   13.80
   2   7   3  177.38   13.60
   2   7   3  199.38   18.30
  -3  -7  -3   41.20    9.10
  -3  -7  -3   30.10    6.40
  -3  -7  -3   43.40    7.20
  -3  -7  -3   54.39    7.90
  -3  -7  -3   46.20    8.90
  -3  -7  -3   40.00    7.00
  -3  -7  -3   52.19    6.80
   3   7   3   50.09    6.30
   3   7   3   54.29    7.60
   3   7   3   48.60    9.10
   3   7   3   53.29    7.60
   3   7   3   44.80    7.80
   3   7   3   51.39    7.00
   3   7   3   68.69   10.40
  -4  -7  -3   39.30    9.00
  -4  -7  -3   51.39    8.30
  -4  -7  -3   53.59   10.50
  -4  -7  -3   48.80    7.50
  -4  -7  -3   43.50    6.70
  -4  -7  -3   37.60    6.50
  -4  -7  -3   32.30    7.50
   4   7   3   45.60    9.00
   4   7   3   45.90    6.10
   4   7   3   46.60   10.30
   4   7   3   44.80    9.50
   4   7   3   43.30    7.70
   4   7   3   37.80    7.50
   4   7   3   42.10    6.50
  -5  -7  -3   61.99    8.70
  -5  -7  -3   44.70    7.50
  -5  -7  -3   56.49    8.70
  -5  -7  -3   67.69   13.10
  -5  -7  -3   67.09    8.60
  -5  -7  -3   58.39   10.40
  -5  -7  -3   66.89    9.30
   5   7   3   65.19   10.30
   5   7   3   75.69   13.40
   5   7   3   66.99   10.80
   5   7   3   68.09    9.50
   5   7   3   73.29   11.30
   5   7   3   45.00    9.10
   5   7   3   70.59    8.00
  -6  -7  -3   -1.30    7.60
  -6  -7  -3    5.90    6.90
  -6  -7  -3    9.50    5.90
  -6  -7  -3    0.80    5.70
  -6  -7  -3    1.30    5.40
  -6  -7  -3    5.50    6.00
  -6  -7  -3    1.30   10.60
   6   7   3   -0.70    6.00
   6   7   3    3.40    7.00
   6   7   3    8.40   12.00
   6   7   3    5.20    4.90
   6   7   3    0.30    8.20
   6   7   3   -1.80    7.90
   6   7   3    0.30    5.80
  -7  -7  -3   56.19   10.80
  -7  -7  -3   33.50   14.00
  -7  -7  -3   40.70   11.00
  -7  -7  -3   43.00    8.50
  -7  -7  -3   29.70   11.90
  -7  -7  -3   44.70    9.40
   7   7   3   42.90    7.20
   7   7   3   29.30   10.60
   7   7   3   48.30    9.00
   7   7   3   39.90    9.00
   7   7   3   34.60    8.80
   7   7   3   42.70    9.80
   7   7   3   31.60    7.80
  -8  -7  -3  115.89   36.80
  -8  -7  -3   75.69   11.50
  -8  -7  -3   46.40   13.40
  -8  -7  -3   63.49   11.40
  -8  -7  -3   62.99   22.20
  -8  -7  -3   46.10   11.50
   8   7   3   61.99   11.80
   8   7   3   60.29   10.50
   8   7   3   47.90   10.50
   8   7   3   60.99   11.50
   8   7   3   41.40   10.40
  -9  -7  -3    1.20   10.60
  -9  -7  -3    6.10   10.90
  -9  -7  -3   -5.80   18.10
  -9  -7  -3   -8.10   11.00
   9   7   3   -8.60    8.70
   9   7   3    3.80    9.40
   9   7   3   -0.70    9.90
   9   7   3   -1.50   10.60
 -10  -7  -3   50.39   24.20
 -10  -7  -3   33.20   14.70
 -10  -7  -3   56.59   16.40
  10   7   3   33.80   13.50
  10   7   3   55.19   15.50
  10   7   3   55.39   13.70
   5  -8  -3   23.00   14.00
   5  -8  -3    4.60    9.00
   5  -8  -3    0.10    7.20
  -5   8   3    4.60   20.70
  -5   8   3   17.70   12.90
  -5   8   3   20.10   12.40
   4  -8  -3    2.70   11.80
   4  -8  -3   13.40    7.30
   4  -8  -3    7.30   11.40
   4  -8  -3    8.70    6.00
  -4   8   3    8.20   10.30
  -4   8   3    7.10    8.40
  -4   8   3   12.60   18.10
  -4   8   3   23.10   10.00
   3  -8  -3   21.80    9.60
   3  -8  -3   19.80    5.20
   3  -8  -3   14.30   10.70
   3  -8  -3   25.00    7.00
   3  -8  -3   35.30    8.20
  -3   8   3   23.20   11.50
  -3   8   3   17.60   17.30
  -3   8   3   26.50    8.80
  -3   8   3   14.50    8.60
   2  -8  -3   58.89    8.90
   2  -8  -3   60.09    9.90
   2  -8  -3   68.79    9.10
   2  -8  -3   42.60   10.40
   2  -8  -3   54.69   10.60
  -2   8   3   56.09    9.20
  -2   8   3   68.69   10.10
  -2   8   3   54.69    8.10
  -2   8   3   96.19   19.80
  -2   8   3   71.29   18.20
   1  -8  -3   55.19    8.00
   1  -8  -3   55.89    9.70
   1  -8  -3   38.10    8.00
   1  -8  -3   44.10   10.40
   1  -8  -3   76.19   13.00
   1  -8  -3   42.70   11.30
   1  -8  -3   62.99    8.20
  -1   8   3   59.79    7.80
  -1   8   3   70.09   16.40
  -1   8   3   70.89    9.70
  -1   8   3   60.09   16.20
  -1   8   3   71.39    9.00
   0  -8  -3  139.89   11.60
   0  -8  -3  112.69   15.50
   0  -8  -3  152.88   12.90
   0  -8  -3  165.28   14.90
   0  -8  -3  136.19   13.40
   0  -8  -3  136.99   15.50
   0   8   3  152.68   13.40
   0   8   3  159.58   22.20
   0   8   3  166.38   14.10
   0   8   3  154.78   13.60
   0   8   3  165.78   12.90
  -1  -8  -3  149.49   14.10
  -1  -8  -3  133.79   11.80
  -1  -8  -3  147.69   11.70
  -1  -8  -3  118.89   13.60
  -1  -8  -3  111.39   17.00
  -1  -8  -3  115.19   15.40
  -1  -8  -3  142.09   13.10
  -1  -8  -3  136.39   13.00
   1   8   3  156.78   16.80
   1   8   3  152.48   12.50
   1   8   3  132.59   12.30
   1   8   3  132.59    9.80
   1   8   3  141.79   12.30
   1   8   3  135.79   12.40
   1   8   3  143.99   20.70
  -2  -8  -3  242.68   19.00
  -2  -8  -3  277.27   20.00
  -2  -8  -3  224.78   19.60
  -2  -8  -3  261.77   19.20
  -2  -8  -3  266.47   22.60
  -2  -8  -3  210.08   21.70
  -2  -8  -3  294.57   25.80
  -2  -8  -3  248.18   20.20
  -2  -8  -3  276.37   19.90
   2   8   3  265.77   19.50
   2   8   3  283.07   18.70
   2   8   3  270.37   19.00
   2   8   3  287.67   24.60
   2   8   3  252.27   18.90
   2   8   3  271.17   19.70
   2   8   3  289.27   19.20
  -3  -8  -3   99.99   12.30
  -3  -8  -3   98.89   13.60
  -3  -8  -3  110.09   11.80
  -3  -8  -3  113.19   10.90
  -3  -8  -3  119.89   14.00
  -3  -8  -3  102.79   12.20
  -3  -8  -3   95.59   12.20
  -3  -8  -3   93.69   11.80
   3   8   3  109.69   13.50
   3   8   3  117.69   15.70
   3   8   3   97.69   11.70
   3   8   3  120.39   10.20
   3   8   3  100.59   11.60
   3   8   3  116.69   11.00
  -4  -8  -3  338.67   23.30
  -4  -8  -3  252.97   23.30
  -4  -8  -3  327.77   22.20
  -4  -8  -3  331.97   25.70
  -4  -8  -3  328.27   26.80
  -4  -8  -3  301.47   22.90
  -4  -8  -3  295.97   22.70
   4   8   3  342.97   26.00
   4   8   3  323.17   23.20
   4   8   3  276.77   22.80
   4   8   3  337.17   22.50
   4   8   3  372.16   26.80
   4   8   3  292.27   23.20
   4   8   3  332.17   20.90
  -5  -8  -3   49.90   10.70
  -5  -8  -3   44.60    8.90
  -5  -8  -3   47.30    8.40
  -5  -8  -3   43.70    8.30
  -5  -8  -3   45.00    8.40
  -5  -8  -3   34.10    7.70
  -5  -8  -3   28.80   11.80
   5   8   3   53.29    6.90
   5   8   3   30.10   11.70
   5   8   3   42.50    7.50
   5   8   3   34.20   14.30
   5   8   3   33.00    9.80
   5   8   3   51.69   10.00
   5   8   3   47.60    9.90
  -6  -8  -3   91.49   17.30
  -6  -8  -3  113.79   14.90
  -6  -8  -3  101.59   13.30
  -6  -8  -3  123.59   13.40
  -6  -8  -3   87.59   12.00
  -6  -8  -3   94.39   14.50
   6   8   3  115.19   15.20
   6   8   3   95.49   13.00
   6   8   3  106.09   14.70
   6   8   3   94.09   17.00
   6   8   3  105.69   11.50
   6   8   3  106.79   14.10
  -7  -8  -3    2.80    7.80
  -7  -8  -3    8.80    9.10
  -7  -8  -3   -5.40    7.90
  -7  -8  -3    2.00   13.30
  -7  -8  -3    5.60   11.90
  -7  -8  -3   -1.00    6.60
   7   8   3   -3.40    9.70
   7   8   3   -2.00    6.10
   7   8   3   13.20   10.50
   7   8   3   -1.80    8.80
  -8  -8  -3   60.99   14.40
  -8  -8  -3   64.19   11.90
  -8  -8  -3  100.09   15.40
  -8  -8  -3   91.19   21.80
   8   8   3   90.79   13.90
   8   8   3   66.69   12.30
   8   8   3   86.79   12.20
  -9  -8  -3   57.29   22.60
  -9  -8  -3    0.80   13.30
  -9  -8  -3    9.50   11.80
   9   8   3   -7.30   10.40
   9   8   3    7.80    9.60
   9   8   3   23.50   10.60
   9   8   3   15.70   12.00
   9   8   3   -1.60   11.30
 -10  -8  -3   -9.00   16.20
 -10  -8  -3  -24.70   22.50
 -10  -8  -3   -9.60   15.20
  10   8   3   24.30   12.70
  10   8   3    9.70   12.40
  10   8   3    3.80   17.10
  10   8   3   21.90   14.40
  10   8   3   16.60   17.40
   4  -9  -3    2.00    7.00
   4  -9  -3  -10.30    8.00
   4  -9  -3    8.20   14.80
  -4   9   3    2.00   11.90
  -4   9   3   17.40   21.40
   3  -9  -3   20.10    7.50
   3  -9  -3   27.80    8.20
   3  -9  -3    3.60   12.90
  -3   9   3  -16.50   18.20
  -3   9   3   44.30   11.80
   2  -9  -3   -3.40   11.00
   2  -9  -3    4.20    7.80
   2  -9  -3   -4.50    9.20
   2  -9  -3   -4.80    5.60
   2  -9  -3   -4.00    7.10
  -2   9   3   11.00   16.20
  -2   9   3    1.40   11.30
   1  -9  -3   30.20    9.70
   1  -9  -3   57.79   10.80
   1  -9  -3   58.39    9.40
  -1   9   3   60.79   11.30
  -1   9   3   49.70   17.10
   0  -9  -3   10.30    9.90
   0  -9  -3    2.10    7.70
   0  -9  -3    8.70    6.30
   0  -9  -3   20.10   10.30
   0  -9  -3    9.30    8.20
   0  -9  -3    2.30    4.10
   0   9   3    9.20   14.80
   0   9   3    8.50    7.20
   0   9   3   -6.10    8.00
  -1  -9  -3  123.39   15.80
  -1  -9  -3  100.19   14.90
  -1  -9  -3  139.19   14.80
  -1  -9  -3  121.29   12.80
  -1  -9  -3  142.49   12.20
  -1  -9  -3  140.99   16.10
   1   9   3  142.09   20.50
   1   9   3  136.29   13.10
   1   9   3  125.79   15.10
  -2  -9  -3    0.70    6.30
  -2  -9  -3   -1.40    5.10
  -2  -9  -3   -5.50    7.90
  -2  -9  -3  -11.40    7.80
  -2  -9  -3    0.60    5.00
  -2  -9  -3    8.90    8.40
  -2  -9  -3   -2.30    5.90
   2   9   3   -6.40   11.40
   2   9   3   -7.40    5.80
   2   9   3   -3.80    5.10
   2   9   3    2.20    5.30
  -3  -9  -3  301.97   22.00
  -3  -9  -3  282.47   21.30
  -3  -9  -3  277.17   23.50
  -3  -9  -3  218.18   20.80
  -3  -9  -3  241.18   21.50
  -3  -9  -3  224.28   22.10
   3   9   3  266.47   22.80
   3   9   3  294.77   19.30
   3   9   3  317.27   27.30
   3   9   3  300.27   20.20
   3   9   3  280.07   20.50
   3   9   3  279.77   22.00
  -4  -9  -3    4.10    6.30
  -4  -9  -3   13.70    9.20
  -4  -9  -3   -8.70    6.30
  -4  -9  -3    4.50    7.30
  -4  -9  -3   11.80    8.70
  -4  -9  -3   10.40    5.70
   4   9   3   -6.30    4.30
   4   9   3   18.90   10.40
   4   9   3   -3.00    7.90
   4   9   3    1.40    5.60
   4   9   3    1.10   10.50
  -5  -9  -3  222.18   20.30
  -5  -9  -3  241.28   21.50
  -5  -9  -3  244.48   21.00
  -5  -9  -3  238.28   21.70
  -5  -9  -3  219.78   26.20
  -5  -9  -3  246.58   19.20
   5   9   3  273.37   21.90
   5   9   3  257.77   21.00
   5   9   3  242.18   27.00
   5   9   3  240.78   19.60
   5   9   3  252.77   17.60
   5   9   3  246.68   23.40
  -6  -9  -3   34.60    8.20
  -6  -9  -3   34.50   12.60
  -6  -9  -3   49.80   10.30
  -6  -9  -3   22.50   13.40
  -6  -9  -3   27.50    9.00
   6   9   3   41.00   10.40
   6   9   3   27.40   12.10
   6   9   3   43.40   11.60
   6   9   3   45.30    7.00
   6   9   3   43.70   17.50
  -7  -9  -3  207.68   20.60
  -7  -9  -3  192.98   18.80
  -7  -9  -3  174.28   24.30
  -7  -9  -3  244.58   28.90
   7   9   3  191.48   18.20
   7   9   3  200.98   23.50
   7   9   3  185.28   23.10
   7   9   3  223.98   17.60
   7   9   3  199.08   19.60
  -8  -9  -3   20.30   11.40
  -8  -9  -3   19.30   10.80
  -8  -9  -3    0.70   17.50
   8   9   3   21.60    8.30
   8   9   3   23.90    9.90
   8   9   3   17.10   16.60
   8   9   3   32.10   13.50
  -9  -9  -3   67.49   17.20
  -9  -9  -3   30.00   22.70
  -9  -9  -3   59.99   14.40
   9   9   3   67.49   13.90
   9   9   3   34.80   11.90
   3 -10  -3    8.70   13.90
   3 -10  -3    0.40    8.30
   3 -10  -3   -3.80    8.50
  -3  10   3  -24.20   25.90
   2 -10  -3    9.00    8.60
   2 -10  -3    4.70    7.10
   2 -10  -3   25.70   14.60
  -2  10   3    1.30   21.90
   1 -10  -3   37.80   11.70
   1 -10  -3   11.40    6.60
   1 -10  -3   16.80   10.40
   1 -10  -3    0.70   11.60
   1 -10  -3   30.00   10.30
  -1  10   3   17.30   13.10
  -1  10   3   22.10   19.80
   0 -10  -3   56.69   12.50
   0 -10  -3   41.10   13.00
   0 -10  -3   43.80   14.60
   0 -10  -3   52.99    8.10
   0  10   3   53.99   12.40
   0  10   3   68.19   23.30
   0  10   3   54.39   10.10
  -1 -10  -3   41.20   10.90
  -1 -10  -3   51.39    9.60
  -1 -10  -3   34.40    8.40
  -1 -10  -3   39.30    7.20
  -1 -10  -3   49.00   14.00
   1  10   3   58.69   18.90
   1  10   3   49.20   11.10
   1  10   3   46.50    9.20
  -2 -10  -3  143.49   14.70
  -2 -10  -3  213.08   19.60
  -2 -10  -3  133.99   19.70
  -2 -10  -3  154.98   15.10
  -2 -10  -3  151.28   17.10
   2  10   3  153.28   17.40
   2  10   3  221.08   27.90
  -3 -10  -3   19.00    9.30
  -3 -10  -3   27.10   12.60
  -3 -10  -3   30.40    7.60
  -3 -10  -3   42.30   10.40
  -3 -10  -3   37.00   10.80
   3  10   3   30.10    8.70
   3  10   3   41.80    8.90
   3  10   3   56.19   15.60
  -4 -10  -3  122.39   14.10
  -4 -10  -3  124.89   17.90
  -4 -10  -3  123.79   17.80
  -4 -10  -3  151.78   17.30
   4  10   3  153.78   20.10
   4  10   3  120.39   15.50
   4  10   3  128.79   17.10
   4  10   3  144.39   14.70
  -5 -10  -3  104.79   14.10
  -5 -10  -3  132.89   16.30
  -5 -10  -3   95.99   18.00
  -5 -10  -3  113.79   14.60
   5  10   3  116.29   18.90
   5  10   3  114.69   14.20
   5  10   3  144.79   22.30
   5  10   3  103.89   12.30
   5  10   3  123.19   15.50
   5  10   3   98.89   17.70
  -6 -10  -3  107.59   14.60
  -6 -10  -3  127.09   21.20
  -6 -10  -3   99.79   13.30
  -6 -10  -3   99.19   15.10
   6  10   3  103.19   14.60
   6  10   3  107.19   15.50
   6  10   3  111.29   12.70
   6  10   3   83.19   12.70
  -7 -10  -3   76.19   24.80
  -7 -10  -3   65.29   13.70
  -7 -10  -3   86.09   15.00
   7  10   3   67.39   12.50
   7  10   3   85.19   11.70
   7  10   3   82.59   10.00
   7  10   3   16.60   23.60
   7  10   3   94.09   17.90
  -8 -10  -3   50.39   16.20
  -8 -10  -3   81.39   16.40
  -8 -10  -3   46.50   24.00
   8  10   3   66.69   10.60
   8  10   3   79.79   14.30
   1 -11  -3   -1.90   15.40
   1 -11  -3   -4.10    7.10
   1 -11  -3   -9.30   11.00
  -1  11   3   -5.40   26.60
   0 -11  -3   -0.60   13.00
   0 -11  -3  -23.90   12.30
   0 -11  -3    9.80    6.80
   0 -11  -3   25.20   26.10
   0  11   3   16.50   10.30
   0  11   3  -27.80   23.00
  -1 -11  -3    3.10    6.10
  -1 -11  -3   13.10   12.60
  -1 -11  -3    7.60    9.20
  -1 -11  -3   25.10   13.70
   1  11   3    9.40   21.10
   1  11   3   -7.10    7.70
  -2 -11  -3   20.40    7.10
  -2 -11  -3   21.40   13.90
  -2 -11  -3   13.40   11.40
   2  11   3    4.90   18.30
   2  11   3   40.20   23.00
   2  11   3   27.30    9.60
  -3 -11  -3    9.70   10.90
  -3 -11  -3   -1.30    7.00
  -3 -11  -3   36.00   15.00
  -3 -11  -3    3.00    6.90
   3  11   3    3.40   10.10
   3  11   3  -22.60   17.30
   3  11   3    0.30    8.10
  -4 -11  -3   54.99   13.00
  -4 -11  -3   74.59   18.10
  -4 -11  -3   33.70    8.50
  -4 -11  -3   54.19   13.00
   4  11   3   31.90   10.50
   4  11   3   29.90   17.60
   4  11   3   38.70   13.20
   4  11   3   28.80   13.20
  -5 -11  -3   69.69   17.60
  -5 -11  -3   39.10   13.60
  -5 -11  -3   32.40   13.30
   5  11   3   62.19   18.10
   5  11   3   31.80   16.40
   5  11   3   52.29   10.50
  -6 -11  -3   99.09   15.00
  -6 -11  -3  101.89   21.90
  -6 -11  -3   91.89   16.50
   6  11   3   64.39   11.90
   6  11   3   91.89   17.80
  -7 -11  -3   15.30   12.50
  -7 -11  -3   23.60   14.70
  -7 -11  -3  -38.20   20.40
   7  11   3    9.30    8.20
   7  11   3   18.30   10.40
  -1 -12  -3   19.00   19.50
  -1 -12  -3    3.40    7.20
  -1 -12  -3  -16.10   17.30
   1  12   3   -3.90   11.20
   1  12   3  -24.30   29.70
  -2 -12  -3   -7.60   14.40
  -2 -12  -3  -10.50    6.50
  -2 -12  -3   -9.40   17.70
   2  12   3   12.10   10.20
   2  12   3   -8.20   28.10
  -3 -12  -3   -1.10   13.40
  -3 -12  -3   -3.30   16.30
  -3 -12  -3   -3.70    7.50
   3  12   3    4.90   10.70
   3  12   3   -0.60   26.40
  -4 -12  -3   17.00   19.20
  -4 -12  -3   -2.40   10.20
   4  12   3    2.90   22.10
   4  12   3  -10.70    9.70
  -5 -12  -3   20.60   14.60
  -5 -12  -3   20.50   14.70
   5  12   3   -6.20   11.00
   5  12   3   15.80   18.50
   6  12   3    9.60   10.10
   4  11  -4   19.70   11.30
   3  11  -4   68.89   14.30
  -3 -11   4   73.89   14.80
  -3 -11   4   57.89   23.10
  -3 -11   4   62.39    8.80
  -2 -11   4   13.40    7.40
  -2 -11   4    9.00   11.70
  -2 -11   4   15.90   21.00
   6  10  -4  238.68   21.60
   6  10  -4  237.18   33.00
  -6 -10   4  258.77   30.60
  -6 -10   4  188.28   21.10
  -6 -10   4  221.68   33.00
   5  10  -4    6.80   17.90
   5  10  -4   11.60    9.40
  -5 -10   4   13.50    5.10
  -5 -10   4   10.40   14.00
  -5 -10   4   13.00    7.60
  -5 -10   4    4.00   18.80
   4  10  -4  262.77   22.50
   4  10  -4  218.48   30.70
  -4 -10   4  283.57   32.40
  -4 -10   4  242.78   17.10
  -4 -10   4  235.88   24.70
   3  10  -4   15.40    9.50
  -3 -10   4   18.00   10.80
  -3 -10   4   53.09   27.60
  -3 -10   4   30.70   11.10
  -3 -10   4   21.60   17.30
  -3 -10   4    8.10    5.10
  -2 -10   4  130.29   18.30
  -2 -10   4  125.19   22.40
  -2 -10   4  147.99   13.40
  -1 -10   4   11.40   16.20
  -1 -10   4   15.40    8.60
  -1 -10   4    2.80    5.80
   0 -10   4   29.00   10.50
   0 -10   4   46.80   17.20
   0 -10   4   55.09    9.30
   1 -10   4  -16.70   17.00
   1 -10   4   -5.20    7.80
   7   9  -4   73.69   17.60
   7   9  -4   49.90   20.80
  -7  -9   4   64.89   18.30
  -7  -9   4  105.09   16.40
  -7  -9   4   57.69   24.60
   6   9  -4  164.08   15.60
   6   9  -4   92.29   20.60
  -6  -9   4  101.39   22.80
  -6  -9   4  130.69   18.90
  -6  -9   4  136.69   13.10
  -6  -9   4  145.29   13.60
  -6  -9   4  160.78   20.00
   5   9  -4  185.78   17.10
   5   9  -4  184.38   26.10
  -5  -9   4  183.48   21.70
  -5  -9   4  194.58   14.20
  -5  -9   4  185.68   14.30
  -5  -9   4  164.68   17.00
  -5  -9   4  206.28   24.00
   4   9  -4  157.98   24.20
   4   9  -4  205.58   17.50
  -4  -9   4  220.48   16.10
  -4  -9   4  166.58   15.50
  -4  -9   4  207.58   13.70
  -4  -9   4  230.58   29.50
  -4  -9   4  197.38   25.50
  -4  -9   4  206.98   13.70
  -4  -9   4  223.78   20.70
  -4  -9   4  202.48   14.30
   3   9  -4  306.17   21.10
   3   9  -4  233.28   32.00
  -3  -9   4  285.97   21.80
  -3  -9   4  261.07   18.00
  -3  -9   4  250.67   28.30
  -3  -9   4  261.77   32.00
   2   9  -4  309.97   23.20
  -2  -9   4  318.47   24.40
  -2  -9   4  318.47   31.00
  -2  -9   4  275.67   20.50
  -2  -9   4  343.27   35.80
  -1  -9   4   89.39   17.10
  -1  -9   4   85.19   10.50
  -1  -9   4  106.59   13.80
   0  -9   4  127.19   13.10
   0  -9   4  108.49   14.50
   0  -9   4  149.69   18.80
  -1   9  -4   22.00   11.30
   1  -9   4   26.30    8.40
   1  -9   4   38.80   13.20
   1  -9   4   35.00    7.70
  -2   9  -4  159.38   23.00
   2  -9   4  162.98   16.60
   2  -9   4  152.98   11.70
   2  -9   4  139.09   18.60
   2  -9   4  116.29   17.10
  -3   9  -4  -18.70   12.20
   3  -9   4  -11.70    7.80
   3  -9   4    4.40   14.60
   8   8  -4   -8.00   15.60
   8   8  -4   -3.30    8.40
  -8  -8   4   22.80   16.70
  -8  -8   4  -16.80   12.80
  -8  -8   4   26.60   22.60
   7   8  -4   70.99   18.50
   7   8  -4   63.09    9.70
  -7  -8   4   75.09   14.80
  -7  -8   4   26.50   19.70
  -7  -8   4   71.39    9.70
  -7  -8   4   60.19   15.70
   6   8  -4    9.00    6.30
   6   8  -4    0.60   13.20
  -6  -8   4   -2.60   10.10
  -6  -8   4    9.10    8.80
  -6  -8   4  -20.20   16.40
  -6  -8   4   12.20    5.40
  -6  -8   4    5.90    5.20
   5   8  -4  162.18   14.60
   5   8  -4  217.98   26.30
  -5  -8   4  166.38   23.70
  -5  -8   4  180.18   24.00
  -5  -8   4  156.28   22.30
  -5  -8   4  169.48   12.80
  -5  -8   4  171.98   13.30
  -5  -8   4  162.08   19.30
   4   8  -4    2.80    5.40
   4   8  -4    5.00   12.50
  -4  -8   4   10.80    6.40
  -4  -8   4    8.80    2.80
  -4  -8   4   13.20   12.50
  -4  -8   4   17.30   10.40
  -4  -8   4    5.40    3.30
  -4  -8   4    9.90    3.40
  -4  -8   4    5.90    7.50
  -4  -8   4    8.80    3.80
   3   8  -4  337.27   22.90
   3   8  -4  285.27   30.50
  -3  -8   4  324.87   30.30
  -3  -8   4  345.97   20.60
  -3  -8   4  352.36   23.40
  -3  -8   4  351.46   29.90
  -3  -8   4  353.26   20.90
  -3  -8   4  271.67   25.50
   2   8  -4   13.60   11.90
   2   8  -4   11.50    6.30
  -2  -8   4    2.20   10.40
  -2  -8   4    4.40    3.90
  -2  -8   4    8.70    8.90
  -2  -8   4   -4.80   12.30
  -2  -8   4   -1.20    6.30
  -1  -8   4  289.67   21.70
  -1  -8   4  231.08   23.40
  -1  -8   4  285.27   30.90
  -1  -8   4  306.27   19.60
  -1  -8   4  322.07   26.90
   0   8  -4   -4.20    8.40
   0  -8   4    3.20    5.60
   0  -8   4   -1.80    3.80
   0  -8   4    4.40    9.30
   0  -8   4    9.30    9.80
  -1   8  -4   79.99   18.90
   1  -8   4   70.29   12.70
   1  -8   4   75.69   13.70
   1  -8   4   98.09   10.60
   1  -8   4   68.79    9.80
  -2   8  -4   42.30   11.50
   2  -8   4   26.00    4.10
   2  -8   4   25.80    8.90
   2  -8   4   23.90   11.30
   2  -8   4   22.50   10.60
   2  -8   4   20.40    7.10
   2  -8   4   18.80    7.00
  -3   8  -4   19.50   10.50
   3  -8   4    9.30    4.80
   3  -8   4   11.40    7.20
   3  -8   4  -14.40   14.70
   3  -8   4   10.70    7.30
   3  -8   4    5.30   17.10
   3  -8   4    5.00   10.70
   3  -8   4    7.80   20.40
  -4   8  -4   23.50   11.40
   4  -8   4   10.20    8.50
   4  -8   4   -0.10    8.80
   4  -8   4    2.80    6.10
   4  -8   4    6.60    5.90
   4  -8   4   -5.60    9.50
   9   7  -4  -18.30   16.10
   9   7  -4    0.90    9.70
   9   7  -4    8.50    8.70
  -9  -7   4  -16.40   14.50
  -9  -7   4  -13.80   17.20
  -9  -7   4  -18.30   23.50
   8   7  -4    3.90   14.30
   8   7  -4    9.20    8.40
   8   7  -4    6.20    5.70
  -8  -7   4  -53.69   18.90
  -8  -7   4   -8.70   11.00
  -8  -7   4   -3.30   14.10
   7   7  -4   -3.30    5.20
   7   7  -4    8.40    8.00
  -7  -7   4    4.00   11.40
  -7  -7   4    4.20    5.70
  -7  -7   4  -16.80    9.10
  -7  -7   4   19.10   17.50
   6   7  -4    6.90    6.30
   6   7  -4    4.60    5.20
   6   7  -4   -5.50   12.70
  -6  -7   4   -2.80    4.40
  -6  -7   4  -13.10   14.30
  -6  -7   4    7.90    4.60
  -6  -7   4    5.50    8.90
   5   7  -4   66.69    9.00
   5   7  -4   67.49   13.50
   5   7  -4   69.29    9.10
  -5  -7   4   79.39   11.80
  -5  -7   4   73.09   11.30
  -5  -7   4   73.79   10.40
  -5  -7   4   80.59    8.30
  -5  -7   4   74.39    7.50
  -5  -7   4   79.39   16.00
  -5  -7   4  116.89   13.70
   4   7  -4   58.89   13.80
   4   7  -4   74.19    8.20
  -4  -7   4   66.49    7.20
  -4  -7   4   72.59   11.40
  -4  -7   4   57.89    6.30
  -4  -7   4   72.89    9.00
  -4  -7   4   63.09    9.70
  -4  -7   4   80.39   15.40
  -4  -7   4   74.59   12.30
   3   7  -4   -5.30    3.70
   3   7  -4   -3.00    9.40
  -3  -7   4   -2.70    8.20
  -3  -7   4    2.40    2.30
  -3  -7   4   -0.60    4.20
  -3  -7   4   -2.10    6.30
  -3  -7   4    0.70    8.20
  -3  -7   4   -5.70    9.60
  -3  -7   4    2.10    2.20
  -3  -7   4   11.10    9.60
  -3  -7   4    3.40    2.40
  -3  -7   4    7.40    7.20
  -3  -7   4    0.30    5.20
   2   7  -4  343.47   21.90
   2   7  -4  261.17   26.80
  -2  -7   4  321.67   25.60
  -2  -7   4  341.27   28.50
  -2  -7   4  360.56   27.50
  -2  -7   4  332.07   23.20
  -2  -7   4  265.37   23.50
  -2  -7   4  347.27   20.60
  -2  -7   4  354.36   25.80
  -1  -7   4   74.39   11.10
  -1  -7   4   63.39   15.00
  -1  -7   4   87.19   12.20
  -1  -7   4   68.79    9.90
  -1  -7   4   68.69    9.70
  -1  -7   4   66.09    7.20
  -1  -7   4   59.99   10.60
  -1  -7   4   62.29   10.00
   0   7  -4   76.19   12.50
   0  -7   4   93.09   17.30
   0  -7   4   76.79   11.20
   0  -7   4   83.49   11.60
   0  -7   4   71.59    8.40
   0  -7   4   70.99    9.60
   0  -7   4   94.09   13.40
   0  -7   4   71.49   11.80
  -1   7  -4    2.80    6.60
   1  -7   4   12.40    8.60
   1  -7   4   10.10   16.70
   1  -7   4   17.90    5.10
   1  -7   4   21.20    5.90
   1  -7   4   30.40    8.70
   1  -7   4   19.20    7.50
   1  -7   4   13.30    7.90
  -2   7  -4  209.58   18.30
   2  -7   4  138.69   14.10
   2  -7   4  169.28   14.50
   2  -7   4  168.78   11.30
   2  -7   4  154.58   14.10
   2  -7   4  187.18   19.00
  -3   7  -4  155.58   20.80
   3  -7   4  131.59   18.30
   3  -7   4  152.38   11.00
   3  -7   4  132.69   10.70
   3  -7   4  129.59   19.20
   3  -7   4  145.09   14.30
   3  -7   4  106.69   18.00
   3  -7   4  120.59   16.10
   3  -7   4  134.99   13.60
  -4   7  -4   54.09   11.50
   4  -7   4   59.79   12.80
   4  -7   4   39.60   16.30
   4  -7   4   70.09   10.00
   4  -7   4   46.90   13.00
   4  -7   4   38.50    9.20
   4  -7   4   21.30   10.70
   4  -7   4   65.79    8.10
   4  -7   4   55.19    7.10
  -5   7  -4   32.50   10.70
   5  -7   4   17.90    9.40
   5  -7   4   15.40    8.80
   5  -7   4   14.80    7.10
   5  -7   4   11.50    6.80
   5  -7   4    3.70   13.80
   9   6  -4   61.09   18.30
   9   6  -4   55.49   11.70
   9   6  -4   56.49   10.90
  -9  -6   4   51.29   15.80
  -9  -6   4    8.20   23.60
  -9  -6   4   60.79   19.50
   8   6  -4   45.20    8.60
   8   6  -4   33.90    7.80
   8   6  -4   27.70   13.70
   8   6  -4   40.70   10.70
   8   6  -4   52.29    9.90
  -8  -6   4   29.30   19.30
  -8  -6   4   20.40   19.10
  -8  -6   4   41.20   10.20
  -8  -6   4   14.30   11.30
   7   6  -4  134.89   12.80
   7   6  -4  139.79   13.50
   7   6  -4  168.38   21.60
   7   6  -4  114.89   12.70
  -7  -6   4  137.29   18.10
  -7  -6   4  183.18   20.00
  -7  -6   4  134.39   13.30
  -7  -6   4  139.99   22.60
   6   6  -4   20.30    5.40
   6   6  -4   26.40   10.20
   6   6  -4   21.20    6.80
  -6  -6   4   38.90   15.60
  -6  -6   4   21.60    8.40
  -6  -6   4   17.30    8.10
  -6  -6   4   22.00    4.90
  -6  -6   4   26.00    5.40
  -6  -6   4   17.80    9.20
   5   6  -4   90.29   10.80
   5   6  -4   87.59   10.10
   5   6  -4   90.69   14.80
   5   6  -4  110.59    9.60
  -5  -6   4  101.09   12.60
  -5  -6   4  106.99   13.40
  -5  -6   4  101.19   12.20
  -5  -6   4   91.09   13.40
  -5  -6   4   94.09   11.40
  -5  -6   4   97.29    8.90
  -5  -6   4  120.19   20.90
  -5  -6   4  104.69   16.90
  -5  -6   4   94.69    8.30
   4   6  -4   36.60    5.40
   4   6  -4   33.60    5.30
   4   6  -4   53.29    6.00
   4   6  -4   30.60    9.90
  -4  -6   4   32.00    6.90
  -4  -6   4   40.30    5.60
  -4  -6   4   28.70    9.10
  -4  -6   4   29.60    7.50
  -4  -6   4   37.60    9.30
  -4  -6   4   34.90    4.40
  -4  -6   4   40.60   10.00
  -4  -6   4   41.70    8.00
  -4  -6   4   51.89    9.90
  -4  -6   4   47.10    7.40
   3   6  -4   38.50    9.50
   3   6  -4   56.69    6.90
  -3  -6   4   52.69    7.70
  -3  -6   4   61.29    5.80
  -3  -6   4   56.69    4.50
  -3  -6   4   56.39    5.00
  -3  -6   4   82.79   12.00
  -3  -6   4   56.89    7.50
  -3  -6   4   55.59    5.50
  -3  -6   4   74.49   11.90
  -3  -6   4   57.49   10.30
  -3  -6   4   63.29    8.20
  -3  -6   4   76.49   11.00
  -3  -6   4   56.39    8.00
   2   6  -4   13.60    3.80
   2   6  -4    7.20    7.40
  -2  -6   4   11.30    4.10
  -2  -6   4   13.20    3.30
  -2  -6   4    7.80    7.80
  -2  -6   4    8.10    5.70
  -2  -6   4    9.00    6.50
  -2  -6   4   18.30    8.90
  -2  -6   4   16.80    6.50
  -2  -6   4   10.00    2.60
   1   6  -4    0.10    6.30
  -1  -6   4    5.50    4.40
  -1  -6   4   10.40    5.40
  -1  -6   4   -1.40    8.60
  -1  -6   4    6.70    6.10
  -1  -6   4   11.00    4.00
  -1  -6   4    5.10    6.40
  -1  -6   4    3.90    6.00
  -1  -6   4    5.50    2.70
   0   6  -4   71.69   12.50
   0   6  -4   66.29   10.30
   0  -6   4   77.49    7.90
   0  -6   4   68.09   10.40
   0  -6   4   77.39   15.00
   0  -6   4   77.09    7.50
   0  -6   4   67.59    8.90
   0  -6   4   77.99   10.20
   0  -6   4   97.19   11.20
   0  -6   4   83.79   12.10
  -1   6  -4   61.89    8.90
  -1   6  -4   52.19   10.30
   1  -6   4   54.09    8.70
   1  -6   4   69.49   11.60
   1  -6   4   68.59    7.80
   1  -6   4   59.59    7.40
   1  -6   4   46.40    9.50
   1  -6   4   37.30   13.20
   1  -6   4   79.69   11.30
  -2   6  -4   72.69   10.80
  -2   6  -4   68.79   11.70
   2  -6   4   73.69   10.60
   2  -6   4   66.19   10.40
   2  -6   4   69.69    8.80
   2  -6   4   38.10   14.10
   2  -6   4   75.29    8.60
   2  -6   4   64.89    8.60
  -3   6  -4   39.70    8.30
  -3   6  -4   34.80    9.20
   3  -6   4   31.30    7.50
   3  -6   4   15.40    5.60
   3  -6   4   24.50   12.90
   3  -6   4   -8.90   10.60
   3  -6   4   22.30    4.00
   3  -6   4   11.30    7.90
   3  -6   4   25.00    7.70
   3  -6   4   21.50    6.00
   3  -6   4   20.20    4.40
  -4   6  -4   12.40    7.70
   4  -6   4    8.70    4.80
   4  -6   4   -1.30    8.20
   4  -6   4   11.60    9.30
   4  -6   4    6.80    9.30
   4  -6   4   10.70    4.20
   4  -6   4    3.90    5.80
   4  -6   4   13.50    5.80
   4  -6   4   26.80   13.90
  -5   6  -4    0.20    5.60
  -5   6  -4   -7.90    7.70
  -5   6  -4   -6.50   10.70
   5  -6   4    0.30    6.00
   5  -6   4   -4.30    5.90
   5  -6   4  -10.20   10.80
   5  -6   4    7.50    5.10
   5  -6   4    5.40   10.20
   5  -6   4    0.20    6.50
   5  -6   4    7.40   16.30
   5  -6   4   11.10   12.30
  -6   6  -4    9.10    9.70
   6  -6   4   23.40    7.90
   6  -6   4   10.40    7.10
   6  -6   4    0.60    7.80
   6  -6   4    0.70    8.40
   9   5  -4  161.68   18.10
   9   5  -4  190.48   27.60
   9   5  -4  160.28   20.30
   9   5  -4  129.99   18.30
  -9  -5   4  170.08   29.00
  -9  -5   4  145.69   23.60
  -9  -5   4  149.39   23.00
   8   5  -4  107.09   13.40
   8   5  -4   93.19   13.00
   8   5  -4  127.99   18.00
   8   5  -4  140.39   19.40
   8   5  -4  124.69   13.70
  -8  -5   4  111.99   15.00
  -8  -5   4  119.39   23.00
  -8  -5   4  109.39   17.10
   7   5  -4  444.56   31.80
   7   5  -4  519.25   31.70
   7   5  -4  518.95   31.70
   7   5  -4  454.05   33.20
   7   5  -4  503.05   37.90
  -7  -5   4  511.05   36.90
  -7  -5   4  446.36   36.20
  -7  -5   4  484.65   32.10
  -7  -5   4  513.15   42.50
   6   5  -4  124.59   10.00
   6   5  -4  137.09   18.10
   6   5  -4   93.79   10.90
   6   5  -4  104.69   10.30
  -6  -5   4  116.39    9.50
  -6  -5   4  108.19   13.20
  -6  -5   4  120.49   14.70
  -6  -5   4  109.79   17.90
  -6  -5   4  106.29   15.10
  -6  -5   4  127.59   16.80
  -6  -5   4  115.29    9.90
  -6  -5   4  114.79   10.60
   5   5  -4  714.33   41.30
   5   5  -4  698.33   42.20
   5   5  -4  671.03   43.50
   5   5  -4  733.03   47.40
   5   5  -4  715.13   41.50
   5   5  -4  621.44   44.90
   5   5  -4  696.13   43.10
  -5  -5   4  717.63   42.50
  -5  -5   4  673.53   41.70
  -5  -5   4  726.63   43.80
  -5  -5   4  689.03   43.20
  -5  -5   4  630.84   48.00
  -5  -5   4  697.03   45.00
  -5  -5   4  691.73   45.00
  -5  -5   4  770.42   46.20
   4   5  -4  269.67   17.30
   4   5  -4  269.57   18.10
   4   5  -4  245.88   21.70
   4   5  -4  251.67   17.60
  -4  -5   4  238.88   22.80
  -4  -5   4  292.37   22.30
  -4  -5   4  264.07   17.20
  -4  -5   4  250.27   20.20
  -4  -5   4  250.77   16.50
  -4  -5   4  294.07   19.10
  -4  -5   4  266.87   19.50
  -4  -5   4  262.77   19.40
  -4  -5   4  255.47   19.20
  -4  -5   4  267.87   21.00
   3   5  -4  773.92   45.00
   3   5  -4  741.83   49.50
   3   5  -4  777.32   45.40
   3   5  -4  676.53   44.90
  -3  -5   4  819.72   48.70
  -3  -5   4  719.03   44.60
  -3  -5   4  781.72   49.90
  -3  -5   4  741.23   49.30
  -3  -5   4  803.62   45.10
  -3  -5   4  789.52   46.60
  -3  -5   4  748.93   50.39
  -3  -5   4  754.92   46.30
  -3  -5   4  795.22   46.70
   2   5  -4   71.79    6.80
   2   5  -4   63.59   10.70
   2   5  -4   84.69   11.40
  -2  -5   4   84.69    8.30
  -2  -5   4   65.79    9.70
  -2  -5   4   87.89   10.60
  -2  -5   4   69.79    7.20
  -2  -5   4   78.79    6.80
  -2  -5   4   84.39   11.10
  -2  -5   4   75.89    5.30
  -2  -5   4   79.29    5.60
  -2  -5   4   76.79    5.50
  -2  -5   4   71.99    7.90
  -2  -5   4   99.49   12.50
   1   5  -4  130.09   13.20
   1   5  -4  103.09   12.90
  -1  -5   4  117.39    8.40
  -1  -5   4  128.49    9.90
  -1  -5   4  106.69   10.10
  -1  -5   4  121.09   13.00
  -1  -5   4  100.49   14.70
  -1  -5   4  121.59   12.50
  -1  -5   4  119.49   11.70
   0   5  -4   42.60    7.00
   0   5  -4   49.30    8.70
   0   5  -4   62.89   10.40
   0  -5   4   45.80    6.60
   0  -5   4   57.69    5.80
   0  -5   4   53.09    6.40
   0  -5   4   53.69    8.30
   0  -5   4   65.19    8.20
   0  -5   4   65.39   12.30
   0  -5   4   53.39    8.20
   0  -5   4   44.00    6.70
  -1   5  -4   83.29    9.40
  -1   5  -4   76.59   11.30
   1  -5   4   86.59    7.70
   1  -5   4   84.89    9.40
   1  -5   4   72.19    9.70
   1  -5   4   77.69   14.30
   1  -5   4   78.09    9.80
   1  -5   4   72.79    7.30
   1  -5   4   62.09   10.00
  -2   5  -4   52.19    9.80
  -2   5  -4   55.09    8.10
   2  -5   4   33.70    4.20
   2  -5   4   28.90    8.50
   2  -5   4   35.40    6.90
   2  -5   4   36.50    6.90
   2  -5   4   36.50    5.80
   2  -5   4   26.20   11.40
   2  -5   4   47.80    6.50
   2  -5   4   39.80    5.70
   2  -5   4   52.49    6.30
  -3   5  -4    0.90    6.60
  -3   5  -4    8.20    5.20
   3  -5   4    0.40    3.30
   3  -5   4    2.60    5.20
   3  -5   4  -22.20   11.90
   3  -5   4    4.00    5.40
   3  -5   4   -1.40    2.50
   3  -5   4   -2.40    4.10
   3  -5   4   -7.30    5.40
   3  -5   4    4.20    4.10
   3  -5   4    7.10    6.10
  -4   5  -4    1.90    3.00
  -4   5  -4    4.60    3.70
  -4   5  -4    6.40    5.70
  -4   5  -4    0.60    7.00
  -4   5  -4    4.50    6.00
   4  -5   4    9.70   11.60
   4  -5   4   -0.90    4.60
   4  -5   4   14.60   11.80
   4  -5   4    4.40    4.60
   4  -5   4    7.20    4.10
   4  -5   4    6.40    7.50
   4  -5   4   25.40    7.40
   4  -5   4    5.50    3.50
  -5   5  -4   10.20    8.30
  -5   5  -4   12.10    7.60
  -5   5  -4   -8.70    5.30
  -5   5  -4    6.80    7.40
   5  -5   4    0.30    5.60
   5  -5   4   -8.60    7.40
   5  -5   4   -1.40    4.00
   5  -5   4   -7.10    9.10
   5  -5   4   -1.10    9.00
   5  -5   4    0.20    6.00
   5  -5   4   -4.70   13.80
   5  -5   4   -1.20    5.60
  -6   5  -4   -5.40    8.40
  -6   5  -4    0.50    7.70
  -6   5  -4   -8.40    8.10
   6  -5   4    4.50   11.50
   6  -5   4  -11.80    7.20
   6  -5   4   -2.00   16.20
   6  -5   4    4.00    7.60
   6  -5   4    0.60    5.20
   6  -5   4    5.60    6.90
   6  -5   4    1.40   10.00
  -7   5  -4  -12.60   10.00
   7  -5   4    0.40    8.50
   7  -5   4  -15.60    9.50
   7  -5   4   10.70   10.80
  10   4  -4   75.39   20.80
 -10  -4   4   89.19   30.30
   9   4  -4    6.70   14.30
   9   4  -4   -4.50    9.30
   9   4  -4   11.40   11.20
  -9  -4   4   -4.00   14.90
  -9  -4   4   12.10   16.40
  -9  -4   4   -8.50   21.60
   8   4  -4  497.45   37.30
   8   4  -4  433.56   30.50
   8   4  -4  388.76   31.50
   8   4  -4  475.35   29.80
   8   4  -4  455.85   32.70
  -8  -4   4  481.55   43.60
  -8  -4   4  437.96   31.20
  -8  -4   4  338.67   43.30
   7   4  -4    2.00    6.50
   7   4  -4    3.50    5.70
   7   4  -4   -1.40    4.70
   7   4  -4   -6.30    6.00
   7   4  -4    8.90    9.90
  -7  -4   4    0.40    5.00
  -7  -4   4  -11.30   12.40
  -7  -4   4    9.10    8.50
  -7  -4   4  -10.50    8.90
  -7  -4   4   -7.00    7.80
   6   4  -4 1386.06   76.69
   6   4  -4 1267.77   76.69
   6   4  -4 1113.09   78.99
   6   4  -4 1376.26   76.39
   6   4  -4 1326.07   77.79
   6   4  -4 1175.08   78.39
   6   4  -4 1344.07   81.09
  -6  -4   4 1322.57   76.89
  -6  -4   4 1270.07   82.49
  -6  -4   4 1186.78   75.69
  -6  -4   4 1389.76   79.19
  -6  -4   4 1267.57   79.69
  -6  -4   4 1364.36   77.69
  -6  -4   4 1248.38   79.49
   5   4  -4   37.20    5.10
   5   4  -4   40.20    9.70
   5   4  -4   34.60    5.00
   5   4  -4   30.70    7.60
   5   4  -4   35.90    5.20
   5   4  -4   42.00    6.90
  -5  -4   4   34.70    4.70
  -5  -4   4   31.70    5.20
  -5  -4   4   33.50    7.60
  -5  -4   4   35.90   11.00
  -5  -4   4   35.20    6.50
  -5  -4   4   52.19    9.00
  -5  -4   4   19.60    7.00
   4   4  -4 2292.27  123.09
   4   4  -4 2093.29  123.29
   4   4  -4 2053.89  124.49
   4   4  -4 2192.38  127.19
   4   4  -4 2142.09  122.89
   4   4  -4 2115.19  124.19
  -4  -4   4 2113.19  125.39
  -4  -4   4 2023.80  122.99
  -4  -4   4 2069.59  123.69
  -4  -4   4 2174.68  124.49
  -4  -4   4 2135.19  125.69
  -4  -4   4 2060.79  127.89
  -4  -4   4 2223.98  126.19
   3   4  -4   12.10    3.10
   3   4  -4   12.20    2.80
   3   4  -4    9.40    3.50
   3   4  -4   10.30    5.00
   3   4  -4    9.60    5.90
  -3  -4   4   13.70    2.60
  -3  -4   4   20.10    5.20
  -3  -4   4   10.20    2.10
  -3  -4   4   12.00    3.80
  -3  -4   4    9.90    3.80
  -3  -4   4    3.80    4.10
  -3  -4   4    6.10    5.70
  -3  -4   4    5.50    3.90
  -3  -4   4   10.30    6.40
  -3  -4   4   -0.40    6.00
   2   4  -4 1981.50  118.99
   2   4  -4 2105.19  115.09
   2   4  -4 1925.21  114.79
   2   4  -4 2027.70  115.39
   2   4  -4 1987.90  118.59
  -2  -4   4 1887.41  120.69
  -2  -4   4 1949.70  118.29
  -2  -4   4 1957.70  114.69
  -2  -4   4 2053.29  114.99
  -2  -4   4 2077.99  116.29
  -2  -4   4 2067.59  115.99
  -2  -4   4 2062.39  116.19
  -2  -4   4 1721.23  116.29
  -2  -4   4 2054.99  118.59
  -2  -4   4 2280.67  118.29
  -2  -4   4 1781.82  114.69
   1   4  -4  163.68   15.60
   1   4  -4  194.48   16.50
  -1  -4   4  196.38   15.30
  -1  -4   4  194.48   12.20
  -1  -4   4  217.08   13.20
  -1  -4   4  215.98   16.40
  -1  -4   4  190.78   13.60
  -1  -4   4  193.08   12.50
  -1  -4   4  190.98   11.80
  -1  -4   4  216.48   15.80
  -1  -4   4  203.28   17.90
  -1  -4   4  201.48   13.70
   0   4  -4 1320.27   74.19
   0   4  -4 1106.99   72.09
   0  -4   4 1268.07   70.89
   0  -4   4 1287.47   75.59
   0  -4   4 1207.98   71.59
   0  -4   4 1177.08   71.99
   0  -4   4 1219.28   70.59
   0  -4   4 1019.90   71.09
   0  -4   4 1302.77   73.39
  -1   4  -4   24.30    4.60
  -1   4  -4   22.00    6.30
   1  -4   4   21.20    3.20
   1  -4   4   27.70    3.70
   1  -4   4   26.60    5.30
   1  -4   4   17.60    4.40
   1  -4   4   12.70    6.00
   1  -4   4   25.40    8.50
   1  -4   4   25.10    3.70
   1  -4   4   24.80    3.60
  -2   4  -4  320.67   23.40
  -2   4  -4  329.57   21.90
   2  -4   4  330.97   21.30
   2  -4   4  308.17   19.60
   2  -4   4  315.27   20.80
   2  -4   4  345.07   20.50
   2  -4   4  280.07   24.20
   2  -4   4  352.16   20.90
   2  -4   4  336.17   27.20
   2  -4   4  335.07   21.90
   2  -4   4  298.17   22.50
  -3   4  -4   55.79    7.50
  -3   4  -4   40.80    7.70
  -3   4  -4   43.10    4.80
  -3   4  -4   42.00    5.00
  -3   4  -4   43.40    6.40
   3  -4   4   48.80    5.10
   3  -4   4   36.10    5.50
   3  -4   4   48.20    6.80
   3  -4   4   56.69    5.80
   3  -4   4   49.10    7.30
   3  -4   4   47.80   11.90
   3  -4   4   44.00    7.70
  -4   4  -4   60.09    9.20
  -4   4  -4   89.09    7.90
  -4   4  -4   82.19   10.60
  -4   4  -4   60.59    7.80
  -4   4  -4   68.29    9.90
   4  -4   4   76.69    7.20
   4  -4   4   74.69    8.90
   4  -4   4   81.69   11.00
   4  -4   4   54.99   14.20
   4  -4   4   95.69   10.40
   4  -4   4   89.69    9.00
   4  -4   4   78.09    8.00
   4  -4   4   53.19   13.40
   4  -4   4   82.99   10.70
  -5   4  -4    7.40    5.70
  -5   4  -4    2.50    5.80
  -5   4  -4    7.00    6.70
  -5   4  -4    6.90    5.20
   5  -4   4   27.60   11.60
   5  -4   4    4.50    4.00
   5  -4   4   -0.60    4.50
   5  -4   4    3.10    4.90
   5  -4   4   -0.60    5.20
   5  -4   4    5.50    6.20
   5  -4   4    6.00    7.50
   5  -4   4    7.00    8.60
  -6   4  -4    1.60    7.40
  -6   4  -4    5.90    8.30
  -6   4  -4   13.40    6.80
   6  -4   4   15.20   10.20
   6  -4   4   -5.40    5.60
   6  -4   4   17.30    6.20
   6  -4   4   -5.80    7.50
   6  -4   4    8.80    6.70
   6  -4   4    1.20   13.70
   6  -4   4  -19.40   11.30
   6  -4   4    4.00    4.80
  -7   4  -4    3.90    8.80
  -7   4  -4    6.30    9.00
   7  -4   4    0.20    9.00
   7  -4   4  -22.30   19.50
   7  -4   4    4.30    6.40
   7  -4   4   14.30   10.90
   7  -4   4   -4.20   15.70
   7  -4   4    7.50    8.00
   7  -4   4   -5.20    8.10
  -8   4  -4    3.30   12.10
   8  -4   4    6.30   10.20
   8  -4   4   20.70   11.50
   8  -4   4  -15.90    8.40
   8  -4   4   12.70   11.30
  10   3  -4   27.40   12.90
  10   3  -4   50.39   19.70
  10   3  -4   17.10   13.70
 -10  -3   4    0.40   18.60
 -10  -3   4   62.69   27.90
 -10  -3   4   19.10   19.00
   9   3  -4   82.89   14.00
   9   3  -4   98.69   11.20
   9   3  -4   77.59   13.00
   9   3  -4  106.29   19.80
  -9  -3   4  101.99   18.70
  -9  -3   4   81.79   17.60
  -9  -3   4  102.79   27.80
  -9  -3   4   84.89   19.00
  -9  -3   4   88.29   14.60
   8   3  -4  104.39   13.20
   8   3  -4  143.29   17.30
   8   3  -4  122.19   20.90
   8   3  -4  119.39   10.10
  -8  -3   4  111.59   14.30
  -8  -3   4  145.59   20.10
  -8  -3   4  115.89   18.20
  -8  -3   4  143.59   17.40
  -8  -3   4  106.19   24.20
   7   3  -4  467.75   34.50
   7   3  -4  454.25   29.70
   7   3  -4  356.96   27.60
   7   3  -4  399.56   29.10
   7   3  -4  386.96   24.90
  -7  -3   4  483.35   35.20
  -7  -3   4  381.76   29.50
  -7  -3   4  464.95   37.40
  -7  -3   4  402.96   27.60
  -7  -3   4  419.16   32.80
  -7  -3   4  420.86   32.30
  -7  -3   4  454.35   29.70
   6   3  -4  441.26   31.00
   6   3  -4  497.85   33.80
   6   3  -4  422.96   28.90
   6   3  -4  393.86   28.00
   6   3  -4  454.65   29.60
   6   3  -4  389.46   31.30
  -6  -3   4  424.06   31.70
  -6  -3   4  415.16   27.20
  -6  -3   4  469.65   35.70
  -6  -3   4  472.45   30.20
  -6  -3   4  422.86   31.60
  -6  -3   4  440.46   28.70
  -6  -3   4  476.85   29.70
  -6  -3   4  435.46   28.50
   5   3  -4 1195.08   77.79
   5   3  -4 1438.66   82.19
   5   3  -4 1372.56   79.09
   5   3  -4 1310.17   78.39
   5   3  -4 1378.36   77.59
   5   3  -4 1294.77   80.49
   5   3  -4 1296.37   79.79
  -5  -3   4 1297.17   78.19
  -5  -3   4 1241.48   77.29
  -5  -3   4 1284.57   82.69
  -5  -3   4 1333.47   80.69
  -5  -3   4 1436.16   80.09
  -5  -3   4 1361.06   78.89
  -5  -3   4 1311.07   80.49
   4   3  -4 1070.69   64.19
   4   3  -4 1072.39   61.39
   4   3  -4 1037.00   63.19
   4   3  -4 1141.59   65.49
   4   3  -4 1077.79   61.89
   4   3  -4 1011.80   62.59
   4   3  -4  992.50   61.69
  -4  -3   4 1045.70   61.99
  -4  -3   4  993.40   63.89
  -4  -3   4 1103.29   63.99
  -4  -3   4 1117.79   62.69
  -4  -3   4 1025.30   63.69
  -4  -3   4 1005.30   61.29
  -4  -3   4  998.00   65.79
   3   3  -4 1725.23  109.89
   3   3  -4 1881.31  109.19
   3   3  -4 1770.12  112.49
   3   3  -4 1933.21  110.49
   3   3  -4 1962.20  112.59
   3   3  -4 1974.10  109.99
  -3  -3   4 1867.21  110.89
  -3  -3   4 1999.20  111.89
  -3  -3   4 1921.61  109.79
  -3  -3   4 1846.52  112.99
  -3  -3   4 1873.31  111.39
  -3  -3   4 1970.00  110.29
   2   3  -4 2624.54  147.79
   2   3  -4 2423.36  147.69
   2   3  -4 2767.32  150.38
   2   3  -4 2533.65  150.68
  -2  -3   4 2582.14  147.79
  -2  -3   4 2414.86  147.09
  -2  -3   4 2503.15  150.28
  -2  -3   4 2740.53  149.99
  -2  -3   4 2471.85  147.39
  -2  -3   4 2472.55  147.99
  -2  -3   4 2629.54  148.89
  -2  -3   4 2538.25  147.99
  -2  -3   4 2617.44  148.29
   1   3  -4 3059.49  179.08
   1   3  -4 3212.18  178.98
   1   3  -4 3318.97  182.48
   1   3  -4 3059.99  181.48
  -1  -3   4 3328.37  181.68
  -1  -3   4 3147.29  179.48
  -1  -3   4 3040.10  179.58
  -1  -3   4 3290.27  179.98
  -1  -3   4 3000.50  179.18
  -1  -3   4 2988.10  178.88
  -1  -3   4 2732.23  179.08
  -1  -3   4 3244.18  181.78
   0   3  -4 1624.54   94.59
   0   3  -4 1376.36   92.69
   0  -3   4 1560.94   91.19
   0  -3   4 1716.63   91.39
   0  -3   4 1548.65   94.19
   0  -3   4 1639.84   91.89
   0  -3   4 1727.43   91.69
   0  -3   4 1651.33   91.69
   0  -3   4 1609.24   93.09
   0  -3   4 1318.57   91.89
   0  -3   4 1595.74   92.59
   0  -3   4 1640.64   96.39
  -1   3  -4  809.22   58.19
  -1   3  -4  980.20   57.59
  -1   3  -4 1021.80   57.39
  -1   3  -4  910.01   57.79
   1  -3   4  928.21   56.79
   1  -3   4  982.60   56.29
   1  -3   4  971.80   55.59
   1  -3   4  984.90   56.49
   1  -3   4  884.11   59.29
   1  -3   4  993.40   55.89
   1  -3   4  996.20   55.89
   1  -3   4  972.70   56.09
   1  -3   4 1017.60   61.29
  -2   3  -4 1024.20   61.29
  -2   3  -4 1096.19   61.39
  -2   3  -4 1097.39   63.09
  -2   3  -4 1012.50   62.79
   2  -3   4 1077.29   62.29
   2  -3   4 1079.69   62.49
   2  -3   4 1022.70   62.19
   2  -3   4 1104.89   67.09
   2  -3   4 1028.20   62.19
   2  -3   4  944.51   64.99
   2  -3   4 1112.59   61.69
  -3   3  -4  328.87   24.70
  -3   3  -4  358.86   22.90
  -3   3  -4  368.56   22.50
  -3   3  -4  339.27   22.20
  -3   3  -4  358.36   24.10
   3  -3   4  357.76   23.00
   3  -3   4  366.06   23.90
   3  -3   4  389.26   22.80
   3  -3   4  353.36   28.60
   3  -3   4  363.96   22.20
   3  -3   4  362.16   24.00
   3  -3   4  375.96   23.40
   3  -3   4  375.06   22.60
  -4   3  -4  272.47   20.10
  -4   3  -4  258.37   17.90
  -4   3  -4  243.18   19.20
  -4   3  -4  245.18   17.70
  -4   3  -4  279.47   17.90
   4  -3   4  271.27   19.50
   4  -3   4  261.17   17.70
   4  -3   4  275.77   17.80
   4  -3   4  268.17   19.90
   4  -3   4  255.27   18.40
   4  -3   4  262.57   18.00
   4  -3   4  278.87   24.90
   4  -3   4  268.57   17.20
   4  -3   4  231.88   24.30
  -5   3  -4   23.70    7.10
  -5   3  -4   28.00    4.20
  -5   3  -4   39.80    7.90
  -5   3  -4   24.10    6.10
  -5   3  -4   23.20    5.70
  -5   3  -4   26.20    5.70
   5  -3   4   35.10    6.10
   5  -3   4   24.50    7.30
   5  -3   4   21.00    8.00
   5  -3   4   33.40    5.50
   5  -3   4   28.60   11.50
   5  -3   4   21.00    4.40
   5  -3   4   29.40    5.90
   5  -3   4   21.20   13.00
   5  -3   4   32.00    6.00
  -6   3  -4   49.80    9.00
  -6   3  -4   45.50    9.40
  -6   3  -4   64.29    8.50
  -6   3  -4   38.10    7.70
  -6   3  -4   48.60    6.30
  -6   3  -4   43.30    8.30
   6  -3   4   51.89    8.50
   6  -3   4   31.70   14.20
   6  -3   4   59.19    7.70
   6  -3   4   49.50   11.70
   6  -3   4   54.09    8.30
   6  -3   4   51.99    8.30
   6  -3   4   47.80   10.30
  -7   3  -4    8.20    7.70
  -7   3  -4    4.10    7.80
  -7   3  -4    0.70    6.60
  -7   3  -4   -2.40    4.60
  -7   3  -4   -0.90    8.30
   7  -3   4   -2.20    5.40
   7  -3   4   10.40    7.40
   7  -3   4   -1.50    7.00
   7  -3   4   26.80   12.60
   7  -3   4  -17.00   16.00
   7  -3   4   17.70    8.00
  -8   3  -4   13.50    8.70
  -8   3  -4   12.50    8.80
  -8   3  -4   -2.00   10.40
   8  -3   4    9.90   10.20
   8  -3   4   -2.40    8.20
   8  -3   4    2.10    7.40
   8  -3   4   -7.80   19.70
  10   2  -4   26.50   21.70
  10   2  -4   10.30   13.70
  10   2  -4  -12.30   12.60
  10   2  -4   -0.70   10.00
 -10  -2   4  -16.20   28.10
 -10  -2   4   11.00   19.20
 -10  -2   4   34.70   21.20
   9   2  -4   56.99   11.80
   9   2  -4   64.49    9.60
   9   2  -4   50.99   11.60
   9   2  -4   58.69   21.40
  -9  -2   4   50.59   23.40
  -9  -2   4   46.00   12.20
  -9  -2   4   67.29   13.20
  -9  -2   4   41.50   16.50
  -9  -2   4   63.69   17.70
  -9  -2   4   68.09   14.00
   8   2  -4   12.20    8.50
   8   2  -4    1.90    6.50
   8   2  -4    6.90    5.90
  -8  -2   4   -9.10    9.90
  -8  -2   4   10.60    8.70
  -8  -2   4    1.80    6.80
  -8  -2   4  -15.70   15.50
  -8  -2   4   -0.10   10.80
  -8  -2   4   -3.30    9.10
   7   2  -4  197.68   17.30
   7   2  -4  178.98   13.40
   7   2  -4  145.29   16.80
   7   2  -4  133.39   14.20
   7   2  -4  169.48   22.10
   7   2  -4  161.88   20.30
  -7  -2   4  201.28   23.90
  -7  -2   4  162.88   14.30
  -7  -2   4  136.09   19.60
  -7  -2   4  131.59   16.10
  -7  -2   4  198.58   16.90
  -7  -2   4  183.68   20.20
   6   2  -4   90.49   12.40
   6   2  -4   61.79    8.60
   6   2  -4   75.39   10.90
   6   2  -4   74.89   12.00
   6   2  -4   64.99    9.20
   6   2  -4   65.89    9.10
   6   2  -4   70.59   10.10
  -6  -2   4   80.79   11.30
  -6  -2   4   82.29   12.90
  -6  -2   4   85.89   10.70
  -6  -2   4   62.79   11.20
  -6  -2   4   80.39   11.30
  -6  -2   4   74.39    7.40
  -6  -2   4   75.89   15.80
  -6  -2   4   66.29    8.40
   5   2  -4 1594.74   88.09
   5   2  -4 1481.45   91.49
   5   2  -4 1435.06   91.59
   5   2  -4 1523.35   93.29
   5   2  -4 1547.55   90.59
   5   2  -4 1508.05   90.19
  -5  -2   4 1497.75   89.69
  -5  -2   4 1664.03   90.49
  -5  -2   4 1516.05   92.29
  -5  -2   4 1468.45   91.99
  -5  -2   4 1455.95   93.69
  -5  -2   4 1443.26   88.79
  -5  -2   4 1662.33   91.09
   4   2  -4   33.70    5.40
   4   2  -4   38.30    7.20
   4   2  -4   41.10    5.70
   4   2  -4   29.40    6.00
   4   2  -4   39.80    8.60
   4   2  -4   22.80    4.20
   4   2  -4   33.10    5.90
  -4  -2   4   39.50    6.30
  -4  -2   4   45.90    7.00
  -4  -2   4   46.40    6.20
  -4  -2   4   39.40    5.00
  -4  -2   4   34.60    8.10
  -4  -2   4   35.10    6.10
  -4  -2   4   31.10    4.10
   3   2  -4 2791.12  161.78
   3   2  -4 2892.11  162.58
   3   2  -4 2734.93  164.68
   3   2  -4 2804.52  163.48
   3   2  -4 2881.61  163.08
   3   2  -4 2841.22  165.38
  -3  -2   4 2773.32  163.78
  -3  -2   4 2845.12  164.28
  -3  -2   4 3007.10  164.38
  -3  -2   4 2929.81  162.78
  -3  -2   4 2577.24  161.98
  -3  -2   4 2761.92  162.48
  -3  -2   4 2778.72  165.28
   2   2  -4 1437.56   87.99
   2   2  -4 1535.85   88.79
   2   2  -4 1597.84   91.09
   2   2  -4 1623.94   90.99
   2   2  -4 1467.45   87.79
   2   2  -4 1466.15   88.89
  -2  -2   4 1573.64   89.89
  -2  -2   4 1537.65   89.29
  -2  -2   4 1595.04   90.49
  -2  -2   4 1498.75   88.49
  -2  -2   4 1506.35   90.89
  -2  -2   4 1536.95   88.49
  -2  -2   4 1471.05   88.39
   1   2  -4 4185.38  280.17
   1   2  -4 5381.86  282.57
   1   2  -4 5169.98  281.67
   1   2  -4 5035.10  279.87
  -1  -2   4 4661.73  279.57
  -1  -2   4 5148.58  280.77
  -1  -2   4 4690.73  279.47
  -1  -2   4 5110.39  280.37
  -1  -2   4 4771.32  279.87
  -1  -2   4 5057.49  279.57
  -1  -2   4 4278.77  279.57
  -1  -2   4 5050.59  279.57
   0   2  -4  221.48   16.00
   0   2  -4  270.67   17.00
   0   2  -4  204.98   15.00
   0   2  -4  278.77   15.50
   0   2  -4  201.28   15.40
   0  -2   4  252.17   16.20
   0  -2   4  251.87   16.00
   0  -2   4  231.28   15.90
   0  -2   4  294.27   17.30
   0  -2   4  273.37   15.40
   0  -2   4  209.48   15.30
   0  -2   4  239.08   15.40
   0  -2   4  274.77   15.70
   0  -2   4  278.07   14.90
  -1   2  -4 4652.53  283.27
  -1   2  -4 5175.28  284.17
  -1   2  -4 5300.37  283.07
  -1   2  -4 5131.69  285.77
   1  -2   4 5131.69  282.67
   1  -2   4 4341.27  283.57
   1  -2   4 4753.32  283.87
   1  -2   4 4843.02  283.87
   1  -2   4 4791.72  283.17
   1  -2   4 5109.69  283.47
   1  -2   4 5173.58  283.67
   1  -2   4 4841.52  287.97
  -2   2  -4  265.17   16.80
  -2   2  -4  266.77   16.70
  -2   2  -4  323.77   20.20
  -2   2  -4  264.27   18.10
  -2   2  -4  280.27   17.10
   2  -2   4  264.97   16.80
   2  -2   4  269.37   17.00
   2  -2   4  265.97   16.60
   2  -2   4  263.17   22.30
   2  -2   4  270.37   17.90
   2  -2   4  285.17   17.90
   2  -2   4  250.97   16.90
   2  -2   4  279.37   17.90
  -3   2  -4 1879.71  103.49
  -3   2  -4 1599.14  103.99
  -3   2  -4 1755.82  102.19
  -3   2  -4 1842.42  102.09
  -3   2  -4 1603.24  104.09
  -3   2  -4 1721.33  102.89
  -3   2  -4 1691.43  103.09
  -3   2  -4 1977.30  105.69
   3  -2   4 1856.61  104.49
   3  -2   4 1721.43  102.79
   3  -2   4 1847.12  102.99
   3  -2   4 1807.52  103.99
   3  -2   4 1788.82  104.39
   3  -2   4 1774.32  103.19
   3  -2   4 1797.22  107.99
   3  -2   4 1755.92  102.89
  -4   2  -4   28.20    5.70
  -4   2  -4   17.70    4.50
  -4   2  -4   25.30    3.50
  -4   2  -4   28.00    6.60
  -4   2  -4   31.80    5.10
  -4   2  -4   28.20    4.00
   4  -2   4   16.50    8.50
   4  -2   4   31.20    5.00
   4  -2   4   20.40    3.60
   4  -2   4   22.60    4.00
   4  -2   4   26.10    5.60
   4  -2   4   29.90    6.50
   4  -2   4   18.60    5.20
   4  -2   4   36.40   10.00
   4  -2   4   27.00    4.50
  -5   2  -4  705.13   42.40
  -5   2  -4  639.54   40.30
  -5   2  -4  622.84   41.90
  -5   2  -4  668.53   40.20
  -5   2  -4  682.03   39.10
  -5   2  -4  653.83   40.90
   5  -2   4  699.23   40.80
   5  -2   4  645.74   39.80
   5  -2   4  606.54   45.20
   5  -2   4  712.63   46.90
   5  -2   4  677.53   40.80
   5  -2   4  667.93   41.70
   5  -2   4  672.03   43.00
   5  -2   4  637.34   43.20
   5  -2   4  611.64   40.00
  -6   2  -4   43.10    8.70
  -6   2  -4   51.59    8.40
  -6   2  -4   44.00    6.50
  -6   2  -4   40.10    7.10
   6  -2   4   39.70   13.40
   6  -2   4   44.80    9.50
   6  -2   4   51.59    8.00
   6  -2   4   39.60   10.50
   6  -2   4   45.60    8.70
   6  -2   4   43.20    7.20
   6  -2   4   19.50   13.10
   6  -2   4   33.90    6.10
  -7   2  -4   64.59   10.40
  -7   2  -4   79.89   13.50
  -7   2  -4   55.79    9.40
  -7   2  -4   78.99   10.10
   7  -2   4   88.99   10.80
   7  -2   4   71.99   10.00
   7  -2   4   66.69   12.80
   7  -2   4   79.89   18.80
   7  -2   4   81.49   11.20
   7  -2   4   92.19   14.80
  -8   2  -4   15.60    8.80
  -8   2  -4  -11.20    8.90
  -8   2  -4   12.00    8.70
  -8   2  -4    5.80    6.00
   8  -2   4    2.90    6.90
   8  -2   4   18.70   10.90
   8  -2   4  -16.90   16.10
   8  -2   4   -2.10    8.20
   8  -2   4    4.90    8.20
  -9   2  -4   19.00   11.60
   9  -2   4   46.00   14.30
   9  -2   4   47.20   14.20
   9  -2   4   31.00   12.40
   9  -2   4   45.70   18.60
   9  -2   4   36.00   10.20
   9   1  -4   16.80    9.60
   9   1  -4   -3.10   11.00
   9   1  -4  -15.60   12.00
   9   1  -4   17.80   16.30
   9   1  -4   12.10    9.60
  -9  -1   4   25.30   13.40
  -9  -1   4   38.10   22.40
  -9  -1   4   -6.10   15.00
  -9  -1   4  -19.10   14.10
   8   1  -4   11.50   11.90
   8   1  -4  -18.20   23.10
   8   1  -4   -0.70    8.80
   8   1  -4   -1.90    6.50
  -8  -1   4   13.20    8.50
  -8  -1   4    9.80   11.10
  -8  -1   4   21.60   17.00
  -8  -1   4   21.60    9.90
  -8  -1   4   19.00   10.40
  -8  -1   4   -8.00   11.20
   7   1  -4    7.50    5.70
   7   1  -4    6.40    8.40
   7   1  -4   12.80    9.20
   7   1  -4   24.70   11.00
   7   1  -4    2.70   10.10
   7   1  -4   10.10    5.10
   7   1  -4    0.40    6.70
   7   1  -4   -3.50    9.10
  -7  -1   4   28.80   13.20
  -7  -1   4   10.50    9.80
  -7  -1   4    2.60    7.30
  -7  -1   4   17.10    6.50
  -7  -1   4    8.10    9.10
  -7  -1   4    7.60    7.90
   6   1  -4  279.27   24.30
   6   1  -4  297.37   21.10
   6   1  -4  336.17   22.80
   6   1  -4  255.27   19.70
   6   1  -4  273.77   24.50
   6   1  -4  282.47   22.50
   6   1  -4  350.16   22.90
  -6  -1   4  301.67   24.60
  -6  -1   4  340.07   28.60
  -6  -1   4  319.37   20.50
  -6  -1   4  299.37   23.70
  -6  -1   4  306.67   24.70
  -6  -1   4  362.56   22.90
  -6  -1   4  345.77   23.50
  -6  -1   4  289.87   21.20
   5   1  -4    5.00    5.10
   5   1  -4    5.80    2.50
   5   1  -4    0.90    5.50
   5   1  -4    6.80    3.20
   5   1  -4    8.30    4.40
   5   1  -4    4.90    4.40
   5   1  -4    9.50    5.80
  -5  -1   4   11.60    5.30
  -5  -1   4    3.00    5.10
  -5  -1   4    2.40    5.00
  -5  -1   4   -2.50    7.40
  -5  -1   4    2.20    5.10
  -5  -1   4    5.70    3.40
   4   1  -4 1210.58   71.09
   4   1  -4 1166.08   70.09
   4   1  -4 1206.98   69.89
   4   1  -4 1122.29   70.79
   4   1  -4 1217.58   68.29
   4   1  -4 1074.99   70.59
   4   1  -4 1152.88   69.99
  -4  -1   4 1320.67   70.19
  -4  -1   4 1119.59   71.09
  -4  -1   4 1245.88   70.79
  -4  -1   4 1166.68   72.49
  -4  -1   4 1156.78   71.59
  -4  -1   4 1115.99   69.29
  -4  -1   4 1188.08   68.89
   3   1  -4    7.00    2.90
   3   1  -4    4.90    2.20
   3   1  -4   10.00    3.60
   3   1  -4    3.60    3.70
   3   1  -4    2.50    1.60
   3   1  -4    5.70    2.70
   3   1  -4    4.50    2.40
  -3  -1   4    0.60    2.90
  -3  -1   4    1.90    2.20
  -3  -1   4    5.60    4.40
  -3  -1   4    3.10    2.00
  -3  -1   4    6.70    4.20
  -3  -1   4    3.60    3.80
  -3  -1   4    3.50    2.90
   2   1  -4 2985.70  180.38
   2   1  -4 2897.41  178.98
   2   1  -4 3348.26  181.88
   2   1  -4 3161.68  179.88
   2   1  -4 3104.19  179.78
   2   1  -4 3436.56  181.78
   2   1  -4 3174.08  180.18
  -2  -1   4 2868.11  182.78
  -2  -1   4 3307.27  179.88
  -2  -1   4 3009.60  179.38
  -2  -1   4 3045.60  179.58
  -2  -1   4 3124.79  180.68
  -2  -1   4 3110.69  181.68
  -2  -1   4 3008.60  179.78
  -2  -1   4 3277.57  181.38
   1   1  -4  221.28   14.10
   1   1  -4  221.48   14.20
   1   1  -4  219.88   14.60
   1   1  -4  229.08   16.20
  -1  -1   4  247.28   15.10
  -1  -1   4  222.28   14.00
  -1  -1   4  235.98   13.60
  -1  -1   4  234.78   15.70
  -1  -1   4  223.68   14.30
  -1  -1   4  227.28   14.40
  -1  -1   4  246.18   14.10
  -1  -1   4  237.68   14.50
   0   1  -4 3568.44  205.78
   0   1  -4 3083.79  203.78
   0   1  -4 3785.82  203.88
   0   1  -4 3768.12  204.48
   0   1  -4 3208.08  203.98
   0   1  -4 3851.01  204.18
   0   1  -4 3958.10  206.58
   0  -1   4 3740.93  204.18
   0  -1   4 3152.18  204.68
   0  -1   4 3650.33  204.48
   0  -1   4 3282.07  206.58
  -1   1  -4  364.16   21.70
  -1   1  -4  362.66   20.50
  -1   1  -4  352.16   20.50
  -1   1  -4  362.26   23.70
  -1   1  -4  304.47   21.00
  -1   1  -4  358.96   21.30
  -1   1  -4  374.56   21.40
  -1   1  -4  307.07   20.90
   1  -1   4  308.77   21.30
   1  -1   4  303.17   21.10
   1  -1   4  340.17   21.50
   1  -1   4  376.66   21.70
  -2   1  -4 1377.06   77.19
  -2   1  -4 1286.07   75.79
  -2   1  -4 1197.88   77.69
  -2   1  -4 1161.58   75.89
  -2   1  -4 1364.96   76.09
  -2   1  -4 1307.87   76.79
  -2   1  -4 1280.97   76.49
   2  -1   4 1366.36   77.39
   2  -1   4 1295.07   76.49
   2  -1   4 1469.85   76.19
   2  -1   4 1395.56   77.39
   2  -1   4 1330.37   76.59
   2  -1   4 1347.67   75.89
   2  -1   4 1211.98   77.39
  -3   1  -4   80.79    8.20
  -3   1  -4   99.89    7.10
  -3   1  -4  115.59    8.30
  -3   1  -4   92.09    6.80
  -3   1  -4   90.79    7.20
  -3   1  -4   72.59   10.60
   3  -1   4   96.59    7.40
   3  -1   4  103.59   13.10
   3  -1   4  105.69    7.70
   3  -1   4  104.99    9.40
   3  -1   4   97.29    8.90
   3  -1   4  106.19    9.10
   3  -1   4   93.69    6.20
  -4   1  -4 1463.15   91.69
  -4   1  -4 1324.37   92.89
  -4   1  -4 1608.34   92.49
  -4   1  -4 1524.85   92.99
  -4   1  -4 1589.44   92.09
  -4   1  -4 1728.93   93.19
   4  -1   4 1572.94   92.29
   4  -1   4 1620.54   94.19
   4  -1   4 1611.64   94.19
   4  -1   4 1664.73   96.69
   4  -1   4 1500.25   93.49
   4  -1   4 1686.23   97.19
   4  -1   4 1694.93   92.49
   4  -1   4 1601.24   92.69
   4  -1   4 1566.34   91.09
  -5   1  -4   71.79    7.80
  -5   1  -4   82.59    6.90
  -5   1  -4   75.89    8.70
  -5   1  -4   74.29    8.30
  -5   1  -4   72.39    9.50
  -5   1  -4   74.89   12.10
  -5   1  -4   71.99    8.60
   5  -1   4   71.09    9.90
   5  -1   4   76.39   10.70
   5  -1   4   73.29   13.70
   5  -1   4   80.09   13.10
   5  -1   4   74.19    9.90
   5  -1   4   71.39    6.40
   5  -1   4   74.49    7.40
   5  -1   4   69.19    8.60
   5  -1   4   73.79    8.20
  -6   1  -4  475.85   32.10
  -6   1  -4  494.65   31.40
  -6   1  -4  476.25   30.70
  -6   1  -4  511.45   29.80
  -6   1  -4  442.36   32.40
  -6   1  -4  463.25   31.50
  -6   1  -4  401.66   32.50
   6  -1   4  498.45   37.70
   6  -1   4  471.55   32.50
   6  -1   4  512.85   31.40
   6  -1   4  533.15   31.80
   6  -1   4  499.15   30.70
   6  -1   4  487.55   36.80
   6  -1   4  473.85   33.80
   6  -1   4  473.35   33.90
  -7   1  -4   21.70    5.10
  -7   1  -4    2.90    7.70
  -7   1  -4   27.80    6.80
  -7   1  -4   18.00    7.40
  -7   1  -4   21.70    7.90
   7  -1   4   21.30    7.10
   7  -1   4   23.80    8.00
   7  -1   4   40.20   10.90
   7  -1   4   33.00    6.10
   7  -1   4   43.10   14.80
   7  -1   4   17.80    5.60
   7  -1   4   21.60    6.00
   7  -1   4   19.80   13.50
  -8   1  -4  123.29   16.20
  -8   1  -4  134.59   13.30
   8  -1   4  115.89   20.30
   8  -1   4  134.49   16.50
   8  -1   4  155.98   17.80
   8  -1   4  144.39   14.70
   8  -1   4  106.09   15.50
  -9   1  -4    6.20   10.60
  -9   1  -4   13.30   10.70
  -9   1  -4  -20.30   11.30
   9  -1   4   -3.20   11.10
   9  -1   4    8.50    8.30
   9  -1   4   -3.90    8.90
   9  -1   4    7.50   10.40
   9   0  -4    7.80   16.00
   9   0  -4   14.30    9.30
   9   0  -4    3.40    9.50
   9   0  -4  -13.60   11.40
   9   0  -4   13.10   15.10
  -9   0   4    8.20   16.90
  -9   0   4   14.90   13.80
  -9   0   4   25.70   16.30
  -9   0   4   29.00   24.00
   8   0  -4   19.90    7.10
   8   0  -4    4.50    7.20
   8   0  -4   14.30   10.90
   8   0  -4   22.50    8.70
  -8   0   4    4.50   10.80
  -8   0   4    0.60   17.10
  -8   0   4   16.70    8.40
  -8   0   4   10.60   12.00
  -8   0   4    6.80   12.70
  -8   0   4   23.10   13.30
   7   0  -4    9.90    5.60
   7   0  -4   11.80    5.10
   7   0  -4   -0.40    8.30
   7   0  -4    3.60   10.30
   7   0  -4   25.60   11.70
   7   0  -4   13.30    6.80
  -7   0   4    7.20    6.20
  -7   0   4   17.90    9.30
  -7   0   4   17.50   10.20
  -7   0   4    4.20   10.80
  -7   0   4    4.90    8.70
  -7   0   4   19.90   13.60
   6   0  -4   34.40   10.00
   6   0  -4   36.80    7.80
   6   0  -4   42.70    7.80
   6   0  -4   32.70    8.70
   6   0  -4   32.70    7.90
   6   0  -4   28.30    5.90
   6   0  -4   35.50    5.50
  -6   0   4   38.00   11.40
  -6   0   4   38.60    8.80
  -6   0   4   27.20    5.50
  -6   0   4   26.30    9.10
  -6   0   4   22.80    7.70
  -6   0   4   30.70    5.40
  -6   0   4   33.70    9.80
  -6   0   4   41.70    8.30
   5   0  -4   -2.30    4.00
   5   0  -4    6.40    5.40
   5   0  -4   -2.10    4.40
   5   0  -4   -0.80    5.70
   5   0  -4    3.80    3.30
   5   0  -4    3.80    3.30
   5   0  -4    1.30    5.20
  -5   0   4   -9.50    6.70
  -5   0   4    2.80    6.30
  -5   0   4   -0.60    5.00
  -5   0   4    0.30    5.70
  -5   0   4   -0.70    3.30
  -5   0   4   -5.50    2.80
  -5   0   4   -9.80    4.80
   4   0  -4  518.45   33.60
   4   0  -4  498.95   33.20
   4   0  -4  560.94   33.10
   4   0  -4  574.44   33.10
   4   0  -4  489.45   32.10
   4   0  -4  555.24   33.60
   4   0  -4  552.74   34.30
  -4   0   4  456.35   33.90
  -4   0   4  539.25   35.40
  -4   0   4  506.35   34.70
  -4   0   4  580.54   33.40
  -4   0   4  533.85   32.10
  -4   0   4  515.45   32.30
  -4   0   4  496.15   34.30
   3   0  -4   12.10    3.20
   3   0  -4   20.20    4.60
   3   0  -4   13.60    3.00
   3   0  -4   31.60    5.30
   3   0  -4   15.90    3.40
   3   0  -4   14.80    3.70
  -3   0   4   26.80    4.60
  -3   0   4   11.70    2.60
  -3   0   4   23.20    5.30
  -3   0   4   12.50    5.20
  -3   0   4   13.40    4.30
  -3   0   4   23.30    5.80
  -3   0   4   18.90    2.90
   2   0  -4  510.75   35.10
   2   0  -4  584.64   33.60
   2   0  -4  580.44   34.20
   2   0  -4  582.84   33.80
   2   0  -4  595.34   34.30
   2   0  -4  602.64   35.60
  -2   0   4  536.35   33.70
  -2   0   4  568.54   34.90
  -2   0   4  462.45   35.90
  -2   0   4  588.24   35.60
  -2   0   4  601.44   34.10
  -2   0   4  565.54   35.50
   1   0  -4  675.73   40.60
   1   0  -4  666.23   40.50
   1   0  -4  653.23   40.40
   1   0  -4  673.13   41.10
   1   0  -4  653.63   40.80
   1   0  -4  698.53   42.80
   1   0  -4  684.23   40.30
  -1   0   4  753.62   42.20
  -1   0   4  681.73   41.20
  -1   0   4  650.63   43.50
  -1   0   4  741.33   40.50
  -1   0   4  691.03   40.70
  -1   0   4  707.33   39.90
  -1   0   4  724.53   41.40
   0   0  -4 1478.95   88.39
   0   0  -4 1506.35   89.19
   0   0  -4 1473.85   89.39
   0   0  -4 1636.64   89.29
   0   0  -4 1532.75   89.79
   0   0  -4 1512.95   89.19
   0   0  -4 1461.95   88.79
   0   0   4 1593.24   88.59
   0   0   4 1598.64   90.09
   0   0   4 1626.44   89.79
   0   0   4 1541.75   89.69
  -1   0  -4 3269.77  222.08
  -1   0  -4 3666.73  220.78
  -1   0  -4 3990.30  220.48
  -1   0  -4 3841.62  220.88
  -1   0  -4 4154.08  220.58
  -1   0  -4 3879.01  220.38
  -1   0  -4 4066.49  220.78
   1   0   4 3271.47  220.68
   1   0   4 3871.21  221.98
   1   0   4 4236.98  220.78
   1   0   4 4314.07  221.28
   1   0   4 3449.46  220.78
  -2   0  -4 1910.31  111.89
  -2   0  -4 2149.08  112.79
  -2   0  -4 1832.22  111.09
  -2   0  -4 1819.82  112.19
  -2   0  -4 1921.11  111.99
  -2   0  -4 1649.63  113.69
   2   0   4 2133.89  113.19
   2   0   4 2083.59  112.99
   2   0   4 1909.01  112.89
   2   0   4 1934.21  112.29
   2   0   4 1964.10  112.59
  -3   0  -4 2086.29  136.89
  -3   0  -4 2504.35  137.89
  -3   0  -4 2347.57  137.29
  -3   0  -4 2269.07  137.49
  -3   0  -4 2443.06  137.89
  -3   0  -4 2283.57  136.49
   3   0   4 2503.35  138.69
   3   0   4 2398.16  140.69
   3   0   4 2537.45  138.49
   3   0   4 2367.26  137.49
  -4   0  -4  802.32   47.70
  -4   0  -4  782.22   46.70
  -4   0  -4  799.62   47.90
  -4   0  -4  733.93   47.80
  -4   0  -4  781.92   47.90
   4   0   4  791.42   48.60
   4   0   4  810.62   51.59
   4   0   4  812.82   49.00
   4   0   4  807.62   49.00
   4   0   4  772.72   47.20
   4   0   4  775.62   47.40
   4   0   4  822.12   51.39
  -5   0  -4  772.02   54.49
  -5   0  -4  953.30   54.99
  -5   0  -4  960.00   55.09
  -5   0  -4  921.61   55.19
  -5   0  -4  796.42   53.49
  -5   0  -4  937.61   53.89
   5   0   4  891.81   55.69
   5   0   4  885.21   54.09
   5   0   4  912.11   56.39
   5   0   4  902.21   54.39
   5   0   4  958.00   54.59
   5   0   4  969.60   58.49
   5   0   4  886.31   56.29
   5   0   4  923.41   58.49
  -6   0  -4  575.54   38.30
  -6   0  -4  649.04   40.30
  -6   0  -4  565.04   40.10
  -6   0  -4  673.83   40.40
  -6   0  -4  646.34   40.70
  -6   0  -4  658.73   39.10
   6   0   4  656.83   42.20
   6   0   4  574.64   44.50
   6   0   4  625.14   39.10
   6   0   4  621.44   41.30
   6   0   4  589.54   41.60
   6   0   4  612.74   37.20
   6   0   4  669.33   44.20
   6   0   4  647.24   39.70
   6   0   4  695.03   40.10
  -7   0  -4   -5.90    6.90
  -7   0  -4    3.60    5.50
  -7   0  -4    2.80    6.70
  -7   0  -4    6.20    4.70
   7   0   4    5.90    6.90
   7   0   4    3.20    5.80
   7   0   4   17.10   12.50
   7   0   4   -2.30   15.80
   7   0   4   21.70    8.30
   7   0   4   12.50   11.20
   7   0   4    6.30    5.60
   7   0   4    6.10    4.50
  -8   0  -4  301.47   24.80
  -8   0  -4  262.87   23.10
  -8   0  -4  266.27   20.00
   8   0   4  269.77   19.20
   8   0   4  285.67   29.10
   8   0   4  305.07   23.20
   8   0   4  264.17   21.10
   8   0   4  282.87   30.80
   8   0   4  266.57   35.60
  -9   0  -4   18.60   11.20
  -9   0  -4   28.50   12.00
  -9   0  -4   -4.10   12.20
   9   0   4    6.80   10.70
   9   0   4    2.20    7.00
   9   0   4    9.10    7.60
   9   0   4   12.50   11.80
 -10   0  -4   60.99   15.80
 -10   0  -4   50.39   19.30
  10   0   4   76.49   16.80
  10   0   4  115.09   18.20
  10   0   4   44.20   11.30
   9  -1  -4   -7.70    9.90
   9  -1  -4   15.20   10.60
   9  -1  -4   -6.30   13.70
   9  -1  -4    7.00   15.80
  -9   1   4   17.70   24.50
  -9   1   4    7.40   16.40
  -9   1   4   -5.40   18.30
  -9   1   4  -23.90   18.70
   8  -1  -4   56.69   10.40
   8  -1  -4   38.70    9.50
   8  -1  -4   66.19   27.60
   8  -1  -4   48.20   11.00
   8  -1  -4   50.89   14.60
  -8   1   4   55.79   15.20
  -8   1   4   58.59   15.10
  -8   1   4   67.99   19.80
  -8   1   4   73.49   17.80
   7  -1  -4   37.60   12.50
   7  -1  -4   28.90    9.30
   7  -1  -4   38.90    8.00
   7  -1  -4   21.00   10.20
   7  -1  -4   30.50    6.90
   7  -1  -4   46.20    9.50
  -7   1   4   39.20   12.20
  -7   1   4   36.20    7.80
  -7   1   4   28.10   11.70
  -7   1   4   29.30   11.40
  -7   1   4   53.09   15.50
   6  -1  -4   44.50    7.30
   6  -1  -4   63.59    9.70
   6  -1  -4   31.70    9.10
   6  -1  -4   50.29   11.10
   6  -1  -4   53.89    7.30
   6  -1  -4   50.99    7.40
   6  -1  -4   29.40    8.80
  -6   1   4   55.89   10.30
  -6   1   4   45.50   10.30
  -6   1   4   42.60   10.50
  -6   1   4   61.19    8.20
  -6   1   4   61.19   11.20
  -6   1   4   34.90    6.60
  -6   1   4   52.89   13.20
   5  -1  -4   27.80    6.60
   5  -1  -4   12.30    5.10
   5  -1  -4   20.30    7.10
   5  -1  -4   13.30    6.40
   5  -1  -4   19.70    5.50
  -5   1   4   26.30    4.60
  -5   1   4   29.00    7.50
  -5   1   4   27.00    6.90
  -5   1   4   17.30    4.10
  -5   1   4   10.30    8.30
  -5   1   4   25.80    8.00
  -5   1   4   15.80    5.90
  -5   1   4   19.70    8.20
   4  -1  -4   54.99    7.10
   4  -1  -4   47.70    5.70
   4  -1  -4   31.50    6.10
   4  -1  -4   42.80    6.60
   4  -1  -4   44.10    6.40
   4  -1  -4   41.30    7.30
  -4   1   4   43.90    8.50
  -4   1   4   47.10    6.20
  -4   1   4   45.50    6.00
  -4   1   4   48.40    8.30
  -4   1   4   47.10    8.70
  -4   1   4   64.19    8.60
  -4   1   4   39.80    9.00
   3  -1  -4   75.99    8.10
   3  -1  -4   60.69    6.50
   3  -1  -4   67.29    6.70
   3  -1  -4   67.59    7.50
   3  -1  -4   58.89    5.90
   3  -1  -4   80.49    7.80
   3  -1  -4   61.09    4.90
  -3   1   4   54.49    8.10
  -3   1   4   50.89    7.60
  -3   1   4   58.59    7.60
  -3   1   4   73.19    6.50
  -3   1   4   82.59    9.50
   2  -1  -4   67.99    6.00
   2  -1  -4   62.69    4.20
   2  -1  -4   43.10    7.30
   2  -1  -4   66.99    6.40
   2  -1  -4   54.79    6.40
  -2   1   4   67.19    7.40
  -2   1   4   58.29    5.40
  -2   1   4   65.19    7.90
  -2   1   4   55.59    6.70
  -2   1   4   63.49    6.50
  -2   1   4   67.99    6.20
   1  -1  -4   31.60    4.50
   1  -1  -4   27.60    3.60
   1  -1  -4   25.40    3.50
   1  -1  -4   32.60    3.60
   1  -1  -4   25.50    3.60
   1  -1  -4   17.10    5.00
  -1   1   4   35.00    3.90
  -1   1   4   25.60    4.50
  -1   1   4   33.60    4.80
  -1   1   4   24.50    3.90
  -1   1   4   30.30    3.50
   0  -1  -4  522.45   29.20
   0  -1  -4  503.15   30.10
   0  -1  -4  494.65   30.20
   0  -1  -4  475.65   30.40
   0  -1  -4  500.55   29.70
   0  -1  -4  437.96   31.90
   0  -1  -4  502.95   30.60
   0  -1  -4  493.65   30.70
   0   1   4  550.64   30.80
   0   1   4  538.55   29.50
   0   1   4  506.85   30.80
   0   1   4  528.55   30.80
   0   1   4  455.75   31.10
   0   1   4  517.75   31.10
  -1  -1  -4  351.96   21.80
  -1  -1  -4  332.07   21.50
  -1  -1  -4  360.26   20.90
  -1  -1  -4  352.96   21.60
  -1  -1  -4  358.56   22.30
  -1  -1  -4  366.06   22.20
   1   1   4  358.96   22.30
   1   1   4  336.87   22.20
   1   1   4  367.96   22.40
   1   1   4  307.17   21.60
  -2  -1  -4   40.90    4.40
  -2  -1  -4   31.60    4.10
  -2  -1  -4   27.80    4.00
  -2  -1  -4   29.20    4.40
  -2  -1  -4   34.40    4.70
   2   1   4   39.70    4.60
   2   1   4   40.10    5.30
   2   1   4   33.60    5.10
   2   1   4   32.10    4.60
   2   1   4   34.10    4.90
  -3  -1  -4  248.38   15.70
  -3  -1  -4  232.88   16.50
  -3  -1  -4  250.57   16.80
  -3  -1  -4  254.97   17.20
  -3  -1  -4  254.07   16.40
  -3  -1  -4  249.38   16.60
   3   1   4  252.17   17.60
   3   1   4  251.17   17.50
   3   1   4  232.88   17.20
   3   1   4  253.37   17.00
   3   1   4  285.27   20.30
   3   1   4  254.67   16.50
  -4  -1  -4  221.48   15.20
  -4  -1  -4  217.18   15.30
  -4  -1  -4  223.98   15.30
  -4  -1  -4  179.68   14.20
  -4  -1  -4  207.08   15.20
  -4  -1  -4  214.38   14.00
   4   1   4  228.38   19.10
   4   1   4  216.88   16.40
   4   1   4  208.38   14.60
   4   1   4  227.18   15.90
   4   1   4  214.28   16.30
   4   1   4  212.18   14.90
  -5  -1  -4  676.03   39.20
  -5  -1  -4  528.15   37.70
  -5  -1  -4  640.34   39.20
  -5  -1  -4  602.04   37.60
  -5  -1  -4  621.74   38.70
   5   1   4  637.74   42.20
   5   1   4  598.64   40.10
   5   1   4  622.74   38.40
   5   1   4  715.23   40.00
   5   1   4  623.94   38.30
   5   1   4  594.14   42.30
   5   1   4  616.24   40.20
  -6  -1  -4    4.10    4.90
  -6  -1  -4    4.30    4.50
  -6  -1  -4    4.30    3.70
  -6  -1  -4    5.20    4.10
  -6  -1  -4   -0.30    4.70
  -6  -1  -4   -6.00    4.60
   6   1   4    7.90    4.30
   6   1   4    4.30    3.20
   6   1   4    9.60    9.40
   6   1   4    5.30    6.20
   6   1   4    7.00    2.30
   6   1   4   12.40    6.70
   6   1   4    7.30    4.90
   6   1   4   -5.80    8.00
  -7  -1  -4  139.29   12.40
  -7  -1  -4  150.68   15.90
  -7  -1  -4  160.48   16.50
  -7  -1  -4  149.59   13.30
  -7  -1  -4  166.88   15.80
  -7  -1  -4  171.88   15.60
   7   1   4  126.19   18.10
   7   1   4  156.68   13.10
   7   1   4  177.58   16.30
   7   1   4  166.98   14.20
   7   1   4  120.49   18.60
   7   1   4  136.89   19.60
   7   1   4  146.09   11.40
  -8  -1  -4  149.69   17.90
  -8  -1  -4  104.49   13.00
  -8  -1  -4  116.59   15.90
  -8  -1  -4  119.69   15.60
   8   1   4  156.58   17.80
   8   1   4  114.99   13.50
   8   1   4  145.09   20.40
   8   1   4  157.98   19.30
   8   1   4  143.79   15.30
   8   1   4  123.79   11.20
  -9  -1  -4   24.10   12.60
   9   1   4   17.20    9.60
   9   1   4   56.19   14.00
   9   1   4   41.00   16.40
   9   1   4   15.70    8.00
   9   1   4   -3.20   16.70
   9   1   4   26.20    7.10
 -10  -1  -4    0.00   13.50
 -10  -1  -4  -15.50   13.00
  10   1   4   12.10   10.00
  10   1   4   11.90   14.60
  10   1   4    8.50   12.90
   9  -2  -4   11.60   10.20
   9  -2  -4   -3.10   13.00
   9  -2  -4   13.30   16.00
   9  -2  -4   -8.10   11.30
  -9   2   4   -7.80   22.00
  -9   2   4    6.00   20.10
  -9   2   4  -15.20   18.40
   8  -2  -4   63.99   19.00
   8  -2  -4   23.60   10.20
   8  -2  -4   38.90    9.80
   8  -2  -4   25.80   12.30
   8  -2  -4   26.40    8.70
  -8   2   4   26.40   17.10
  -8   2   4   35.40   20.30
  -8   2   4    8.60   15.10
  -8   2   4   23.40   16.20
   7  -2  -4   -2.00    7.30
   7  -2  -4    0.80    9.20
   7  -2  -4   -4.60   12.00
   7  -2  -4    2.40    6.70
   7  -2  -4    9.40    6.30
  -7   2   4   24.10   13.50
  -7   2   4    1.90   12.10
  -7   2   4    5.20   12.30
  -7   2   4   -7.00   10.60
   6  -2  -4  174.38   14.00
   6  -2  -4  143.29   19.80
   6  -2  -4  164.18   13.60
   6  -2  -4  172.98   15.10
   6  -2  -4  164.88   16.10
   6  -2  -4  119.79   15.90
  -6   2   4  155.68   21.20
  -6   2   4  147.19   13.60
  -6   2   4  190.68   21.50
  -6   2   4  140.29   14.60
  -6   2   4  183.88   20.40
  -6   2   4  143.79   19.30
   5  -2  -4   -0.90    4.40
   5  -2  -4    7.20    3.40
   5  -2  -4   -1.30    6.50
   5  -2  -4   -0.10    4.90
   5  -2  -4    0.70    3.80
   5  -2  -4   -1.50    6.30
  -5   2   4    1.40    8.10
  -5   2   4    9.80    8.00
  -5   2   4    6.70    6.50
  -5   2   4   -6.50    3.60
  -5   2   4   -6.00    4.40
  -5   2   4   -5.20    6.50
  -5   2   4    7.30    6.30
   4  -2  -4  464.75   31.80
   4  -2  -4  483.35   31.20
   4  -2  -4  491.85   30.30
   4  -2  -4  481.25   30.40
   4  -2  -4  527.65   31.70
   4  -2  -4  472.45   29.60
   4  -2  -4  461.75   32.60
  -4   2   4  511.15   31.50
  -4   2   4  526.75   34.80
  -4   2   4  509.65   32.40
  -4   2   4  488.65   30.70
  -4   2   4  492.55   33.30
  -4   2   4  460.35   33.20
  -4   2   4  491.05   33.20
   3  -2  -4    4.30    2.40
   3  -2  -4    5.70    3.70
   3  -2  -4    2.90    2.00
   3  -2  -4   -3.30    3.70
   3  -2  -4    3.30    3.60
   3  -2  -4    0.00    3.00
   3  -2  -4    4.80    3.50
  -3   2   4    1.80    3.80
  -3   2   4    6.40    3.00
  -3   2   4    6.30    2.80
  -3   2   4    2.50    4.00
  -3   2   4   -0.10    4.50
  -3   2   4    4.80    5.20
  -3   2   4    7.00    4.20
   2  -2  -4  426.66   28.90
   2  -2  -4  427.86   26.40
   2  -2  -4  455.05   27.80
   2  -2  -4  440.26   28.40
   2  -2  -4  443.86   28.00
   2  -2  -4  488.75   28.00
  -2   2   4  447.66   28.20
  -2   2   4  440.46   28.60
  -2   2   4  429.16   27.40
  -2   2   4  457.25   26.20
  -2   2   4  458.55   29.40
   1  -2  -4   76.79    6.70
   1  -2  -4   73.89    5.50
   1  -2  -4   77.29    9.20
   1  -2  -4   76.09    7.00
   1  -2  -4   83.19    6.90
  -1   2   4   79.19    7.10
  -1   2   4   67.79    8.20
  -1   2   4   73.19    7.20
  -1   2   4   79.29    5.70
  -1   2   4   92.09    8.30
  -1   2   4   82.89    6.70
   0  -2  -4  891.51   50.09
   0  -2  -4  853.31   51.69
   0  -2  -4  861.91   51.49
   0  -2  -4  821.12   51.09
   0  -2  -4  835.62   51.69
   0  -2  -4  853.61   51.79
   0   2   4  860.21   52.29
   0   2   4  892.81   51.79
   0   2   4  899.21   50.59
   0   2   4  921.51   52.59
  -1  -2  -4   -2.70    1.50
  -1  -2  -4    2.90    2.00
  -1  -2  -4    2.80    2.60
  -1  -2  -4    0.40    2.00
  -1  -2  -4    2.20    1.90
  -1  -2  -4    1.50    1.80
   1   2   4   -0.90    2.10
   1   2   4    3.50    2.60
   1   2   4   -0.50    1.80
   1   2   4    5.20    2.40
   1   2   4    2.70    2.00
  -2  -2  -4    1.20    2.00
  -2  -2  -4    0.20    1.70
  -2  -2  -4    3.30    2.50
  -2  -2  -4    1.70    2.60
  -2  -2  -4    2.40    1.90
   2   2   4    0.70    2.70
   2   2   4    3.30    2.70
   2   2   4    3.10    2.80
   2   2   4    0.10    1.90
   2   2   4    4.40    2.90
  -3  -2  -4  106.79    8.20
  -3  -2  -4  106.39    8.70
  -3  -2  -4  102.89    8.40
  -3  -2  -4   80.59    6.70
  -3  -2  -4   88.09    8.40
   3   2   4   94.99    9.00
   3   2   4  103.19    8.60
   3   2   4   96.39    9.20
   3   2   4   92.49    8.00
   3   2   4  102.39   11.70
   3   2   4   98.29    9.00
  -4  -2  -4   41.00    5.10
  -4  -2  -4   37.20    5.80
  -4  -2  -4   36.10    5.50
  -4  -2  -4   39.20    5.40
  -4  -2  -4   36.40    5.60
  -4  -2  -4   28.70    5.20
   4   2   4   35.90    6.10
   4   2   4   40.00    5.20
   4   2   4   32.10    5.80
   4   2   4   36.20    9.00
   4   2   4   39.30    6.30
   4   2   4   26.70    4.80
  -5  -2  -4   65.89    8.50
  -5  -2  -4   65.59    8.40
  -5  -2  -4   65.29    7.90
  -5  -2  -4   58.69    6.90
  -5  -2  -4   66.59    7.90
  -5  -2  -4   46.20    6.80
   5   2   4   88.29   11.20
   5   2   4   58.09    8.40
   5   2   4   63.89    9.60
   5   2   4   62.59   11.00
   5   2   4   49.50    6.80
   5   2   4   54.19    7.10
  -6  -2  -4  188.18   15.60
  -6  -2  -4  150.08   13.40
  -6  -2  -4  181.48   15.50
  -6  -2  -4  187.38   15.00
  -6  -2  -4  178.48   14.70
  -6  -2  -4  172.58   13.60
   6   2   4  177.68   20.70
   6   2   4  174.28   14.00
   6   2   4  168.68   11.80
   6   2   4  205.68   18.30
   6   2   4  184.98   16.80
   6   2   4  182.38   14.10
   6   2   4  160.98   18.70
  -7  -2  -4   45.40    8.90
  -7  -2  -4   32.40    8.30
  -7  -2  -4   26.90    6.10
  -7  -2  -4   28.50    7.90
  -7  -2  -4   20.60    5.00
  -7  -2  -4   21.00    7.10
   7   2   4   36.50    9.90
   7   2   4   18.10    5.30
   7   2   4   29.20    5.10
   7   2   4   30.00   13.10
   7   2   4   29.30    9.60
   7   2   4   34.90    8.00
   7   2   4   28.20    9.40
   7   2   4   25.80    5.70
  -8  -2  -4   68.19   11.30
  -8  -2  -4   42.70    8.90
  -8  -2  -4   51.59    9.70
   8   2   4   53.69    6.90
   8   2   4   36.80    7.50
   8   2   4   51.09    8.90
   8   2   4   57.99   13.20
   8   2   4   49.20   10.90
   8   2   4   56.09   13.90
  -9  -2  -4   12.00   10.90
  -9  -2  -4   -2.10    9.80
   9   2   4   -1.90    6.90
   9   2   4  -10.50   14.20
   9   2   4   11.50    8.70
   9   2   4  -24.00   13.20
   9   2   4    3.90    6.30
   9   2   4    5.20   10.80
 -10  -2  -4   28.50   14.10
 -10  -2  -4   -2.40   13.90
  10   2   4   37.90   11.60
  10   2   4   26.00   14.40
  10   2   4   25.40    8.80
  10   2   4   31.70   10.60
   8  -3  -4   -4.30    7.90
   8  -3  -4   14.40   11.20
   8  -3  -4    4.10   10.10
   8  -3  -4  -14.60   13.10
  -8   3   4   -9.30   15.40
  -8   3   4   20.80   17.90
  -8   3   4    3.90   12.30
  -8   3   4    3.10   19.80
   7  -3  -4   79.19   12.60
   7  -3  -4   55.29    9.70
   7  -3  -4   46.40   15.00
   7  -3  -4   65.09   10.30
   7  -3  -4   62.59    9.30
   7  -3  -4   77.89   11.80
  -7   3   4   40.60   18.90
  -7   3   4   49.90   15.50
  -7   3   4   74.59   17.90
  -7   3   4   58.69   16.50
  -7   3   4   67.39   11.90
   6  -3  -4   34.80    6.80
   6  -3  -4   41.00   10.30
   6  -3  -4   41.70    7.20
   6  -3  -4   39.50    8.40
   6  -3  -4   16.90   10.70
   6  -3  -4   31.00    6.80
  -6   3   4   35.90    7.50
  -6   3   4   45.90   12.60
  -6   3   4   16.20   11.00
  -6   3   4   27.20    7.80
  -6   3   4   54.79   14.60
  -6   3   4   42.00   11.70
   5  -3  -4  259.67   18.70
   5  -3  -4  280.47   23.30
   5  -3  -4  269.47   22.30
   5  -3  -4  318.27   21.80
   5  -3  -4  287.77   19.40
   5  -3  -4  292.47   20.40
  -5   3   4  288.27   22.90
  -5   3   4  260.87   25.10
  -5   3   4  283.77   19.70
  -5   3   4  276.37   23.70
  -5   3   4  268.27   22.00
  -5   3   4  263.47   24.10
  -5   3   4  255.67   19.90
  -5   3   4  271.97   23.80
   4  -3  -4   91.09   11.00
   4  -3  -4   95.69    8.40
   4  -3  -4   93.69    9.20
   4  -3  -4   73.39   10.40
   4  -3  -4   90.79    8.00
   4  -3  -4  100.09    9.70
   4  -3  -4   99.09   10.80
  -4   3   4   91.69   11.90
  -4   3   4  101.39    9.10
  -4   3   4   99.79    9.10
  -4   3   4  104.89   15.10
  -4   3   4  101.49   12.90
  -4   3   4   92.39   11.90
  -4   3   4   94.89   11.80
  -4   3   4  101.09   13.40
   3  -3  -4  471.45   32.70
   3  -3  -4  534.35   33.40
   3  -3  -4  535.55   33.30
   3  -3  -4  521.25   32.20
   3  -3  -4  516.25   34.10
   3  -3  -4  502.95   34.30
   3  -3  -4  586.04   34.20
  -3   3   4  539.75   35.20
  -3   3   4  538.15   34.40
  -3   3   4  546.75   33.20
  -3   3   4  555.14   37.30
  -3   3   4  548.85   35.70
  -3   3   4  559.84   32.30
  -3   3   4  573.54   34.90
  -3   3   4  508.65   34.50
   2  -3  -4  341.77   20.50
   2  -3  -4  344.77   21.10
   2  -3  -4  289.67   21.80
   2  -3  -4  285.87   19.20
   2  -3  -4  315.47   20.80
   2  -3  -4  291.47   21.00
  -2   3   4  302.37   21.20
  -2   3   4  310.87   20.50
  -2   3   4  313.37   19.00
  -2   3   4  319.77   20.30
  -2   3   4  323.87   21.50
  -2   3   4  334.37   22.30
   1  -3  -4 1333.57   80.19
   1  -3  -4 1325.77   80.59
   1  -3  -4 1367.86   79.39
   1  -3  -4 1324.77   80.19
   1  -3  -4 1316.07   80.49
   1  -3  -4 1368.96   80.39
  -1   3   4 1346.67   80.89
  -1   3   4 1352.56   82.09
  -1   3   4 1461.45   81.79
  -1   3   4 1419.56   80.79
  -1   3   4 1429.86   79.59
   0  -3  -4  351.06   22.50
   0  -3  -4  367.76   22.40
   0  -3  -4  347.47   21.40
   0  -3  -4  348.47   21.90
   0  -3  -4  337.87   22.60
   0  -3  -4  351.96   21.00
   0   3   4  356.76   23.20
   0   3   4  393.26   23.70
   0   3   4  368.96   22.60
   0   3   4  287.87   23.60
   0   3   4  357.56   21.50
  -1  -3  -4  422.26   26.20
  -1  -3  -4  420.96   25.30
  -1  -3  -4  434.56   25.60
  -1  -3  -4  415.56   26.30
   1   3   4  370.16   25.80
   1   3   4  371.36   29.30
   1   3   4  417.16   25.50
   1   3   4  426.06   24.80
   1   3   4  359.06   25.80
  -2  -3  -4  555.64   33.20
  -2  -3  -4  516.95   32.70
  -2  -3  -4  527.75   33.10
  -2  -3  -4  489.65   32.70
   2   3   4  547.85   33.50
   2   3   4  560.54   33.70
   2   3   4  554.54   33.90
   2   3   4  523.25   33.60
   2   3   4  560.34   35.00
  -3  -3  -4  213.68   14.10
  -3  -3  -4  201.98   14.70
  -3  -3  -4  177.68   14.40
  -3  -3  -4  213.48   14.40
  -3  -3  -4  221.78   14.90
  -3  -3  -4  205.88   14.50
   3   3   4  227.58   15.50
   3   3   4  206.28   15.30
   3   3   4  200.38   17.10
   3   3   4  208.28   15.40
   3   3   4  205.18   14.90
  -4  -3  -4  362.76   24.60
  -4  -3  -4  364.56   23.60
  -4  -3  -4  376.36   25.20
  -4  -3  -4  395.66   25.20
  -4  -3  -4  379.26   25.00
   4   3   4  388.76   25.90
   4   3   4  394.06   25.50
   4   3   4  397.86   25.30
   4   3   4  354.96   24.50
   4   3   4  413.26   26.20
  -5  -3  -4   12.20    4.70
  -5  -3  -4   -3.90    3.60
  -5  -3  -4    5.80    4.20
  -5  -3  -4    8.50    4.90
  -5  -3  -4   -2.40    3.30
  -5  -3  -4    3.70    3.50
   5   3   4    8.50    8.00
   5   3   4    3.50    5.00
   5   3   4   -2.00    4.80
   5   3   4    3.30    3.90
   5   3   4    1.90    3.90
  -6  -3  -4  154.38   13.60
  -6  -3  -4  161.28   13.40
  -6  -3  -4  144.19   18.70
  -6  -3  -4  128.39   11.90
  -6  -3  -4  147.39   12.70
  -6  -3  -4  150.88   14.10
  -6  -3  -4  158.68   12.50
   6   3   4  142.09   11.90
   6   3   4  110.19   13.30
   6   3   4  126.29   12.40
   6   3   4  124.49   14.40
   6   3   4  129.19   17.60
   6   3   4  148.49   14.70
   6   3   4  128.09   16.40
   6   3   4  129.29   10.80
  -7  -3  -4   11.60    5.80
  -7  -3  -4   12.60   10.70
  -7  -3  -4   22.20    6.90
  -7  -3  -4    8.50    6.20
  -7  -3  -4   15.70    6.40
  -7  -3  -4   17.50    7.20
  -7  -3  -4   15.00    5.90
   7   3   4   21.50    4.60
   7   3   4   -0.90    7.30
   7   3   4   23.40    7.80
   7   3   4   17.00    5.50
   7   3   4   23.00   12.30
   7   3   4   32.20    9.70
   7   3   4   21.00    9.00
   7   3   4   17.10    5.40
  -8  -3  -4   19.80    8.20
  -8  -3  -4   38.70    9.60
  -8  -3  -4    8.20    7.90
  -8  -3  -4    8.50    7.80
  -8  -3  -4   12.80   14.80
   8   3   4    9.70    6.40
   8   3   4   12.80    6.10
   8   3   4   -2.20    8.80
   8   3   4   13.50    9.70
   8   3   4   18.50    9.40
   8   3   4    9.50    5.30
  -9  -3  -4    3.10   14.60
  -9  -3  -4   28.70   11.70
  -9  -3  -4    6.90   10.00
   9   3   4    8.40   12.60
   9   3   4   -5.30   14.60
   9   3   4   23.10    8.20
   9   3   4   22.30    7.50
   9   3   4   13.80    8.70
 -10  -3  -4   16.00   12.80
 -10  -3  -4    3.20   12.30
  10   3   4   -6.70    8.50
  10   3   4    4.60   10.40
  10   3   4   -6.80   13.90
  10   3   4    0.30    9.50
   8  -4  -4   12.70   12.70
   8  -4  -4    0.30    9.10
   8  -4  -4    6.30   10.90
   8  -4  -4    0.20   14.80
  -8   4   4   -0.90   12.30
  -8   4   4  -17.50   20.00
  -8   4   4   10.90   20.00
  -8   4   4   20.40   19.70
  -8   4   4   -8.20   19.40
   7  -4  -4    7.90   11.00
   7  -4  -4    9.90    6.80
   7  -4  -4    6.50    9.80
   7  -4  -4   12.50   11.40
   7  -4  -4    3.00   15.10
  -7   4   4   -6.80   15.40
  -7   4   4    2.30   16.00
  -7   4   4   20.40   15.70
  -7   4   4    6.50    9.20
   6  -4  -4   -0.70    6.90
   6  -4  -4   -1.60   10.90
   6  -4  -4    8.10    6.80
   6  -4  -4    4.70    7.10
  -6   4   4   14.00   13.60
  -6   4   4   13.80    7.10
  -6   4   4   19.30   12.60
  -6   4   4   19.80   11.70
  -6   4   4   11.50   13.10
   5  -4  -4  102.29   14.10
   5  -4  -4   92.89    9.90
   5  -4  -4   81.39   12.80
   5  -4  -4   67.79    9.90
   5  -4  -4   84.09    9.80
  -5   4   4   92.99   14.50
  -5   4   4   74.69   13.20
  -5   4   4   65.79   12.10
  -5   4   4   93.39   10.50
  -5   4   4  115.19   18.20
  -5   4   4   90.49   15.60
   4  -4  -4   38.60    5.90
   4  -4  -4   56.69    9.50
   4  -4  -4   32.80    5.70
   4  -4  -4   31.50    7.10
   4  -4  -4   26.00   10.70
   4  -4  -4   33.80    6.60
  -4   4   4   41.10    8.30
  -4   4   4   35.70    6.00
  -4   4   4   37.00    8.70
  -4   4   4   31.70    8.10
  -4   4   4   36.60    8.50
  -4   4   4   43.50    9.20
  -4   4   4   27.10   11.30
  -4   4   4   42.80    6.00
   3  -4  -4  466.05   29.90
   3  -4  -4  462.25   31.90
   3  -4  -4  515.25   31.10
   3  -4  -4  532.35   32.20
   3  -4  -4  495.65   30.60
   3  -4  -4  509.15   32.20
   3  -4  -4  414.96   34.80
  -3   4   4  501.65   29.90
  -3   4   4  496.55   33.40
  -3   4   4  505.45   31.50
  -3   4   4  490.55   35.50
  -3   4   4  445.86   32.70
  -3   4   4  439.96   31.70
  -3   4   4  531.95   33.30
  -3   4   4  510.05   31.00
   2  -4  -4  254.77   16.20
   2  -4  -4  256.47   17.40
   2  -4  -4  222.68   16.90
   2  -4  -4  218.78   15.10
   2  -4  -4  213.88   16.50
  -2   4   4  195.58   16.70
  -2   4   4  249.58   16.60
  -2   4   4  227.78   18.20
  -2   4   4  253.97   18.20
  -2   4   4  224.38   14.90
  -2   4   4  240.88   17.80
   1  -4  -4  867.11   52.39
   1  -4  -4  882.01   51.79
   1  -4  -4  849.91   52.29
   1  -4  -4  839.62   51.09
   1  -4  -4  832.92   52.39
   1  -4  -4  856.01   51.89
   1  -4  -4  837.32   51.09
  -1   4   4  881.01   52.89
  -1   4   4  902.81   51.49
  -1   4   4  904.91   53.39
  -1   4   4  882.51   52.49
  -1   4   4  855.01   52.59
   0  -4  -4  382.06   24.60
   0  -4  -4  412.86   25.90
   0  -4  -4  405.56   25.80
   0  -4  -4  384.66   25.00
   0  -4  -4  383.66   24.30
   0  -4  -4  375.86   25.80
   0  -4  -4  407.06   25.80
   0   4   4  422.36   26.60
   0   4   4  415.46   24.80
   0   4   4  428.76   26.20
   0   4   4  412.56   25.70
   0   4   4  402.46   26.30
  -1  -4  -4 2132.79  128.29
  -1  -4  -4 2160.88  128.69
  -1  -4  -4 2234.68  129.19
  -1  -4  -4 2155.28  127.99
  -1  -4  -4 2240.08  129.59
  -1  -4  -4 2329.87  129.09
   1   4   4 2293.37  127.99
   1   4   4 2314.07  129.09
   1   4   4 2132.69  129.19
   1   4   4 2209.48  128.49
   1   4   4 2079.89  129.39
  -2  -4  -4   61.89    7.40
  -2  -4  -4   67.99    7.10
  -2  -4  -4   66.99    7.10
  -2  -4  -4   69.29    7.20
  -2  -4  -4   64.79    7.50
   2   4   4   82.79    6.90
   2   4   4   82.49    7.10
   2   4   4   70.59   10.10
   2   4   4   62.49    8.50
   2   4   4   73.49    8.30
   2   4   4   71.09    8.00
  -3  -4  -4 1511.45   93.19
  -3  -4  -4 1682.13   93.69
  -3  -4  -4 1629.14   92.79
  -3  -4  -4 1525.15   92.99
  -3  -4  -4 1726.03   93.29
   3   4   4 1526.65   93.39
   3   4   4 1624.84   93.99
   3   4   4 1430.96   92.69
   3   4   4 1547.65   94.89
   3   4   4 1655.03   93.89
   3   4   4 1526.75   93.59
  -4  -4  -4   31.50    5.10
  -4  -4  -4   23.90    5.20
  -4  -4  -4   28.80    4.90
  -4  -4  -4   30.70    6.30
  -4  -4  -4   22.80    4.50
  -4  -4  -4   32.40    5.40
   4   4   4   18.30    5.90
   4   4   4   37.40    6.40
   4   4   4   27.90    6.20
   4   4   4   26.10    4.70
   4   4   4   33.10    8.20
   4   4   4   23.70    4.80
  -5  -4  -4  802.92   50.29
  -5  -4  -4  832.92   49.50
  -5  -4  -4  832.32   50.99
  -5  -4  -4  675.43   49.40
  -5  -4  -4  814.32   50.59
  -5  -4  -4  790.62   53.29
  -5  -4  -4  863.41   50.59
   5   4   4  828.22   49.90
   5   4   4  825.02   54.09
   5   4   4  839.12   50.59
   5   4   4  850.71   51.69
   5   4   4  878.11   50.99
   5   4   4  778.72   51.19
  -6  -4  -4   51.59    9.10
  -6  -4  -4   57.39    8.50
  -6  -4  -4   35.50    6.80
  -6  -4  -4   26.10    6.20
  -6  -4  -4   54.39    8.50
  -6  -4  -4   47.70    8.10
  -6  -4  -4   26.40    9.80
   6   4   4   43.50    7.60
   6   4   4   29.00    7.70
   6   4   4   55.79    8.40
   6   4   4   39.50   10.60
   6   4   4   60.69   11.30
  -7  -4  -4  185.48   22.30
  -7  -4  -4  173.78   15.40
  -7  -4  -4  182.98   16.10
  -7  -4  -4  177.48   17.00
  -7  -4  -4  120.79   14.20
  -7  -4  -4  169.08   15.70
  -7  -4  -4  161.58   15.10
   7   4   4  162.88   13.90
   7   4   4  171.78   14.40
   7   4   4  169.58   18.00
   7   4   4  154.68   20.70
   7   4   4  152.88   16.60
   7   4   4  163.78   18.10
  -8  -4  -4   38.90   15.00
  -8  -4  -4   53.19   10.70
  -8  -4  -4   70.99   11.50
  -8  -4  -4   59.39   10.80
   8   4   4   44.20   11.80
   8   4   4   41.70    7.80
   8   4   4   53.59   10.50
   8   4   4   42.20    7.60
   8   4   4   40.20   10.70
   8   4   4   45.40   11.20
  -9  -4  -4   10.30   17.00
  -9  -4  -4   37.40   11.50
  -9  -4  -4   28.70   10.20
   9   4   4   15.80    8.60
   9   4   4    3.80   11.30
   9   4   4   28.20    7.50
   9   4   4   18.70    7.70
   9   4   4   -2.50   13.80
   9   4   4   31.70   11.70
 -10  -4  -4   34.00   13.60
 -10  -4  -4   21.50   20.30
 -10  -4  -4   30.40   14.30
  10   4   4    5.90    9.90
  10   4   4    6.00    9.40
  10   4   4   33.70    9.80
  10   4   4   42.00   14.70
   7  -5  -4    0.00   10.80
   7  -5  -4  -11.10    7.20
   7  -5  -4   -1.50   12.10
   7  -5  -4   -9.30    9.00
  -7   5   4  -14.50   19.20
  -7   5   4  -16.50    8.80
  -7   5   4    0.40   18.40
  -7   5   4    6.60   17.30
  -7   5   4  -23.50   14.90
   6  -5  -4   70.09   14.30
   6  -5  -4   52.69    8.50
   6  -5  -4   63.09   12.30
   6  -5  -4   47.00   14.40
   6  -5  -4   36.90   18.20
  -6   5   4   26.20   14.20
  -6   5   4   61.79   13.70
  -6   5   4   57.69   17.60
  -6   5   4   64.79    9.60
  -6   5   4   60.49   20.20
   5  -5  -4    0.90    6.40
   5  -5  -4   -4.70    4.50
   5  -5  -4   -5.30    8.90
   5  -5  -4   -1.60    8.40
   5  -5  -4   -2.70    6.10
  -5   5   4    0.60   10.70
  -5   5   4    5.30   12.40
  -5   5   4   -4.90    5.10
  -5   5   4    6.60   10.30
  -5   5   4   -7.00    9.50
  -5   5   4   -0.30    8.40
   4  -5  -4   95.89   13.80
   4  -5  -4  158.08   11.90
   4  -5  -4  143.99   13.20
   4  -5  -4  142.89   15.30
   4  -5  -4  127.89   11.70
   4  -5  -4  121.39   15.20
  -4   5   4  145.89   17.70
  -4   5   4  106.49   14.00
  -4   5   4  129.29   13.20
  -4   5   4  113.69   18.50
  -4   5   4  134.69   17.70
  -4   5   4  151.88   21.10
  -4   5   4  148.49   15.20
  -4   5   4  146.49   11.70
   3  -5  -4   -1.40   10.60
   3  -5  -4    6.90    4.40
   3  -5  -4    5.40    4.10
   3  -5  -4    7.10    4.40
   3  -5  -4    3.60    5.50
   3  -5  -4   10.40    5.90
   3  -5  -4    7.80    6.20
  -3   5   4   -0.60    6.20
  -3   5   4    5.30    6.50
  -3   5   4    6.70    3.50
  -3   5   4   -0.40    4.70
  -3   5   4    0.30    7.00
  -3   5   4   -3.60    5.00
  -3   5   4   12.20    7.70
  -3   5   4    5.60    8.70
   2  -5  -4  504.25   33.50
   2  -5  -4  461.05   32.90
   2  -5  -4  575.14   33.20
   2  -5  -4  538.55   34.50
   2  -5  -4  518.55   32.40
   2  -5  -4  538.65   34.20
  -2   5   4  544.55   35.40
  -2   5   4  553.64   38.60
  -2   5   4  472.95   35.30
  -2   5   4  529.05   34.00
  -2   5   4  510.85   32.20
  -2   5   4  547.55   34.80
  -2   5   4  570.24   34.10
  -2   5   4  525.85   32.30
   1  -5  -4   51.29    6.00
   1  -5  -4   60.39    6.50
   1  -5  -4   48.70    7.20
   1  -5  -4   54.29    7.40
   1  -5  -4   51.79    7.70
   1  -5  -4   58.29    8.20
   1  -5  -4   40.90    6.10
  -1   5   4   55.19   10.90
  -1   5   4   54.69    6.50
  -1   5   4   51.29    8.60
  -1   5   4   55.99    7.70
  -1   5   4   49.20    7.30
  -1   5   4   37.60    4.90
  -1   5   4   54.09    8.30
   0  -5  -4 1237.08   71.49
   0  -5  -4 1156.38   70.59
   0  -5  -4 1175.78   70.19
   0  -5  -4 1269.07   71.99
   0  -5  -4 1125.49   70.79
   0  -5  -4 1175.98   70.39
   0  -5  -4 1250.67   71.69
   0   5   4 1190.28   71.29
   0   5   4 1266.67   70.69
   0   5   4 1265.27   71.59
   0   5   4 1148.99   70.79
   0   5   4 1042.60   71.49
   0   5   4 1261.57   72.29
  -1  -5  -4   59.09    6.40
  -1  -5  -4   66.99    6.60
  -1  -5  -4   82.69   10.10
  -1  -5  -4   65.29    8.30
  -1  -5  -4   67.89    7.30
  -1  -5  -4   61.69    7.70
  -1  -5  -4   62.99    6.50
  -1  -5  -4   61.89    7.60
   1   5   4   67.89    8.40
   1   5   4   64.39    6.60
   1   5   4   59.89    6.70
   1   5   4   62.39    8.10
   1   5   4   64.09    8.30
   1   5   4   60.19    7.80
  -2  -5  -4 2745.43  148.69
  -2  -5  -4 2657.33  149.59
  -2  -5  -4 2461.55  148.69
  -2  -5  -4 2183.18  148.89
  -2  -5  -4 2492.55  148.79
   2   5   4 2698.83  148.59
   2   5   4 2648.54  150.28
   2   5   4 2549.24  149.19
   2   5   4 2779.12  149.69
   2   5   4 2223.58  149.09
   2   5   4 2691.03  148.69
  -3  -5  -4  106.29   10.60
  -3  -5  -4  125.39   10.50
  -3  -5  -4  126.59   10.30
  -3  -5  -4  121.49   11.50
  -3  -5  -4  110.59   10.40
   3   5   4  130.99   12.40
   3   5   4  109.39   14.10
   3   5   4  126.29   11.30
   3   5   4  112.79   11.00
   3   5   4  116.89   10.00
   3   5   4  121.79    9.90
  -4  -5  -4 1295.27   76.89
  -4  -5  -4 1255.47   76.99
  -4  -5  -4 1196.68   78.39
  -4  -5  -4 1245.88   76.99
  -4  -5  -4 1351.76   77.09
  -4  -5  -4 1304.57   76.49
   4   5   4 1349.27   77.39
   4   5   4 1345.37   77.89
   4   5   4 1302.57   77.39
   4   5   4 1273.17   77.59
   4   5   4 1176.58   76.29
   4   5   4 1269.07   76.49
   4   5   4 1357.16   79.99
  -5  -5  -4  153.58   13.60
  -5  -5  -4  187.48   14.30
  -5  -5  -4  164.68   13.80
  -5  -5  -4  164.68   14.60
  -5  -5  -4  165.28   18.50
  -5  -5  -4  130.89   13.40
   5   5   4  153.58   15.50
   5   5   4  153.98   13.40
   5   5   4  184.88   15.70
   5   5   4  169.78   13.90
   5   5   4  171.78   14.60
   5   5   4  166.68   19.30
  -6  -5  -4  879.01   55.19
  -6  -5  -4  868.41   58.99
  -6  -5  -4  938.81   55.29
  -6  -5  -4  897.61   55.19
  -6  -5  -4  822.42   55.29
  -6  -5  -4  917.31   55.19
  -6  -5  -4  866.11   55.99
   6   5   4  829.42   56.09
   6   5   4  858.91   54.49
   6   5   4  971.10   55.69
   6   5   4  914.31   55.29
   6   5   4  892.51   59.49
   6   5   4  854.91   56.29
  -7  -5  -4  109.49   13.70
  -7  -5  -4  107.59   13.40
  -7  -5  -4   84.59   12.00
  -7  -5  -4   98.19   12.80
  -7  -5  -4  124.59   14.40
  -7  -5  -4  103.89   17.10
   7   5   4  103.79   12.00
   7   5   4  161.48   33.10
   7   5   4   93.69   14.10
   7   5   4   72.79   12.90
   7   5   4  115.89   14.60
   7   5   4  120.49   14.00
   7   5   4  103.49   12.00
  -8  -5  -4  183.38   24.30
  -8  -5  -4  208.98   20.50
  -8  -5  -4  198.38   19.10
  -8  -5  -4  177.08   17.90
   8   5   4  218.78   20.00
   8   5   4  204.28   20.30
   8   5   4  164.18   16.40
   8   5   4  163.68   22.10
  -9  -5  -4  101.49   21.20
  -9  -5  -4   69.49   15.70
  -9  -5  -4   70.69   13.50
  -9  -5  -4   52.19   12.10
   9   5   4  106.29   15.90
   9   5   4   55.09    9.80
   9   5   4   77.79   12.40
   9   5   4   53.59   13.00
 -10  -5  -4   35.00   14.30
 -10  -5  -4   49.00   13.80
 -10  -5  -4    5.50   20.70
  10   5   4   38.00   12.90
  10   5   4   30.10   14.90
  10   5   4   49.00   10.70
  10   5   4   45.60   12.50
   7  -6  -4    6.90   11.30
   7  -6  -4    9.60   16.10
   7  -6  -4    3.50   11.60
   7  -6  -4    9.60    8.40
  -7   6   4   34.90   22.80
  -7   6   4   -3.30   20.60
  -7   6   4    4.00   19.10
   6  -6  -4    1.30    8.70
   6  -6  -4   -5.30    9.00
   6  -6  -4    3.60    7.30
   6  -6  -4   -5.70   11.70
  -6   6   4   21.80   16.20
  -6   6   4    4.70   18.90
  -6   6   4    1.50    8.50
  -6   6   4    6.30   16.20
   5  -6  -4   -1.50    7.60
   5  -6  -4   13.20   11.00
   5  -6  -4    4.80   10.50
  -5   6   4   -6.40   10.30
  -5   6   4  -12.10    6.60
  -5   6   4    3.50   12.30
  -5   6   4    4.10   11.50
  -5   6   4   -5.30    7.10
  -5   6   4    5.40   14.60
   4  -6  -4    5.40    6.50
   4  -6  -4    2.50    8.50
   4  -6  -4    5.00    4.70
   4  -6  -4   12.80    6.10
   4  -6  -4    1.60    8.00
  -4   6   4   -0.30    9.00
  -4   6   4    9.80    5.60
  -4   6   4    5.10   13.80
  -4   6   4   10.20    8.40
   3  -6  -4  146.79   13.50
   3  -6  -4  130.59   12.60
   3  -6  -4  148.99   15.10
   3  -6  -4  139.89   17.40
   3  -6  -4  165.18   13.60
   3  -6  -4  150.68   16.60
   3  -6  -4  146.19   15.40
  -3   6   4  154.18   15.70
  -3   6   4  162.58   21.50
  -3   6   4  195.88   19.30
  -3   6   4  154.98   16.80
  -3   6   4  153.18   12.90
  -3   6   4  162.98   15.40
  -3   6   4  142.49   20.80
   2  -6  -4  238.78   19.10
   2  -6  -4  218.88   16.60
   2  -6  -4  209.48   17.10
   2  -6  -4  227.48   17.50
   2  -6  -4  265.27   18.80
   2  -6  -4  248.48   16.90
  -2   6   4  205.18   20.90
  -2   6   4  213.78   16.10
  -2   6   4  247.68   24.40
  -2   6   4  240.78   18.90
  -2   6   4  227.38   19.90
  -2   6   4  210.98   19.10
  -2   6   4  233.68   18.30
   1  -6  -4  282.27   20.20
   1  -6  -4  283.67   19.10
   1  -6  -4  222.78   20.10
   1  -6  -4  237.68   19.50
   1  -6  -4  249.68   18.40
   1  -6  -4  296.07   20.60
   1  -6  -4  284.77   18.60
  -1   6   4  208.98   19.90
  -1   6   4  264.17   20.70
  -1   6   4  287.27   19.70
  -1   6   4  303.27   19.20
  -1   6   4  324.07   25.70
  -1   6   4  304.87   20.30
   0  -6  -4  127.69   10.60
   0  -6  -4  139.59   12.60
   0  -6  -4  120.29   10.40
   0  -6  -4  119.69   10.50
   0  -6  -4  117.79   10.50
   0  -6  -4  129.09   12.00
   0  -6  -4  137.29   12.60
   0   6   4  122.79   11.40
   0   6   4  126.99   16.70
   0   6   4  134.59   10.90
   0   6   4  122.19   11.30
   0   6   4  103.59   11.70
   0   6   4  139.39   13.00
   0   6   4  135.79   11.00
  -1  -6  -4 1163.28   71.09
  -1  -6  -4 1136.59   69.49
  -1  -6  -4 1128.19   69.29
  -1  -6  -4 1132.19   70.49
  -1  -6  -4 1189.28   69.89
  -1  -6  -4 1105.59   71.09
  -1  -6  -4 1212.28   69.49
   1   6   4 1265.87   70.99
   1   6   4 1202.18   70.39
   1   6   4 1093.49   69.89
   1   6   4 1142.79   69.59
   1   6   4 1212.88   70.79
   1   6   4 1238.58   69.69
  -2  -6  -4  397.66   30.50
  -2  -6  -4  479.35   30.10
  -2  -6  -4  498.75   30.10
  -2  -6  -4  486.75   32.20
  -2  -6  -4  458.85   31.30
  -2  -6  -4  446.66   30.50
  -2  -6  -4  465.45   30.20
   2   6   4  484.05   29.80
   2   6   4  501.85   32.20
   2   6   4  487.75   30.00
   2   6   4  460.65   30.70
   2   6   4  499.65   31.20
   2   6   4  501.25   31.30
  -3  -6  -4  410.96   28.00
  -3  -6  -4  399.76   26.60
  -3  -6  -4  425.06   27.00
  -3  -6  -4  374.76   26.30
  -3  -6  -4  421.56   27.20
   3   6   4  334.47   26.80
   3   6   4  443.96   26.10
   3   6   4  399.46   26.20
   3   6   4  410.26   27.20
   3   6   4  386.26   27.10
   3   6   4  439.66   29.60
  -4  -6  -4  522.05   34.30
  -4  -6  -4  509.55   35.10
  -4  -6  -4  567.74   34.90
  -4  -6  -4  567.64   35.80
  -4  -6  -4  490.55   34.60
  -4  -6  -4  544.95   34.80
  -4  -6  -4  509.15   37.60
   4   6   4  549.65   36.40
   4   6   4  547.55   34.40
   4   6   4  592.84   38.50
   4   6   4  574.64   34.30
   4   6   4  520.65   35.40
   4   6   4  548.25   35.70
  -5  -6  -4  626.44   40.20
  -5  -6  -4  612.84   41.10
  -5  -6  -4  553.34   40.30
  -5  -6  -4  627.84   40.60
  -5  -6  -4  660.33   41.30
  -5  -6  -4  624.84   44.70
  -5  -6  -4  668.33   40.90
   5   6   4  618.34   41.80
   5   6   4  671.73   40.70
   5   6   4  630.84   40.20
   5   6   4  671.83   45.20
   5   6   4  639.84   41.00
   5   6   4  713.33   41.80
   5   6   4  642.44   41.90
  -6  -6  -4  285.97   23.60
  -6  -6  -4  355.16   24.90
  -6  -6  -4  341.67   28.50
  -6  -6  -4  317.97   23.40
  -6  -6  -4  362.66   24.20
  -6  -6  -4  363.86   23.90
  -6  -6  -4  252.57   22.20
   6   6   4  293.77   24.70
   6   6   4  342.77   23.60
   6   6   4  333.67   30.10
   6   6   4  289.87   24.80
   6   6   4  272.67   22.40
   6   6   4  341.47   23.70
  -7  -6  -4  179.58   16.90
  -7  -6  -4  200.98   24.30
  -7  -6  -4  172.28   19.10
  -7  -6  -4  164.68   23.30
  -7  -6  -4  177.88   18.50
  -7  -6  -4  168.38   18.60
  -7  -6  -4  169.08   16.50
   7   6   4  135.19   19.40
   7   6   4  149.19   18.60
   7   6   4  175.78   17.40
   7   6   4  165.58   16.40
   7   6   4  165.98   15.90
  -8  -6  -4  284.77   37.70
  -8  -6  -4  294.17   25.80
  -8  -6  -4  313.17   26.00
   8   6   4  334.47   25.40
   8   6   4  349.87   26.60
   8   6   4  365.66   27.30
   8   6   4  357.26   25.60
   8   6   4  294.57   24.60
  -9  -6  -4   44.50   12.80
  -9  -6  -4   47.00   14.20
  -9  -6  -4   34.10   11.80
  -9  -6  -4   25.90   19.00
   9   6   4   40.70   10.30
   9   6   4   46.40   12.30
   9   6   4   35.60   13.10
   9   6   4   34.10   10.00
 -10  -6  -4  102.69   25.60
 -10  -6  -4   64.89   16.80
 -10  -6  -4   74.99   16.80
  10   6   4   74.39   13.10
  10   6   4   80.99   16.90
  10   6   4   72.89   16.10
   6  -7  -4   20.00   13.90
   6  -7  -4   -4.60    7.70
   6  -7  -4    3.70    9.60
   6  -7  -4    4.70   10.40
  -6   7   4    6.30   11.20
  -6   7   4   28.40   16.20
  -6   7   4   11.60   21.50
   5  -7  -4   29.40    7.90
   5  -7  -4   24.30   14.10
   5  -7  -4   24.10    9.10
  -5   7   4   11.20   16.60
  -5   7   4   28.00    8.90
  -5   7   4   47.20   21.90
  -5   7   4   31.90   12.80
  -5   7   4   27.50   14.90
   4  -7  -4   25.40    9.50
   4  -7  -4  -20.90    9.50
   4  -7  -4    8.20    7.10
  -4   7   4   -5.60   14.20
  -4   7   4    5.20    9.20
  -4   7   4   -5.70   10.80
  -4   7   4   -0.80   12.80
  -4   7   4    8.90    7.40
   3  -7  -4   27.50    9.60
   3  -7  -4   30.00    9.30
   3  -7  -4   21.40    7.80
   3  -7  -4   29.10    6.90
   3  -7  -4   40.50    7.50
  -3   7   4    0.40   12.90
  -3   7   4   42.90    9.40
  -3   7   4   17.40   10.70
  -3   7   4   33.90    7.50
  -3   7   4   39.80   10.60
   2  -7  -4   19.60    8.30
   2  -7  -4   42.20    8.20
   2  -7  -4   16.90    6.90
   2  -7  -4   30.10    6.30
   2  -7  -4   21.10    7.20
   2  -7  -4   33.80    7.10
  -2   7   4   28.50    6.40
  -2   7   4   47.40   15.30
  -2   7   4   38.00    7.80
  -2   7   4   25.50    9.50
  -2   7   4   30.20    8.90
   1  -7  -4   34.50    6.80
   1  -7  -4   30.50    8.00
   1  -7  -4   50.79    7.10
   1  -7  -4   32.30    8.50
   1  -7  -4   34.40    9.10
   1  -7  -4   31.30    6.90
   1  -7  -4   47.00    8.70
  -1   7   4   50.19   14.10
  -1   7   4   44.30    9.30
  -1   7   4   38.70    8.10
  -1   7   4   34.50    8.10
  -1   7   4   44.30    7.40
  -1   7   4   46.40    7.70
   0  -7  -4   22.60    6.50
   0  -7  -4   15.20    4.20
   0  -7  -4   14.00    7.10
   0  -7  -4   15.60    6.70
   0  -7  -4   15.70    5.10
   0  -7  -4   21.90    5.40
   0  -7  -4   20.80    5.60
   0   7   4   10.30    9.50
   0   7   4   12.30    6.80
   0   7   4    7.30    5.20
   0   7   4   16.80    6.10
   0   7   4   16.30    6.40
   0   7   4   12.90    4.80
  -1  -7  -4  119.59   11.80
  -1  -7  -4  143.79   13.30
  -1  -7  -4  120.69   14.30
  -1  -7  -4  123.79   11.60
  -1  -7  -4  132.39   11.40
  -1  -7  -4  128.29   13.50
  -1  -7  -4  145.79   12.40
  -1  -7  -4  148.39   13.90
   1   7   4  150.08   12.00
   1   7   4  130.89   18.20
   1   7   4  148.29   13.20
   1   7   4  121.29   12.50
   1   7   4  152.28   12.10
   1   7   4  137.59   13.70
   1   7   4  127.09   12.70
  -2  -7  -4    3.50    5.30
  -2  -7  -4   -5.90    6.00
  -2  -7  -4    1.40    5.30
  -2  -7  -4    1.80    4.10
  -2  -7  -4    6.90    6.30
  -2  -7  -4   -0.90    4.40
  -2  -7  -4   -4.00    4.60
  -2  -7  -4    1.70    4.20
   2   7   4    0.40    3.80
   2   7   4   -5.30    6.30
   2   7   4   -0.50    5.10
   2   7   4    2.60    3.50
   2   7   4    2.30    7.90
   2   7   4   -0.70    4.80
   2   7   4   -0.70    4.90
  -3  -7  -4  471.25   30.60
  -3  -7  -4  459.45   32.70
  -3  -7  -4  499.45   31.60
  -3  -7  -4  418.76   30.40
  -3  -7  -4  451.15   30.90
   3   7   4  462.55   31.30
   3   7   4  476.05   31.20
   3   7   4  457.75   31.10
   3   7   4  495.75   29.90
   3   7   4  483.25   33.50
   3   7   4  482.55   30.40
  -4  -7  -4  119.79   11.70
  -4  -7  -4   94.49   11.50
  -4  -7  -4   96.59   11.10
  -4  -7  -4  117.69   11.60
  -4  -7  -4   80.79   11.60
  -4  -7  -4  115.09   14.30
   4   7   4  100.09   10.50
   4   7   4  123.29   13.00
   4   7   4  128.99   17.40
   4   7   4   93.59   13.00
   4   7   4   90.59   12.30
   4   7   4  113.89   10.30
  -5  -7  -4  514.65   35.60
  -5  -7  -4  547.55   36.30
  -5  -7  -4  532.55   34.70
  -5  -7  -4  555.14   35.20
  -5  -7  -4  530.75   39.50
  -5  -7  -4  504.45   35.00
   5   7   4  522.15   36.20
   5   7   4  536.75   34.20
   5   7   4  545.25   40.20
   5   7   4  533.35   36.90
   5   7   4  546.95   34.90
   5   7   4  525.85   36.10
  -6  -7  -4   39.60    8.90
  -6  -7  -4   55.09    9.60
  -6  -7  -4   41.60    7.80
  -6  -7  -4   28.20    9.00
  -6  -7  -4   26.80   12.20
  -6  -7  -4   47.30   12.30
   6   7   4   47.80   11.20
   6   7   4   44.60    9.20
   6   7   4   57.29   14.50
   6   7   4   55.89   11.10
   6   7   4   57.49   10.50
   6   7   4   39.80    8.70
   6   7   4   47.70    8.10
  -7  -7  -4  716.03   52.89
  -7  -7  -4  714.53   47.40
  -7  -7  -4  737.53   46.40
  -7  -7  -4  707.03   48.40
  -7  -7  -4  694.43   46.10
  -7  -7  -4  740.33   48.10
   7   7   4  607.24   44.80
   7   7   4  659.93   48.20
   7   7   4  740.03   46.20
   7   7   4  704.03   46.40
   7   7   4  760.82   46.60
  -8  -7  -4   26.70   10.10
  -8  -7  -4   20.20   14.70
  -8  -7  -4   19.00    9.10
  -8  -7  -4    4.60   11.10
  -8  -7  -4   13.00   10.20
   8   7   4   19.90    8.70
   8   7   4   18.70    9.70
   8   7   4   17.90    9.30
   8   7   4   14.40    9.40
  -9  -7  -4  212.88   26.20
  -9  -7  -4  201.38   22.60
  -9  -7  -4  171.08   24.20
  -9  -7  -4  181.48   26.30
   9   7   4  207.68   22.30
   9   7   4  215.98   23.30
 -10  -7  -4  -16.50   19.40
 -10  -7  -4    4.00   14.60
 -10  -7  -4  -26.30   11.80
  10   7   4  -13.90   11.70
  10   7   4   -6.40   12.30
  10   7   4   -5.60   14.00
   5  -8  -4    1.60   14.40
   5  -8  -4   20.30   11.30
   5  -8  -4   -3.30    7.80
  -5   8   4   29.80   14.70
  -5   8   4   31.40   23.10
  -5   8   4    7.70   11.20
   4  -8  -4    5.60   11.80
   4  -8  -4   24.80    8.70
   4  -8  -4   24.60    7.80
  -4   8   4   33.10   10.30
  -4   8   4   49.30   16.10
  -4   8   4   35.70   12.90
  -4   8   4   36.70   20.10
  -4   8   4   24.60   11.30
   3  -8  -4   -0.50    5.70
   3  -8  -4   11.50   10.10
   3  -8  -4   -2.40   11.10
   3  -8  -4    1.90    6.30
   3  -8  -4   11.40    7.00
  -3   8   4    7.80   10.00
  -3   8   4   -3.10   16.90
  -3   8   4   20.60    9.30
  -3   8   4   -3.30    8.00
  -3   8   4  -13.10   11.10
   2  -8  -4   -6.80    6.10
   2  -8  -4    1.50    5.40
   2  -8  -4    4.30    9.00
   2  -8  -4    1.20    9.40
  -2   8   4   -0.20    9.20
  -2   8   4    5.30    7.20
  -2   8   4    2.40    7.90
  -2   8   4  -20.60   14.20
   1  -8  -4    9.10    7.60
   1  -8  -4    2.20    5.00
   1  -8  -4   -1.90    6.50
   1  -8  -4    4.00    8.70
   1  -8  -4   12.40    9.20
   1  -8  -4   -2.80    7.40
   1  -8  -4   15.30    6.70
  -1   8   4   18.90    6.70
  -1   8   4    6.90    7.00
  -1   8   4   18.20    8.00
  -1   8   4   -0.80    7.30
  -1   8   4   -4.10   13.40
   0  -8  -4   -2.60    7.10
   0  -8  -4    4.90    6.10
   0  -8  -4    1.30    4.30
   0  -8  -4   10.80    6.80
   0  -8  -4    0.30    5.10
   0  -8  -4    2.00    7.30
   0  -8  -4    4.60    7.30
   0   8   4    5.80    6.00
   0   8   4  -11.00    6.20
   0   8   4   -6.20   11.10
   0   8   4   -1.00    6.20
   0   8   4    0.00    5.30
  -1  -8  -4    4.80    4.90
  -1  -8  -4    0.40    4.40
  -1  -8  -4   -2.60    5.30
  -1  -8  -4    7.60    7.50
  -1  -8  -4    2.00    6.70
  -1  -8  -4   -2.00    6.50
  -1  -8  -4    2.20    6.10
  -1  -8  -4   -1.40    5.30
   1   8   4   -2.00    9.80
   1   8   4    0.60    6.50
   1   8   4   -0.70    4.80
   1   8   4    6.20    6.10
   1   8   4    2.20    6.00
   1   8   4    8.80    5.30
   1   8   4   -0.20    4.90
  -2  -8  -4  107.09   11.90
  -2  -8  -4   67.49    9.90
  -2  -8  -4   83.39   13.10
  -2  -8  -4   96.09   10.80
  -2  -8  -4   88.89   11.70
  -2  -8  -4  102.99   12.30
  -2  -8  -4   82.79   10.80
  -2  -8  -4   73.49   11.90
   2   8   4   87.09   15.90
   2   8   4   77.69   11.20
   2   8   4   59.19    9.70
   2   8   4   80.09   10.30
   2   8   4  100.79   10.10
   2   8   4   89.09   11.30
   2   8   4   86.09   11.50
  -3  -8  -4   -4.30    5.90
  -3  -8  -4   11.10    6.30
  -3  -8  -4   -1.10    5.60
  -3  -8  -4    8.60    6.60
  -3  -8  -4   -5.50    7.60
  -3  -8  -4    0.30    5.40
   3   8   4    1.00    4.60
   3   8   4    5.40    8.50
   3   8   4    2.30    4.50
   3   8   4    6.80    6.50
   3   8   4   -4.40    5.80
   3   8   4  -12.30    9.70
   3   8   4    4.50    6.00
  -4  -8  -4  179.68   18.90
  -4  -8  -4  154.58   14.90
  -4  -8  -4  161.58   15.30
  -4  -8  -4  131.99   16.60
  -4  -8  -4  144.49   15.50
  -4  -8  -4  165.08   15.50
   4   8   4  174.58   14.50
   4   8   4  184.58   16.90
   4   8   4  145.59   15.60
   4   8   4  207.48   21.60
   4   8   4  148.49   20.20
   4   8   4  155.98   16.80
   4   8   4  166.98   13.80
  -5  -8  -4    0.80    7.30
  -5  -8  -4   -5.00    6.00
  -5  -8  -4   -6.60    5.20
  -5  -8  -4   -5.30    9.90
  -5  -8  -4    9.80    6.80
  -5  -8  -4   -2.20    8.20
  -5  -8  -4    9.50    6.60
   5   8   4    3.30    5.50
   5   8   4    5.90    8.20
   5   8   4    0.90    7.90
   5   8   4   25.90   11.00
   5   8   4   -5.10   11.40
   5   8   4    5.00    4.70
  -6  -8  -4  127.39   20.20
  -6  -8  -4  129.19   15.20
  -6  -8  -4  129.99   16.30
  -6  -8  -4   97.89   14.60
  -6  -8  -4  101.19   15.10
  -6  -8  -4  146.39   15.50
   6   8   4  138.89   13.50
   6   8   4  128.89   14.80
   6   8   4  144.59   19.00
   6   8   4  145.79   20.40
   6   8   4  128.89   18.10
   6   8   4  152.98   18.30
  -7  -8  -4   14.10    8.60
  -7  -8  -4    7.80    7.20
  -7  -8  -4   17.10   11.80
  -7  -8  -4   15.20    9.30
  -7  -8  -4    0.30   14.70
   7   8   4    7.60    7.10
   7   8   4   46.10   13.20
   7   8   4    6.80    9.70
   7   8   4   22.20   11.60
   7   8   4   13.30    8.90
  -8  -8  -4  104.19   15.80
  -8  -8  -4  104.19   16.20
  -8  -8  -4   92.79   20.70
  -8  -8  -4   78.29   12.80
  -8  -8  -4   85.09   18.80
   8   8   4  100.99   14.20
   8   8   4  113.39   14.60
   8   8   4   97.39   14.70
   8   8   4   94.39   14.00
   8   8   4  127.29   17.10
   8   8   4   99.39   13.30
  -9  -8  -4   22.80   13.90
  -9  -8  -4   -2.20   11.20
  -9  -8  -4    0.60   19.20
   9   8   4    8.80   11.40
   9   8   4   -2.80   11.30
   9   8   4   25.40   11.30
   9   8   4   11.00   10.50
   4  -9  -4   -3.00    8.20
   4  -9  -4   11.40   14.70
   4  -9  -4  -10.10    9.10
  -4   9   4  -20.50   24.10
  -4   9   4   -6.40   21.20
  -4   9   4   -4.10   14.10
   3  -9  -4   12.00    7.80
   3  -9  -4  -28.80   12.10
  -3   9   4    7.00   11.80
  -3   9   4    2.60   19.50
   2  -9  -4    3.30   12.10
   2  -9  -4    4.50   11.00
   2  -9  -4  -13.20    5.80
   2  -9  -4    3.60    8.50
  -2   9   4   -2.00   14.40
  -2   9   4    3.70    9.70
  -2   9   4    5.80    8.80
  -2   9   4  -12.30   16.50
   1  -9  -4    3.20   10.90
   1  -9  -4    5.80    9.50
   1  -9  -4   23.20    7.10
   1  -9  -4   21.30    9.70
   1  -9  -4  -13.30   13.40
  -1   9   4   14.60    8.80
  -1   9   4   10.80   10.40
  -1   9   4   31.60   21.30
   0  -9  -4   14.30    9.80
   0  -9  -4    6.90   10.00
   0  -9  -4   -1.20   10.00
   0  -9  -4    5.50   10.50
   0  -9  -4   -2.40    4.70
   0  -9  -4    0.50    6.80
   0   9   4   -9.50   15.20
   0   9   4    9.30    7.50
   0   9   4   -0.40    6.60
   0   9   4   -7.30    9.50
  -1  -9  -4    5.00    6.00
  -1  -9  -4    1.90    8.30
  -1  -9  -4    7.10    7.60
  -1  -9  -4   19.70    7.70
  -1  -9  -4   22.30    9.10
  -1  -9  -4   13.40    5.70
   1   9   4   19.20   15.60
   1   9   4    1.80    6.80
   1   9   4    9.40    6.80
  -2  -9  -4   -2.00    6.50
  -2  -9  -4    2.40    5.40
  -2  -9  -4   -8.20    5.90
  -2  -9  -4   -7.80    8.40
  -2  -9  -4   -1.60    6.90
  -2  -9  -4   -6.60    8.10
   2   9   4    6.60   12.30
   2   9   4   -2.90    7.00
   2   9   4   -0.30    5.40
   2   9   4   -4.60    5.70
   2   9   4    9.60    7.20
  -3  -9  -4    2.70    8.30
  -3  -9  -4    4.40    9.50
  -3  -9  -4    4.00    7.00
  -3  -9  -4   -3.90    6.80
  -3  -9  -4    6.40    8.80
   3   9   4  -10.10    5.50
   3   9   4    5.20   12.50
   3   9   4   -6.30    5.60
   3   9   4   -1.40    6.50
   3   9   4    3.40    9.80
   3   9   4   13.40    7.60
  -4  -9  -4    5.80    6.60
  -4  -9  -4    6.60    6.00
  -4  -9  -4   -4.40   10.90
  -4  -9  -4    5.10    7.50
   4   9   4    6.40    5.60
   4   9   4   18.70   11.50
   4   9   4    3.20    7.70
   4   9   4    4.90    6.40
   4   9   4   10.50    8.60
   4   9   4    5.90   12.60
  -5  -9  -4    7.50   11.10
  -5  -9  -4   -6.20    6.40
  -5  -9  -4    0.60    7.30
  -5  -9  -4    1.40    7.00
   5   9   4   -4.80    6.80
   5   9   4   -8.60   12.60
   5   9   4    8.40    6.10
   5   9   4   -8.40   11.10
   5   9   4   22.90   10.30
   5   9   4   -4.40    9.40
  -6  -9  -4    4.20    8.70
  -6  -9  -4  -20.90   12.70
  -6  -9  -4   -7.50    7.60
   6   9   4   19.60   12.00
   6   9   4   -4.20    6.00
   6   9   4   -4.90    7.70
   6   9   4   14.50   11.50
   6   9   4    3.20   17.70
   6   9   4   -6.20   11.70
  -7  -9  -4   60.59   13.50
  -7  -9  -4   66.89   12.50
  -7  -9  -4   73.89   19.40
  -7  -9  -4   96.19   13.40
   7   9   4   53.39   15.60
   7   9   4   71.99   12.90
   7   9   4   70.19   12.50
   7   9   4   62.49   10.60
   7   9   4   34.40   14.40
  -8  -9  -4    3.20   12.20
  -8  -9  -4   10.20   11.60
  -8  -9  -4   10.00   18.90
   8   9   4   37.30    9.80
   8   9   4    1.70   14.80
   8   9   4   21.20   10.10
   8   9   4   14.10    9.70
  -9  -9  -4   59.79   16.40
  -9  -9  -4   38.10   25.00
  -9  -9  -4  101.09   17.00
   9   9   4   46.50   13.00
   9   9   4   46.50   14.60
   9   9   4   73.49   31.00
   3 -10  -4    0.30   10.40
   3 -10  -4    4.80    9.00
   3 -10  -4    9.40   16.60
  -3  10   4  -36.00   26.70
   2 -10  -4    5.60    8.00
   2 -10  -4   12.10   10.10
   2 -10  -4  -19.10   14.00
  -2  10   4   17.10   23.10
   1 -10  -4   22.80   11.10
   1 -10  -4   15.90    7.20
   1 -10  -4    1.00   13.60
  -1  10   4   13.40   24.70
   0 -10  -4   30.90   14.50
   0 -10  -4   46.90   14.40
   0 -10  -4   24.50    6.70
   0 -10  -4   19.90   11.60
   0  10   4   50.59   12.50
   0  10   4   23.20   20.10
   0  10   4   20.70    8.90
  -1 -10  -4   12.40    6.50
  -1 -10  -4    6.50   10.20
  -1 -10  -4   13.50   11.30
  -1 -10  -4   39.40   12.50
   1  10   4   -1.40   18.20
   1  10   4   25.50   10.40
   1  10   4   15.90    8.40
  -2 -10  -4   31.60    8.70
  -2 -10  -4   40.20    9.80
  -2 -10  -4   28.70    7.60
  -2 -10  -4   23.80   11.80
   2  10   4   35.40    8.90
   2  10   4   22.70    6.50
   2  10   4   27.40   10.10
   2  10   4   32.60    8.50
   2  10   4   63.19   20.50
   2  10   4   41.40   11.40
  -3 -10  -4   17.30    9.00
  -3 -10  -4    9.60   12.90
  -3 -10  -4   30.60   10.20
   3  10   4    9.70   15.90
   3  10   4   25.10    8.30
   3  10   4   10.90   10.30
   3  10   4   29.60    9.30
   3  10   4   28.10   11.50
   3  10   4   30.40    7.70
  -4 -10  -4   23.50    8.90
  -4 -10  -4   16.00    7.40
  -4 -10  -4   10.90   10.30
   4  10   4   12.90   10.00
   4  10   4   15.20   15.60
   4  10   4   14.70    8.20
   4  10   4   24.40   12.90
   4  10   4    9.40    6.90
  -5 -10  -4    5.20    9.30
  -5 -10  -4   16.50   10.30
  -5 -10  -4    1.60    7.40
   5  10   4   11.60    6.30
   5  10   4   -6.60   15.00
   5  10   4    4.60    9.70
   5  10   4   10.50   11.40
   5  10   4    5.80   13.90
   5  10   4   16.00    8.60
  -6 -10  -4   -0.50   16.20
  -6 -10  -4    5.50   11.80
  -6 -10  -4    3.90    9.00
  -6 -10  -4   -6.40    8.80
   6  10   4   18.50   13.80
   6  10   4   -8.90    6.30
   6  10   4    0.50   12.30
   6  10   4   10.40   13.10
   6  10   4    6.70    8.60
  -7 -10  -4   15.40   12.20
  -7 -10  -4   14.30   10.40
   7  10   4   19.20   13.60
   7  10   4    6.00    7.90
   7  10   4    9.50   16.40
   7  10   4   -3.60   16.10
   7  10   4   -6.00    9.10
  -8 -10  -4   19.00   23.10
  -8 -10  -4   12.70   11.30
  -8 -10  -4    5.40   13.50
   8  10   4    4.90    9.60
   8  10   4   -2.40   11.50
   1 -11  -4   11.90    8.70
   1 -11  -4   37.10   12.90
   1 -11  -4    8.10   16.70
  -1  11   4   14.10   26.90
   0 -11  -4    8.60    7.10
   0 -11  -4    9.20   13.80
   0  11   4   16.00   11.10
   0  11   4  -35.60   25.60
  -1 -11  -4   24.80   15.10
  -1 -11  -4  -26.00   14.00
  -1 -11  -4    8.60    6.30
   1  11   4   -3.70   10.00
   1  11   4    6.80   23.90
  -2 -11  -4   33.80    9.20
  -2 -11  -4   15.30   14.00
  -2 -11  -4   28.30   12.60
   2  11   4   14.40   10.10
   2  11   4   44.60   24.40
  -3 -11  -4    6.60    8.20
  -3 -11  -4  -11.70   11.30
  -3 -11  -4   25.90   15.20
   3  11   4   22.00    8.90
   3  11   4   25.00   21.70
  -4 -11  -4   15.50   14.90
  -4 -11  -4   30.70   12.90
  -4 -11  -4   46.20   13.50
   4  11   4   34.60   19.90
   4  11   4   37.00    9.90
  -5 -11  -4   -5.50   11.00
  -5 -11  -4   11.10   11.80
   5  11   4    4.40    8.50
   5  11   4    3.90    8.30
   5  11   4   21.20   18.10
   5  11   4   23.00   19.00
  -6 -11  -4   42.20   14.20
  -6 -11  -4   42.30   14.30
   6  11   4   35.70   11.70
   6  11   4   40.60   17.50
   6  11   4   33.50    9.80
  -7 -11  -4   -6.90   12.80
  -7 -11  -4   13.80   22.80
  -7 -11  -4   19.90   12.60
   7  11   4   -0.30   10.10
   7  11   4   22.30   16.20
   7  11   4   -2.00    9.20
   1  12   4   36.30   12.50
   1  12   4  -74.79   30.60
  -2 -12  -4    0.20    8.30
  -2 -12  -4   -3.80   16.10
  -2 -12  -4   -3.80   15.40
   2  12   4   23.80   10.90
   2  12   4  -17.70   30.50
  -3 -12  -4   18.90   19.70
  -3 -12  -4   25.20   15.50
  -3 -12  -4    7.90    9.60
   3  12   4   14.30   10.40
   3  12   4   54.09   28.00
  -4 -12  -4   -8.30   16.30
  -4 -12  -4   46.20   20.70
  -4 -12  -4   17.90   11.20
   4  12   4    1.80   10.30
  -5 -12  -4    7.80   15.60
  -5 -12  -4    7.60   14.80
  -5 -12  -4   22.40   21.60
   5  12   4   18.40   11.80
   5  12   4    0.00   23.10
   5  10  -5   -7.70    9.70
   5  10  -5  -37.50   18.90
  -5 -10   5   19.70   15.40
  -5 -10   5    2.40   24.00
   4  10  -5   42.20   22.40
   4  10  -5   24.90   10.80
  -4 -10   5   55.39   22.40
  -3 -10   5    7.10    6.00
  -3 -10   5    9.00   10.40
  -2 -10   5   19.40    6.30
  -2 -10   5   17.90   19.20
  -2 -10   5   -2.60    8.70
  -1 -10   5  -28.80   18.30
  -1 -10   5    8.50    6.90
  -1 -10   5    4.00    9.00
   0 -10   5   15.10    9.00
   0 -10   5    1.90    8.40
   0 -10   5   17.40   20.20
   7   9  -5   15.60    9.40
   7   9  -5   25.40   18.90
  -7  -9   5   22.30   24.00
   6   9  -5  166.18   26.00
   6   9  -5  192.68   17.30
  -6  -9   5  132.49   28.80
  -6  -9   5  119.29   17.60
  -6  -9   5  208.28   23.20
   5   9  -5   16.60   15.40
   5   9  -5   30.00    8.90
  -5  -9   5   -0.20   19.80
  -5  -9   5   28.00    9.40
  -5  -9   5   39.30   13.50
  -5  -9   5   46.50    6.40
   4   9  -5  112.99   22.80
   4   9  -5  130.79   15.00
  -4  -9   5  158.58   20.10
  -4  -9   5  140.99   22.80
  -4  -9   5  108.39   29.60
   3   9  -5   26.50    9.10
   3   9  -5   49.20   18.60
  -3  -9   5   23.50    5.60
  -3  -9   5   12.40   17.50
  -3  -9   5   32.30   19.40
  -3  -9   5   25.30    5.40
  -2  -9   5   49.99    6.60
  -2  -9   5   64.29   19.20
  -2  -9   5   36.20    9.30
  -1  -9   5   21.20    6.30
  -1  -9   5   22.70   15.30
  -1  -9   5   15.90    7.80
   0  -9   5   20.90   15.70
   0  -9   5   30.30    7.10
  -1   9  -5   -1.90   12.20
   1  -9   5    5.40    7.50
   1  -9   5    5.90    7.90
   1  -9   5   30.90   15.40
  -2   9  -5  -13.20   12.80
   2  -9   5   15.90   15.20
   2  -9   5  -11.30    8.10
   2  -9   5    7.80    8.30
   7   8  -5  339.27   36.90
   7   8  -5  347.07   25.60
  -7  -8   5  355.26   45.40
  -7  -8   5  369.86   34.80
  -7  -8   5  385.46   32.30
   6   8  -5    1.20    6.00
   6   8  -5   29.20   14.70
  -6  -8   5   14.70    7.10
  -6  -8   5  -13.10   18.90
  -6  -8   5   14.00   11.00
  -6  -8   5   24.60   13.10
   5   8  -5  542.85   33.10
   5   8  -5  583.54   43.60
  -5  -8   5  490.95   31.40
  -5  -8   5  455.15   34.90
  -5  -8   5  500.35   31.80
  -5  -8   5  557.44   45.80
  -5  -8   5  506.35   36.60
  -5  -8   5  497.05   37.90
   4   8  -5   28.60    6.80
   4   8  -5   19.60   13.40
  -4  -8   5   29.50    4.60
  -4  -8   5   17.10    9.00
  -4  -8   5   24.90    7.80
  -4  -8   5   22.80    4.50
  -4  -8   5   11.00   15.30
  -4  -8   5   -8.40   15.40
   3   8  -5  440.26   36.40
   3   8  -5  409.96   26.90
  -3  -8   5  386.76   24.60
  -3  -8   5  438.36   28.00
  -3  -8   5  411.06   37.50
  -3  -8   5  421.46   37.10
  -3  -8   5  358.76   24.40
   2   8  -5   33.50   14.70
  -2  -8   5    8.30    9.90
  -2  -8   5   17.30   12.80
  -2  -8   5    8.80    6.90
  -2  -8   5   11.80   17.70
  -2  -8   5   18.70    4.50
  -1  -8   5  203.18   17.00
  -1  -8   5  218.78   15.40
  -1  -8   5  198.68   29.20
  -1  -8   5  206.58   25.30
   0  -8   5   -2.30    5.00
   0  -8   5   -0.10   11.10
   0  -8   5    6.30    5.30
  -1   8  -5   98.39   15.30
   1  -8   5   59.19   14.40
   1  -8   5   83.59   11.50
   1  -8   5   87.29   11.40
  -2   8  -5   22.70   10.90
   2  -8   5    5.10    6.80
   2  -8   5   -7.50   11.00
   2  -8   5    2.80    6.60
  -3   8  -5    5.80   11.20
   3  -8   5   15.40   12.20
   3  -8   5    3.20    7.90
   3  -8   5    6.40    5.50
   3  -8   5   11.30    7.80
  -4   8  -5   -6.30   11.30
   4  -8   5   -1.20    9.40
   4  -8   5   -3.10    8.30
   4  -8   5    2.70    7.00
   8   7  -5  136.39   15.00
   8   7  -5  144.19   23.10
  -8  -7   5  174.28   32.40
  -8  -7   5  148.59   21.10
  -8  -7   5  132.59   22.30
   7   7  -5  200.78   17.00
   7   7  -5  194.38   25.60
  -7  -7   5  241.08   31.00
  -7  -7   5  199.58   24.90
  -7  -7   5  213.48   25.10
   6   7  -5  463.35   39.50
   6   7  -5  470.35   30.00
   6   7  -5  479.45   30.90
  -6  -7   5  517.05   35.20
  -6  -7   5  448.76   29.30
  -6  -7   5  489.75   43.00
  -6  -7   5  445.16   35.10
  -6  -7   5  460.15   29.70
  -6  -7   5  415.76   31.40
   5   7  -5  355.56   24.30
   5   7  -5  412.86   23.90
  -5  -7   5  413.66   33.50
  -5  -7   5  344.07   25.00
  -5  -7   5  363.66   23.40
  -5  -7   5  396.46   28.40
  -5  -7   5  371.06   36.80
  -5  -7   5  330.47   26.40
  -5  -7   5  344.07   29.60
   4   7  -5  849.61   50.09
   4   7  -5  849.32   57.19
  -4  -7   5  894.61   55.49
  -4  -7   5  753.32   51.09
  -4  -7   5  838.52   58.09
  -4  -7   5  810.22   48.80
  -4  -7   5  789.82   51.89
  -4  -7   5  837.72   49.00
  -4  -7   5  829.02   51.49
   3   7  -5  776.42   45.20
   3   7  -5  760.52   51.49
  -3  -7   5  715.33   43.70
  -3  -7   5  752.82   45.10
  -3  -7   5  742.63   45.70
  -3  -7   5  797.32   52.59
  -3  -7   5  761.62   43.40
  -3  -7   5  762.42   51.99
  -3  -7   5  630.34   43.20
   2   7  -5  348.57   30.60
  -2  -7   5  386.66   31.10
  -2  -7   5  352.56   22.50
  -2  -7   5  376.26   33.50
  -2  -7   5  357.96   29.80
   1   7  -5  403.96   34.90
  -1  -7   5  447.46   27.10
  -1  -7   5  375.36   29.60
  -1  -7   5  491.35   33.80
  -1  -7   5  441.16   28.30
  -1  -7   5  415.86   31.70
  -1  -7   5  467.95   38.40
   0   7  -5  145.89   16.90
   0  -7   5  139.69   18.00
   0  -7   5  141.39   19.50
   0  -7   5  127.59   18.70
   0  -7   5  135.79   16.10
   0  -7   5  189.28   26.00
   0  -7   5  153.38   13.00
   0  -7   5  159.98   12.40
  -1   7  -5  708.13   44.60
   1  -7   5  604.44   43.30
   1  -7   5  618.44   40.40
   1  -7   5  703.53   40.90
  -2   7  -5   19.70    9.50
   2  -7   5    9.60    9.20
   2  -7   5    1.70    7.20
   2  -7   5    5.70    3.50
   2  -7   5    5.00    4.90
   2  -7   5    8.50    5.40
   2  -7   5   11.40   11.80
  -3   7  -5   57.09   11.00
   3  -7   5   49.00   11.30
   3  -7   5   48.70   11.10
   3  -7   5   54.59    8.10
   3  -7   5   44.00   20.20
   3  -7   5   49.50    6.30
   3  -7   5   42.70    8.90
  -4   7  -5    5.50   10.00
   4  -7   5   51.39   23.70
   4  -7   5   12.40   10.30
   4  -7   5   11.50    8.70
   4  -7   5   13.10    7.20
   4  -7   5   -5.20   11.50
   4  -7   5   14.20    5.70
  -5   7  -5   24.30   10.70
   5  -7   5   11.20    7.40
   5  -7   5    2.80    7.30
   5  -7   5   24.50    9.70
   5  -7   5    0.70   15.40
   5  -7   5   -0.90    8.40
   9   6  -5   25.30   18.50
   9   6  -5   10.40    9.40
   9   6  -5   12.50    8.90
  -9  -6   5   20.60   16.60
  -9  -6   5   -2.00   24.90
  -9  -6   5  -18.50   17.20
   8   6  -5   94.09   19.40
   8   6  -5  127.49   13.80
   8   6  -5  137.89   14.40
  -8  -6   5  132.89   20.10
  -8  -6   5  151.38   21.10
  -8  -6   5  104.39   25.50
   7   6  -5   29.00    9.90
   7   6  -5   28.70    6.80
   7   6  -5   33.10   14.00
   7   6  -5   39.20    6.10
   7   6  -5   31.80    6.20
  -7  -6   5   45.40   13.00
  -7  -6   5   34.50    6.90
  -7  -6   5   13.90   11.90
  -7  -6   5   15.50   18.30
   6   6  -5  413.96   25.00
   6   6  -5  347.47   37.40
   6   6  -5  336.07   26.40
  -6  -6   5  397.16   25.20
  -6  -6   5  373.16   24.50
  -6  -6   5  369.06   30.10
  -6  -6   5  393.16   27.20
  -6  -6   5  398.36   27.60
  -6  -6   5  357.06   33.90
   5   6  -5    9.50   10.30
   5   6  -5    7.00    5.30
   5   6  -5   -1.20    4.10
  -5  -6   5   -9.20   10.10
  -5  -6   5    8.80    4.00
  -5  -6   5    3.00   12.90
  -5  -6   5   -1.20    3.40
  -5  -6   5   -3.60    7.60
  -5  -6   5    2.40    6.20
  -5  -6   5    1.20    7.70
  -5  -6   5  -10.90    8.00
   4   6  -5 1019.00   61.39
   4   6  -5 1090.99   67.69
   4   6  -5 1067.29   61.99
   4   6  -5  982.80   62.29
  -4  -6   5 1013.00   61.09
  -4  -6   5 1109.69   63.89
  -4  -6   5 1058.39   64.19
  -4  -6   5 1060.99   63.99
  -4  -6   5 1034.30   66.09
  -4  -6   5 1044.60   63.09
  -4  -6   5 1019.80   68.69
  -4  -6   5 1039.60   61.49
   3   6  -5   16.80    8.30
   3   6  -5   15.80    4.60
  -3  -6   5   14.00    2.90
  -3  -6   5    7.00    5.50
  -3  -6   5    4.50   10.10
  -3  -6   5    7.10    8.70
  -3  -6   5   20.80    9.40
  -3  -6   5   20.40    6.30
  -3  -6   5   10.20    5.30
  -3  -6   5   19.90    3.40
  -3  -6   5   19.90    9.60
   2   6  -5 1231.78   75.89
   2   6  -5 1237.58   71.19
  -2  -6   5 1157.58   70.09
  -2  -6   5 1277.77   74.89
  -2  -6   5 1136.09   74.59
  -2  -6   5 1230.78   75.99
  -2  -6   5 1192.98   71.99
  -2  -6   5 1229.98   76.99
  -2  -6   5 1155.08   69.49
   1   6  -5   37.20   10.60
   1   6  -5   33.30    9.90
  -1  -6   5   29.10    6.90
  -1  -6   5   31.00    8.50
  -1  -6   5   38.40    5.10
  -1  -6   5   44.00   10.50
  -1  -6   5   35.10    6.20
  -1  -6   5   26.30    6.90
  -1  -6   5   40.70   14.10
  -1  -6   5   47.40   10.30
   0   6  -5  603.34   38.20
   0   6  -5  605.04   40.60
   0  -6   5  558.64   38.70
   0  -6   5  572.24   34.80
   0  -6   5  588.24   34.70
   0  -6   5  565.34   37.30
   0  -6   5  468.95   38.60
   0  -6   5  524.85   37.10
   0  -6   5  565.14   36.30
   0  -6   5  592.54   43.30
  -1   6  -5  168.68   19.60
  -1   6  -5  187.58   16.90
   1  -6   5  179.78   13.80
   1  -6   5  164.78   13.20
   1  -6   5  189.78   26.50
   1  -6   5  193.58   16.30
   1  -6   5  194.48   16.70
  -2   6  -5  101.89   12.90
  -2   6  -5   99.49   16.90
   2  -6   5  111.89   11.70
   2  -6   5  102.89   10.40
   2  -6   5   66.39   14.20
   2  -6   5   99.19    7.80
   2  -6   5  103.79   14.20
   2  -6   5   80.49    9.50
   2  -6   5   97.89   13.70
  -3   6  -5   32.60    8.20
  -3   6  -5   26.30   10.60
   3  -6   5   14.90    4.30
   3  -6   5   13.40    4.00
   3  -6   5   26.00    7.50
   3  -6   5   26.60    8.20
   3  -6   5   11.60    5.50
   3  -6   5   19.20    7.90
   3  -6   5   17.30    5.80
  -4   6  -5   56.49   12.80
  -4   6  -5   60.49   10.80
   4  -6   5   51.29   11.10
   4  -6   5   35.20   18.90
   4  -6   5   42.10   11.40
   4  -6   5   48.90    8.00
   4  -6   5   40.50    6.40
   4  -6   5   46.70   10.30
  -5   6  -5    3.10   11.30
  -5   6  -5    9.40    8.50
   5  -6   5    7.00    7.00
   5  -6   5    1.00   13.40
   5  -6   5   -2.10    8.20
   5  -6   5    0.40    6.10
   5  -6   5   16.20   12.40
   5  -6   5    1.00    6.60
   5  -6   5  -17.00   14.20
   5  -6   5  -23.20   21.10
  -6   6  -5   26.40   12.20
   6  -6   5   35.60    9.80
   6  -6   5   32.20    9.80
   6  -6   5   22.90   10.70
   6  -6   5   14.80    8.10
   9   5  -5    6.70    9.20
   9   5  -5   32.30    9.10
   9   5  -5    6.40   15.30
  -9  -5   5   34.40   18.20
  -9  -5   5   21.20   16.40
  -9  -5   5    7.80   24.00
   8   5  -5   -4.00    8.30
   8   5  -5    2.50   13.00
   8   5  -5    0.20    9.50
   8   5  -5   12.40    7.00
   8   5  -5    7.00    6.80
  -8  -5   5  -16.80   18.70
  -8  -5   5  -11.10   12.70
  -8  -5   5   -3.90   12.80
   7   5  -5  106.09   13.80
   7   5  -5  105.29   11.20
   7   5  -5  122.79   11.50
   7   5  -5  147.69   21.40
   7   5  -5   95.39   12.50
  -7  -5   5   81.49   20.70
  -7  -5   5  107.69   11.90
  -7  -5   5  142.09   19.20
  -7  -5   5   93.89   16.00
   6   5  -5   92.79    8.90
   6   5  -5   91.79    9.60
   6   5  -5   90.79   11.70
   6   5  -5   94.99   14.90
   6   5  -5  104.49    9.20
  -6  -5   5   91.79    9.80
  -6  -5   5   94.49   12.50
  -6  -5   5   76.89    8.90
  -6  -5   5  107.99   12.30
  -6  -5   5   84.59   13.90
  -6  -5   5  109.19   14.20
  -6  -5   5  109.69   19.00
   5   5  -5  417.56   32.40
   5   5  -5  372.76   27.30
   5   5  -5  423.66   26.10
  -5  -5   5  404.46   26.50
  -5  -5   5  395.66   29.80
  -5  -5   5  458.65   30.60
  -5  -5   5  412.36   25.90
  -5  -5   5  380.86   30.00
  -5  -5   5  443.76   29.00
  -5  -5   5  421.96   34.40
  -5  -5   5  483.35   33.10
  -5  -5   5  411.26   27.80
   4   5  -5   -0.10    4.50
   4   5  -5   -0.10    4.00
   4   5  -5   -9.10    6.20
   4   5  -5    0.60    2.80
  -4  -5   5    5.00    2.70
  -4  -5   5    5.10    5.20
  -4  -5   5    5.50    7.00
  -4  -5   5   11.90    9.10
  -4  -5   5    1.20    2.80
  -4  -5   5    8.30    4.80
  -4  -5   5    3.20    6.40
  -4  -5   5    3.50    5.90
  -4  -5   5   -4.20    8.10
   3   5  -5 1170.08   79.39
   3   5  -5 1279.57   84.89
   3   5  -5 1439.06   84.49
   3   5  -5 1298.67   79.29
   3   5  -5 1395.46   79.79
  -3  -5   5 1390.96   81.29
  -3  -5   5 1396.76   79.59
  -3  -5   5 1480.95   83.79
  -3  -5   5 1394.26   80.99
  -3  -5   5 1367.76   80.69
  -3  -5   5 1373.96   85.09
  -3  -5   5 1433.06   81.59
  -3  -5   5 1480.55   83.99
  -3  -5   5 1289.27   84.19
  -3  -5   5 1327.87   79.19
   2   5  -5  167.18   17.60
   2   5  -5  177.28   12.50
   2   5  -5  187.58   16.50
  -2  -5   5  158.98   13.40
  -2  -5   5  169.18   13.40
  -2  -5   5  202.68   19.90
  -2  -5   5  157.48   17.00
  -2  -5   5  174.88   13.30
  -2  -5   5  198.58   13.20
  -2  -5   5  165.88   11.40
  -2  -5   5  169.48   11.00
  -2  -5   5  179.38   11.30
  -2  -5   5  167.98   17.80
  -2  -5   5  185.88   16.60
   1   5  -5  741.43   48.30
   1   5  -5  710.03   47.00
  -1  -5   5  728.43   42.80
  -1  -5   5  597.64   42.30
  -1  -5   5  795.32   43.10
  -1  -5   5  715.23   49.60
  -1  -5   5  746.03   44.10
  -1  -5   5  692.23   46.00
  -1  -5   5  725.33   41.80
  -1  -5   5  710.93   47.00
  -1  -5   5  761.72   46.90
   0   5  -5   45.30    9.50
   0   5  -5   85.59   13.30
   0   5  -5   63.49    9.40
   0  -5   5   68.19    9.00
   0  -5   5   65.79    6.40
   0  -5   5   58.29    8.50
   0  -5   5   53.39    9.90
   0  -5   5   63.29    8.50
   0  -5   5   80.09   14.80
   0  -5   5   66.29    6.80
  -1   5  -5 1075.69   62.19
  -1   5  -5  975.20   63.99
   1  -5   5 1025.00   59.19
   1  -5   5  975.60   59.39
   1  -5   5 1003.20   61.39
   1  -5   5  994.60   60.09
   1  -5   5 1003.10   60.99
   1  -5   5 1031.50   67.29
  -2   5  -5  391.26   30.30
  -2   5  -5  449.95   28.50
   2  -5   5  451.25   26.80
   2  -5   5  418.46   27.80
   2  -5   5  431.86   26.90
   2  -5   5  345.77   31.20
   2  -5   5  419.26   26.70
   2  -5   5  429.96   25.10
   2  -5   5  403.36   25.90
   2  -5   5  406.76   25.20
   2  -5   5  419.96   27.90
   2  -5   5  374.56   35.60
  -3   5  -5  316.67   29.00
  -3   5  -5  420.86   27.50
   3  -5   5  402.26   24.50
   3  -5   5  397.66   25.20
   3  -5   5  385.56   27.10
   3  -5   5  436.66   26.70
   3  -5   5  400.66   26.60
   3  -5   5  378.26   27.50
   3  -5   5  392.86   27.00
  -4   5  -5   52.79    9.00
  -4   5  -5   50.19   10.70
   4  -5   5   82.59   17.40
   4  -5   5   66.19    7.60
   4  -5   5   44.30   10.90
   4  -5   5   64.09    7.70
   4  -5   5   32.90    8.20
   4  -5   5   57.29    8.70
   4  -5   5   52.89   10.30
   4  -5   5   54.49    7.40
  -5   5  -5  109.29   10.50
  -5   5  -5   91.39   12.40
  -5   5  -5   85.39   14.00
  -5   5  -5  116.59   13.40
   5  -5   5   93.69   15.20
   5  -5   5  123.19   11.00
   5  -5   5   62.39   19.70
   5  -5   5   77.79   12.00
   5  -5   5  115.69   14.40
   5  -5   5   76.69   11.30
   5  -5   5  126.29   12.00
  -6   5  -5   16.60   11.60
  -6   5  -5   22.40    9.30
  -6   5  -5   15.60   12.30
   6  -5   5   14.30    9.70
   6  -5   5   12.20    8.20
   6  -5   5   16.10   13.80
   6  -5   5   21.70    8.00
   6  -5   5   30.20   24.30
   6  -5   5   11.10    6.70
  -7   5  -5   14.40   10.70
   7  -5   5    0.80   15.40
   7  -5   5    6.50    8.60
   7  -5   5   15.80   12.00
   7  -5   5   14.40    9.10
   9   4  -5   -6.80    8.20
   9   4  -5   17.70   15.70
   9   4  -5   -7.60   10.00
   9   4  -5    2.60   15.50
  -9  -4   5    6.00   16.30
  -9  -4   5  -21.10   15.00
  -9  -4   5   10.50   21.70
   8   4  -5   20.40    6.90
   8   4  -5    4.40    9.60
   8   4  -5   16.00    7.80
   8   4  -5   23.80    9.80
   8   4  -5   21.20   13.80
  -8  -4   5   19.70   11.80
  -8  -4   5   25.50   19.80
  -8  -4   5   21.30   14.80
  -8  -4   5   10.40    8.60
   7   4  -5    1.90    5.00
   7   4  -5  -10.90    7.10
   7   4  -5   15.60    6.20
   7   4  -5   -0.80    6.60
   7   4  -5   31.90   19.80
  -7  -4   5    0.90   10.50
  -7  -4   5    8.90   27.40
  -7  -4   5    5.60    7.10
  -7  -4   5    0.50   10.60
  -7  -4   5   13.90    6.30
   6   4  -5    5.20    5.40
   6   4  -5    3.80    3.80
   6   4  -5    0.70    8.80
   6   4  -5    6.30    5.20
   6   4  -5    5.20    4.20
  -6  -4   5    0.70    7.90
  -6  -4   5    6.10    6.40
  -6  -4   5   -3.30    7.10
  -6  -4   5   -1.60    8.40
  -6  -4   5    2.20    4.00
  -6  -4   5    7.90    4.50
  -6  -4   5    5.90   12.40
   5   4  -5   19.60    4.20
   5   4  -5   10.50    8.60
   5   4  -5   14.00    3.70
   5   4  -5    9.80    5.70
   5   4  -5   10.70    4.30
  -5  -4   5   20.00    7.70
  -5  -4   5   14.20    3.70
  -5  -4   5    9.80    4.00
  -5  -4   5    4.00    4.70
  -5  -4   5    5.30    6.60
  -5  -4   5   11.90    7.50
  -5  -4   5    6.60    8.30
   4   4  -5   26.80    5.40
   4   4  -5   21.20    7.30
   4   4  -5   28.30    3.60
   4   4  -5   31.60    5.90
   4   4  -5   29.90    4.00
   4   4  -5   17.80    7.60
   4   4  -5   25.10    3.30
  -4  -4   5   24.50    5.80
  -4  -4   5   29.10    5.60
  -4  -4   5   30.30    4.30
  -4  -4   5   34.90    7.20
  -4  -4   5   19.40    9.40
  -4  -4   5   28.90    3.90
  -4  -4   5   35.00    7.60
  -4  -4   5   24.60    7.70
   3   4  -5  213.08   17.40
   3   4  -5  193.38   13.60
   3   4  -5  195.88   13.50
   3   4  -5  180.48   17.90
   3   4  -5  203.88   12.70
  -3  -4   5  185.48   12.90
  -3  -4   5  218.88   15.90
  -3  -4   5  184.68   18.50
  -3  -4   5  194.98   16.80
  -3  -4   5  189.08   12.50
  -3  -4   5  185.48   13.80
  -3  -4   5  190.98   15.10
  -3  -4   5  200.28   14.30
   2   4  -5  161.88   10.80
   2   4  -5  175.98   15.20
   2   4  -5  152.18   10.90
   2   4  -5  151.48   16.00
   2   4  -5  166.48   11.10
  -2  -4   5  147.29   11.70
  -2  -4   5  170.18   12.80
  -2  -4   5  166.88   15.20
  -2  -4   5  154.88   18.10
  -2  -4   5  171.38   12.00
  -2  -4   5  159.58   10.60
  -2  -4   5  169.18   12.20
  -2  -4   5  152.98   11.50
  -2  -4   5  164.48   15.90
  -2  -4   5  170.48   10.40
  -2  -4   5  171.78   15.00
   1   4  -5  452.55   29.90
   1   4  -5  455.95   31.40
  -1  -4   5  397.66   27.00
  -1  -4   5  381.96   32.50
  -1  -4   5  408.96   26.60
  -1  -4   5  489.15   27.60
  -1  -4   5  458.25   27.50
  -1  -4   5  468.95   30.80
  -1  -4   5  473.05   30.50
  -1  -4   5  423.26   29.50
  -1  -4   5  444.66   25.80
  -1  -4   5  382.96   27.90
   0   4  -5  513.15   36.60
   0   4  -5  595.84   35.90
   0   4  -5  541.85   38.00
   0  -4   5  563.54   34.70
   0  -4   5  526.05   40.20
   0  -4   5  538.85   35.20
   0  -4   5  534.45   33.30
   0  -4   5  572.54   36.10
   0  -4   5  645.24   33.70
   0  -4   5  618.54   33.30
   0  -4   5  569.94   34.20
   0  -4   5  505.85   37.30
  -1   4  -5  485.15   30.70
   1  -4   5  448.26   36.20
   1  -4   5  457.75   29.40
   1  -4   5  470.45   28.50
   1  -4   5  454.25   30.20
   1  -4   5  452.75   28.20
   1  -4   5  517.55   28.60
   1  -4   5  468.55   29.00
   1  -4   5  485.75   30.00
   1  -4   5  484.25   28.70
  -2   4  -5  347.37   21.50
   2  -4   5  285.97   22.00
   2  -4   5  294.97   21.10
   2  -4   5  310.57   19.00
   2  -4   5  279.27   25.40
   2  -4   5  320.47   19.30
   2  -4   5  313.37   20.50
   2  -4   5  319.77   20.60
   2  -4   5  281.07   20.30
   2  -4   5  314.07   28.10
   2  -4   5  293.37   19.10
  -3   4  -5  191.08   13.90
  -3   4  -5  174.08   18.30
  -3   4  -5  231.38   16.60
   3  -4   5  216.58   20.90
   3  -4   5  213.58   14.50
   3  -4   5  267.77   26.70
   3  -4   5  225.88   15.00
   3  -4   5  237.18   17.50
   3  -4   5  209.58   18.10
   3  -4   5  206.08   16.80
   3  -4   5  248.08   16.30
  -4   4  -5   84.99   11.00
  -4   4  -5   85.99    9.90
  -4   4  -5   75.89    7.60
  -4   4  -5   78.39   11.90
  -4   4  -5   68.69    8.30
   4  -4   5   88.39    8.70
   4  -4   5   89.69   11.50
   4  -4   5   83.69   12.10
   4  -4   5   87.39    7.90
   4  -4   5   82.39   10.50
   4  -4   5   90.29   18.30
   4  -4   5   66.59    8.60
   4  -4   5   89.19   11.90
  -5   4  -5  107.79   12.60
  -5   4  -5  123.99   13.80
  -5   4  -5   91.89   10.80
  -5   4  -5   94.79   15.20
   5  -4   5  113.79   10.70
   5  -4   5  133.09   11.90
   5  -4   5   82.89   14.20
   5  -4   5  120.29   15.70
   5  -4   5  137.99   21.50
   5  -4   5  127.69   13.90
   5  -4   5  112.09   11.60
  -6   4  -5   11.30    9.80
  -6   4  -5   19.00    8.20
  -6   4  -5   12.70    7.20
  -6   4  -5    5.60    8.20
   6  -4   5   14.60    8.30
   6  -4   5   18.10    7.00
   6  -4   5   16.20    7.00
   6  -4   5   17.40    6.60
   6  -4   5   20.80   11.60
   6  -4   5   20.70    6.50
   6  -4   5   27.60   19.60
  -7   4  -5   23.90   10.80
  -7   4  -5   20.40   11.80
   7  -4   5   60.29   10.50
   7  -4   5   45.50   10.60
   7  -4   5   39.50    9.20
   7  -4   5   23.40   10.30
   9   3  -5   41.30   14.10
   9   3  -5   28.70   11.30
   9   3  -5   20.20   16.10
  -9  -3   5   18.70   16.90
  -9  -3   5   12.80   24.00
  -9  -3   5   57.59   20.10
   8   3  -5   77.09   11.60
   8   3  -5   74.19   13.90
   8   3  -5   74.99   15.80
  -8  -3   5   98.99   11.90
  -8  -3   5   57.59   10.30
  -8  -3   5   69.09   16.40
  -8  -3   5   79.39   18.60
  -8  -3   5   61.09   20.70
   7   3  -5   43.40    8.00
   7   3  -5   60.69   10.20
   7   3  -5   32.80    8.50
   7   3  -5   50.19   13.50
   7   3  -5   55.49    7.50
  -7  -3   5   56.49   11.20
  -7  -3   5   38.00    9.20
  -7  -3   5   55.29   12.70
  -7  -3   5   38.40   12.80
  -7  -3   5   34.30   16.90
  -7  -3   5   66.59   10.00
   6   3  -5   94.99   11.70
   6   3  -5  127.39   13.20
   6   3  -5  139.09   10.30
   6   3  -5  107.19   10.60
   6   3  -5  110.79   15.80
  -6  -3   5  126.09   14.80
  -6  -3   5  106.59   13.20
  -6  -3   5  110.59   15.30
  -6  -3   5  114.59   10.00
  -6  -3   5  115.49   11.40
  -6  -3   5  123.39   18.40
  -6  -3   5  114.69   15.90
   5   3  -5  108.69   12.10
   5   3  -5   95.89    8.90
   5   3  -5   95.79   14.50
   5   3  -5  102.69    9.70
   5   3  -5  104.09    8.10
   5   3  -5  106.39   10.80
  -5  -3   5  104.19   12.80
  -5  -3   5   95.09    8.30
  -5  -3   5   85.39   12.00
  -5  -3   5  115.29   15.50
  -5  -3   5  111.99   14.10
  -5  -3   5   89.99   10.70
  -5  -3   5  104.99    9.30
   4   3  -5  129.69   14.20
   4   3  -5  132.49    9.70
   4   3  -5  139.79   10.00
   4   3  -5  112.89   11.50
   4   3  -5  149.99   14.70
   4   3  -5  125.89    9.20
  -4  -3   5  151.28   16.90
  -4  -3   5  133.29   13.00
  -4  -3   5  131.49   10.10
  -4  -3   5  129.99   13.40
  -4  -3   5  134.09   11.10
  -4  -3   5  158.78   13.80
  -4  -3   5  118.79    9.30
   3   3  -5   34.90    5.20
   3   3  -5   29.00    5.00
   3   3  -5   28.50    3.70
   3   3  -5   29.50    3.60
   3   3  -5   33.10    3.40
   3   3  -5   29.60    7.10
   3   3  -5   33.90    8.00
  -3  -3   5   32.30    7.20
  -3  -3   5   30.00    6.10
  -3  -3   5   36.90    5.00
  -3  -3   5   32.30    4.50
  -3  -3   5   27.70    4.10
  -3  -3   5   37.80    8.80
  -3  -3   5   30.30    6.30
   2   3  -5   16.90    5.00
   2   3  -5   20.50    3.60
   2   3  -5   17.40    3.30
   2   3  -5   20.00    6.60
  -2  -3   5   21.60    6.20
  -2  -3   5   19.70    3.20
  -2  -3   5   17.30    2.80
  -2  -3   5   20.60    2.60
  -2  -3   5   16.40    4.00
  -2  -3   5   22.20    5.30
  -2  -3   5   18.50    2.80
  -2  -3   5   17.30    3.30
  -2  -3   5   20.40    4.40
  -2  -3   5   22.10    7.30
   1   3  -5   -1.90    1.70
   1   3  -5    8.00    4.20
   1   3  -5    5.70    4.90
   1   3  -5   -2.60    2.10
  -1  -3   5    3.00    2.20
  -1  -3   5    2.10    2.70
  -1  -3   5    4.00    2.70
  -1  -3   5    0.20    1.80
  -1  -3   5   -0.40    1.60
  -1  -3   5    2.40    3.20
  -1  -3   5   -2.40    5.30
  -1  -3   5    2.70    1.90
   0   3  -5   41.40    4.10
   0   3  -5   43.90    5.40
   0   3  -5   48.00    6.20
   0   3  -5   43.90    6.60
   0   3  -5   53.19    4.30
   0   3  -5   38.90    8.10
   0  -3   5   60.69    4.80
   0  -3   5   52.29    5.50
   0  -3   5   39.30   10.60
   0  -3   5   54.09    5.70
   0  -3   5   26.80    7.00
   0  -3   5   47.80    3.90
   0  -3   5   41.80    6.40
   0  -3   5   43.30    5.50
   0  -3   5   45.30    4.80
   0  -3   5   46.50    4.90
  -1   3  -5    2.10    2.00
  -1   3  -5   -1.30    1.30
  -1   3  -5   -1.00    2.90
  -1   3  -5   -9.70    3.80
  -1   3  -5   -0.40    4.60
  -1   3  -5   -1.20    2.40
   1  -3   5   -0.90    2.20
   1  -3   5    5.30    2.80
   1  -3   5    1.40    3.10
   1  -3   5    2.90    9.70
   1  -3   5   -3.50    2.90
   1  -3   5    3.40    2.50
   1  -3   5   -0.90    5.90
   1  -3   5    1.20    1.60
   1  -3   5   -0.50    3.40
  -2   3  -5  199.18   16.40
  -2   3  -5  236.08   14.90
  -2   3  -5  242.78   14.70
  -2   3  -5  254.57   16.70
  -2   3  -5  254.47   19.10
   2  -3   5  212.68   15.10
   2  -3   5  246.08   15.00
   2  -3   5  225.18   16.30
   2  -3   5  233.88   15.80
   2  -3   5  231.58   23.00
   2  -3   5  234.58   14.60
   2  -3   5  210.98   16.10
   2  -3   5  243.88   16.40
   2  -3   5  236.98   16.60
  -3   3  -5   30.00    4.70
  -3   3  -5   33.80    4.30
  -3   3  -5   26.70    4.50
  -3   3  -5   36.40    6.60
  -3   3  -5   29.30    5.80
  -3   3  -5   44.10    8.60
   3  -3   5   28.20    4.20
   3  -3   5   43.60    6.90
   3  -3   5   23.30   10.40
   3  -3   5   28.60    4.10
   3  -3   5   30.10    5.60
   3  -3   5   30.10    6.50
   3  -3   5   31.40    4.30
   3  -3   5   32.50    4.70
  -4   3  -5  123.89   13.80
  -4   3  -5  100.99   11.20
  -4   3  -5  111.79    9.50
  -4   3  -5  107.99    9.20
  -4   3  -5   90.49    9.40
  -4   3  -5   83.79   11.80
   4  -3   5  108.99   12.90
   4  -3   5  117.19    9.50
   4  -3   5  126.59   12.10
   4  -3   5  105.79    9.50
   4  -3   5   94.19    8.90
   4  -3   5  109.99   18.10
   4  -3   5   91.49    8.70
   4  -3   5   84.99   16.20
   4  -3   5  107.09   11.20
  -5   3  -5    2.30    5.90
  -5   3  -5    2.00    7.20
  -5   3  -5   -1.10    4.70
  -5   3  -5    0.60    4.80
   5  -3   5    6.00    4.50
   5  -3   5    7.50    4.40
   5  -3   5   -0.70    4.40
   5  -3   5    7.60    6.00
   5  -3   5    9.40   13.40
   5  -3   5   -2.10    8.20
   5  -3   5    4.80    4.50
   5  -3   5    5.70    6.50
  -6   3  -5   31.20    7.30
  -6   3  -5   49.99   10.40
  -6   3  -5   31.80    9.60
  -6   3  -5   23.90    7.20
   6  -3   5   39.20    6.90
   6  -3   5    2.90   16.10
   6  -3   5   24.10   11.50
   6  -3   5   47.60    7.50
   6  -3   5   35.90   10.30
   6  -3   5   42.10   11.00
   6  -3   5   29.80    6.00
  -7   3  -5   15.90    9.40
  -7   3  -5    1.60    4.10
  -7   3  -5   -8.00    5.40
  -7   3  -5   16.00    8.90
  -7   3  -5    1.30    8.30
  -7   3  -5   -3.00    9.00
   7  -3   5   12.30    7.10
   7  -3   5    6.80    7.60
   7  -3   5   13.90    8.20
   7  -3   5   -1.50    8.90
   7  -3   5   27.90   14.10
   7  -3   5    4.80    6.30
  -8   3  -5  -13.70   11.40
  -8   3  -5   18.40   11.90
   8  -3   5   12.40    9.80
   8  -3   5   13.80    8.90
   8  -3   5    1.10   11.00
   8  -3   5    1.90    9.80
   9   2  -5   54.79   12.40
   9   2  -5   93.19   15.10
   9   2  -5   71.59   19.70
   9   2  -5   80.89    9.40
  -9  -2   5   92.39   23.00
  -9  -2   5   47.70   17.40
  -9  -2   5   77.99   26.70
  -9  -2   5   83.79   15.70
   8   2  -5    9.00   12.50
   8   2  -5   12.20   10.50
   8   2  -5   -0.80    5.40
  -8  -2   5    4.90    7.30
  -8  -2   5   31.60   12.00
  -8  -2   5    5.20    9.50
  -8  -2   5   34.80   20.40
  -8  -2   5   -1.10   12.20
  -8  -2   5    1.10   14.20
   7   2  -5  318.37   24.70
   7   2  -5  334.07   22.40
   7   2  -5  389.96   27.50
   7   2  -5  434.36   32.90
   7   2  -5  301.47   26.00
  -7  -2   5  326.87   31.00
  -7  -2   5  357.46   27.70
  -7  -2   5  369.36   27.80
  -7  -2   5  410.16   35.80
  -7  -2   5  355.86   25.20
  -7  -2   5  393.06   30.70
   6   2  -5    4.70    8.20
   6   2  -5   -5.80    7.40
   6   2  -5   -1.00    4.00
   6   2  -5    2.90    6.20
   6   2  -5    8.30    3.00
   6   2  -5   -1.50    7.80
   6   2  -5    5.50    6.90
  -6  -2   5    8.00    6.80
  -6  -2   5    7.90    6.70
  -6  -2   5    3.70    4.40
  -6  -2   5    1.30   10.20
  -6  -2   5   -3.30    7.10
  -6  -2   5    2.20    8.80
  -6  -2   5   18.20    5.40
   5   2  -5  655.63   46.30
   5   2  -5  635.84   42.00
   5   2  -5  719.43   41.10
   5   2  -5  707.43   43.60
   5   2  -5  666.03   42.60
   5   2  -5  667.53   44.10
  -5  -2   5  688.43   45.50
  -5  -2   5  709.33   47.30
  -5  -2   5  665.63   45.10
  -5  -2   5  748.83   43.20
  -5  -2   5  693.63   42.30
  -5  -2   5  770.82   44.90
  -5  -2   5  654.33   41.60
   4   2  -5    6.00    5.30
   4   2  -5   -0.40    6.10
   4   2  -5    2.10    4.70
   4   2  -5    3.90    2.80
   4   2  -5    9.40    3.60
   4   2  -5    5.90    1.90
   4   2  -5    6.50    3.90
  -4  -2   5    8.00    5.50
  -4  -2   5    8.00    7.10
  -4  -2   5    5.60    5.00
  -4  -2   5    1.70    3.90
  -4  -2   5    5.70    2.80
  -4  -2   5    3.00    2.70
  -4  -2   5    5.80    5.50
   3   2  -5  794.72   47.20
   3   2  -5  828.42   48.40
   3   2  -5  858.01   51.79
   3   2  -5  835.12   49.30
   3   2  -5  805.22   49.40
   3   2  -5  817.42   51.79
   3   2  -5  782.22   48.20
  -3  -2   5  836.32   48.60
  -3  -2   5  800.32   48.20
  -3  -2   5  836.62   52.09
  -3  -2   5  783.32   49.99
  -3  -2   5  825.62   51.29
  -3  -2   5  814.32   48.60
  -3  -2   5  835.22   50.99
  -3  -2   5  822.72   48.50
   2   2  -5  120.49    8.20
   2   2  -5  123.79    7.70
   2   2  -5  134.59   12.40
   2   2  -5  117.19    9.10
   2   2  -5  121.09   11.70
   2   2  -5  118.99    9.10
   2   2  -5  111.49    8.10
  -2  -2   5  122.09    8.50
  -2  -2   5  126.69   10.40
  -2  -2   5  112.09   12.40
  -2  -2   5  142.29   11.40
  -2  -2   5  114.49    8.60
  -2  -2   5  116.29    8.50
  -2  -2   5  125.19   12.80
  -2  -2   5  122.79    8.70
   1   2  -5  552.64   33.60
   1   2  -5  617.84   35.50
   1   2  -5  562.24   32.60
   1   2  -5  561.24   32.90
   1   2  -5  515.95   33.40
   1   2  -5  603.04   33.20
  -1  -2   5  541.05   33.40
  -1  -2   5  553.54   34.90
  -1  -2   5  461.35   33.30
  -1  -2   5  587.14   32.80
  -1  -2   5  568.14   33.40
  -1  -2   5  581.14   33.50
  -1  -2   5  560.54   33.00
  -1  -2   5  571.94   34.20
   0   2  -5   -4.40    4.30
   0   2  -5    3.20    2.40
   0   2  -5    1.30    2.00
   0   2  -5    3.60    3.40
   0   2  -5    1.50    1.90
   0   2  -5    0.80    1.60
   0  -2   5    0.90    5.10
   0  -2   5    3.10    2.20
   0  -2   5    0.10    2.60
   0  -2   5   -0.40    2.30
   0  -2   5    0.20    2.00
   0  -2   5    1.20    2.10
   0  -2   5    2.70    2.70
   0  -2   5    2.10    2.00
  -1   2  -5  154.68   10.80
  -1   2  -5  139.09   11.30
  -1   2  -5  157.28   13.60
  -1   2  -5  157.08    9.70
  -1   2  -5  123.29   11.30
  -1   2  -5  138.89   10.10
   1  -2   5  155.08   10.60
   1  -2   5  152.98   10.80
   1  -2   5  122.29   15.70
   1  -2   5  148.99   10.20
   1  -2   5  154.18   10.60
   1  -2   5  140.19   11.00
  -2   2  -5   75.19    9.70
  -2   2  -5   60.59    6.10
  -2   2  -5   65.79    6.00
  -2   2  -5   71.79    7.00
  -2   2  -5   58.29    6.90
   2  -2   5   68.79    5.90
   2  -2   5   70.49    4.70
   2  -2   5   50.59    6.30
   2  -2   5   48.40    7.10
   2  -2   5   61.39    7.50
   2  -2   5   56.19    7.00
   2  -2   5   65.59    6.10
   2  -2   5   47.40   11.00
  -3   2  -5   16.70    6.30
  -3   2  -5   13.70    3.70
  -3   2  -5   19.30    5.60
  -3   2  -5   17.60    3.50
  -3   2  -5   15.50    4.60
  -3   2  -5   17.00    3.10
   3  -2   5   18.70    5.10
   3  -2   5   18.70    3.60
   3  -2   5   18.90    3.70
   3  -2   5   21.90    3.30
   3  -2   5   12.50    5.20
   3  -2   5   20.60    4.90
   3  -2   5   20.60    9.40
   3  -2   5   18.70    3.90
  -4   2  -5   -4.30    4.60
  -4   2  -5    3.10    3.20
  -4   2  -5    2.10    3.70
  -4   2  -5    1.50    2.80
  -4   2  -5   -0.50    1.70
  -4   2  -5    9.00    4.10
  -4   2  -5   -2.10    5.40
  -4   2  -5    5.60    2.60
   4  -2   5    9.80   11.10
   4  -2   5   -0.10    2.70
   4  -2   5    1.70    2.30
   4  -2   5    2.00    3.10
   4  -2   5    6.30   10.40
   4  -2   5    1.10    4.40
   4  -2   5   -2.60    4.40
   4  -2   5    2.70    3.10
   4  -2   5    9.70    6.40
  -5   2  -5   32.20    4.50
  -5   2  -5   30.20    5.30
  -5   2  -5   31.80    7.00
  -5   2  -5   23.00    5.90
  -5   2  -5   37.50    8.20
  -5   2  -5   37.00    5.20
  -5   2  -5   22.60    7.60
   5  -2   5   27.90    5.60
   5  -2   5   32.70    6.00
   5  -2   5   44.10    8.10
   5  -2   5   41.90   13.40
   5  -2   5   34.30    8.80
   5  -2   5   33.30    4.60
   5  -2   5   36.80    7.60
   5  -2   5   43.70    5.90
   5  -2   5   11.80   12.80
  -6   2  -5    4.00    4.70
  -6   2  -5   -9.20    7.10
  -6   2  -5   -4.90    4.80
  -6   2  -5    1.20    6.00
   6  -2   5    2.60    5.60
   6  -2   5   10.20   10.00
   6  -2   5    8.90    5.80
   6  -2   5    0.80    7.20
   6  -2   5    6.50    3.20
   6  -2   5    2.50   14.40
   6  -2   5    1.60    4.60
   6  -2   5    2.30    7.70
  -7   2  -5    7.00    8.70
  -7   2  -5    8.20    6.80
  -7   2  -5   20.60    6.50
  -7   2  -5    6.70    8.50
   7  -2   5   -5.30    5.80
   7  -2   5    2.20    7.10
   7  -2   5    0.90    8.40
   7  -2   5   25.20   13.50
   7  -2   5   15.40    7.70
   7  -2   5    9.90    4.30
  -8   2  -5    9.80   10.20
  -8   2  -5    7.80    8.20
  -8   2  -5    6.00   10.50
   8  -2   5  -10.00    6.90
   8  -2   5    7.10    8.80
   8  -2   5   13.80   10.50
   8  -2   5    2.40   10.60
  -9   2  -5    9.30   12.30
  -9   2  -5   30.50   11.40
   9  -2   5    4.20   12.60
   9  -2   5    8.30   10.70
   9  -2   5   15.20   13.80
   9  -2   5   -0.10    9.30
   9   1  -5    9.10   10.60
   9   1  -5   36.20   15.70
   9   1  -5    8.10   19.60
   9   1  -5   16.50   13.50
   9   1  -5   25.60    9.60
  -9  -1   5   57.29   20.50
  -9  -1   5   15.30   14.90
  -9  -1   5   34.70   25.90
  -9  -1   5    3.90   17.30
   8   1  -5  157.98   14.00
   8   1  -5  113.29   15.20
   8   1  -5  127.39   16.70
   8   1  -5  135.99   20.70
   8   1  -5  141.69   17.60
  -8  -1   5  122.29   15.90
  -8  -1   5  120.29   19.90
  -8  -1   5  107.49   16.70
  -8  -1   5  135.29   20.50
  -8  -1   5   86.09   17.30
  -8  -1   5  128.09   30.20
   7   1  -5  123.99   17.70
   7   1  -5   80.69   11.20
   7   1  -5  114.89   15.00
   7   1  -5  125.29   11.00
   7   1  -5  141.29   15.30
  -7  -1   5  111.49   17.90
  -7  -1   5  112.49   16.90
  -7  -1   5  105.59   20.10
  -7  -1   5  101.29   12.60
  -7  -1   5   88.39   14.40
  -7  -1   5  101.69   14.70
   6   1  -5  493.85   31.30
   6   1  -5  463.35   30.80
   6   1  -5  513.05   34.00
   6   1  -5  434.06   32.80
   6   1  -5  399.06   27.40
   6   1  -5  438.46   30.40
  -6  -1   5  442.86   32.00
  -6  -1   5  388.76   29.90
  -6  -1   5  464.15   34.20
  -6  -1   5  447.16   33.00
  -6  -1   5  432.26   36.00
  -6  -1   5  462.85   32.20
  -6  -1   5  430.46   29.20
  -6  -1   5  484.05   30.80
   5   1  -5  340.67   22.10
   5   1  -5  339.37   22.30
   5   1  -5  279.27   22.60
   5   1  -5  327.97   19.50
   5   1  -5  250.27   20.40
   5   1  -5  305.07   23.20
   5   1  -5  312.87   21.90
  -5  -1   5  325.17   24.50
  -5  -1   5  318.57   21.00
  -5  -1   5  323.67   26.10
  -5  -1   5  300.47   23.90
  -5  -1   5  291.77   20.20
  -5  -1   5  346.97   22.20
  -5  -1   5  301.37   23.80
   4   1  -5  784.22   49.40
   4   1  -5  680.03   46.90
   4   1  -5  829.92   47.90
   4   1  -5  786.82   48.90
   4   1  -5  780.32   47.60
   4   1  -5  831.32   48.30
   4   1  -5  816.82   46.20
  -4  -1   5  755.72   46.80
  -4  -1   5  781.82   49.50
  -4  -1   5  728.43   49.50
  -4  -1   5  780.22   50.89
  -4  -1   5  807.52   50.19
  -4  -1   5  781.42   47.30
  -4  -1   5  862.71   47.90
   3   1  -5 1151.48   70.59
   3   1  -5 1099.89   69.39
   3   1  -5 1181.28   69.79
   3   1  -5 1220.58   69.89
   3   1  -5 1277.57   72.29
   3   1  -5 1150.58   68.59
   3   1  -5 1185.58   70.29
  -3  -1   5 1156.68   69.39
  -3  -1   5 1183.08   69.69
  -3  -1   5 1184.18   72.49
  -3  -1   5 1212.08   72.09
  -3  -1   5 1162.78   71.29
  -3  -1   5 1251.37   69.89
   2   1  -5 1812.92  104.89
   2   1  -5 1828.42  106.99
   2   1  -5 1739.93  107.39
   2   1  -5 1767.82  105.59
   2   1  -5 1706.83  104.29
   2   1  -5 1772.02  105.49
   2   1  -5 1765.62  104.89
   2   1  -5 1753.72  104.69
  -2  -1   5 1777.02  104.29
  -2  -1   5 1923.41  107.29
  -2  -1   5 1778.32  104.99
  -2  -1   5 1788.32  104.99
  -2  -1   5 1949.10  106.49
  -2  -1   5 1867.61  104.89
  -2  -1   5 1952.00  107.89
   1   1  -5  932.11   59.19
   1   1  -5  997.90   61.99
   1   1  -5 1015.00   59.69
   1   1  -5  991.50   59.09
   1   1  -5 1032.40   61.29
   1   1  -5 1081.39   58.99
  -1  -1   5 1009.30   58.99
  -1  -1   5 1021.10   59.59
  -1  -1   5  866.81   62.39
  -1  -1   5 1062.99   61.19
  -1  -1   5 1106.79   60.49
  -1  -1   5  978.20   59.79
  -1  -1   5 1082.19   58.79
  -1  -1   5 1019.60   59.79
   0   1  -5  557.04   33.30
   0   1  -5  627.24   36.50
   0   1  -5  553.24   33.10
   0   1  -5  601.74   34.50
   0   1  -5  590.94   33.50
   0   1  -5  571.24   33.80
   0  -1   5  552.34   33.80
   0  -1   5  562.44   37.70
   0  -1   5  559.24   32.70
   0  -1   5  495.05   34.10
   0  -1   5  588.74   33.70
   0  -1   5  486.25   33.50
   0  -1   5  500.05   33.50
  -1   1  -5 1254.67   72.99
  -1   1  -5 1260.67   72.39
  -1   1  -5 1253.87   72.99
  -1   1  -5 1272.17   75.79
  -1   1  -5 1248.18   73.19
  -1   1  -5 1178.68   73.19
   1  -1   5 1274.47   73.39
   1  -1   5 1273.97   73.09
   1  -1   5 1234.38   73.59
   1  -1   5 1242.28   73.49
   1  -1   5 1248.18   73.49
  -2   1  -5  242.68   20.20
  -2   1  -5  255.67   17.60
  -2   1  -5  286.27   17.90
  -2   1  -5  251.97   17.80
  -2   1  -5  304.07   16.80
  -2   1  -5  286.77   17.10
  -2   1  -5  263.17   17.50
   2  -1   5  302.27   18.50
   2  -1   5  272.37   17.70
   2  -1   5  272.27   17.80
   2  -1   5  274.97   18.60
   2  -1   5  241.58   18.10
  -3   1  -5  406.36   24.50
  -3   1  -5  401.06   26.00
  -3   1  -5  404.76   25.70
  -3   1  -5  411.36   24.70
  -3   1  -5  417.16   26.30
  -3   1  -5  411.26   24.90
   3  -1   5  415.56   27.20
   3  -1   5  424.26   27.10
   3  -1   5  370.06   31.60
   3  -1   5  432.56   26.80
   3  -1   5  413.46   25.60
   3  -1   5  397.66   25.50
  -4   1  -5   -0.50    3.00
  -4   1  -5    3.50    2.20
  -4   1  -5    3.30    3.40
  -4   1  -5    4.60    5.90
  -4   1  -5    0.40    3.90
  -4   1  -5    1.30    2.40
   4  -1   5    4.30    4.10
   4  -1   5    0.10    2.70
   4  -1   5    2.60    4.90
   4  -1   5    3.30    2.50
   4  -1   5   12.30    8.80
   4  -1   5   -6.60    9.50
   4  -1   5   -3.50    4.80
  -5   1  -5   63.09    8.40
  -5   1  -5   52.29   10.30
  -5   1  -5   78.99    9.20
  -5   1  -5   75.19   10.40
  -5   1  -5   70.99    6.70
  -5   1  -5   79.79    7.90
  -5   1  -5   60.29    7.50
   5  -1   5   70.59    8.40
   5  -1   5   64.69    9.70
   5  -1   5   69.89    8.40
   5  -1   5   72.09   10.60
   5  -1   5   84.49   15.80
   5  -1   5   83.89   12.00
   5  -1   5   87.39   15.40
   5  -1   5   62.99    7.70
  -6   1  -5   -2.70    4.60
  -6   1  -5   -0.30    3.30
  -6   1  -5   -1.20    7.50
  -6   1  -5   -0.50    5.20
  -6   1  -5   -1.40    4.40
   6  -1   5   -1.70    4.10
   6  -1   5    6.60   13.50
   6  -1   5   13.50   12.90
   6  -1   5    4.30    8.80
   6  -1   5   -5.00    5.00
   6  -1   5    0.40    4.00
   6  -1   5    1.40    7.00
   6  -1   5    5.60    6.70
  -7   1  -5    3.90    4.40
  -7   1  -5    0.80    8.70
  -7   1  -5   14.10    6.50
  -7   1  -5   -0.70    5.70
  -7   1  -5   10.80    7.40
   7  -1   5   -4.20    5.10
   7  -1   5   -0.20    6.20
   7  -1   5   15.50    6.80
   7  -1   5   -1.20    9.10
   7  -1   5   11.40    8.80
  -8   1  -5   -1.50    9.60
  -8   1  -5   17.40   10.80
  -8   1  -5    1.70    5.90
  -8   1  -5   37.40    8.80
   8  -1   5    2.30   10.50
   8  -1   5   14.90    8.00
   8  -1   5   26.50   15.20
   8  -1   5   10.40    7.20
  -9   1  -5   17.60   12.50
  -9   1  -5    7.00   10.40
   9  -1   5    3.30    9.70
   9  -1   5    0.60    8.30
   9  -1   5   23.00   12.50
   9   0  -5    2.60   18.80
   9   0  -5   -1.60   10.30
   9   0  -5  -17.90   13.80
   9   0  -5    3.60    9.80
   9   0  -5   13.70   14.00
  -9   0   5  -30.70   14.90
  -9   0   5   -7.10   18.70
  -9   0   5   -8.90   17.80
  -9   0   5   -2.50   26.90
   8   0  -5   37.40   11.50
   8   0  -5   60.19   12.70
   8   0  -5   36.70    7.80
   8   0  -5   23.60    9.20
  -8   0   5   13.30   13.50
  -8   0   5   20.00   17.30
  -8   0   5   16.00   14.40
  -8   0   5   34.90   19.80
  -8   0   5   37.70   10.20
  -8   0   5   39.60   15.90
   7   0  -5   21.90    8.30
   7   0  -5   14.80    5.70
   7   0  -5   10.90    6.40
   7   0  -5   28.10   10.40
  -7   0   5   20.10   10.90
  -7   0   5   21.80    7.30
  -7   0   5   20.80   14.90
  -7   0   5   12.50   11.70
  -7   0   5    0.60   18.50
  -7   0   5    2.00   12.30
   6   0  -5  499.05   32.50
   6   0  -5  391.66   30.40
   6   0  -5  464.95   34.20
   6   0  -5  518.35   32.20
   6   0  -5  527.95   30.00
   6   0  -5  406.66   32.00
  -6   0   5  421.56   34.10
  -6   0   5  436.06   34.30
  -6   0   5  489.65   37.60
  -6   0   5  475.45   30.80
  -6   0   5  495.05   35.70
  -6   0   5  517.55   33.00
  -6   0   5  498.05   35.20
   5   0  -5   20.10    4.70
   5   0  -5   18.30    6.20
   5   0  -5   25.40    6.50
   5   0  -5   23.60    7.50
   5   0  -5   30.50    7.00
   5   0  -5   24.40    6.70
   5   0  -5   11.40    4.30
  -5   0   5   12.50    4.10
  -5   0   5   26.50    5.50
  -5   0   5   26.10    8.10
  -5   0   5   30.90   10.00
  -5   0   5   36.00    9.10
  -5   0   5   13.40    8.60
  -5   0   5   25.40    6.70
   4   0  -5 1120.89   66.69
   4   0  -5 1142.19   66.09
   4   0  -5 1091.79   66.89
   4   0  -5 1097.89   65.99
   4   0  -5 1144.89   65.59
  -4   0   5 1160.68   65.89
  -4   0   5 1080.69   68.49
  -4   0   5 1106.59   67.59
  -4   0   5 1124.59   68.19
  -4   0   5 1076.19   65.09
  -4   0   5  910.11   67.39
  -4   0   5 1123.69   65.29
   3   0  -5  719.33   44.40
   3   0  -5  703.33   44.70
   3   0  -5  769.72   43.80
   3   0  -5  766.02   44.20
   3   0  -5  786.32   45.70
   3   0  -5  621.24   43.20
   3   0  -5  745.23   43.30
  -3   0   5  725.93   43.60
  -3   0   5  634.24   46.40
  -3   0   5  782.32   44.10
  -3   0   5  679.43   45.10
  -3   0   5  723.73   46.10
  -3   0   5  731.03   43.70
  -3   0   5  787.42   46.50
   2   0  -5 3241.48  186.38
   2   0  -5 3209.18  186.28
   2   0  -5 3165.18  187.38
   2   0  -5 3192.58  187.18
   2   0  -5 3205.28  187.28
   2   0  -5 3205.78  186.48
  -2   0   5 3215.18  187.08
  -2   0   5 3096.09  189.78
  -2   0   5 3119.39  186.68
  -2   0   5 3422.96  186.68
  -2   0   5 3242.58  188.08
  -2   0   5 3087.49  185.38
  -2   0   5 3460.45  189.08
  -2   0   5 3471.95  188.98
   1   0  -5  246.48   14.60
   1   0  -5  216.98   14.40
   1   0  -5  211.68   13.90
   1   0  -5  224.28   14.30
   1   0  -5  183.48   14.70
   1   0  -5  254.07   17.80
   1   0  -5  226.88   15.10
  -1   0   5  229.38   14.80
  -1   0   5  248.28   15.90
  -1   0   5  234.98   16.80
  -1   0   5  220.38   15.50
  -1   0   5  236.08   14.30
   0   0  -5 5160.18  286.47
   0   0  -5 5360.36  286.17
   0   0  -5 4894.61  286.17
   0   0  -5 4854.51  285.67
   0   0  -5 4844.42  285.17
   0   0  -5 4848.21  288.87
   0   0  -5 4935.71  286.97
   0   0  -5 5020.30  286.27
   0   0   5 5249.17  286.87
   0   0   5 4420.56  286.67
   0   0   5 5152.28  286.97
   0   0   5 5066.79  287.07
  -1   0  -5  201.28   18.70
  -1   0  -5  218.98   16.80
  -1   0  -5  280.27   16.70
  -1   0  -5  232.48   16.60
  -1   0  -5  264.07   16.40
  -1   0  -5  240.38   16.30
  -1   0  -5  269.27   16.30
  -1   0  -5  273.87   16.50
   1   0   5  265.67   16.60
   1   0   5  249.68   16.90
   1   0   5  266.57   17.00
   1   0   5  227.18   16.80
   1   0   5  274.77   17.10
  -2   0  -5 2495.25  134.49
  -2   0  -5 2345.17  133.59
  -2   0  -5 1989.10  135.89
  -2   0  -5 2515.35  133.79
  -2   0  -5 2328.97  132.99
  -2   0  -5 2223.58  134.19
  -2   0  -5 2245.58  132.39
  -2   0  -5 2313.57  134.09
   2   0   5 2130.09  134.69
   2   0   5 2300.47  134.59
   2   0   5 2138.49  136.19
   2   0   5 2524.85  134.89
   2   0   5 2483.85  134.29
  -3   0  -5   -0.70    2.00
  -3   0  -5   -3.40    2.80
  -3   0  -5    8.00    6.00
  -3   0  -5   -0.80    1.60
  -3   0  -5    1.70    2.20
  -3   0  -5   -0.70    2.40
  -3   0  -5    2.20    2.90
   3   0   5    0.60    3.30
   3   0   5    1.80    2.60
   3   0   5   -3.80    2.00
   3   0   5   -2.10    4.00
   3   0   5    0.70    3.00
  -4   0  -5 1263.07   73.09
  -4   0  -5 1246.28   73.79
  -4   0  -5 1216.38   72.39
  -4   0  -5 1291.27   74.09
  -4   0  -5 1199.88   74.09
  -4   0  -5 1232.88   73.39
   4   0   5 1285.47   75.49
   4   0   5 1318.67   78.79
   4   0   5 1271.07   75.39
   4   0   5 1192.58   78.89
   4   0   5 1210.98   73.49
   4   0   5 1133.79   73.39
   4   0   5 1316.07   74.79
  -5   0  -5  260.77   17.00
  -5   0  -5  216.58   18.20
  -5   0  -5  241.98   18.20
  -5   0  -5  253.57   18.60
  -5   0  -5  271.07   17.00
  -5   0  -5  255.67   18.00
   5   0   5  235.88   17.50
   5   0   5  241.18   20.30
   5   0   5  262.17   17.90
   5   0   5  254.47   20.70
   5   0   5  238.18   24.70
   5   0   5  279.27   19.50
   5   0   5  306.27   25.60
  -6   0  -5  165.78   13.50
  -6   0  -5  175.98   15.50
  -6   0  -5  201.88   15.00
  -6   0  -5  180.28   15.80
  -6   0  -5  161.48   13.00
  -6   0  -5  165.48   15.90
   6   0   5  183.18   22.80
   6   0   5  181.88   18.20
   6   0   5  176.88   18.50
   6   0   5  169.88   13.90
   6   0   5  186.08   14.80
   6   0   5  189.68   16.50
   6   0   5  193.08   24.40
  -7   0  -5   19.70   10.60
  -7   0  -5    7.40    5.10
  -7   0  -5   25.30    6.30
  -7   0  -5   21.80    7.00
  -7   0  -5   31.20    9.30
   7   0   5   27.40    5.90
   7   0   5   27.20   11.40
   7   0   5   25.80   14.90
   7   0   5   32.70    7.90
   7   0   5   31.00    8.80
  -8   0  -5   88.49   13.70
  -8   0  -5   72.79   12.40
  -8   0  -5   85.39   15.70
  -8   0  -5   89.69   12.60
  -8   0  -5   97.19   11.20
   8   0   5   70.29   15.90
   8   0   5  108.19   14.40
   8   0   5   91.39   12.40
   8   0   5   71.49   22.30
  -9   0  -5   -0.10   12.70
  -9   0  -5   28.70   11.20
  -9   0  -5   -1.70   11.40
   9   0   5   20.70   11.40
   9   0   5    6.70    9.00
   9   0   5   24.20   11.10
   9  -1  -5   -6.40   11.00
   9  -1  -5   26.00   11.40
   9  -1  -5    3.00   15.00
  -9   1   5    6.10   31.60
  -9   1   5  -30.40   27.20
  -9   1   5  -28.20   17.90
  -9   1   5   18.10   21.30
   8  -1  -5   14.30   13.40
   8  -1  -5    5.30   11.20
   8  -1  -5   -3.20    8.10
   8  -1  -5    2.10    7.50
  -8   1   5  -15.60   14.70
  -8   1   5  -23.50   18.60
  -8   1   5    0.40   13.90
  -8   1   5   -3.10   14.80
   7  -1  -5  168.98   19.40
   7  -1  -5  165.48   14.80
   7  -1  -5   91.19   18.20
   7  -1  -5  162.58   17.40
   7  -1  -5  150.68   16.40
  -7   1   5  158.78   21.90
  -7   1   5  135.89   19.30
  -7   1   5  149.99   15.90
  -7   1   5  170.78   23.30
  -7   1   5  142.09   22.10
   6  -1  -5    3.40    6.40
   6  -1  -5    1.90    4.90
   6  -1  -5    7.50    5.70
   6  -1  -5    3.30    4.90
   6  -1  -5   -1.70    8.80
  -6   1   5    9.70    9.40
  -6   1   5  -14.10    8.80
  -6   1   5   -2.80    8.60
  -6   1   5   -4.10   11.40
  -6   1   5   12.90   10.30
  -6   1   5    2.20    5.90
   5  -1  -5  458.85   29.30
   5  -1  -5  532.45   32.00
   5  -1  -5  520.45   32.30
   5  -1  -5  489.15   32.70
   5  -1  -5  469.45   31.60
   5  -1  -5  429.36   30.60
   5  -1  -5  486.85   33.80
  -5   1   5  452.45   30.90
  -5   1   5  475.65   35.70
  -5   1   5  491.65   31.10
  -5   1   5  461.95   34.30
  -5   1   5  526.15   33.00
  -5   1   5  528.85   35.40
  -5   1   5  482.65   34.90
   4  -1  -5    0.00    3.50
   4  -1  -5    1.70    5.20
   4  -1  -5   -2.90    3.90
   4  -1  -5    2.10    2.20
   4  -1  -5    0.50    4.50
   4  -1  -5    3.30    3.10
   4  -1  -5    1.60    4.80
  -4   1   5    9.10    6.00
  -4   1   5   -9.80    4.70
  -4   1   5    5.80    5.80
  -4   1   5    6.20    3.40
  -4   1   5   -0.70    3.40
  -4   1   5    4.50    4.80
   3  -1  -5 1785.12  102.29
   3  -1  -5 1869.31  103.09
   3  -1  -5 1814.22  102.39
   3  -1  -5 1512.45  101.19
   3  -1  -5 1790.92  101.59
   3  -1  -5 1651.53  102.69
   3  -1  -5 1639.54   99.99
  -3   1   5 1715.93  103.49
  -3   1   5 1760.22  104.09
  -3   1   5 1762.12  102.19
  -3   1   5 1898.31  102.29
  -3   1   5 1730.53  101.49
  -3   1   5 1684.53  103.39
   2  -1  -5  102.59    9.00
   2  -1  -5  113.09    8.60
   2  -1  -5  106.09   11.40
   2  -1  -5  103.29    9.50
   2  -1  -5  116.59    9.10
   2  -1  -5  117.59    9.50
  -2   1   5  121.79    9.30
  -2   1   5  117.89   11.30
  -2   1   5  108.99   11.30
  -2   1   5  118.29   10.30
  -2   1   5  110.79   10.00
  -2   1   5  105.39    8.50
   1  -1  -5 2768.22  154.28
   1  -1  -5 2657.33  154.28
   1  -1  -5 2463.55  154.68
   1  -1  -5 2471.65  156.48
   1  -1  -5 2535.85  154.38
   1  -1  -5 2699.03  153.88
  -1   1   5 2825.32  155.18
  -1   1   5 2766.42  154.28
  -1   1   5 2610.84  154.68
  -1   1   5 2801.52  155.48
  -1   1   5 2785.82  156.38
   0  -1  -5  240.98   21.20
   0  -1  -5  296.87   18.70
   0  -1  -5  301.27   19.00
   0  -1  -5  301.17   17.40
   0  -1  -5  290.17   18.50
   0  -1  -5  291.17   18.90
   0  -1  -5  282.47   19.40
   0  -1  -5  284.57   17.80
   0   1   5  315.27   17.70
   0   1   5  319.27   19.60
   0   1   5  302.47   19.70
   0   1   5  302.97   19.50
   0   1   5  307.47   19.60
  -1  -1  -5 1664.23   91.09
  -1  -1  -5 1564.64   90.29
  -1  -1  -5 1338.37   92.19
  -1  -1  -5 1536.75   89.19
  -1  -1  -5 1590.44   90.49
  -1  -1  -5 1555.64   90.59
  -1  -1  -5 1700.93   90.99
   1   1   5 1364.86   90.89
   1   1   5 1680.23   91.39
   1   1   5 1592.44   91.29
   1   1   5 1392.16   90.49
   1   1   5 1610.24   91.19
  -2  -1  -5  145.99   11.50
  -2  -1  -5  151.68   10.90
  -2  -1  -5  161.18   11.10
  -2  -1  -5  148.59   11.30
   2   1   5  124.99   11.70
   2   1   5  158.48   12.20
   2   1   5  166.88   12.50
   2   1   5  172.18   11.40
  -3  -1  -5 2629.54  171.48
  -3  -1  -5 3171.68  171.28
  -3  -1  -5 2795.42  169.98
  -3  -1  -5 3040.50  171.88
  -3  -1  -5 2834.72  171.18
  -3  -1  -5 2889.91  170.98
   3   1   5 3101.39  175.28
   3   1   5 3179.38  172.78
   3   1   5 3058.49  171.78
   3   1   5 2940.71  172.48
   3   1   5 2988.00  172.08
   3   1   5 2881.71  171.38
  -4  -1  -5  219.08   16.80
  -4  -1  -5  256.97   16.90
  -4  -1  -5  223.78   16.50
  -4  -1  -5  216.48   15.00
  -4  -1  -5  233.38   16.30
  -4  -1  -5  251.47   16.10
   4   1   5  249.08   17.40
   4   1   5  218.48   16.50
   4   1   5  255.37   18.40
   4   1   5  229.68   18.10
   4   1   5  230.68   16.10
   4   1   5  246.48   22.50
  -5  -1  -5 1155.58   70.59
  -5  -1  -5 1232.18   71.49
  -5  -1  -5 1125.99   69.89
  -5  -1  -5 1273.37   71.59
  -5  -1  -5 1212.88   71.69
  -5  -1  -5 1173.88   71.69
   5   1   5 1160.78   71.19
   5   1   5 1140.89   75.79
   5   1   5 1127.99   75.59
   5   1   5 1301.97   72.39
   5   1   5 1174.28   73.19
   5   1   5 1195.98   73.19
  -6  -1  -5   23.80    6.70
  -6  -1  -5   23.70    5.20
  -6  -1  -5   23.90    6.20
  -6  -1  -5   28.10    6.00
  -6  -1  -5   17.20    6.60
  -6  -1  -5   13.70    4.70
   6   1   5   15.90    8.20
   6   1   5   26.90   12.10
   6   1   5   24.70    8.30
   6   1   5   16.90    4.80
   6   1   5   18.10    5.30
   6   1   5   31.70    7.40
   6   1   5   14.30   12.30
  -7  -1  -5  396.56   27.00
  -7  -1  -5  324.07   23.60
  -7  -1  -5  337.27   23.90
  -7  -1  -5  354.46   26.00
   7   1   5  367.96   25.30
   7   1   5  347.17   31.20
   7   1   5  337.17   24.60
   7   1   5  374.76   26.90
  -8  -1  -5   24.90    8.30
  -8  -1  -5   33.60    9.70
  -8  -1  -5   34.40    9.20
  -8  -1  -5   23.40    8.50
   8   1   5   28.90   16.10
   8   1   5   35.40   13.50
   8   1   5    2.00   12.40
   8   1   5   33.30    9.90
  -9  -1  -5   30.40   12.00
  -9  -1  -5   30.80   11.40
   9   1   5   34.60   11.80
   9   1   5   23.70   11.00
   9   1   5   11.00    8.00
 -10  -1  -5   15.50   13.10
  10   1   5    8.00   13.80
  10   1   5   39.10   13.30
  10   1   5    7.60   10.20
   8  -2  -5    1.00    8.50
   8  -2  -5  -17.70    8.90
   8  -2  -5   -1.20   12.10
   8  -2  -5  -23.90    9.70
   8  -2  -5   -8.40   12.10
  -8   2   5    5.20   15.50
  -8   2   5  -12.40   16.50
  -8   2   5   -6.20   20.20
  -8   2   5    7.30   17.10
   7  -2  -5   22.00    9.50
   7  -2  -5   46.70   14.80
   7  -2  -5   38.60    8.00
   7  -2  -5   32.00    8.50
   7  -2  -5   31.10    7.10
   7  -2  -5   44.10   11.60
  -7   2   5   59.99   16.40
  -7   2   5   21.70   12.60
  -7   2   5   10.50   12.20
  -7   2   5   12.10   14.20
   6  -2  -5   15.60   10.00
   6  -2  -5   14.90    6.90
   6  -2  -5    9.30    6.90
   6  -2  -5   11.50    5.40
   6  -2  -5    8.00    5.60
   6  -2  -5   11.70    5.10
  -6   2   5   23.40   11.90
  -6   2   5   -1.60    6.00
  -6   2   5    5.20   11.30
  -6   2   5    4.00   11.80
  -6   2   5   24.60    9.80
   5  -2  -5  245.78   17.90
   5  -2  -5  222.58   19.10
   5  -2  -5  239.78   18.30
   5  -2  -5  197.18   14.90
   5  -2  -5  222.58   16.60
   5  -2  -5  214.48   16.80
   5  -2  -5  175.38   19.50
  -5   2   5  213.58   21.00
  -5   2   5  252.37   19.90
  -5   2   5  238.18   21.90
  -5   2   5  218.38   21.80
  -5   2   5  212.28   22.30
  -5   2   5  229.58   18.60
  -5   2   5  238.08   17.00
   4  -2  -5   68.29    8.70
   4  -2  -5   57.59    8.50
   4  -2  -5   62.89    6.00
   4  -2  -5   66.69    8.80
   4  -2  -5   70.49    8.70
   4  -2  -5   56.89    8.40
   4  -2  -5   49.60    7.00
  -4   2   5   52.29    8.70
  -4   2   5   62.29    7.80
  -4   2   5   78.39   11.90
  -4   2   5   70.39    7.00
  -4   2   5   67.89    9.20
  -4   2   5   66.89   10.20
  -4   2   5   68.69   10.40
   3  -2  -5  409.66   26.50
   3  -2  -5  371.46   23.90
   3  -2  -5  334.27   24.90
   3  -2  -5  424.46   25.90
   3  -2  -5  390.56   26.80
   3  -2  -5  421.56   26.20
   3  -2  -5  397.16   26.90
  -3   2   5  394.66   25.40
  -3   2   5  466.45   27.00
  -3   2   5  389.56   26.90
  -3   2   5  394.86   27.50
  -3   2   5  413.56   23.90
  -3   2   5  380.56   27.50
  -3   2   5  430.26   28.80
   2  -2  -5  480.65   30.70
   2  -2  -5  442.96   26.80
   2  -2  -5  441.96   29.00
   2  -2  -5  440.16   28.50
   2  -2  -5  440.96   28.00
   2  -2  -5  453.55   28.10
   2  -2  -5  454.75   28.60
  -2   2   5  438.06   28.20
  -2   2   5  452.05   30.50
  -2   2   5  495.65   29.00
  -2   2   5  473.55   29.40
  -2   2   5  421.26   29.40
  -2   2   5  447.16   29.40
   1  -2  -5 1290.97   71.49
   1  -2  -5 1122.19   72.19
   1  -2  -5 1202.58   71.29
   1  -2  -5 1011.80   71.19
   1  -2  -5 1212.78   70.99
  -1   2   5 1218.68   71.79
  -1   2   5 1277.07   73.39
  -1   2   5 1267.07   72.09
  -1   2   5 1292.47   71.59
  -1   2   5 1227.08   72.29
   0  -2  -5 2620.84  147.89
   0  -2  -5 2579.34  149.09
   0  -2  -5 2428.66  149.19
   0  -2  -5 2634.44  148.79
   0  -2  -5 2613.94  148.99
   0  -2  -5 2549.94  148.19
   0   2   5 2449.25  149.09
   0   2   5 2688.43  147.49
   0   2   5 2733.63  149.59
   0   2   5 2327.47  149.69
  -1  -2  -5 2158.38  124.39
  -1  -2  -5 2081.19  125.89
  -1  -2  -5 2045.90  123.79
  -1  -2  -5 2074.89  124.29
  -1  -2  -5 2173.68  124.29
  -1  -2  -5 2070.79  126.29
   1   2   5 2260.97  125.39
   1   2   5 1939.11  125.09
   1   2   5 2344.27  125.49
   1   2   5 2266.67  125.59
  -2  -2  -5 2500.15  142.99
  -2  -2  -5 2413.76  142.29
  -2  -2  -5 2366.76  143.09
  -2  -2  -5 2393.56  142.39
  -2  -2  -5 2538.35  143.09
   2   2   5 2566.74  143.59
   2   2   5 2510.65  143.49
   2   2   5 2636.64  143.89
   2   2   5 2442.46  142.79
   2   2   5 2194.38  143.29
  -3  -2  -5 1507.15   93.89
  -3  -2  -5 1710.73   95.49
  -3  -2  -5 1423.66   95.49
  -3  -2  -5 1648.54   95.79
  -3  -2  -5 1534.35   95.19
   3   2   5 1761.92   96.89
   3   2   5 1716.63   99.09
   3   2   5 1605.44   95.89
   3   2   5 1779.22   95.79
   3   2   5 1599.44   96.49
  -4  -2  -5 1451.45   81.59
  -4  -2  -5 1312.47   80.59
  -4  -2  -5 1378.66   81.79
  -4  -2  -5 1315.07   82.19
  -4  -2  -5 1359.56   81.79
  -4  -2  -5 1301.97   82.09
   4   2   5 1517.65   83.69
   4   2   5 1433.66   82.29
   4   2   5 1364.96   85.49
   4   2   5 1415.56   83.29
   4   2   5 1339.27   81.49
  -5  -2  -5 1429.46   87.99
  -5  -2  -5 1504.95   88.09
  -5  -2  -5 1439.76   86.49
  -5  -2  -5 1586.14   88.09
  -5  -2  -5 1449.06   87.29
  -5  -2  -5 1505.75   88.39
   5   2   5 1444.76   89.49
   5   2   5 1404.56   87.99
   5   2   5 1463.65   88.59
   5   2   5 1469.85   87.59
   5   2   5 1560.24   89.89
  -6  -2  -5   22.00    6.10
  -6  -2  -5   14.10    5.00
  -6  -2  -5   22.40    6.80
  -6  -2  -5   21.00    6.50
  -6  -2  -5   15.20    4.50
  -6  -2  -5   19.70    6.20
   6   2   5   19.50    6.90
   6   2   5   25.10    8.40
   6   2   5   19.90    5.80
   6   2   5   14.00   12.70
   6   2   5   18.00   10.70
  -7  -2  -5  850.21   51.79
  -7  -2  -5  785.42   51.09
  -7  -2  -5  765.72   50.79
  -7  -2  -5  751.92   49.40
  -7  -2  -5  760.32   49.00
   7   2   5  840.72   54.89
   7   2   5  763.22   53.39
   7   2   5  793.52   50.39
   7   2   5  908.61   52.19
   7   2   5  819.72   50.29
  -8  -2  -5   25.90    8.20
  -8  -2  -5   50.79   11.00
  -8  -2  -5   39.50   10.30
   8   2   5   26.20   10.70
   8   2   5   53.49   11.30
   8   2   5   40.00    8.10
   8   2   5   64.39   15.00
   8   2   5   36.60   14.60
  -9  -2  -5  171.78   22.10
  -9  -2  -5  170.68   22.70
   9   2   5  187.78   25.00
   9   2   5  189.88   19.60
   9   2   5  156.38   22.10
   9   2   5  207.28   23.60
   9   2   5  172.28   20.00
 -10  -2  -5    4.40   13.30
 -10  -2  -5  -14.40   13.20
  10   2   5   15.60   10.10
  10   2   5   21.00   15.60
  10   2   5   15.00   12.80
   8  -3  -5    0.70    9.50
   8  -3  -5    4.20   12.70
   8  -3  -5   -7.50   15.30
   8  -3  -5   -5.60   11.40
  -8   3   5   -8.70   11.30
  -8   3   5   13.70   22.30
  -8   3   5   -1.20   17.40
  -8   3   5  -11.80   17.90
  -8   3   5   -3.20   19.80
   7  -3  -5    9.40    8.00
   7  -3  -5  -10.50    9.20
   7  -3  -5    1.20    7.80
   7  -3  -5    7.80   10.00
   7  -3  -5   -5.20    6.80
   7  -3  -5   -0.70   14.50
  -7   3   5   -3.50   13.00
  -7   3   5    1.20   15.90
  -7   3   5    7.30    9.10
  -7   3   5    2.10   14.40
  -7   3   5    0.20   15.10
   6  -3  -5   23.10   11.30
   6  -3  -5   -1.10    8.40
   6  -3  -5    3.30    5.70
   6  -3  -5   11.30    8.20
  -6   3   5   14.70   12.40
  -6   3   5    9.80   12.00
  -6   3   5    6.40    6.50
  -6   3   5    9.60   11.90
  -6   3   5   15.90   11.20
   5  -3  -5    7.70    4.90
   5  -3  -5   10.30    4.80
   5  -3  -5   17.30    4.50
   5  -3  -5   13.50    5.70
   5  -3  -5   12.30    6.30
   5  -3  -5   -5.30    8.40
  -5   3   5    7.80    9.90
  -5   3   5   13.80    9.40
  -5   3   5   23.20   10.80
  -5   3   5    4.30    9.20
  -5   3   5    4.60    4.50
  -5   3   5    9.30    5.40
  -5   3   5   -7.40    7.90
  -5   3   5   -0.90    9.10
   4  -3  -5    6.00    5.10
   4  -3  -5   10.00    4.70
   4  -3  -5   12.50    3.70
   4  -3  -5   11.60    5.80
   4  -3  -5   16.50    5.60
   4  -3  -5   17.80    5.20
   4  -3  -5   13.20    6.40
  -4   3   5    7.00    7.00
  -4   3   5   16.50    3.60
  -4   3   5   14.80    9.10
  -4   3   5   11.30    6.60
  -4   3   5    6.30    7.40
  -4   3   5   17.90    8.00
  -4   3   5    7.90    4.10
  -4   3   5    9.00    6.60
   3  -3  -5   14.40    4.60
   3  -3  -5    7.90    3.00
   3  -3  -5    6.40    4.20
   3  -3  -5   13.00    5.40
   3  -3  -5    0.80    3.50
   3  -3  -5   13.70    5.20
   3  -3  -5   13.20    6.10
  -3   3   5    7.70    5.40
  -3   3   5    9.70    5.50
  -3   3   5   14.10    2.60
  -3   3   5   11.50    4.10
  -3   3   5   14.00    6.10
  -3   3   5    8.50    6.10
  -3   3   5   13.90    5.90
   2  -3  -5  186.78   14.10
   2  -3  -5  223.98   14.90
   2  -3  -5  206.48   14.60
   2  -3  -5  204.28   14.70
   2  -3  -5  188.48   12.90
   2  -3  -5  178.28   16.40
  -2   3   5  178.88   15.40
  -2   3   5  222.68   15.90
  -2   3   5  197.08   14.50
  -2   3   5  208.68   17.00
  -2   3   5  186.08   12.30
  -2   3   5  213.88   15.40
  -2   3   5  218.88   15.80
   1  -3  -5  172.28   12.70
   1  -3  -5  179.68   12.30
   1  -3  -5  149.88   12.30
   1  -3  -5  161.08   12.80
   1  -3  -5  177.18   12.50
   1  -3  -5  168.08   11.10
   1  -3  -5  165.78   12.90
  -1   3   5  192.68   15.10
  -1   3   5  166.98   13.40
  -1   3   5  182.48   13.60
  -1   3   5  161.38   14.40
  -1   3   5  152.38   11.20
   0  -3  -5  746.03   47.20
   0  -3  -5  804.52   47.00
   0  -3  -5  794.22   46.40
   0  -3  -5  796.52   47.20
   0  -3  -5  755.52   46.80
   0  -3  -5  750.52   46.20
   0  -3  -5  657.23   44.90
   0   3   5  699.13   47.20
   0   3   5  822.32   47.90
   0   3   5  859.91   47.50
   0   3   5  808.12   48.40
   0   3   5  830.22   45.80
  -1  -3  -5   -0.20    3.10
  -1  -3  -5    1.40    2.40
  -1  -3  -5    5.20    2.50
  -1  -3  -5   -1.30    2.50
  -1  -3  -5    4.60    2.80
  -1  -3  -5   -4.50    3.10
   1   3   5    0.10    2.50
   1   3   5    1.90    3.40
   1   3   5    6.00    3.60
   1   3   5   -1.70    3.50
   1   3   5    0.90    1.90
  -2  -3  -5  897.41   52.39
  -2  -3  -5  880.71   51.89
  -2  -3  -5  910.21   52.89
  -2  -3  -5  878.21   51.99
  -2  -3  -5  918.51   52.79
   2   3   5  939.71   53.19
   2   3   5  731.53   51.89
   2   3   5  788.12   52.89
  -3  -3  -5  277.37   19.00
  -3  -3  -5  305.07   19.60
  -3  -3  -5  305.07   18.80
  -3  -3  -5  253.27   19.50
  -3  -3  -5  270.67   19.20
   3   3   5  279.27   20.20
   3   3   5  298.27   20.60
   3   3   5  280.27   20.20
   3   3   5  280.67   23.10
   3   3   5  305.87   20.70
  -4  -3  -5 1517.45   91.19
  -4  -3  -5 1520.35   91.19
  -4  -3  -5 1446.36   89.39
  -4  -3  -5 1633.84   91.19
  -4  -3  -5 1417.66   91.39
  -4  -3  -5 1585.54   91.39
   4   3   5 1493.95   91.99
   4   3   5 1531.95   92.39
   4   3   5 1701.83   92.99
   4   3   5 1630.54   91.39
   4   3   5 1510.55   94.29
   4   3   5 1507.05   91.09
  -5  -3  -5   13.90    4.10
  -5  -3  -5   11.90    4.50
  -5  -3  -5   13.90    5.50
  -5  -3  -5    9.60    5.30
  -5  -3  -5    3.70    5.10
  -5  -3  -5    9.30    5.10
   5   3   5   11.60    9.10
   5   3   5   12.20    5.30
   5   3   5   10.10    4.70
   5   3   5    9.70    4.10
   5   3   5   19.20    6.80
   5   3   5    7.30    5.70
  -6  -3  -5  716.83   45.20
  -6  -3  -5  728.63   45.60
  -6  -3  -5  718.03   43.60
  -6  -3  -5  679.73   44.00
  -6  -3  -5  723.13   45.40
  -6  -3  -5  806.42   45.10
   6   3   5  708.23   44.30
   6   3   5  700.13   49.70
   6   3   5  695.43   46.60
   6   3   5  588.64   45.00
   6   3   5  697.83   45.20
   6   3   5  728.43   47.10
  -7  -3  -5  156.58   16.10
  -7  -3  -5  149.59   13.70
  -7  -3  -5  153.28   16.00
  -7  -3  -5  142.29   14.60
  -7  -3  -5  164.08   16.90
  -7  -3  -5  151.28   16.30
   7   3   5  182.98   19.50
   7   3   5  152.08   21.10
   7   3   5  172.98   17.80
   7   3   5  166.58   15.70
  -8  -3  -5  220.58   21.30
  -8  -3  -5  231.88   19.30
  -8  -3  -5  200.58   21.70
   8   3   5  218.28   22.90
   8   3   5  216.08   19.10
   8   3   5  239.58   22.80
   8   3   5  210.48   25.30
  -9  -3  -5  -14.40   10.90
  -9  -3  -5   -6.60    8.50
   9   3   5   11.30   15.00
   9   3   5    3.60   12.00
   9   3   5   11.00    8.90
   9   3   5    4.50   17.00
   9   3   5    9.00    9.40
 -10  -3  -5   41.00   15.30
 -10  -3  -5   54.89   16.50
  10   3   5   64.79   14.50
  10   3   5   57.29   16.60
  10   3   5   39.60   11.70
   7  -4  -5   13.30   11.00
   7  -4  -5   14.90   12.10
   7  -4  -5    5.40    9.70
   7  -4  -5    9.70    7.40
   7  -4  -5   13.60   18.30
  -7   4   5  -11.50   16.80
  -7   4   5   -0.40   16.30
  -7   4   5    0.70    8.00
  -7   4   5   15.90   18.10
  -7   4   5   -7.80   17.00
   6  -4  -5    5.80    6.00
   6  -4  -5   18.40    8.80
   6  -4  -5   -5.80   11.20
   6  -4  -5    3.60    7.30
   6  -4  -5    5.50    9.60
  -6   4   5    2.80   23.10
  -6   4   5    7.10    6.20
  -6   4   5   -8.90   13.50
  -6   4   5    7.30   12.30
  -6   4   5  -11.00   13.50
   5  -4  -5   38.30    8.10
   5  -4  -5   16.50    8.50
   5  -4  -5   29.80    6.50
   5  -4  -5   35.50    9.60
  -5   4   5   12.00    7.50
  -5   4   5   30.30    5.40
  -5   4   5   13.00   12.50
  -5   4   5   30.30   10.60
  -5   4   5   37.50   13.30
  -5   4   5   20.10    9.90
   4  -4  -5   12.10    4.60
   4  -4  -5    8.70    6.40
   4  -4  -5   13.80    4.80
   4  -4  -5   19.60    5.30
   4  -4  -5   17.10    7.40
   4  -4  -5   12.90    4.50
   4  -4  -5   19.50    7.40
  -4   4   5    8.40    7.10
  -4   4   5   28.30   10.80
  -4   4   5   15.70    4.50
  -4   4   5   27.00    8.70
  -4   4   5    0.80    8.20
  -4   4   5   11.60    8.60
  -4   4   5   17.30    4.00
  -4   4   5    1.30    7.90
   3  -4  -5    4.70    4.20
   3  -4  -5    2.00    6.10
   3  -4  -5   12.50    3.50
   3  -4  -5   12.10    6.10
   3  -4  -5    6.60    4.10
   3  -4  -5   16.20    5.50
   3  -4  -5   10.40    5.80
  -3   4   5    7.60    7.80
  -3   4   5    9.30    5.90
  -3   4   5   12.30    4.90
  -3   4   5   -0.70    5.90
  -3   4   5    8.60    2.80
  -3   4   5   11.60    7.70
  -3   4   5    3.80    6.50
  -3   4   5    3.90    7.30
   2  -4  -5    4.20    3.00
   2  -4  -5   -1.30    4.00
   2  -4  -5  -10.20    4.10
   2  -4  -5    4.40    3.50
   2  -4  -5    5.40    4.10
   2  -4  -5    2.30    6.80
  -2   4   5    5.40    5.20
  -2   4   5   -3.40    6.20
  -2   4   5   -0.80    4.00
  -2   4   5    2.80    5.20
  -2   4   5   -0.20    2.60
  -2   4   5    5.40    4.10
  -2   4   5   -2.60    5.40
   1  -4  -5    6.70    2.80
   1  -4  -5   10.50    3.20
   1  -4  -5   20.80    4.90
   1  -4  -5    8.00    3.60
   1  -4  -5    8.40    4.60
   1  -4  -5    6.80    3.40
  -1   4   5    4.70    3.90
  -1   4   5    4.10    5.10
  -1   4   5    7.40    5.60
  -1   4   5    5.80    3.10
  -1   4   5    8.80    5.60
  -1   4   5   10.60    5.50
   0  -4  -5   18.80    3.60
   0  -4  -5   26.30    5.50
   0  -4  -5   25.60    5.50
   0  -4  -5   22.00    3.00
   0  -4  -5   18.40    3.60
   0  -4  -5   21.70    4.50
   0  -4  -5   35.50    6.20
   0  -4  -5   22.20    4.40
   0   4   5   28.70    6.30
   0   4   5   28.00    4.90
   0   4   5   25.60    3.90
   0   4   5   30.70    6.50
   0   4   5   18.60    5.00
  -1  -4  -5  164.58   12.70
  -1  -4  -5  158.98   12.30
  -1  -4  -5  147.49   13.50
  -1  -4  -5  170.58   12.40
  -1  -4  -5  161.78   12.50
  -1  -4  -5  166.38   12.00
   1   4   5  176.18   13.70
   1   4   5  157.78   13.10
   1   4   5  134.69   13.30
   1   4   5  165.38   11.70
  -2  -4  -5    6.50    4.10
  -2  -4  -5   -0.70    2.70
  -2  -4  -5    3.30    3.10
  -2  -4  -5   -2.00    2.80
  -2  -4  -5    1.90    3.70
   2   4   5    0.60    3.60
   2   4   5    2.70    3.10
   2   4   5    3.10    6.00
   2   4   5   -1.20    2.70
   2   4   5   -4.80    3.50
   2   4   5    1.30    4.10
  -3  -4  -5  395.96   25.90
  -3  -4  -5  391.26   25.00
  -3  -4  -5  408.36   25.50
  -3  -4  -5  369.06   25.10
  -3  -4  -5  387.76   25.50
   3   4   5  390.86   26.50
   3   4   5  381.96   28.40
   3   4   5  329.17   24.90
   3   4   5  412.36   26.70
   3   4   5  383.16   26.20
   3   4   5  407.16   26.70
  -4  -4  -5    5.60    4.00
  -4  -4  -5   -0.80    3.40
  -4  -4  -5   -1.50    3.80
  -4  -4  -5    2.80    4.40
  -4  -4  -5   -0.80    3.50
  -4  -4  -5    6.10    4.30
   4   4   5    1.30    4.40
   4   4   5    5.20    4.70
   4   4   5   -0.50    5.60
   4   4   5   -0.20    3.10
   4   4   5    8.70    7.20
   4   4   5   -2.50    3.30
  -5  -4  -5  674.73   44.70
  -5  -4  -5  717.63   44.80
  -5  -4  -5  702.73   44.70
  -5  -4  -5  733.63   45.00
  -5  -4  -5  699.93   44.10
  -5  -4  -5  687.13   44.30
   5   4   5  723.73   46.30
   5   4   5  704.83   44.10
   5   4   5  711.53   48.80
   5   4   5  762.22   45.70
   5   4   5  671.53   45.70
   5   4   5  708.93   44.30
  -6  -4  -5   11.20    6.70
  -6  -4  -5   -0.10    4.40
  -6  -4  -5    2.70    6.10
  -6  -4  -5   -0.80    4.50
  -6  -4  -5   -2.40    5.50
  -6  -4  -5   -0.50    4.90
   6   4   5    0.50    7.90
   6   4   5    0.50    5.10
   6   4   5    0.10    4.40
   6   4   5    6.50    6.70
   6   4   5    7.00    7.60
   6   4   5   -3.30   10.30
  -7  -4  -5  291.67   24.80
  -7  -4  -5  342.27   24.90
  -7  -4  -5  314.77   23.10
  -7  -4  -5  340.27   25.50
  -7  -4  -5  324.37   24.60
   7   4   5  301.57   25.20
   7   4   5  312.77   23.10
   7   4   5  345.67   29.30
   7   4   5  350.56   24.90
   7   4   5  317.07   27.10
  -8  -4  -5    2.70    7.70
  -8  -4  -5   -4.40    7.00
  -8  -4  -5   -1.20    9.00
   8   4   5  -11.30   11.50
   8   4   5    6.50   12.20
   8   4   5   -4.70    8.80
  -9  -4  -5  159.38   21.20
  -9  -4  -5  156.08   21.00
   9   4   5  178.08   25.30
   9   4   5  145.79   20.50
   9   4   5  185.88   20.70
   9   4   5  190.88   26.70
 -10  -4  -5   16.50   15.10
 -10  -4  -5   17.80   12.10
  10   4   5   26.20   15.40
  10   4   5    6.20   11.40
  10   4   5    1.00   11.50
   7  -5  -5   -5.00   13.30
   7  -5  -5   17.90   11.20
   7  -5  -5   -3.70    8.60
   7  -5  -5   16.00   14.30
  -7   5   5  -19.50   18.60
  -7   5   5   -2.80    9.20
  -7   5   5  -14.30   18.20
  -7   5   5  -37.90   20.40
  -7   5   5   24.40   23.00
   6  -5  -5   17.40   12.20
   6  -5  -5    7.30   10.00
   6  -5  -5   37.10    8.60
   6  -5  -5   40.60   12.60
  -6   5   5   46.70   17.40
  -6   5   5   54.59   18.30
  -6   5   5   23.50    7.40
  -6   5   5   20.30   17.00
  -6   5   5   51.19   15.40
   5  -5  -5    4.50    8.90
   5  -5  -5   -0.10    6.60
   5  -5  -5   -3.90    6.90
  -5   5   5   -3.30   11.50
  -5   5   5   -1.60   15.60
  -5   5   5  -27.30   11.10
  -5   5   5    8.60   11.00
  -5   5   5    7.20    5.30
   4  -5  -5   71.29    9.70
   4  -5  -5   77.19   11.10
   4  -5  -5   59.79   11.30
   4  -5  -5   53.89    8.90
   4  -5  -5   49.30    7.90
   4  -5  -5   88.09   14.40
  -4   5   5   62.99   15.80
  -4   5   5   73.89   11.10
  -4   5   5   68.99   12.80
  -4   5   5   42.00    9.80
  -4   5   5   57.99   13.00
  -4   5   5   61.59    8.00
  -4   5   5   77.49   13.20
   3  -5  -5    9.30    4.40
   3  -5  -5   10.00    8.30
   3  -5  -5   24.30    7.40
   3  -5  -5    8.30    4.40
   3  -5  -5   14.80    7.40
   3  -5  -5   12.40    4.80
   3  -5  -5   18.90    6.90
  -3   5   5   -2.30    6.10
  -3   5   5   -7.40    8.10
  -3   5   5    5.10    7.30
  -3   5   5    4.60   10.20
  -3   5   5   -0.80    8.10
  -3   5   5   16.80    6.70
  -3   5   5   12.50    7.20
  -3   5   5    6.50    3.60
   2  -5  -5  129.79   10.70
   2  -5  -5  139.09   13.60
   2  -5  -5  139.89   12.20
   2  -5  -5  133.49   13.30
   2  -5  -5  143.99   11.90
   2  -5  -5  119.59   12.00
  -2   5   5  138.19   14.00
  -2   5   5  146.29   12.30
  -2   5   5  112.79   13.50
  -2   5   5  130.09   15.40
  -2   5   5  128.89   16.20
  -2   5   5  135.29   18.20
  -2   5   5  129.49   13.30
   1  -5  -5    2.20    3.70
   1  -5  -5   10.80    3.60
   1  -5  -5   -4.60    4.20
   1  -5  -5    5.70    3.60
   1  -5  -5    6.10    4.70
   1  -5  -5    8.40    4.50
   1  -5  -5    3.50    3.90
  -1   5   5    0.80    5.20
  -1   5   5    4.70    5.30
  -1   5   5    7.10    4.60
  -1   5   5    4.10    3.60
  -1   5   5    8.70    3.50
  -1   5   5   -6.50    5.00
   0  -5  -5   37.80    5.40
   0  -5  -5   47.00    6.70
   0  -5  -5   42.90    5.70
   0  -5  -5   60.89    8.00
   0  -5  -5   58.29    6.50
   0  -5  -5   40.90    6.80
   0  -5  -5   54.19    7.80
   0  -5  -5   54.49    7.50
   0   5   5   68.19    9.10
   0   5   5   40.20    6.30
   0   5   5   44.40    6.90
   0   5   5   56.79    6.20
  -1  -5  -5   18.10    4.40
  -1  -5  -5    8.30    3.60
  -1  -5  -5   16.70    4.00
  -1  -5  -5   20.10    4.70
  -1  -5  -5   22.90    5.20
  -1  -5  -5   24.40    4.00
  -1  -5  -5   23.70    6.80
   1   5   5   19.10    6.70
   1   5   5   22.10    5.60
   1   5   5   16.60    4.80
   1   5   5   13.30    5.00
   1   5   5   22.50    4.30
   1   5   5   18.70    6.40
  -2  -5  -5    0.40    4.00
  -2  -5  -5   11.90    4.10
  -2  -5  -5    4.90    4.30
  -2  -5  -5    5.30    4.00
  -2  -5  -5    9.10    4.00
   2   5   5    9.90    5.40
   2   5   5   11.30    4.20
   2   5   5    1.90    3.50
   2   5   5   11.10    5.90
   2   5   5    8.40    4.70
   2   5   5    5.30    4.90
  -3  -5  -5   10.80    4.90
  -3  -5  -5   14.90    5.60
  -3  -5  -5   11.50    4.50
  -3  -5  -5   18.20    5.10
  -3  -5  -5   12.20    4.60
   3   5   5   17.90    6.10
   3   5   5   19.50    6.50
   3   5   5   24.00    6.60
   3   5   5   14.20    4.10
   3   5   5   16.70    7.70
   3   5   5   15.10    4.40
  -4  -5  -5   58.09    7.50
  -4  -5  -5   69.29    9.20
  -4  -5  -5   53.69    8.20
  -4  -5  -5   59.49    7.80
  -4  -5  -5   49.10    7.30
   4   5   5   35.60    7.60
   4   5   5   69.79   10.50
   4   5   5   68.89    8.50
   4   5   5   38.00    7.20
   4   5   5   54.39    7.60
   4   5   5   47.00   12.10
   4   5   5   69.39   10.70
  -5  -5  -5    1.70    4.40
  -5  -5  -5    9.10    5.50
  -5  -5  -5    3.80    5.00
  -5  -5  -5    9.50    5.20
  -5  -5  -5   20.10    5.80
  -5  -5  -5   14.80    5.60
   5   5   5    2.00    6.50
   5   5   5   10.90    4.80
   5   5   5   10.40    5.90
   5   5   5    5.80    6.70
   5   5   5    5.60    5.20
   5   5   5   11.70    9.90
  -6  -5  -5  107.49   12.00
  -6  -5  -5  101.79   13.70
  -6  -5  -5   92.19   12.60
  -6  -5  -5   83.99   12.40
  -6  -5  -5  103.89   14.10
  -6  -5  -5   80.19   11.50
  -6  -5  -5  109.19   11.90
   6   5   5   99.09   17.10
   6   5   5   77.49   12.30
   6   5   5  125.79   12.00
   6   5   5  107.29   15.20
   6   5   5   95.29   12.10
   6   5   5  100.29   11.50
  -7  -5  -5    6.00    7.00
  -7  -5  -5   10.80    7.80
  -7  -5  -5    1.90    6.10
  -7  -5  -5    4.00    8.10
   7   5   5   11.90   10.30
   7   5   5    0.70    8.80
   7   5   5    4.50    5.70
   7   5   5    3.50    6.00
  -8  -5  -5   88.49   19.00
  -8  -5  -5   89.99   13.60
  -8  -5  -5   72.49   11.60
   8   5   5   81.79   11.40
   8   5   5  110.79   19.20
   8   5   5   87.59   14.00
   8   5   5  146.09   20.60
  -9  -5  -5   -0.50   11.20
  -9  -5  -5   10.80   10.60
   9   5   5   20.40    9.60
   9   5   5   12.00    8.80
   9   5   5   25.70   13.70
   9   5   5   22.70   13.10
 -10  -5  -5   37.60   12.60
 -10  -5  -5   53.59   16.20
  10   5   5   55.29   13.00
  10   5   5   33.20   16.40
   6  -6  -5    2.30    8.30
   6  -6  -5   -0.20   13.40
   6  -6  -5    1.70   11.50
  -6   6   5    4.50   14.70
  -6   6   5   -3.40    8.50
  -6   6   5  -12.70   17.60
  -6   6   5    7.50   22.00
  -6   6   5    9.20   17.40
   5  -6  -5    8.80    8.80
   5  -6  -5   -8.10   10.90
   5  -6  -5   -6.30   11.60
   5  -6  -5    7.80    7.00
  -5   6   5  -11.20    9.40
  -5   6   5   17.20    6.80
  -5   6   5   16.70   16.80
  -5   6   5   33.70   14.70
  -5   6   5  -15.60   12.80
   4  -6  -5   40.40   11.70
   4  -6  -5   37.60    8.20
   4  -6  -5   37.20   10.50
   4  -6  -5   56.39    9.60
  -4   6   5   23.30   11.50
  -4   6   5   42.30    7.40
  -4   6   5   48.20   15.60
  -4   6   5   53.09   11.60
  -4   6   5   38.60   14.00
  -4   6   5   34.00   10.80
   3  -6  -5   51.39    8.20
   3  -6  -5   62.29   10.80
   3  -6  -5   48.40   10.00
   3  -6  -5   52.89   11.90
   3  -6  -5   45.90    8.10
   3  -6  -5   51.79    7.90
  -3   6   5   59.49    8.20
  -3   6   5   32.90   10.60
  -3   6   5   48.30   10.30
  -3   6   5   46.70   11.40
  -3   6   5   46.00   15.00
  -3   6   5   45.10    7.70
   2  -6  -5   62.89   10.30
   2  -6  -5   64.39    8.60
   2  -6  -5   47.40    8.20
   2  -6  -5   66.89    9.40
   2  -6  -5   63.19    9.80
   2  -6  -5   40.30    8.00
  -2   6   5   77.79   11.30
  -2   6   5   66.99   10.00
  -2   6   5   48.40   10.70
  -2   6   5   65.99   13.50
  -2   6   5   74.79   12.10
  -2   6   5   71.49    8.90
  -2   6   5   73.19   12.10
   1  -6  -5  124.49   11.30
   1  -6  -5  144.99   13.60
   1  -6  -5  127.09   11.10
   1  -6  -5  129.09   13.10
   1  -6  -5  130.49   12.10
   1  -6  -5  107.79   13.40
   1  -6  -5  113.39   11.20
  -1   6   5  118.09   14.10
  -1   6   5  147.79   19.30
  -1   6   5  143.19   15.90
  -1   6   5  140.99   14.20
  -1   6   5  124.09   11.90
  -1   6   5  123.49   10.00
  -1   6   5  119.59   13.00
  -1   6   5  135.49   11.60
   0  -6  -5  236.48   17.80
   0  -6  -5  225.78   18.10
   0  -6  -5  199.28   15.50
   0  -6  -5  210.18   17.80
   0  -6  -5  220.28   16.40
   0  -6  -5  241.88   18.40
   0  -6  -5  233.88   16.10
   0  -6  -5  228.18   16.20
   0   6   5  243.28   16.30
   0   6   5  245.48   18.10
   0   6   5  205.58   17.10
   0   6   5  214.28   17.20
   0   6   5  220.68   19.80
   0   6   5  202.98   18.00
  -1  -6  -5   23.70    6.30
  -1  -6  -5   26.10    5.50
  -1  -6  -5   19.00    5.30
  -1  -6  -5   28.80    5.80
  -1  -6  -5   31.60    6.90
  -1  -6  -5   30.20    5.50
  -1  -6  -5   29.90    8.00
   1   6   5   25.50    5.70
   1   6   5   35.20    7.70
   1   6   5   23.60    6.80
   1   6   5   32.90    5.90
   1   6   5   23.20    6.20
   1   6   5   31.20    7.30
  -2  -6  -5  221.88   16.10
  -2  -6  -5  204.38   17.40
  -2  -6  -5  214.08   15.90
  -2  -6  -5  221.48   15.70
  -2  -6  -5  185.68   16.30
  -2  -6  -5  236.98   17.70
  -2  -6  -5  195.98   17.10
   2   6   5  213.18   15.80
   2   6   5  187.48   17.20
   2   6   5  231.68   17.60
   2   6   5  209.48   15.50
   2   6   5  240.08   19.50
   2   6   5  217.08   17.80
  -3  -6  -5    9.80    4.60
  -3  -6  -5    1.00    4.10
  -3  -6  -5    5.60    5.30
  -3  -6  -5    7.60    4.90
  -3  -6  -5   10.80    5.40
  -3  -6  -5    6.70    6.00
   3   6   5    6.50    4.20
   3   6   5   11.50    8.70
   3   6   5   13.70    5.50
   3   6   5    4.80    4.20
   3   6   5   16.60    6.60
   3   6   5    7.70    5.80
  -4  -6  -5  155.18   15.10
  -4  -6  -5  138.29   14.40
  -4  -6  -5  146.69   13.20
  -4  -6  -5  148.09   13.20
  -4  -6  -5  120.59   12.60
   4   6   5  153.78   15.30
   4   6   5  132.79   14.80
   4   6   5  163.18   19.30
   4   6   5  145.39   13.20
   4   6   5  144.99   15.00
   4   6   5  165.98   13.20
  -5  -6  -5   60.49    9.50
  -5  -6  -5   64.09   10.10
  -5  -6  -5   50.89    8.50
  -5  -6  -5   60.29    9.50
  -5  -6  -5   54.39    7.70
  -5  -6  -5   76.79   10.20
   5   6   5   91.49   12.60
   5   6   5   53.39    8.20
   5   6   5   74.79   11.10
   5   6   5   49.90   10.10
   5   6   5   50.79    9.70
   5   6   5   69.09    9.30
   5   6   5   56.79   13.00
  -6  -6  -5    9.50    6.60
  -6  -6  -5    9.30    5.50
  -6  -6  -5   17.50    7.40
  -6  -6  -5   14.70    7.50
  -6  -6  -5   21.80    7.90
   6   6   5    9.90    6.90
   6   6   5   17.70    7.00
   6   6   5    6.40    8.10
   6   6   5    2.60    5.50
   6   6   5   11.80   13.30
   6   6   5    6.20    8.70
  -7  -6  -5   76.89   12.20
  -7  -6  -5   93.79   12.00
  -7  -6  -5   80.89   11.90
  -7  -6  -5  104.09   14.30
   7   6   5  101.89   13.20
   7   6   5   90.69   12.10
   7   6   5   88.89   13.20
   7   6   5   79.69   15.00
  -8  -6  -5   10.80    9.80
  -8  -6  -5   11.10    8.30
  -8  -6  -5  -22.40   14.10
  -8  -6  -5   -4.20    8.80
   8   6   5    3.40   12.80
   8   6   5   10.10    9.30
   8   6   5    7.30   10.10
   8   6   5    2.20    7.70
  -9  -6  -5   63.19   21.20
  -9  -6  -5   72.09   14.50
  -9  -6  -5   44.40   11.60
   9   6   5   62.59   14.60
   9   6   5   56.79   14.40
   9   6   5   49.99   10.90
 -10  -6  -5   -7.60   11.60
 -10  -6  -5   10.80   16.20
  10   6   5  -14.60   14.60
  10   6   5    2.90   12.00
  10   6   5   -1.30   13.10
   5  -7  -5    8.40    7.70
   5  -7  -5    7.20   12.80
   5  -7  -5    8.60    9.50
  -5   7   5  -20.80   16.20
  -5   7   5   13.50    8.50
  -5   7   5   29.30   21.10
  -5   7   5    8.90   15.80
   4  -7  -5    8.00   12.40
   4  -7  -5    6.50   10.90
   4  -7  -5   22.70    8.30
  -4   7   5    2.10    6.70
  -4   7   5   -7.60   13.60
  -4   7   5    0.80   12.10
  -4   7   5    5.90   17.10
  -4   7   5    5.50   11.50
   3  -7  -5   63.09    9.80
   3  -7  -5   62.19   12.00
   3  -7  -5   32.40   11.20
   3  -7  -5   59.39   12.60
   3  -7  -5   45.50    9.00
   3  -7  -5   31.50    8.60
  -3   7   5   41.50   11.60
  -3   7   5   60.79    8.50
  -3   7   5   57.99   13.90
  -3   7   5   30.90   10.50
   2  -7  -5    5.60    8.20
   2  -7  -5  -11.10    6.00
   2  -7  -5    2.00    5.30
   2  -7  -5   -5.10    5.90
   2  -7  -5   12.90    8.00
  -2   7   5    1.30   13.20
  -2   7   5    6.90    8.20
  -2   7   5   -5.30    7.60
  -2   7   5   -5.20    9.70
   1  -7  -5  175.28   14.30
   1  -7  -5  167.88   15.80
   1  -7  -5  151.68   14.50
   1  -7  -5  186.88   17.10
   1  -7  -5  172.88   17.30
   1  -7  -5  170.88   14.20
   1  -7  -5  131.79   16.80
  -1   7   5  156.38   17.60
  -1   7   5  183.58   15.20
  -1   7   5  142.29   16.50
  -1   7   5  165.38   18.80
  -1   7   5  195.78   23.70
  -1   7   5  200.38   16.90
   0  -7  -5   -2.20    6.50
   0  -7  -5    5.00    4.00
   0  -7  -5    8.20    6.70
   0  -7  -5   -2.90    4.40
   0  -7  -5    6.30    4.80
   0  -7  -5    0.40    6.00
   0  -7  -5   -0.70    5.00
   0   7   5   -4.50    6.80
   0   7   5    3.50   10.70
   0   7   5    0.10    7.20
   0   7   5    5.90    6.10
   0   7   5   -3.90    4.30
   0   7   5   10.30    6.10
   0   7   5    0.60    6.40
  -1  -7  -5  504.85   32.10
  -1  -7  -5  455.95   31.60
  -1  -7  -5  455.75   34.40
  -1  -7  -5  486.65   33.80
  -1  -7  -5  530.45   34.00
  -1  -7  -5  469.05   31.80
  -1  -7  -5  559.34   33.20
  -1  -7  -5  408.46   31.90
   1   7   5  558.94   34.80
   1   7   5  527.65   34.10
   1   7   5  540.55   32.40
   1   7   5  503.55   33.50
   1   7   5  490.35   33.30
   1   7   5  527.85   32.90
  -2  -7  -5   10.40    6.70
  -2  -7  -5   12.30    4.90
  -2  -7  -5    5.70    5.70
  -2  -7  -5    6.40    5.80
  -2  -7  -5   10.30    6.40
  -2  -7  -5   11.40    5.80
  -2  -7  -5   14.20    5.70
   2   7   5   13.40    5.70
   2   7   5   18.80    7.60
   2   7   5   18.00    9.00
   2   7   5   11.90    5.20
   2   7   5   16.80    7.00
   2   7   5    4.70    6.70
  -3  -7  -5  319.87   24.90
  -3  -7  -5  330.17   22.50
  -3  -7  -5  290.27   22.30
  -3  -7  -5  308.17   22.50
  -3  -7  -5  329.37   23.50
  -3  -7  -5  254.87   22.20
   3   7   5  346.77   23.60
   3   7   5  322.27   21.80
   3   7   5  300.37   23.30
   3   7   5  271.77   23.10
   3   7   5  329.07   21.80
   3   7   5  300.07   25.80
  -4  -7  -5   56.09    8.40
  -4  -7  -5   65.69   10.80
  -4  -7  -5   64.69   10.10
  -4  -7  -5   81.19   11.60
  -4  -7  -5   53.39    9.30
  -4  -7  -5   55.19    8.60
   4   7   5   68.69   11.20
   4   7   5   51.39    8.00
   4   7   5   76.89   10.00
   4   7   5   59.39   10.40
   4   7   5   71.09   13.70
   4   7   5   54.39    9.40
  -5  -7  -5  314.87   24.40
  -5  -7  -5  315.87   24.20
  -5  -7  -5  328.67   25.30
  -5  -7  -5  323.47   23.70
  -5  -7  -5  297.37   23.40
  -5  -7  -5  315.57   23.50
   5   7   5  290.87   25.20
   5   7   5  306.17   22.90
   5   7   5  348.87   23.50
   5   7   5  285.07   29.50
   5   7   5  384.36   27.00
   5   7   5  278.67   24.50
  -6  -7  -5   68.19   15.30
  -6  -7  -5   61.29   10.70
  -6  -7  -5   45.20   10.00
  -6  -7  -5   48.30    8.40
  -6  -7  -5   73.79   11.60
   6   7   5   71.49   11.20
   6   7   5   55.29   11.70
   6   7   5   58.19    9.80
   6   7   5   40.50    9.80
   6   7   5   45.50   16.30
   6   7   5   60.09    9.60
   6   7   5   53.99   13.00
  -7  -7  -5   46.60   16.30
  -7  -7  -5   62.39   12.30
  -7  -7  -5   41.70   11.70
  -7  -7  -5   46.70    9.10
  -7  -7  -5   61.29   12.00
   7   7   5   81.39   12.60
   7   7   5   66.49   12.50
   7   7   5   78.69   12.00
   7   7   5   52.09   10.50
  -8  -7  -5   57.29   12.80
  -8  -7  -5   71.29   13.70
  -8  -7  -5   78.79   14.70
  -8  -7  -5   49.50   19.30
  -8  -7  -5   52.49   11.20
   8   7   5   55.79   16.00
   8   7   5   59.09   12.70
   8   7   5   56.19   11.80
  -9  -7  -5   -0.10   10.30
  -9  -7  -5   -8.10   13.50
  -9  -7  -5   34.60   13.40
  -9  -7  -5   16.50   20.10
   9   7   5    5.60   10.30
   9   7   5    5.30   11.60
   9   7   5   17.90   12.20
 -10  -7  -5   52.69   14.80
 -10  -7  -5    4.50   25.00
 -10  -7  -5   46.50   16.80
  10   7   5   54.19   15.70
  10   7   5   57.69   15.80
  10   7   5   53.09   17.90
   5  -8  -5    1.00   14.70
   5  -8  -5    1.10   10.50
   5  -8  -5   -3.00    8.90
  -5   8   5   -6.10   10.70
  -5   8   5   36.80   19.20
  -5   8   5  -12.50   23.70
   4  -8  -5   20.40   10.40
   4  -8  -5   46.60   14.90
  -4   8   5   26.50   15.10
  -4   8   5   68.39   28.30
  -4   8   5   25.10    9.80
  -4   8   5   58.09   22.30
   3  -8  -5   15.90   12.80
   3  -8  -5   47.80    9.30
   3  -8  -5   33.70   12.40
   3  -8  -5   42.40    9.90
   3  -8  -5   23.80   14.50
  -3   8   5   41.10   14.80
  -3   8   5   38.30   11.70
  -3   8   5   23.20   13.30
  -3   8   5   39.20   19.50
   2  -8  -5   48.30   11.60
   2  -8  -5   48.30    9.80
   2  -8  -5   46.90   12.60
  -2   8   5   55.19   14.10
  -2   8   5   75.39   20.00
  -2   8   5   53.39   10.60
  -2   8   5   45.80   11.40
   1  -8  -5   22.20   10.20
   1  -8  -5   15.10    8.70
   1  -8  -5   12.40    5.80
   1  -8  -5   -3.20    8.80
   1  -8  -5   11.30    7.60
   1  -8  -5   -4.40    8.20
  -1   8   5   12.60   15.00
  -1   8   5   20.90    8.70
  -1   8   5   13.90   10.50
  -1   8   5   21.00    7.80
  -1   8   5   18.20    8.80
   0  -8  -5  200.98   17.50
   0  -8  -5  185.28   18.70
   0  -8  -5  257.97   21.00
   0  -8  -5  186.78   17.40
   0  -8  -5  210.78   20.80
   0  -8  -5  225.98   17.30
   0  -8  -5  201.38   21.50
   0   8   5  177.48   18.80
   0   8   5  252.77   18.10
   0   8   5  254.57   22.10
   0   8   5  235.78   28.80
   0   8   5  236.98   19.80
  -1  -8  -5   93.69   12.30
  -1  -8  -5   99.69   11.70
  -1  -8  -5  115.89   14.40
  -1  -8  -5   82.89   10.50
  -1  -8  -5   96.19   11.50
  -1  -8  -5   81.69   12.70
  -1  -8  -5   82.59   12.70
   1   8   5  133.49   16.90
   1   8   5   97.59   13.30
   1   8   5  142.99   20.00
   1   8   5  108.19   14.30
   1   8   5   97.99   12.80
   1   8   5  113.79   11.50
  -2  -8  -5   69.69   11.70
  -2  -8  -5   78.69   13.80
  -2  -8  -5  104.69   13.00
  -2  -8  -5   96.59   12.00
  -2  -8  -5   98.89   12.80
  -2  -8  -5   87.39   12.80
  -2  -8  -5   91.29   12.70
  -2  -8  -5  124.49   14.90
   2   8   5   94.49   14.50
   2   8   5  114.69   13.60
   2   8   5  111.79   11.90
   2   8   5  119.59   18.90
   2   8   5   82.29   12.30
   2   8   5  124.09   11.90
  -3  -8  -5  102.49   13.50
  -3  -8  -5  112.99   16.00
  -3  -8  -5  107.69   14.00
  -3  -8  -5  145.29   18.60
  -3  -8  -5  133.59   14.90
  -3  -8  -5  136.29   14.00
  -3  -8  -5  126.29   13.80
   3   8   5  125.59   16.30
   3   8   5  111.39   12.10
   3   8   5  128.49   15.20
   3   8   5  140.09   12.90
   3   8   5  108.69   15.10
   3   8   5  138.19   16.70
  -4  -8  -5  220.48   19.10
  -4  -8  -5  219.08   18.50
  -4  -8  -5  235.88   22.40
  -4  -8  -5  169.28   18.90
  -4  -8  -5  213.48   20.90
  -4  -8  -5  184.08   17.80
   4   8   5  231.78   17.90
   4   8   5  166.88   19.60
   4   8   5  227.78   17.50
   4   8   5  201.78   19.60
   4   8   5  206.48   24.20
  -5  -8  -5   91.59   13.40
  -5  -8  -5   77.69   14.20
  -5  -8  -5  113.79   14.10
  -5  -8  -5  123.39   15.40
   5   8   5  111.19   12.70
   5   8   5  108.39   15.20
   5   8   5   99.79   13.10
   5   8   5   89.19   17.20
   5   8   5  129.09   16.70
  -6  -8  -5   68.59   12.00
  -6  -8  -5   62.59   10.90
  -6  -8  -5   40.50   11.60
  -6  -8  -5   60.59   11.70
   6   8   5   73.29   14.10
   6   8   5   52.39   14.10
   6   8   5   64.79   10.10
   6   8   5   49.60    9.50
   6   8   5   39.50   19.60
  -7  -8  -5  230.48   22.20
  -7  -8  -5  253.57   23.90
  -7  -8  -5  198.88   23.70
  -7  -8  -5  209.08   21.60
   7   8   5  207.08   24.60
   7   8   5  232.58   20.30
   7   8   5  186.08   20.60
  -8  -8  -5   29.50   19.20
  -8  -8  -5   -2.90   14.10
  -8  -8  -5   38.60   12.30
  -8  -8  -5   13.30   10.80
  -8  -8  -5    8.40   11.20
   8   8   5   27.10   11.40
   8   8   5    4.90   10.00
   8   8   5    7.80   10.50
  -9  -8  -5   70.19   16.10
  -9  -8  -5   54.29   13.00
  -9  -8  -5   63.49   24.30
   9   8   5   58.29   14.50
   9   8   5  102.09   17.00
   9   8   5   88.79   17.10
   9   8   5   59.79   13.80
   4  -9  -5    2.00   14.80
   4  -9  -5   20.70   11.00
  -4   9   5   -5.50   23.40
   3  -9  -5   10.30    9.10
   3  -9  -5   -6.10   12.60
   3  -9  -5   10.10   10.70
   3  -9  -5   -4.60   20.20
  -3   9   5    1.90   14.60
  -3   9   5  -16.80   20.50
   2  -9  -5    6.30   13.00
   2  -9  -5   -6.30    9.80
   2  -9  -5   -3.90    8.40
   2  -9  -5   36.90   20.40
  -2   9   5   15.90   10.40
  -2   9   5    9.30   20.80
  -2   9   5   15.80   14.50
  -2   9   5   -1.90   11.70
   1  -9  -5   -7.60   10.90
   1  -9  -5   -3.30    5.70
   1  -9  -5    3.60   10.20
   1  -9  -5  -28.80   12.90
   1  -9  -5   18.40   10.50
  -1   9   5  -12.30    9.80
  -1   9   5    2.10   17.30
  -1   9   5    7.70   10.20
  -1   9   5    9.00   11.00
   0  -9  -5   31.80   12.20
   0  -9  -5   31.30   12.60
   0  -9  -5   29.00   15.20
   0  -9  -5   35.10   11.20
   0  -9  -5   25.50   11.50
   0   9   5   33.70    9.90
   0   9   5   29.00   11.60
   0   9   5   22.40    9.10
   0   9   5   48.30   17.80
   0   9   5   30.30   10.90
  -1  -9  -5    1.10    8.90
  -1  -9  -5    3.80    8.30
  -1  -9  -5    1.20    7.10
  -1  -9  -5    6.10    9.10
  -1  -9  -5   -1.10    8.70
   1   9   5   -6.80    7.40
   1   9   5  -15.50    9.40
   1   9   5   -1.00    7.70
   1   9   5   -5.10    8.00
   1   9   5  -21.00   15.70
  -2  -9  -5  117.49   15.90
  -2  -9  -5   83.79   11.60
  -2  -9  -5  104.99   14.70
  -2  -9  -5  105.69   13.80
  -2  -9  -5   68.69   12.20
   2   9   5   85.29   12.50
   2   9   5  102.29   19.30
   2   9   5  120.09   13.70
   2   9   5  115.49   13.80
   2   9   5  110.89   13.30
   2   9   5  111.99   15.00
  -3  -9  -5   23.70    7.70
  -3  -9  -5   10.10   10.40
  -3  -9  -5   28.90    9.00
  -3  -9  -5   30.50   11.30
  -3  -9  -5   40.80   10.30
   3   9   5   47.40   11.20
   3   9   5   28.50    8.20
   3   9   5   38.20    7.80
   3   9   5   26.50    9.90
   3   9   5   57.39   16.10
   3   9   5   20.50   11.50
  -4  -9  -5  190.38   19.60
  -4  -9  -5  196.18   20.00
  -4  -9  -5  237.98   22.30
   4   9   5  250.57   26.20
   4   9   5  201.08   21.30
   4   9   5  190.28   21.40
   4   9   5  199.38   18.20
   4   9   5  218.38   28.30
   4   9   5  212.48   17.70
  -5  -9  -5   -6.70    8.10
  -5  -9  -5   13.70    9.20
  -5  -9  -5    4.70    7.50
   5   9   5    5.00   13.10
   5   9   5   16.90   14.20
   5   9   5   30.70   15.50
   5   9   5    2.40    6.50
   5   9   5    2.00   10.10
  -6  -9  -5  399.86   30.60
  -6  -9  -5  350.26   30.70
  -6  -9  -5  278.97   33.80
   6   9   5  395.96   29.00
   6   9   5  411.16   34.60
   6   9   5  378.26   33.30
   6   9   5  372.86   32.40
   6   9   5  420.66   28.30
  -7  -9  -5   -5.10   11.00
  -7  -9  -5  -10.20   10.20
  -7  -9  -5   -8.60    9.60
   7   9   5   -7.00   14.80
   7   9   5   -4.20   15.70
   7   9   5   12.30    8.80
   7   9   5  -12.50    9.40
  -8  -9  -5  119.39   18.40
  -8  -9  -5  135.09   19.10
  -8  -9  -5   89.09   25.90
   8   9   5  130.89   17.70
   8   9   5  139.09   22.60
   8   9   5  128.59   18.30
   8   9   5  165.48   21.40
  -9  -9  -5    0.90   14.50
  -9  -9  -5   -0.60   23.40
  -9  -9  -5  -16.80   13.80
   9   9   5   22.00   30.10
   9   9   5  -19.30   12.70
   9   9   5    9.60   13.10
   2 -10  -5   11.20    8.50
   2 -10  -5   -0.90   11.40
   2 -10  -5   -6.30   15.80
  -2  10   5    3.30   24.50
  -2  10   5  -21.30   13.70
   1 -10  -5   -4.10   12.80
   1 -10  -5  -15.50   12.10
   1 -10  -5    4.80    7.10
  -1  10   5   -4.70   11.30
  -1  10   5   13.40   22.60
   0 -10  -5   -7.80    6.40
   0 -10  -5    5.50   11.80
   0 -10  -5   -5.80   21.30
   0 -10  -5    0.90   16.10
   0  10   5    3.90    9.20
   0  10   5   37.70   22.90
   0  10   5   10.70   10.60
   0  10   5    8.00   11.20
  -1 -10  -5   27.20   12.20
  -1 -10  -5   29.70    7.90
  -1 -10  -5   22.00   13.40
  -1 -10  -5   37.60   12.30
   1  10   5   13.10    9.70
   1  10   5   16.40    9.90
   1  10   5   23.60   13.80
   1  10   5   35.00   11.10
   1  10   5   15.10   20.90
  -2 -10  -5   -3.00   10.30
  -2 -10  -5    2.80    7.60
  -2 -10  -5   -9.30   11.00
  -2 -10  -5   -2.80    8.30
   2  10   5   -7.20   17.00
   2  10   5    2.90    8.30
   2  10   5    1.10   11.30
   2  10   5   -7.70    8.30
   2  10   5   -6.10    7.50
   2  10   5    1.30   10.40
  -3 -10  -5   72.69   12.70
  -3 -10  -5   59.99   14.60
   3  10   5   56.59    9.50
   3  10   5   58.19   13.00
   3  10   5   38.10   13.60
   3  10   5   74.39   12.90
   3  10   5   64.49   11.70
   3  10   5   63.19   21.00
  -4 -10  -5    6.20   11.40
  -4 -10  -5  -17.80    9.00
  -4 -10  -5   20.80   10.30
  -4 -10  -5    9.50   12.70
   4  10   5    7.10   17.20
   4  10   5   24.90   15.30
   4  10   5   12.70    7.70
   4  10   5    6.70    7.50
   4  10   5   10.10   11.50
   4  10   5   16.10   10.80
  -5 -10  -5   58.19   12.30
  -5 -10  -5   74.69   14.20
  -5 -10  -5   74.09   13.40
   5  10   5   51.19   13.10
   5  10   5   43.40   18.10
   5  10   5   62.79   10.20
   5  10   5   51.79   15.10
   5  10   5   45.70   18.40
   5  10   5   56.89   10.20
  -6 -10  -5  -11.00   10.70
  -6 -10  -5   14.30   12.10
   6  10   5   12.80   10.60
   6  10   5    0.10    8.40
   6  10   5   -4.40   15.40
   6  10   5   -8.60   14.80
  -7 -10  -5   69.79   15.60
  -7 -10  -5   54.09   15.80
   7  10   5   55.69   13.50
   7  10   5   82.89   19.80
   7  10   5   77.79   12.40
   7  10   5   65.19   17.70
  -8 -10  -5    2.60   11.80
  -8 -10  -5    3.50   13.90
   8  10   5   26.20   11.90
   8  10   5    4.30   12.10
   1 -11  -5   -5.70   15.00
  -1  11   5   24.50   30.00
   0 -11  -5  -31.80   16.00
   0 -11  -5    5.00   16.00
   0 -11  -5    2.50    8.00
   0  11   5   47.40   27.60
   0  11   5    9.00   12.40
  -1 -11  -5    5.70   16.60
  -1 -11  -5    8.90   14.60
  -1 -11  -5    5.40    7.40
   1  11   5   -5.00   26.00
   1  11   5    1.20   11.80
  -2 -11  -5    8.70   14.80
  -2 -11  -5   17.00    9.00
  -2 -11  -5   14.20   13.80
   2  11   5   -9.20   24.20
   2  11   5   -9.50   10.00
   2  11   5   14.00   10.80
  -3 -11  -5  -21.30   12.60
  -3 -11  -5   12.60    9.00
  -3 -11  -5   26.40   15.90
   3  11   5   25.90   46.20
   3  11   5   -6.20    9.70
   3  11   5   10.20   10.40
  -4 -11  -5  -17.20   14.80
  -4 -11  -5    0.20   11.30
  -4 -11  -5   12.00   12.30
   4  11   5   31.80   23.40
   4  11   5    6.10    9.80
   4  11   5   17.70    9.40
  -5 -11  -5   -1.50   14.40
  -5 -11  -5   10.60   13.30
   5  11   5   -3.00    9.90
   5  11   5    8.60    8.70
   5  11   5   15.40   21.20
  -6 -11  -5    7.60   13.50
  -6 -11  -5   27.40   13.90
   6  11   5   22.20   19.20
   6  11   5   27.80   11.80
   6  11   5   27.60    9.80
  -7 -11  -5   15.90   14.90
  -7 -11  -5   49.99   15.40
   7  11   5   45.50   20.40
   7  11   5   27.50   12.80
   7  11   5   23.80   11.60
  -3 -12  -5   -3.10   10.80
  -3 -12  -5   33.20   17.50
  -3 -12  -5  -16.10   18.00
   3  12   5   18.80   30.70
   3  12   5   -2.20   12.10
  -4 -12  -5   -5.50   11.80
  -4 -12  -5   27.20   18.70
  -4 -12  -5  -12.30   16.20
   4  12   5   16.50   28.40
   4  12   5   -4.70   10.70
   5   9  -6   20.70   20.00
   5   9  -6   16.20    8.70
  -5  -9   6    8.00   14.90
  -5  -9   6   48.20   24.40
  -5  -9   6    3.60    9.50
  -5  -9   6   11.50    5.60
   4   9  -6   71.69   21.80
   4   9  -6   77.69   12.00
  -4  -9   6  120.39   16.60
  -4  -9   6  116.39   28.60
   3   9  -6   34.90   19.30
  -3  -9   6   66.49   11.90
  -3  -9   6   89.99   23.50
  -3  -9   6   50.99    7.70
  -3  -9   6   59.19   13.00
  -2  -9   6  125.69   16.70
  -2  -9   6  142.89   14.10
  -1  -9   6   67.19   20.50
  -1  -9   6   40.50    8.90
  -1  -9   6   45.30    8.40
   0  -9   6   99.89   13.90
   0  -9   6   82.09   10.90
   0  -9   6   96.99   21.70
  -1   9  -6   38.40   15.00
   1  -9   6   28.40   17.10
   1  -9   6   26.10   17.70
   1  -9   6   18.80    8.80
   7   8  -6   -0.30   16.60
   7   8  -6   21.70    7.90
  -7  -8   6    5.20   14.90
  -7  -8   6   60.69   26.90
   6   8  -6    8.00    6.90
   6   8  -6   21.20   16.20
  -6  -8   6   15.80   14.50
  -6  -8   6   -6.70   23.20
  -6  -8   6   -0.90   11.90
   5   8  -6    1.70    6.90
   5   8  -6    0.00   15.20
  -5  -8   6    0.50   20.70
  -5  -8   6    1.10    5.20
  -5  -8   6   -4.30    9.50
  -5  -8   6   -2.50   12.00
  -5  -8   6   -7.00    5.30
   4   8  -6   43.20   16.70
   4   8  -6   52.49    8.50
  -4  -8   6   11.20   20.00
  -4  -8   6   57.49   19.60
  -4  -8   6   54.49    7.20
  -4  -8   6   64.89   12.70
  -4  -8   6   47.70    6.20
  -4  -8   6   32.90    9.50
  -4  -8   6   45.10   10.10
   3   8  -6    2.50   14.40
  -3  -8   6   -9.50   10.50
  -3  -8   6   17.30   18.30
  -3  -8   6  -21.40   20.10
  -3  -8   6    2.50    5.10
  -3  -8   6   12.20    9.30
  -3  -8   6    3.30    3.70
  -2  -8   6   57.99    7.60
  -2  -8   6   55.49    9.20
  -2  -8   6   27.00   11.70
  -2  -8   6   35.40   16.90
  -1  -8   6    1.10    5.30
  -1  -8   6   45.90   15.90
  -1  -8   6   11.80    5.90
   0  -8   6   24.90   14.90
   0  -8   6   57.19    8.80
   0  -8   6   58.09    8.80
  -1   8  -6   -7.40   10.00
   1  -8   6    1.60    7.00
   1  -8   6  -28.10   12.60
   1  -8   6   -4.60    6.10
  -2   8  -6   42.50   12.30
   2  -8   6   43.60   14.50
   2  -8   6   31.40    7.70
   2  -8   6   28.70   10.30
  -3   8  -6   10.00   12.00
   3  -8   6   -2.20   10.00
   3  -8   6  -13.90   13.40
   3  -8   6    3.10    8.20
   7   7  -6  115.89   21.90
   7   7  -6   91.09   11.90
  -7  -7   6   69.99   17.60
  -7  -7   6  110.09   26.70
   6   7  -6   33.90   14.90
   6   7  -6   24.10    6.80
  -6  -7   6   27.40   12.40
  -6  -7   6   25.00   20.30
  -6  -7   6   31.30    6.60
  -6  -7   6   32.80   12.90
   5   7  -6   62.19    7.60
   5   7  -6   56.99    7.70
   5   7  -6   63.29   14.90
  -5  -7   6   75.19    9.40
  -5  -7   6   66.59   13.70
  -5  -7   6   75.09   18.80
  -5  -7   6   84.29   13.50
  -5  -7   6   57.89   10.30
  -5  -7   6   63.89   16.80
  -5  -7   6   59.59    7.20
   4   7  -6   26.30    6.20
  -4  -7   6    6.20   13.00
  -4  -7   6   35.20   17.10
  -4  -7   6   33.30   17.90
  -4  -7   6   35.90    5.40
  -4  -7   6   31.10    5.00
  -4  -7   6   43.10    8.10
  -4  -7   6   35.90   10.30
   3   7  -6   -4.90   10.70
  -3  -7   6    3.40    3.40
  -3  -7   6  -19.80   15.00
  -3  -7   6    7.60    8.00
  -3  -7   6  -11.50   14.10
  -3  -7   6   -3.00    6.20
  -3  -7   6   -0.10    6.40
   2   7  -6   28.10   11.90
  -2  -7   6   29.80    6.80
  -2  -7   6   20.20    3.70
  -2  -7   6   33.50    5.30
  -2  -7   6   24.90    8.60
  -2  -7   6   12.20   17.80
  -2  -7   6   23.90   13.80
  -2  -7   6   17.90    7.00
   1   7  -6    6.00   10.70
  -1  -7   6    1.00    4.80
  -1  -7   6   23.00   23.10
  -1  -7   6    8.90    8.00
  -1  -7   6  -19.60   12.70
  -1  -7   6   -5.30    4.40
  -1  -7   6   15.50   11.20
   0   7  -6    0.10    7.70
   0   7  -6    7.70   11.90
   0  -7   6    5.40    4.90
   0  -7   6   13.60    8.90
   0  -7   6    4.70   10.40
   0  -7   6    5.50   10.40
   0  -7   6   -1.20    4.40
  -1   7  -6   13.70   13.20
  -1   7  -6   32.70    9.70
   1  -7   6   25.70    5.40
   1  -7   6   28.40   10.80
   1  -7   6   25.50    6.80
   1  -7   6   26.60   12.10
  -2   7  -6   -7.10    7.90
  -2   7  -6    5.00   12.80
   2  -7   6    0.70    6.50
   2  -7   6    8.20    5.20
   2  -7   6   14.00   10.50
  -3   7  -6   -1.40   14.60
  -3   7  -6   19.50    9.00
   3  -7   6   11.80   11.10
   3  -7   6    8.10    8.40
   3  -7   6    5.90    6.40
   3  -7   6    6.80    5.80
  -4   7  -6  -23.70    9.20
   4  -7   6    1.30    6.20
   4  -7   6   -0.30    6.90
   4  -7   6    1.30   10.40
   4  -7   6    4.30    6.10
   4  -7   6   -8.80    9.80
   8   6  -6  171.18   16.40
   8   6  -6  179.28   17.10
   8   6  -6  216.98   30.50
  -8  -6   6  178.98   26.50
  -8  -6   6  251.17   33.60
  -8  -6   6  212.78   28.30
   7   6  -6   -3.50    5.60
   7   6  -6   22.70   12.90
  -7  -6   6   11.30   15.10
  -7  -6   6  -44.50   18.20
  -7  -6   6    3.90   11.80
   6   6  -6  358.66   32.20
   6   6  -6  354.46   23.60
  -6  -6   6  405.56   31.60
  -6  -6   6  380.96   31.40
  -6  -6   6  408.66   40.80
  -6  -6   6  341.97   24.20
  -6  -6   6  339.27   28.20
   5   6  -6   -0.30    6.10
   5   6  -6   10.90    4.60
  -5  -6   6   30.40   13.50
  -5  -6   6    6.20    4.50
  -5  -6   6   16.30    9.50
  -5  -6   6    2.00   11.30
  -5  -6   6    9.50    6.50
  -5  -6   6   14.00    9.70
  -5  -6   6    7.80    4.60
   4   6  -6  379.36   32.60
   4   6  -6  396.56   25.60
   4   6  -6  431.46   25.70
  -4  -6   6  372.56   25.00
  -4  -6   6  453.15   37.70
  -4  -6   6  426.46   29.60
  -4  -6   6  448.16   29.70
  -4  -6   6  401.56   27.10
  -4  -6   6  350.26   34.30
  -4  -6   6  413.66   29.10
   3   6  -6    6.10    7.30
  -3  -6   6   21.80   13.60
  -3  -6   6    5.00    6.90
  -3  -6   6    3.40    3.00
  -3  -6   6    6.00    4.70
  -3  -6   6  -17.80   11.00
  -3  -6   6   -3.30    6.60
  -3  -6   6   -4.30    6.10
   2   6  -6  262.77   24.40
   2   6  -6  249.78   25.70
  -2  -6   6  268.67   20.30
  -2  -6   6  264.27   18.90
  -2  -6   6  237.18   19.60
  -2  -6   6  259.27   17.00
  -2  -6   6  232.28   29.20
  -2  -6   6  248.48   25.30
  -2  -6   6  273.87   24.60
  -2  -6   6  279.67   17.00
  -2  -6   6  280.07   19.10
   1   6  -6   34.50   11.20
   1   6  -6   35.30   10.30
  -1  -6   6   39.00    5.30
  -1  -6   6   51.09    6.60
  -1  -6   6   45.60   16.10
  -1  -6   6   50.99    8.30
  -1  -6   6   43.10   10.90
  -1  -6   6   41.60    9.20
  -1  -6   6   46.00    6.30
  -1  -6   6   29.00   11.00
   0   6  -6   72.49   13.00
   0   6  -6   68.49   13.00
   0   6  -6   87.59   11.90
   0  -6   6   78.39    8.00
   0  -6   6   66.19   11.70
   0  -6   6   79.49    9.30
   0  -6   6  101.19   20.60
   0  -6   6   91.09   11.70
   0  -6   6   37.50   12.20
   0  -6   6   71.79   11.70
   0  -6   6   72.89   16.10
  -1   6  -6   -0.90    6.50
  -1   6  -6    7.40   11.10
   1  -6   6    4.40    4.70
   1  -6   6    9.20    7.70
   1  -6   6    7.70    7.60
   1  -6   6   -1.80    3.70
   1  -6   6   -7.40    4.40
   1  -6   6   13.20   11.10
  -2   6  -6   10.10   10.60
  -2   6  -6   -4.10    6.70
   2  -6   6   -3.30   10.20
   2  -6   6    1.50    3.90
   2  -6   6    1.20    5.40
   2  -6   6  -18.70   12.50
   2  -6   6    7.10    4.10
  -3   6  -6    9.20   11.30
  -3   6  -6  -11.90   12.20
   3  -6   6   -0.70    4.60
   3  -6   6   -4.90    4.40
   3  -6   6   -1.80    7.00
   3  -6   6    1.30    4.60
   3  -6   6   -1.10    9.80
   3  -6   6    0.70    8.40
   3  -6   6    1.80    7.00
  -4   6  -6   12.00    7.50
  -4   6  -6    5.70   13.30
   4  -6   6    0.30   10.40
   4  -6   6   15.80    6.20
   4  -6   6  -15.00   12.60
   4  -6   6    2.10    7.50
   4  -6   6    7.70    5.20
   4  -6   6   21.20    9.00
   4  -6   6   10.80    5.30
  -5   6  -6  -19.00   14.30
  -5   6  -6   16.20    9.10
   5  -6   6   -4.80    7.00
   5  -6   6   19.90   14.70
   5  -6   6    8.90    6.90
   5  -6   6    3.30    9.30
   5  -6   6   -3.50    6.10
   8   5  -6  114.29   13.30
   8   5  -6  114.29   14.20
   8   5  -6  144.89   21.20
  -8  -5   6  137.39   21.40
  -8  -5   6  130.59   21.20
  -8  -5   6  173.58   29.30
   7   5  -6  387.46   25.10
   7   5  -6  379.16   24.70
   7   5  -6  357.06   24.10
   7   5  -6  382.86   33.60
  -7  -5   6  408.76   42.40
  -7  -5   6  416.16   34.00
  -7  -5   6  427.16   35.20
  -7  -5   6  283.27   29.10
  -7  -5   6  360.66   25.90
   6   5  -6  277.77   18.90
   6   5  -6  323.47   28.10
   6   5  -6  279.27   19.00
   6   5  -6  280.57   18.80
  -6  -5   6  293.27   20.50
  -6  -5   6  317.57   25.20
  -6  -5   6  280.17   27.00
  -6  -5   6  304.77   26.20
  -6  -5   6  327.37   35.70
  -6  -5   6  278.57   22.30
   5   5  -6  867.61   55.39
   5   5  -6  862.71   48.90
  -5  -5   6  688.03   54.29
  -5  -5   6  835.32   53.69
  -5  -5   6  770.62   49.00
  -5  -5   6  779.02   50.29
  -5  -5   6  879.91   51.69
  -5  -5   6  859.31   58.99
  -5  -5   6  829.62   49.80
  -5  -5   6  872.61   54.39
   4   5  -6  842.22   49.00
   4   5  -6  875.21   54.59
  -4  -5   6  764.42   49.90
  -4  -5   6  911.91   58.19
  -4  -5   6  875.41   52.99
  -4  -5   6  665.33   54.69
  -4  -5   6  808.42   52.49
  -4  -5   6  854.31   49.50
  -4  -5   6  846.92   50.89
   3   5  -6  403.66   26.00
   3   5  -6  394.86   33.00
   3   5  -6  463.65   31.90
   3   5  -6  377.66   26.30
  -3  -5   6  462.55   29.10
  -3  -5   6  436.06   26.00
  -3  -5   6  344.17   34.10
  -3  -5   6  468.45   35.70
  -3  -5   6  444.96   27.90
  -3  -5   6  437.46   26.20
  -3  -5   6  456.75   34.10
  -3  -5   6  409.86   26.90
  -3  -5   6  460.45   29.30
   2   5  -6  704.73   43.60
   2   5  -6  629.94   45.60
  -2  -5   6  655.13   40.10
  -2  -5   6  668.33   40.60
  -2  -5   6  707.03   45.50
  -2  -5   6  656.73   44.20
  -2  -5   6  679.13   38.20
  -2  -5   6  562.74   46.10
  -2  -5   6  552.74   39.50
  -2  -5   6  658.13   40.00
  -2  -5   6  659.73   38.50
  -2  -5   6  617.24   38.90
  -2  -5   6  641.64   38.20
   1   5  -6  216.88   22.20
   1   5  -6  255.27   20.30
  -1  -5   6  219.68   14.20
  -1  -5   6  217.98   16.00
  -1  -5   6  208.18   16.30
  -1  -5   6  213.78   16.80
  -1  -5   6  225.18   15.30
  -1  -5   6  168.38   21.20
  -1  -5   6  200.88   25.70
  -1  -5   6  230.28   21.40
  -1  -5   6  234.78   14.50
  -1  -5   6  224.68   15.10
  -1  -5   6  222.48   19.80
  -1  -5   6  212.18   15.10
   0   5  -6 1603.04   85.39
   0   5  -6 1171.38   86.79
   0   5  -6 1470.15   86.39
   0  -5   6 1510.35   83.49
   0  -5   6 1319.27   82.79
   0  -5   6 1388.46   81.49
   0  -5   6 1440.46   81.69
   0  -5   6 1474.05   84.09
   0  -5   6 1247.08   89.89
   0  -5   6 1396.06   85.19
  -1   5  -6   -3.50    8.40
  -1   5  -6   15.60    6.10
   1  -5   6  -26.80   13.80
   1  -5   6    8.50    4.30
   1  -5   6    4.90    3.20
   1  -5   6   -6.50    8.80
   1  -5   6   16.20    5.90
   1  -5   6   10.00    3.70
   1  -5   6    9.40    4.70
   1  -5   6   17.30    6.90
  -2   5  -6   89.79   15.30
  -2   5  -6  110.09   12.10
   2  -5   6  110.99    8.90
   2  -5   6  108.49    8.90
   2  -5   6  115.69   12.80
   2  -5   6   76.79   16.80
   2  -5   6  109.59    9.00
   2  -5   6  119.69   12.90
   2  -5   6  120.19   11.70
   2  -5   6  103.49   11.30
  -3   5  -6    7.10    9.80
  -3   5  -6   18.50    6.30
   3  -5   6   12.30    6.20
   3  -5   6    6.20    8.60
   3  -5   6   13.70    4.40
   3  -5   6    7.50    6.60
   3  -5   6   25.10    8.00
   3  -5   6    1.70    8.90
   3  -5   6   18.60    4.70
   3  -5   6   10.10    4.30
  -4   5  -6   29.30    9.20
  -4   5  -6   26.00   11.80
   4  -5   6    4.00   20.40
   4  -5   6   38.40   10.60
   4  -5   6   31.00    6.10
   4  -5   6   32.60    9.40
   4  -5   6   19.00    5.70
   4  -5   6   36.30    9.10
   4  -5   6   24.90   11.30
   4  -5   6   35.20    7.70
  -5   5  -6   11.30   12.00
  -5   5  -6   12.40    8.40
   5  -5   6    8.70    8.70
   5  -5   6    5.70    7.80
   5  -5   6   -1.40   12.80
   5  -5   6    8.00    6.00
   5  -5   6   35.70   14.20
   5  -5   6   10.40    6.90
  -6   5  -6   -9.50   13.10
  -6   5  -6    6.10    8.50
   6  -5   6    7.70   11.30
   6  -5   6   12.20    8.10
   6  -5   6   -0.50    7.30
   8   4  -6   24.50   14.80
   8   4  -6   33.70    9.00
   8   4  -6   24.30   14.40
   8   4  -6   19.90    7.00
   8   4  -6   36.80   11.70
  -8  -4   6   26.80   10.80
  -8  -4   6   15.70   17.00
  -8  -4   6   61.59   19.50
  -8  -4   6    8.40   20.50
   7   4  -6  328.27   23.50
   7   4  -6  339.07   22.80
   7   4  -6  292.07   26.10
   7   4  -6  335.37   30.30
   7   4  -6  316.27   21.30
  -7  -4   6  347.67   33.60
  -7  -4   6  311.77   23.70
  -7  -4   6  284.47   37.20
  -7  -4   6  370.96   32.10
   6   4  -6   13.90    7.70
   6   4  -6   19.20    5.20
   6   4  -6   22.90    6.00
   6   4  -6   20.10   11.10
   6   4  -6   24.10    4.50
  -6  -4   6   26.20    7.70
  -6  -4   6   18.80   15.20
  -6  -4   6   15.30    9.90
  -6  -4   6   23.90    6.10
  -6  -4   6    8.20   12.00
   5   4  -6  963.10   65.49
   5   4  -6 1086.29   63.29
   5   4  -6 1100.59   68.69
   5   4  -6 1111.49   63.39
   5   4  -6 1092.19   62.99
  -5  -4   6 1103.69   65.19
  -5  -4   6 1060.59   67.69
  -5  -4   6 1071.19   64.39
  -5  -4   6 1089.59   71.69
  -5  -4   6 1138.39   68.59
  -5  -4   6 1038.10   64.69
   4   4  -6   49.00    7.30
   4   4  -6   59.89    8.00
   4   4  -6   52.59    5.50
   4   4  -6   53.29   10.80
   4   4  -6   60.69   11.10
  -4  -4   6   44.20   13.20
  -4  -4   6   61.29    9.00
  -4  -4   6   62.79   10.40
  -4  -4   6   54.69    7.90
  -4  -4   6   63.99   10.00
  -4  -4   6   59.59    6.50
  -4  -4   6   59.09    6.60
  -4  -4   6   60.99   11.60
   3   4  -6 1745.03  107.59
   3   4  -6 1839.42  105.69
   3   4  -6 1560.04  102.29
   3   4  -6 1689.63  101.99
  -3  -4   6 1828.32  107.79
  -3  -4   6 1832.42  102.69
  -3  -4   6 1735.73  101.89
  -3  -4   6 1729.23  101.59
  -3  -4   6 1666.43  101.89
  -3  -4   6 1799.92  106.19
  -3  -4   6 1803.32  104.09
  -3  -4   6 1823.52  104.69
   2   4  -6  130.79   14.00
   2   4  -6  151.28   17.00
   2   4  -6  113.09    9.90
   2   4  -6  129.69   10.00
  -2  -4   6  133.19   15.10
  -2  -4   6  132.19    9.40
  -2  -4   6  131.89    9.60
  -2  -4   6  138.59    9.40
  -2  -4   6  134.69    9.80
  -2  -4   6  140.19   12.30
  -2  -4   6  156.48   12.90
  -2  -4   6  124.89   17.00
  -2  -4   6  118.89   10.50
  -2  -4   6  145.49   11.00
  -2  -4   6  149.49   19.60
   1   4  -6 1128.09   79.39
   1   4  -6 1477.85   78.69
  -1  -4   6 1165.68   78.99
  -1  -4   6 1456.25   74.99
  -1  -4   6 1191.88   75.19
  -1  -4   6 1165.38   75.19
  -1  -4   6 1370.76   82.49
  -1  -4   6 1355.36   74.69
  -1  -4   6 1309.07   74.39
  -1  -4   6 1339.47   75.89
  -1  -4   6 1136.19   75.89
   0   4  -6  411.46   28.30
   0   4  -6  382.56   27.80
   0  -4   6  373.06   25.10
   0  -4   6  378.46   23.60
   0  -4   6  369.36   25.30
   0  -4   6  398.16   24.30
   0  -4   6  439.46   24.40
   0  -4   6  399.06   27.30
   0  -4   6  406.86   26.20
   0  -4   6  406.76   25.50
   0  -4   6  411.46   24.60
   0  -4   6  354.56   33.30
  -1   4  -6  359.06   26.10
  -1   4  -6  405.86   25.20
   1  -4   6  354.16   22.00
   1  -4   6  385.56   22.80
   1  -4   6  383.06   23.30
   1  -4   6  353.36   23.60
   1  -4   6  418.76   23.30
   1  -4   6  365.76   25.50
   1  -4   6  296.17   28.80
   1  -4   6  397.46   24.40
   1  -4   6  330.07   24.20
   1  -4   6  311.27   32.20
  -2   4  -6   31.90    9.70
  -2   4  -6   29.20    5.80
   2  -4   6   17.60    6.40
   2  -4   6   36.50   14.70
   2  -4   6   30.40    7.50
   2  -4   6   37.80    6.70
   2  -4   6   34.90    4.90
   2  -4   6   27.20    6.10
   2  -4   6   44.80    5.80
   2  -4   6   32.10    6.50
  -3   4  -6  275.27   19.70
  -3   4  -6  284.47   23.30
   3  -4   6  254.27   19.90
   3  -4   6  250.57   17.80
   3  -4   6  281.27   20.70
   3  -4   6  283.47   21.20
   3  -4   6  269.07   17.80
   3  -4   6  277.67   21.40
   3  -4   6  259.37   17.00
   3  -4   6  219.88   19.50
  -4   4  -6    6.30    8.50
  -4   4  -6    4.80    4.00
  -4   4  -6    0.60    5.00
   4  -4   6    4.20    4.50
   4  -4   6    0.00    6.10
   4  -4   6   -7.10    9.00
   4  -4   6  -11.90   17.90
   4  -4   6   -2.60    4.20
   4  -4   6   -2.50    4.70
   4  -4   6   12.10    7.60
   4  -4   6    0.40    4.00
  -5   4  -6  131.49   18.60
  -5   4  -6   99.69   13.40
   5  -4   6  126.99   28.20
   5  -4   6  124.09   11.80
   5  -4   6  111.29   16.70
   5  -4   6  125.49   12.00
   5  -4   6  127.59   16.30
   5  -4   6  111.99   11.70
  -6   4  -6   -6.50    8.60
  -6   4  -6   -5.40    8.10
  -6   4  -6    2.00   10.20
   6  -4   6   -3.90   11.90
   6  -4   6   12.90    7.30
   6  -4   6   -1.10    7.70
   6  -4   6  -27.20    9.60
   6  -4   6   -4.30    6.20
  -7   4  -6   40.50   14.60
  -7   4  -6   16.30   11.20
   7  -4   6   24.30    9.80
   7  -4   6   26.50   12.60
   7  -4   6   25.30    9.90
   7  -4   6   28.80   10.90
   9   3  -6   14.00    8.90
   9   3  -6  -19.80   16.40
   9   3  -6   -4.10   10.50
  -9  -3   6   -2.70   19.30
  -9  -3   6   19.50   18.60
  -9  -3   6   -0.70   27.10
   8   3  -6  123.29   12.60
   8   3  -6  121.99   16.20
   8   3  -6   84.59   17.40
   8   3  -6  113.99   17.90
  -8  -3   6  127.49   23.20
  -8  -3   6  129.89   21.50
  -8  -3   6  104.39   24.20
  -8  -3   6  114.19   16.40
   7   3  -6   75.49   12.20
   7   3  -6   68.59   14.10
   7   3  -6   67.59   10.60
   7   3  -6   66.09    8.70
   7   3  -6   83.99   10.10
  -7  -3   6   78.29   18.10
  -7  -3   6   76.19   20.20
  -7  -3   6   89.89   12.40
  -7  -3   6   55.69   11.90
   6   3  -6  443.96   27.20
   6   3  -6  450.45   35.10
   6   3  -6  449.76   31.70
   6   3  -6  436.96   29.20
   6   3  -6  450.35   28.80
  -6  -3   6  475.45   34.90
  -6  -3   6  441.86   34.10
  -6  -3   6  430.56   34.00
  -6  -3   6  458.85   38.40
  -6  -3   6  439.56   30.30
  -6  -3   6  439.36   29.30
   5   3  -6   13.80    4.90
   5   3  -6   20.20    4.70
   5   3  -6   12.60    5.60
   5   3  -6   15.10    7.80
   5   3  -6   10.20    8.50
  -5  -3   6   17.30    6.20
  -5  -3   6   11.70    5.90
  -5  -3   6   24.80    8.60
  -5  -3   6    9.70    7.60
  -5  -3   6   21.20    4.90
  -5  -3   6   16.70    8.70
  -5  -3   6   17.50    4.70
  -5  -3   6   24.70   11.80
   4   3  -6 1596.84  101.99
   4   3  -6 1727.43  101.39
   4   3  -6 1525.55   98.49
   4   3  -6 1678.73   97.09
   4   3  -6 1744.03   97.19
   4   3  -6 1658.63   96.19
  -4  -3   6 1705.03   97.89
  -4  -3   6 1729.13  103.59
  -4  -3   6 1591.34   97.29
  -4  -3   6 1727.83  101.19
  -4  -3   6 1736.63   97.89
  -4  -3   6 1682.03  100.39
  -4  -3   6 1607.24  100.99
  -4  -3   6 1674.73   97.79
   3   3  -6  238.48   21.20
   3   3  -6  243.08   19.30
   3   3  -6  232.18   16.40
   3   3  -6  235.68   14.80
   3   3  -6  264.47   15.00
   3   3  -6  198.98   16.30
  -3  -3   6  210.58   19.90
  -3  -3   6  244.68   21.70
  -3  -3   6  257.47   19.70
  -3  -3   6  240.98   15.60
  -3  -3   6  232.28   15.70
  -3  -3   6  235.28   16.10
  -3  -3   6  246.58   16.80
  -3  -3   6  256.07   18.80
   2   3  -6 1415.26   90.09
   2   3  -6 1408.76   85.69
   2   3  -6 1293.47   85.79
   2   3  -6 1605.24   88.69
  -2  -3   6 1465.35   85.29
  -2  -3   6 1486.55   85.69
  -2  -3   6 1527.55   85.59
  -2  -3   6 1569.64   87.39
  -2  -3   6 1319.17   89.29
  -2  -3   6 1556.24   88.19
  -2  -3   6 1529.65   85.89
  -2  -3   6 1357.16   85.09
  -2  -3   6 1610.84   90.59
   1   3  -6  102.49    8.50
   1   3  -6  132.79   12.10
   1   3  -6  113.29    8.60
   1   3  -6  124.59    8.70
  -1  -3   6  124.09    9.20
  -1  -3   6  101.89    8.60
  -1  -3   6   95.09   13.50
  -1  -3   6  102.39    9.50
  -1  -3   6  126.89    7.70
  -1  -3   6  123.09    9.80
  -1  -3   6   89.09   11.50
  -1  -3   6   91.59   10.60
   0   3  -6 2278.67  144.59
   0   3  -6 2494.35  140.59
   0   3  -6 2481.35  142.29
   0   3  -6 2287.57  140.39
   0   3  -6 2310.27  141.29
   0   3  -6 2544.35  143.19
   0  -3   6 2606.64  141.09
   0  -3   6 2422.36  141.09
   0  -3   6 2438.96  141.09
   0  -3   6 2524.75  141.39
   0  -3   6 2433.26  141.79
   0  -3   6 2424.96  140.89
  -1   3  -6  791.32   44.60
  -1   3  -6  797.32   46.60
  -1   3  -6  718.93   44.90
  -1   3  -6  717.63   47.30
  -1   3  -6  756.82   46.20
  -1   3  -6  837.12   49.70
   1  -3   6  768.72   45.70
   1  -3   6  811.52   45.80
   1  -3   6  773.72   45.20
   1  -3   6  729.03   53.09
   1  -3   6  749.13   45.80
   1  -3   6  651.53   50.19
   1  -3   6  751.62   46.20
   1  -3   6  786.62   46.10
  -2   3  -6 1325.97   69.69
  -2   3  -6 1274.77   71.59
  -2   3  -6 1232.78   71.69
  -2   3  -6 1086.09   69.99
   2  -3   6 1224.38   71.19
   2  -3   6 1169.28   78.39
   2  -3   6 1251.37   70.79
   2  -3   6 1067.09   71.29
   2  -3   6 1179.68   71.49
   2  -3   6 1204.18   70.69
   2  -3   6 1218.98   71.19
   2  -3   6 1137.29   71.69
   2  -3   6 1187.58   69.09
  -3   3  -6  164.88   13.20
  -3   3  -6  162.88   11.80
  -3   3  -6  159.58   14.30
  -3   3  -6  204.48   17.30
  -3   3  -6  144.39   12.00
   3  -3   6  159.78   11.10
   3  -3   6  131.99   20.40
   3  -3   6  170.38   12.20
   3  -3   6  151.68   14.10
   3  -3   6  150.38   14.10
   3  -3   6  167.58   15.30
   3  -3   6  170.48   12.20
   3  -3   6  133.99   12.20
  -4   3  -6  367.76   25.30
  -4   3  -6  375.06   23.50
  -4   3  -6  351.56   26.50
  -4   3  -6  310.97   23.70
  -4   3  -6  354.36   23.30
   4  -3   6  350.66   26.00
   4  -3   6  401.86   28.20
   4  -3   6  385.36   26.60
   4  -3   6  342.07   23.00
   4  -3   6  375.16   23.80
   4  -3   6  356.76   37.70
   4  -3   6  385.36   23.10
   4  -3   6  390.06   23.90
  -5   3  -6  101.09   13.50
  -5   3  -6   74.49    9.30
  -5   3  -6   69.19   10.70
  -5   3  -6   66.09    9.70
   5  -3   6   64.19   21.10
   5  -3   6   73.39   12.90
   5  -3   6   68.69    9.30
   5  -3   6   71.09    7.50
   5  -3   6   62.39    9.30
   5  -3   6   86.59   14.00
   5  -3   6   70.19   11.40
  -6   3  -6   53.49    8.80
  -6   3  -6   64.59   11.80
  -6   3  -6   46.70    8.50
  -6   3  -6   40.00   10.50
   6  -3   6   65.99    8.80
   6  -3   6   66.49    9.90
   6  -3   6   52.29   11.20
   6  -3   6   52.99   12.70
   6  -3   6   56.49    8.60
  -7   3  -6   13.80    9.90
  -7   3  -6   38.10   11.40
  -7   3  -6   47.00   11.70
   7  -3   6   31.10    9.90
   7  -3   6   33.50    8.80
   7  -3   6   41.50    9.50
   7  -3   6   17.40   11.80
  -8   3  -6   -3.60   12.40
  -8   3  -6   24.20   13.60
   8  -3   6   11.70   11.00
   8  -3   6   13.10    9.40
   8  -3   6    9.00   14.70
   8  -3   6   13.80    9.70
   9   2  -6   17.90   16.10
   9   2  -6   10.10   10.90
   9   2  -6   12.70   19.80
  -9  -2   6    4.30   17.20
  -9  -2   6  -12.50   25.40
  -9  -2   6   -7.00   19.60
   8   2  -6   29.30   17.40
   8   2  -6   21.70    9.90
   8   2  -6   30.30   12.60
  -8  -2   6   17.80   21.50
  -8  -2   6   36.90   15.70
  -8  -2   6   32.30   14.00
  -8  -2   6   22.10   16.70
   7   2  -6   17.80    9.50
   7   2  -6   14.70    5.10
   7   2  -6   22.00    7.10
   7   2  -6   10.00   12.30
  -7  -2   6   -7.90   24.90
  -7  -2   6   27.00   12.40
  -7  -2   6    9.40   12.60
  -7  -2   6    8.20    7.20
  -7  -2   6   16.00   12.50
  -7  -2   6    0.50    9.50
   6   2  -6   78.29   10.70
   6   2  -6   69.19    7.00
   6   2  -6   57.59    9.00
   6   2  -6   68.49   13.30
   6   2  -6   84.49    9.40
  -6  -2   6   75.09   16.60
  -6  -2   6   79.89   15.00
  -6  -2   6   76.39    9.50
  -6  -2   6   74.09   13.50
  -6  -2   6   76.89   13.60
  -6  -2   6   69.29   10.00
   5   2  -6   97.89   14.90
   5   2  -6   90.59   13.80
   5   2  -6  115.09    7.80
   5   2  -6  124.79   14.00
   5   2  -6  125.19   11.30
   5   2  -6  132.59   10.40
   5   2  -6   87.39   12.30
  -5  -2   6  117.19   15.30
  -5  -2   6  128.29   18.10
  -5  -2   6  108.89    9.90
  -5  -2   6  114.19   15.40
  -5  -2   6  104.79   10.60
  -5  -2   6  131.99   12.40
  -5  -2   6  104.29   15.80
   4   2  -6  379.46   26.80
   4   2  -6  418.76   25.30
   4   2  -6  383.36   29.40
   4   2  -6  410.36   29.70
   4   2  -6  404.46   25.10
   4   2  -6  400.56   26.50
  -4  -2   6  363.06   29.30
  -4  -2   6  363.66   24.80
  -4  -2   6  393.46   25.40
  -4  -2   6  414.86   29.20
  -4  -2   6  412.86   28.50
  -4  -2   6  420.46   25.90
  -4  -2   6  397.36   25.30
  -4  -2   6  401.96   31.40
   3   2  -6  436.96   28.60
   3   2  -6  425.36   31.70
   3   2  -6  482.25   27.30
   3   2  -6  432.36   27.20
   3   2  -6  425.56   30.90
  -3  -2   6  460.95   27.30
  -3  -2   6  429.26   32.00
  -3  -2   6  457.65   27.90
  -3  -2   6  428.46   27.60
  -3  -2   6  478.85   31.10
  -3  -2   6  424.56   27.50
  -3  -2   6  473.85   30.10
   2   2  -6  999.60   55.49
   2   2  -6  990.50   55.09
   2   2  -6  914.51   56.29
   2   2  -6  824.22   56.29
   2   2  -6  896.61   55.39
   2   2  -6  974.00   58.59
  -2  -2   6  958.10   58.59
  -2  -2   6  955.80   56.09
  -2  -2   6  957.50   55.59
  -2  -2   6  999.50   60.29
  -2  -2   6  938.51   55.59
  -2  -2   6 1010.70   57.89
  -2  -2   6  936.11   56.09
   1   2  -6 1327.27   66.69
   1   2  -6 1227.48   66.89
   1   2  -6 1084.69   67.59
   1   2  -6 1157.48   67.99
   1   2  -6 1166.58   71.29
   1   2  -6 1275.57   69.69
   1   2  -6 1306.17   67.29
  -1  -2   6 1164.68   67.69
  -1  -2   6  952.70   71.09
  -1  -2   6 1016.30   67.59
  -1  -2   6 1083.19   66.79
  -1  -2   6 1021.60   68.29
  -1  -2   6 1200.18   66.49
  -1  -2   6 1120.39   67.89
  -1  -2   6 1156.28   67.99
   0   2  -6 1558.04   86.49
   0   2  -6 1386.06   82.39
   0   2  -6 1391.56   82.59
   0   2  -6 1454.35   82.69
   0   2  -6 1420.46   83.99
   0   2  -6 1403.56   83.29
   0  -2   6 1406.16   83.79
   0  -2   6 1391.86   82.29
   0  -2   6 1419.16   82.99
   0  -2   6 1506.15   83.19
   0  -2   6 1205.38   86.59
   0  -2   6 1450.15   82.99
  -1   2  -6 1143.49   64.79
  -1   2  -6 1031.60   60.69
  -1   2  -6 1044.00   62.19
  -1   2  -6 1037.10   61.59
  -1   2  -6 1020.70   61.09
  -1   2  -6 1027.90   61.49
   1  -2   6 1011.90   61.09
   1  -2   6 1083.39   61.79
   1  -2   6  976.70   61.09
   1  -2   6 1029.70   61.79
   1  -2   6 1027.40   61.79
  -2   2  -6 1277.37   70.59
  -2   2  -6 1216.48   70.39
  -2   2  -6 1364.16   73.49
  -2   2  -6 1102.19   69.79
  -2   2  -6 1198.08   69.49
   2  -2   6 1155.58   70.89
   2  -2   6 1169.28   70.29
   2  -2   6 1140.39   69.99
   2  -2   6 1048.60   70.59
   2  -2   6 1202.48   77.39
   2  -2   6 1190.48   70.79
  -3   2  -6  399.26   25.80
  -3   2  -6  482.85   29.90
  -3   2  -6  370.86   26.10
  -3   2  -6  461.35   27.40
  -3   2  -6  389.96   24.70
  -3   2  -6  419.36   26.90
   3  -2   6  412.16   26.20
   3  -2   6  401.26   27.40
   3  -2   6  399.26   35.20
   3  -2   6  423.46   28.00
   3  -2   6  422.96   26.20
   3  -2   6  370.06   27.40
  -4   2  -6  616.14   37.20
  -4   2  -6  483.45   35.60
  -4   2  -6  502.55   36.50
  -4   2  -6  580.24   34.50
  -4   2  -6  586.24   35.40
  -4   2  -6  674.03   39.30
   4  -2   6  544.25   44.10
   4  -2   6  579.74   35.60
   4  -2   6  578.74   37.90
   4  -2   6  595.04   46.30
   4  -2   6  557.04   35.60
   4  -2   6  587.04   34.70
   4  -2   6  614.94   38.80
   4  -2   6  540.95   37.20
  -5   2  -6  124.89    8.50
  -5   2  -6  119.89   10.60
  -5   2  -6  112.69   13.00
  -5   2  -6  134.29   15.60
  -5   2  -6  119.69    9.40
  -5   2  -6  129.19   11.60
   5  -2   6  119.99   14.90
   5  -2   6   98.09   13.90
   5  -2   6  122.29   11.20
   5  -2   6  113.99   15.30
   5  -2   6  136.49   23.00
   5  -2   6  123.59   11.20
  -6   2  -6  223.38   19.60
  -6   2  -6  201.08   17.70
  -6   2  -6  228.38   17.20
  -6   2  -6  253.87   21.80
  -6   2  -6  244.48   16.00
   6  -2   6  211.38   20.90
   6  -2   6  221.48   22.40
   6  -2   6  230.68   30.30
   6  -2   6  212.18   22.50
   6  -2   6  221.58   17.70
   6  -2   6  223.68   17.50
  -7   2  -6   34.30    8.30
  -7   2  -6   26.70    9.80
  -7   2  -6   27.10    8.60
  -7   2  -6   19.30   10.00
  -7   2  -6   25.50    6.90
   7  -2   6   -3.40   13.00
   7  -2   6   24.80    8.00
   7  -2   6   26.00    8.10
   7  -2   6   25.60   10.00
   7  -2   6   24.70    8.70
  -8   2  -6   52.19   12.80
  -8   2  -6   35.00    8.90
  -8   2  -6   25.90   10.80
   8  -2   6   45.10   11.90
   8  -2   6   23.90   13.40
   8  -2   6   12.10    9.10
   9   1  -6  -13.10   11.10
   9   1  -6   -0.70   15.50
   9   1  -6   47.40   20.90
   9   1  -6  -22.60   13.90
  -9  -1   6   22.00   27.00
  -9  -1   6    4.40   16.60
  -9  -1   6   35.40   23.20
  -9  -1   6   27.40   18.50
   8   1  -6   18.20   13.80
   8   1  -6   31.30    9.80
   8   1  -6   -1.20   10.60
   8   1  -6   18.20   15.80
   8   1  -6   15.50    7.00
  -8  -1   6   30.30   15.50
  -8  -1   6   10.30   21.70
  -8  -1   6   32.50   18.70
  -8  -1   6    8.60   10.80
  -8  -1   6    3.60   18.80
  -8  -1   6    7.90   14.20
   7   1  -6   -4.20    8.90
   7   1  -6    0.50   10.80
   7   1  -6   -4.30    4.60
   7   1  -6  -16.50    8.20
   7   1  -6    2.50    7.10
  -7  -1   6   10.00   10.40
  -7  -1   6    8.00   16.60
  -7  -1   6    5.40   11.00
  -7  -1   6   -1.30   11.20
  -7  -1   6    1.50   12.70
  -7  -1   6   -8.30    7.30
   6   1  -6   29.20    7.90
   6   1  -6   37.30   11.10
   6   1  -6   20.10    8.10
   6   1  -6   27.60    7.70
   6   1  -6   14.20    5.60
   6   1  -6   22.50    4.90
   6   1  -6   28.10    4.50
  -6  -1   6   18.50   10.40
  -6  -1   6   17.70    6.30
  -6  -1   6   20.40   13.40
  -6  -1   6   26.70   10.70
  -6  -1   6   -3.90   10.30
  -6  -1   6   23.90    8.00
   5   1  -6   11.00    4.00
   5   1  -6    9.50    2.60
   5   1  -6    3.80    6.80
   5   1  -6   13.20    6.80
   5   1  -6    7.20    4.00
   5   1  -6   19.40    7.40
   5   1  -6    0.90    5.00
   5   1  -6   -1.90    6.20
   5   1  -6   16.60    5.60
   5   1  -6   10.00    3.60
  -5  -1   6   15.40    9.60
  -5  -1   6    9.70    7.60
  -5  -1   6   12.80    8.90
  -5  -1   6   11.80    4.50
  -5  -1   6   11.40    4.80
  -5  -1   6    8.60    5.90
  -5  -1   6   -0.10    9.80
   4   1  -6   13.70    6.20
   4   1  -6   11.90    5.50
   4   1  -6    8.40    3.60
   4   1  -6    0.60    4.80
   4   1  -6   15.80    6.90
   4   1  -6    8.50    4.30
   4   1  -6   10.60    2.80
   4   1  -6    2.00    4.20
  -4  -1   6    0.90    7.30
  -4  -1   6   -3.50    8.10
  -4  -1   6    5.70    6.60
  -4  -1   6   10.60    4.50
  -4  -1   6    7.80    3.60
  -4  -1   6   12.60    7.90
  -4  -1   6    3.50    3.70
   3   1  -6  291.47   19.10
   3   1  -6  274.17   17.70
   3   1  -6  288.37   22.30
   3   1  -6  284.17   20.10
   3   1  -6  288.37   19.00
   3   1  -6  272.67   19.80
   3   1  -6  301.27   21.90
   3   1  -6  296.87   18.60
  -3  -1   6  305.17   22.80
  -3  -1   6  287.07   23.10
  -3  -1   6  295.97   21.50
  -3  -1   6  295.87   19.10
  -3  -1   6  285.57   18.90
  -3  -1   6  294.57   17.90
   2   1  -6   21.10    6.10
   2   1  -6   16.30    2.80
   2   1  -6   21.10    3.30
   2   1  -6   17.10    3.20
   2   1  -6   15.20    3.90
   2   1  -6   20.20    5.60
   2   1  -6   21.10    4.50
  -2  -1   6   20.90    3.00
  -2  -1   6   14.80    3.10
  -2  -1   6   16.70    6.10
  -2  -1   6   15.40    4.00
  -2  -1   6    5.10    7.50
  -2  -1   6   25.10    5.60
  -2  -1   6   20.80    7.30
  -2  -1   6   20.30    3.50
   1   1  -6  792.82   44.80
   1   1  -6  674.73   41.20
   1   1  -6  650.33   42.70
   1   1  -6  753.42   40.30
   1   1  -6  605.24   40.50
   1   1  -6  676.43   40.50
  -1  -1   6  708.43   39.90
  -1  -1   6  649.54   42.20
  -1  -1   6  677.83   42.00
  -1  -1   6  638.54   45.40
  -1  -1   6  707.33   41.40
  -1  -1   6  650.43   41.40
   0   1  -6   57.99    5.40
   0   1  -6   49.90    7.40
   0   1  -6   66.69    6.10
   0   1  -6   60.99    6.40
   0   1  -6   65.49    9.80
   0   1  -6   64.29    5.90
   0   1  -6   63.69    6.40
   0  -1   6   52.59    6.30
   0  -1   6   55.69    6.20
   0  -1   6   52.19    6.70
   0  -1   6   53.69    6.90
   0  -1   6   69.49    8.00
   0  -1   6   59.49    4.80
  -1   1  -6 1475.05   85.09
  -1   1  -6 1462.65   83.89
  -1   1  -6 1430.86   84.69
  -1   1  -6 1416.46   84.09
  -1   1  -6 1469.35   84.99
  -1   1  -6 1444.96   84.69
  -1   1  -6 1431.06   87.89
   1  -1   6 1477.85   85.49
   1  -1   6 1480.75   85.59
   1  -1   6 1459.75   84.99
   1  -1   6 1414.86   85.29
   1  -1   6 1453.45   85.59
  -2   1  -6  206.68   12.40
  -2   1  -6  190.58   14.10
  -2   1  -6  180.48   13.40
  -2   1  -6  192.48   13.70
  -2   1  -6  175.08   13.00
  -2   1  -6  201.08   13.70
  -2   1  -6  198.88   12.50
  -2   1  -6  218.48   17.90
   2  -1   6  177.68   14.30
   2  -1   6  194.18   14.20
   2  -1   6  189.08   14.00
   2  -1   6  185.38   13.40
   2  -1   6  172.08   14.60
  -3   1  -6  696.23   46.30
  -3   1  -6  865.81   45.20
  -3   1  -6  773.02   46.20
  -3   1  -6  668.63   49.00
  -3   1  -6  777.32   44.50
  -3   1  -6  727.73   46.60
  -3   1  -6  768.42   45.30
  -3   1  -6  851.31   47.00
   3  -1   6  779.62   48.10
   3  -1   6  791.22   54.29
   3  -1   6  736.93   46.40
   3  -1   6  859.41   47.50
   3  -1   6  671.63   47.40
   3  -1   6  749.82   46.50
  -4   1  -6   45.40    7.00
  -4   1  -6   22.30    3.50
  -4   1  -6   19.20    5.30
  -4   1  -6   22.20    3.40
  -4   1  -6   19.90    4.40
  -4   1  -6   17.30    8.20
   4  -1   6   18.60    5.10
   4  -1   6   22.60    5.10
   4  -1   6   19.50    7.50
   4  -1   6   18.40    7.10
   4  -1   6   20.00   13.70
   4  -1   6   25.20    5.00
   4  -1   6   17.40   11.90
  -5   1  -6  367.26   25.20
  -5   1  -6  479.35   28.40
  -5   1  -6  320.37   26.80
  -5   1  -6  434.56   25.60
  -5   1  -6  428.36   25.00
   5  -1   6  394.56   27.90
   5  -1   6  404.56   26.50
   5  -1   6  376.76   35.50
   5  -1   6  389.96   29.20
   5  -1   6  386.06   26.40
   5  -1   6  415.16   30.70
   5  -1   6  423.36   38.30
  -6   1  -6   16.90    6.20
  -6   1  -6    6.20    9.00
  -6   1  -6    9.70    3.80
  -6   1  -6    7.30    5.10
  -6   1  -6   14.10    5.60
   6  -1   6   10.10    7.30
   6  -1   6   19.40    6.00
   6  -1   6   11.90    8.50
   6  -1   6   23.30   11.90
  -7   1  -6  101.89   14.00
  -7   1  -6  110.79   13.10
  -7   1  -6  131.79   10.80
  -7   1  -6  109.79   13.10
  -7   1  -6   77.09   14.20
   7  -1   6   97.79   14.10
   7  -1   6  122.99   13.20
   7  -1   6  135.49   15.20
   7  -1   6  165.58   22.30
  -8   1  -6   16.40   12.20
  -8   1  -6   -0.60    7.30
  -8   1  -6   -1.20    8.80
  -8   1  -6    0.30    8.40
   8  -1   6  -14.50    7.50
   8  -1   6   -0.60    7.70
   8  -1   6    1.40   10.50
  -9   1  -6   28.00   11.60
  -9   1  -6   70.89   15.80
   9  -1   6   25.80   12.50
   9  -1   6   33.00   11.00
   9  -1   6   50.09   15.50
   8   0  -6   50.89   11.50
   8   0  -6   42.90    8.50
   8   0  -6   64.09   15.50
   8   0  -6   42.40   12.60
  -8   0   6   57.89   17.70
  -8   0   6   58.69   22.80
  -8   0   6   45.50   13.70
  -8   0   6   39.60   15.90
   7   0  -6    3.70    5.80
   7   0  -6    2.00    7.20
   7   0  -6   -5.40    8.70
   7   0  -6   -4.70    9.30
  -7   0   6    3.30   16.20
  -7   0   6  -14.40   11.20
  -7   0   6    6.80    7.40
  -7   0   6   20.00   12.40
  -7   0   6    9.80   12.50
   6   0  -6   39.80   17.70
   6   0  -6   72.39    8.20
   6   0  -6   94.19   12.60
   6   0  -6   66.39   10.50
   6   0  -6   61.39    8.80
  -6   0   6   49.00   11.30
  -6   0   6   69.99   14.40
  -6   0   6   93.09   17.00
  -6   0   6   72.29   13.70
  -6   0   6   80.59   15.10
  -6   0   6   50.39   15.00
  -6   0   6   75.19    9.30
   5   0  -6   28.00    8.40
   5   0  -6   30.90    4.00
   5   0  -6   27.40    8.20
   5   0  -6   40.30    7.50
   5   0  -6   35.90    6.90
   5   0  -6   27.90    5.50
   5   0  -6   48.10    8.00
  -5   0   6   27.90   10.50
  -5   0   6   23.10    5.60
  -5   0   6   19.50   11.50
  -5   0   6   22.90    8.80
  -5   0   6   18.80    6.00
  -5   0   6   24.20    9.20
  -5   0   6   27.70    7.20
   4   0  -6   71.39    8.90
   4   0  -6   72.39    7.80
   4   0  -6   58.19    8.50
   4   0  -6   75.79    9.80
   4   0  -6   77.79   10.30
   4   0  -6   65.69    7.80
   4   0  -6   83.69   11.90
  -4   0   6   76.39    9.60
  -4   0   6  105.29   14.20
  -4   0   6   62.19   11.80
  -4   0   6   71.99    8.10
  -4   0   6   77.59   11.20
  -4   0   6   63.69    8.20
  -4   0   6   77.99   14.00
   3   0  -6    1.90    5.50
   3   0  -6    9.80    3.00
   3   0  -6    6.70    3.70
   3   0  -6    7.20    2.80
   3   0  -6    6.40    4.90
   3   0  -6    6.20    4.00
   3   0  -6    1.20    3.00
  -3   0   6    9.00    4.90
  -3   0   6    8.20    4.00
  -3   0   6    4.70    3.00
  -3   0   6    5.00    1.70
  -3   0   6   -3.10    8.10
  -3   0   6    4.10    6.80
  -3   0   6    1.20    6.10
  -3   0   6   -0.40    3.90
   2   0  -6   13.20    4.10
   2   0  -6   20.50    3.30
   2   0  -6   18.50    3.40
   2   0  -6   23.40    4.60
   2   0  -6   21.10    7.00
   2   0  -6   19.50    3.60
   2   0  -6   18.30    3.60
  -2   0   6   14.50    3.20
  -2   0   6   20.50    4.70
  -2   0   6   25.30    6.90
  -2   0   6   20.10    6.20
  -2   0   6   19.10    5.30
  -2   0   6   21.30    3.70
   1   0  -6   35.10    4.10
   1   0  -6   49.80    8.30
   1   0  -6   39.90    5.50
   1   0  -6   39.20    5.40
   1   0  -6   50.29    4.90
  -1   0   6   45.10    4.50
  -1   0   6   33.00    6.60
  -1   0   6   51.69    5.70
  -1   0   6   45.90    6.60
  -1   0   6   51.09    6.70
   0   0  -6   27.70    3.50
   0   0  -6   27.50    4.10
   0   0  -6   28.80    4.30
   0   0  -6   26.50    6.90
   0   0  -6   36.00    4.20
   0   0  -6   23.90    4.60
   0   0  -6   19.50    3.80
   0   0   6   20.90    5.10
   0   0   6   28.70    4.60
   0   0   6   22.20    4.20
   0   0   6   26.10    5.10
   0   0   6   20.70    4.40
  -1   0  -6    5.50    2.60
  -1   0  -6   -0.20    2.80
  -1   0  -6    5.90    2.60
  -1   0  -6    3.30    2.60
  -1   0  -6    6.60    5.70
  -1   0  -6    6.30    2.90
  -1   0  -6    4.40    3.30
   1   0   6    5.30    3.10
   1   0   6    5.60    3.30
   1   0   6    0.90    2.70
   1   0   6   16.70    4.60
   1   0   6   18.40    4.20
  -2   0  -6  139.79   11.30
  -2   0  -6  144.69   10.60
  -2   0  -6  142.89   11.10
  -2   0  -6  142.69   11.30
  -2   0  -6  151.38    9.90
  -2   0  -6  148.89   10.30
  -2   0  -6  143.79   10.70
   2   0   6  136.39   11.50
   2   0   6  131.19   11.70
   2   0   6  156.88   12.10
   2   0   6  148.19   10.90
   2   0   6  138.09   12.60
  -3   0  -6    1.10    2.80
  -3   0  -6    7.10    3.00
  -3   0  -6    6.60    7.00
  -3   0  -6    3.70    3.10
  -3   0  -6    6.50    3.60
  -3   0  -6    5.00    1.70
  -3   0  -6    9.50    3.60
   3   0   6    1.20    5.00
   3   0   6    2.20    3.30
   3   0   6    8.50    3.60
   3   0   6    3.00    3.90
   3   0   6    7.20    5.10
  -4   0  -6  466.25   28.80
  -4   0  -6  422.16   27.20
  -4   0  -6  404.66   32.30
  -4   0  -6  466.75   28.30
  -4   0  -6  463.25   29.20
  -4   0  -6  508.15   28.20
  -4   0  -6  405.66   29.10
   4   0   6  461.95   31.10
   4   0   6  478.45   37.90
   4   0   6  485.35   31.50
   4   0   6  412.46   29.00
   4   0   6  451.45   37.30
   4   0   6  441.26   28.70
   4   0   6  463.05   29.80
  -5   0  -6    2.20    4.10
  -5   0  -6    4.90    4.30
  -5   0  -6    7.40    4.80
  -5   0  -6   -1.60    7.60
  -5   0  -6    3.10    5.20
  -5   0  -6    0.10    3.20
   5   0   6   -6.30   12.90
   5   0   6    6.50    3.90
   5   0   6    5.00    5.70
   5   0   6  -11.50   14.00
   5   0   6    1.60    7.80
   5   0   6   -1.30    7.20
   5   0   6   -5.40    3.60
  -6   0  -6  137.89   12.90
  -6   0  -6  103.79   18.30
  -6   0  -6  127.99   11.40
  -6   0  -6  140.99   11.10
  -6   0  -6  133.69   13.50
   6   0   6  134.99   14.90
   6   0   6  141.39   16.90
   6   0   6  104.59   23.80
   6   0   6  104.29   16.60
   6   0   6  188.38   26.10
   6   0   6  145.19   12.90
  -7   0  -6   15.10    6.90
  -7   0  -6    1.40    5.80
  -7   0  -6    7.90    6.70
  -7   0  -6    0.90    4.70
  -7   0  -6   -4.40   10.60
   7   0   6    6.80   10.40
   7   0   6   15.40    7.40
   7   0   6    2.10    5.70
  -8   0  -6   92.09   12.40
  -8   0  -6   84.09   11.50
  -8   0  -6   88.89   15.70
  -8   0  -6   73.59   15.70
  -8   0  -6   66.49    9.40
   8   0   6   80.99   11.70
   8   0   6   92.29   15.40
   8   0   6   84.99   12.40
  -9   0  -6   31.00   14.30
  -9   0  -6   -7.00   10.60
   9   0   6   -2.10    9.90
   9   0   6   -2.60    9.00
   9   0   6    8.70   11.80
   8  -1  -6   -0.90    9.90
   8  -1  -6   14.60    8.80
   8  -1  -6   27.20   12.50
   8  -1  -6   15.00   12.40
  -8   1   6   17.30   16.70
  -8   1   6   25.30   23.20
  -8   1   6  -18.60   17.60
  -8   1   6   11.10   16.00
   7  -1  -6   93.49   13.30
   7  -1  -6   82.89    9.90
   7  -1  -6   57.69    9.50
   7  -1  -6   67.49   10.70
   7  -1  -6   76.59   12.70
  -7   1   6   42.00    9.40
  -7   1   6   50.99   15.80
  -7   1   6   56.89   19.10
  -7   1   6   79.79   18.10
  -7   1   6   98.19   18.70
   6  -1  -6   20.70    4.90
   6  -1  -6   12.20   11.00
   6  -1  -6   34.60    9.00
   6  -1  -6   17.80    6.60
   6  -1  -6   21.20    8.40
   6  -1  -6   24.40    6.40
  -6   1   6   22.20   10.40
  -6   1   6   18.90   11.40
  -6   1   6   13.40   12.90
  -6   1   6   19.00   11.20
  -6   1   6   25.30    7.10
   5  -1  -6  146.19   14.60
   5  -1  -6  143.39   15.00
   5  -1  -6  123.59    9.70
   5  -1  -6  161.38   14.20
   5  -1  -6  125.79   14.80
   5  -1  -6  143.19   16.00
   5  -1  -6  135.39   12.80
  -5   1   6  158.18   19.00
  -5   1   6  137.99   12.90
  -5   1   6  164.08   15.50
  -5   1   6  170.78   19.60
  -5   1   6  118.49   17.20
   4  -1  -6  121.09   12.50
   4  -1  -6  122.29   11.20
   4  -1  -6  125.99   13.40
   4  -1  -6  116.19    8.00
   4  -1  -6   98.29   12.00
   4  -1  -6  119.89   10.50
  -4   1   6  149.39   12.80
  -4   1   6  119.29   14.70
  -4   1   6  115.79   12.40
  -4   1   6  135.29   11.10
  -4   1   6  108.29   15.50
  -4   1   6  130.29   16.10
   3  -1  -6  338.47   23.20
   3  -1  -6  358.96   23.60
   3  -1  -6  363.76   22.50
   3  -1  -6  341.57   23.90
   3  -1  -6  347.77   22.50
   3  -1  -6  283.07   24.40
  -3   1   6  390.86   26.50
  -3   1   6  363.46   25.60
  -3   1   6  367.56   25.30
  -3   1   6  342.17   22.60
  -3   1   6  321.87   23.80
  -3   1   6  367.06   23.30
   2  -1  -6   72.79    8.60
   2  -1  -6   73.29    8.70
   2  -1  -6   83.19   11.50
   2  -1  -6   84.39    7.40
   2  -1  -6   85.99    7.90
   2  -1  -6   94.09    8.30
  -2   1   6   84.09    8.30
  -2   1   6   80.89    9.50
  -2   1   6   79.69    9.60
  -2   1   6  103.69   11.90
  -2   1   6   99.59   11.30
  -2   1   6   84.89    7.90
   1  -1  -6   46.50    5.70
   1  -1  -6   51.99    8.90
   1  -1  -6   57.09    5.30
   1  -1  -6   47.80    6.10
   1  -1  -6   51.09    6.00
   1  -1  -6   56.39    6.40
   1  -1  -6   61.59    5.80
  -1   1   6   59.99    7.40
  -1   1   6   74.89    9.90
  -1   1   6   58.69    6.90
  -1   1   6   62.19    5.90
  -1   1   6   54.59    7.20
   0  -1  -6  242.48   16.60
   0  -1  -6  222.28   14.90
   0  -1  -6  281.57   16.60
   0  -1  -6  237.48   17.30
   0  -1  -6  257.77   16.40
   0  -1  -6  280.97   16.90
   0  -1  -6  244.38   15.30
   0   1   6  244.78   17.60
   0   1   6  201.18   17.90
   0   1   6  275.07   17.90
   0   1   6  241.88   17.40
   0   1   6  267.87   15.30
   0   1   6  263.87   17.50
  -1  -1  -6   38.40    8.20
  -1  -1  -6   30.40    3.10
  -1  -1  -6   31.50    5.20
  -1  -1  -6   34.30    4.80
  -1  -1  -6   42.80    5.20
  -1  -1  -6   32.60    5.30
  -1  -1  -6   25.10    3.70
  -1  -1  -6   25.10    4.30
   1   1   6   47.00    5.70
   1   1   6   30.10    5.70
   1   1   6   38.10    6.20
   1   1   6   47.70    6.80
   1   1   6   39.80    6.30
  -2  -1  -6  106.19    8.40
  -2  -1  -6   99.99    8.30
  -2  -1  -6   92.09    9.20
  -2  -1  -6   95.99    9.10
  -2  -1  -6   94.69    6.60
  -2  -1  -6   91.39   13.00
  -2  -1  -6   96.09    6.50
   2   1   6   92.69    9.20
   2   1   6   95.19    9.60
   2   1   6   95.49   10.10
   2   1   6  104.89    8.70
   2   1   6  100.29   10.00
  -3  -1  -6   83.59    8.90
  -3  -1  -6   85.19    7.90
  -3  -1  -6   81.19    7.50
  -3  -1  -6   75.89    5.90
  -3  -1  -6   89.29    7.60
  -3  -1  -6   79.59    8.30
   3   1   6   65.49    9.30
   3   1   6   85.19   10.40
   3   1   6   61.39    8.50
   3   1   6   75.49    9.30
   3   1   6   78.49    7.90
  -4  -1  -6    4.00    3.30
  -4  -1  -6    0.80    4.10
  -4  -1  -6    1.50    2.50
  -4  -1  -6   -3.20    3.00
  -4  -1  -6    4.30    4.10
  -4  -1  -6   -3.10    3.40
   4   1   6    5.90    4.40
   4   1   6   11.20    5.20
   4   1   6  -11.60    5.70
   4   1   6   -4.70    3.50
   4   1   6   21.20   11.90
   4   1   6    2.90    5.70
  -5  -1  -6   67.19    7.80
  -5  -1  -6   59.09    8.60
  -5  -1  -6   61.59    8.00
  -5  -1  -6   68.89    9.40
  -5  -1  -6   49.90    6.70
  -5  -1  -6   74.99    9.40
   5   1   6   63.49   10.80
   5   1   6   70.79   11.20
   5   1   6   64.69    8.70
   5   1   6   73.09   10.50
   5   1   6   35.40   14.20
   5   1   6   58.79    8.10
   5   1   6   72.99   16.80
  -6  -1  -6    6.90    6.80
  -6  -1  -6    9.80    6.50
  -6  -1  -6   15.10    5.00
  -6  -1  -6   10.60    5.90
  -6  -1  -6   17.00    4.80
   6   1   6   10.20   14.50
   6   1   6   13.80    5.10
   6   1   6    3.40   14.30
   6   1   6   10.40    5.80
   6   1   6   18.60   10.20
   6   1   6   17.50   10.50
   6   1   6   22.40    5.80
  -7  -1  -6  111.79   11.50
  -7  -1  -6  119.39   14.20
  -7  -1  -6  119.29   14.70
  -7  -1  -6   95.89   12.30
   7   1   6  107.89   13.20
   7   1   6  128.09   21.50
   7   1   6  114.29   18.00
   7   1   6  136.39   15.80
  -8  -1  -6  -15.20    7.40
  -8  -1  -6   -5.30    8.20
  -8  -1  -6    3.60    8.80
   8   1   6   -0.40    7.00
   8   1   6   10.90    9.00
   8   1   6   -2.20   11.90
   8   1   6    1.00    8.10
  -9  -1  -6   16.30   11.10
  -9  -1  -6    4.20   11.10
   9   1   6   -5.30    8.40
   9   1   6   39.00   12.40
   9   1   6   20.20   11.50
   8  -2  -6    0.50   13.40
   8  -2  -6  -11.70    9.40
   8  -2  -6  -10.10   12.30
   8  -2  -6   -4.40   10.30
  -8   2   6   14.20   10.60
  -8   2   6    3.10   19.20
  -8   2   6   45.90   19.40
   7  -2  -6   71.39   13.20
   7  -2  -6   40.90    9.60
   7  -2  -6   61.09   10.30
   7  -2  -6   36.10    8.10
   7  -2  -6   72.99   14.40
  -7   2   6   53.69   17.30
  -7   2   6   67.29   17.70
  -7   2   6   66.09   19.30
  -7   2   6   63.29    9.60
  -7   2   6   44.60   17.00
   6  -2  -6   -0.80   10.30
   6  -2  -6    8.50    4.90
   6  -2  -6   16.80    8.40
   6  -2  -6   10.00    7.70
  -6   2   6    6.20   12.00
  -6   2   6    6.50   10.70
  -6   2   6   36.50   13.60
  -6   2   6   15.50    6.10
  -6   2   6    7.00    6.80
  -6   2   6  -20.60   14.30
   5  -2  -6  150.68   15.30
   5  -2  -6  170.98   15.20
   5  -2  -6  149.69   15.10
   5  -2  -6  154.68   17.20
   5  -2  -6  124.29   13.10
   5  -2  -6  158.48   13.40
  -5   2   6  160.48   17.40
  -5   2   6  136.99   11.90
  -5   2   6  151.08   14.00
  -5   2   6  173.08   20.90
  -5   2   6  164.78   19.80
  -5   2   6  147.89   19.30
  -5   2   6  150.08   19.80
   4  -2  -6  179.58   12.50
   4  -2  -6  201.78   16.90
   4  -2  -6  170.48   17.10
   4  -2  -6  196.78   14.60
   4  -2  -6  190.68   16.10
   4  -2  -6  192.18   17.00
   4  -2  -6  191.88   15.30
  -4   2   6  217.78   20.60
  -4   2   6  183.18   17.20
  -4   2   6  216.28   17.20
  -4   2   6  176.48   18.60
  -4   2   6  221.18   19.80
  -4   2   6  187.28   12.40
   3  -2  -6  649.64   45.50
   3  -2  -6  687.23   42.10
   3  -2  -6  723.73   43.70
   3  -2  -6  729.93   44.90
   3  -2  -6  734.63   44.70
   3  -2  -6  737.73   44.00
  -3   2   6  715.43   45.40
  -3   2   6  706.93   46.30
  -3   2   6  762.32   47.60
  -3   2   6  772.82   45.10
  -3   2   6  698.23   44.00
  -3   2   6  735.23   46.10
   2  -2  -6  104.39    9.00
   2  -2  -6  101.39   10.40
   2  -2  -6  100.19    9.00
   2  -2  -6   87.09    9.60
   2  -2  -6  109.29   10.00
   2  -2  -6  109.29    9.50
   2  -2  -6   98.29   12.70
  -2   2   6  103.09   12.10
  -2   2   6  105.89   10.90
  -2   2   6  106.39   11.60
  -2   2   6   89.09   10.60
  -2   2   6  104.29    9.70
   1  -2  -6 1655.83   94.19
   1  -2  -6 1560.84   93.79
   1  -2  -6 1725.13   93.99
   1  -2  -6 1511.55   94.39
   1  -2  -6 1535.55   93.19
   1  -2  -6 1344.67   93.89
  -1   2   6 1583.94   94.89
  -1   2   6 1706.33   96.69
  -1   2   6 1688.63   94.89
  -1   2   6 1669.13   95.59
  -1   2   6 1670.93   94.09
   0  -2  -6   69.59   11.80
   0  -2  -6   71.79    6.40
   0  -2  -6   91.09    8.40
   0  -2  -6   77.69    7.90
   0  -2  -6   76.89    7.40
   0  -2  -6   73.49    7.20
   0  -2  -6   83.99    7.70
   0   2   6   83.99    5.80
   0   2   6   52.59    8.20
   0   2   6   73.79    8.70
   0   2   6   77.69    8.50
  -1  -2  -6  764.72   45.80
  -1  -2  -6  781.72   46.50
  -1  -2  -6  785.92   46.80
  -1  -2  -6  710.23   46.00
  -1  -2  -6  756.52   45.80
   1   2   6  791.02   47.20
   1   2   6  804.72   47.00
   1   2   6  816.12   47.40
   1   2   6  800.82   45.20
   1   2   6  712.33   47.00
   1   2   6  648.54   46.20
  -2  -2  -6   39.90    5.70
  -2  -2  -6   40.50    5.60
  -2  -2  -6   33.30    4.80
  -2  -2  -6   39.20    5.60
  -2  -2  -6   45.40    6.30
   2   2   6   42.10    7.40
   2   2   6   28.70    5.00
   2   2   6   37.90    6.50
   2   2   6   28.90    6.00
   2   2   6   51.99    7.10
  -3  -2  -6  521.35   34.80
  -3  -2  -6  539.65   34.90
  -3  -2  -6  608.24   34.50
  -3  -2  -6  555.34   34.10
  -3  -2  -6  542.45   35.10
   3   2   6  534.25   35.40
   3   2   6  561.24   34.60
   3   2   6  590.84   40.50
   3   2   6  602.44   36.70
   3   2   6  471.45   35.50
  -4  -2  -6  718.13   41.60
  -4  -2  -6  655.23   42.30
  -4  -2  -6  679.53   41.90
  -4  -2  -6  596.64   42.10
  -4  -2  -6  660.83   40.30
  -4  -2  -6  671.93   41.70
   4   2   6  641.84   42.90
   4   2   6  724.23   48.20
   4   2   6  711.83   42.10
   4   2   6  637.94   42.10
   4   2   6  691.43   43.90
   4   2   6  738.83   44.40
  -5  -2  -6   54.89    8.10
  -5  -2  -6   64.19    8.10
  -5  -2  -6   60.99    9.00
  -5  -2  -6   60.79    7.10
  -5  -2  -6   67.09    9.20
  -5  -2  -6   70.59    9.10
   5   2   6   79.59   15.40
   5   2   6   89.39   11.10
   5   2   6   61.89   10.30
   5   2   6   50.49    9.50
   5   2   6   51.99    7.60
   5   2   6   65.59    8.80
  -6  -2  -6  144.29   14.00
  -6  -2  -6  123.99   13.60
  -6  -2  -6  145.69   11.80
  -6  -2  -6  112.19   10.60
  -6  -2  -6  106.69   13.50
  -6  -2  -6  123.09   13.00
   6   2   6  135.39   14.30
   6   2   6  109.89   19.70
   6   2   6  112.79   11.70
   6   2   6  115.19   12.30
   6   2   6  127.09   20.10
   6   2   6   88.49   13.90
   6   2   6   89.69   18.80
  -7  -2  -6   64.89    9.20
  -7  -2  -6   56.59    7.80
  -7  -2  -6   58.69   10.50
  -7  -2  -6   46.00   10.00
   7   2   6   50.99    9.00
   7   2   6   71.19   14.70
   7   2   6   80.79   12.90
   7   2   6   71.39   17.40
   7   2   6   39.90    9.10
  -8  -2  -6   99.79   12.60
  -8  -2  -6   58.79   11.70
  -8  -2  -6   52.19    9.50
   8   2   6   45.80   19.40
   8   2   6   62.39   12.80
   8   2   6   75.69   12.00
   8   2   6   93.99   19.70
  -9  -2  -6   19.50   10.80
  -9  -2  -6   11.70   10.80
   9   2   6   -0.10    8.80
   9   2   6   20.20   13.20
   7  -3  -6   -0.20   11.40
   7  -3  -6   -1.00    8.10
   7  -3  -6   -1.40   12.20
   7  -3  -6    9.10   11.80
   7  -3  -6   -7.40    9.40
  -7   3   6   18.00   28.10
  -7   3   6   -8.50   15.40
  -7   3   6    7.60   18.10
  -7   3   6    5.50   15.70
  -7   3   6   11.40    7.30
   6  -3  -6   82.59   16.00
   6  -3  -6   82.99   10.80
   6  -3  -6   77.09   11.00
   6  -3  -6   84.19   12.70
   6  -3  -6   81.89   15.70
  -6   3   6  112.49   17.20
  -6   3   6   89.89   17.60
  -6   3   6   64.09   15.40
  -6   3   6  108.89   10.40
  -6   3   6   49.90   17.50
   5  -3  -6    3.50    6.20
   5  -3  -6    4.90    8.20
   5  -3  -6    0.30    6.40
   5  -3  -6   -2.40    4.80
   5  -3  -6    3.60    4.80
   5  -3  -6    1.80    6.90
  -5   3   6    0.20    6.80
  -5   3   6   -3.20    3.40
  -5   3   6  -12.80    9.50
  -5   3   6    7.40    9.90
  -5   3   6   -6.20   10.50
  -5   3   6  -21.10   10.00
   4  -3  -6  432.16   28.70
   4  -3  -6  395.36   29.90
   4  -3  -6  424.86   29.80
   4  -3  -6  364.86   27.40
   4  -3  -6  498.15   29.30
   4  -3  -6  443.46   29.20
  -4   3   6  450.65   30.30
  -4   3   6  409.26   31.10
  -4   3   6  408.66   31.60
  -4   3   6  442.66   33.40
  -4   3   6  407.16   28.00
  -4   3   6  378.86   30.20
   3  -3  -6   15.00    5.50
   3  -3  -6   15.70    5.70
   3  -3  -6   15.70    6.30
   3  -3  -6   15.10    5.20
   3  -3  -6    9.60    3.20
   3  -3  -6   11.00    6.80
  -3   3   6    4.80    6.80
  -3   3   6   15.30    5.30
  -3   3   6   13.70    2.50
  -3   3   6    7.70    7.40
  -3   3   6   18.50    8.70
  -3   3   6   16.10    6.20
  -3   3   6   15.60    6.40
   2  -3  -6  702.23   43.90
   2  -3  -6  758.82   44.40
   2  -3  -6  691.33   43.40
   2  -3  -6  689.43   44.50
   2  -3  -6  682.43   42.10
   2  -3  -6  640.04   46.00
   2  -3  -6  747.53   43.60
   2  -3  -6  673.43   44.00
  -2   3   6  759.52   44.80
  -2   3   6  710.33   44.70
  -2   3   6  755.22   45.00
  -2   3   6  701.83   45.40
  -2   3   6  709.83   44.20
  -2   3   6  782.72   47.10
   1  -3  -6   64.89    8.40
   1  -3  -6   59.19    7.40
   1  -3  -6   65.79    8.30
   1  -3  -6   51.79    7.10
   1  -3  -6   67.59   10.50
   1  -3  -6   50.19    7.00
   1  -3  -6   62.09    7.20
  -1   3   6   56.19    7.80
  -1   3   6   70.39    8.80
  -1   3   6   54.99    8.60
  -1   3   6   43.30    5.50
  -1   3   6   71.49    9.30
  -1   3   6   49.30    7.80
   0  -3  -6  563.14   37.10
   0  -3  -6  587.44   35.80
   0  -3  -6  597.54   36.60
   0  -3  -6  569.94   36.00
   0  -3  -6  621.64   36.80
   0  -3  -6  589.14   37.00
   0   3   6  619.74   35.30
   0   3   6  570.44   37.50
   0   3   6  647.04   37.70
   0   3   6  525.35   38.20
  -1  -3  -6   31.30    5.30
  -1  -3  -6   31.00    6.30
  -1  -3  -6   40.50    5.60
  -1  -3  -6   49.00    5.40
  -1  -3  -6   49.00    6.00
  -1  -3  -6   47.90    6.30
   1   3   6   35.70    7.30
   1   3   6   43.90    6.90
   1   3   6   40.80    6.70
   1   3   6   47.60    5.50
   1   3   6   41.20    7.40
  -2  -3  -6 1768.42  101.49
  -2  -3  -6 1679.43  101.79
  -2  -3  -6 1729.73  102.99
  -2  -3  -6 1819.62  102.79
  -2  -3  -6 1719.33  102.39
  -2  -3  -6 1721.33  101.89
   2   3   6 1459.15  101.99
   2   3   6 1807.92  103.59
   2   3   6 1759.62  103.49
   2   3   6 1848.81  103.19
   2   3   6 1822.12  103.79
  -3  -3  -6  171.78   14.50
  -3  -3  -6  204.28   15.40
  -3  -3  -6  198.28   15.50
  -3  -3  -6  210.98   15.00
  -3  -3  -6  214.48   15.20
   3   3   6  193.88   16.90
   3   3   6  183.98   16.30
   3   3   6  215.08   15.30
   3   3   6  208.28   16.00
   3   3   6  196.28   17.10
   3   3   6  228.18   22.40
  -4  -3  -6  929.31   54.89
  -4  -3  -6  800.42   54.99
  -4  -3  -6  877.31   54.89
  -4  -3  -6  878.71   52.59
  -4  -3  -6  916.21   54.69
  -4  -3  -6  965.10   54.69
   4   3   6  916.21   59.79
   4   3   6  949.31   54.79
   4   3   6  887.11   55.29
   4   3   6  767.82   55.49
   4   3   6  971.10   56.99
  -5  -3  -6   15.90    6.00
  -5  -3  -6   11.30    4.20
  -5  -3  -6   19.80    6.40
  -5  -3  -6   13.10    6.20
  -5  -3  -6   19.00    6.70
  -5  -3  -6   19.80    5.70
   5   3   6    7.80    5.80
   5   3   6   24.60    5.50
   5   3   6    4.20    7.10
   5   3   6   12.20   11.10
   5   3   6   18.30    8.10
   5   3   6   16.30    5.60
  -6  -3  -6  320.37   24.60
  -6  -3  -6  352.66   24.90
  -6  -3  -6  339.77   22.70
  -6  -3  -6  316.87   25.30
  -6  -3  -6  366.06   24.00
  -6  -3  -6  364.06   25.20
   6   3   6  362.46   28.50
   6   3   6  338.77   24.70
   6   3   6  333.17   23.90
   6   3   6  320.37   26.30
   6   3   6  353.56   28.10
   6   3   6  325.57   33.60
  -7  -3  -6  116.59   14.50
  -7  -3  -6  110.19   14.80
  -7  -3  -6   97.99   11.60
  -7  -3  -6  138.49   15.00
   7   3   6  115.29   14.20
   7   3   6  128.49   17.10
   7   3   6  114.69   19.70
   7   3   6   82.49   14.80
   7   3   6  140.89   13.60
  -8  -3  -6   21.40   11.10
  -8  -3  -6   22.50    8.10
  -8  -3  -6   18.00    8.30
   8   3   6   21.50   16.90
   8   3   6   14.90   13.60
   8   3   6   14.20   11.40
   8   3   6   13.90    7.60
   8   3   6   31.20    9.70
  -9  -3  -6   33.00   11.30
  -9  -3  -6   48.10   13.20
   9   3   6   60.09   19.90
   9   3   6   46.20   15.20
   9   3   6   41.60   10.60
   9   3   6   53.99   30.00
 -10  -3  -6    3.10   14.40
 -10  -3  -6    5.40   12.40
  10   3   6   12.30   12.30
  10   3   6  -10.10   14.60
   7  -4  -6  -11.10   11.80
   7  -4  -6    3.10    9.70
   7  -4  -6  -11.20   10.60
   7  -4  -6   11.90   13.70
  -7   4   6   -5.10   19.90
  -7   4   6   -1.40    7.30
  -7   4   6  -11.50   17.90
  -7   4   6   24.60   19.90
  -7   4   6   38.10   18.80
   6  -4  -6   27.40   12.60
   6  -4  -6   37.30    8.50
   6  -4  -6   39.50    8.90
   6  -4  -6   48.30   11.90
   6  -4  -6   34.50   11.20
  -6   4   6   45.40   20.20
  -6   4   6   54.39   16.30
  -6   4   6   29.40   15.10
  -6   4   6   34.80    6.70
  -6   4   6   26.40   16.90
   5  -4  -6   27.20    8.30
   5  -4  -6   24.30    7.50
   5  -4  -6    8.00    7.60
   5  -4  -6   29.70    6.60
   5  -4  -6    6.10   10.10
   5  -4  -6   21.40    6.20
  -5   4   6    9.20   12.70
  -5   4   6   12.70   11.80
  -5   4   6   14.30   12.80
  -5   4   6   15.60    4.60
  -5   4   6   10.30   11.50
   4  -4  -6  122.39   13.00
   4  -4  -6   87.39   11.50
   4  -4  -6  116.09   13.10
   4  -4  -6  118.19   15.80
   4  -4  -6   97.49    9.70
   4  -4  -6   92.79   12.90
  -4   4   6   81.79   17.60
  -4   4   6  127.89   12.70
  -4   4   6  107.89   15.60
  -4   4   6  119.59   17.10
  -4   4   6   92.39   13.60
  -4   4   6   94.89    8.40
  -4   4   6  113.49   17.60
   3  -4  -6  102.79   13.80
   3  -4  -6  123.89   11.50
   3  -4  -6  107.69    9.40
   3  -4  -6  120.49   14.90
   3  -4  -6  103.39   12.30
   3  -4  -6  114.69   12.00
   3  -4  -6  120.99   12.10
  -3   4   6  124.59   14.90
  -3   4   6  116.19   16.10
  -3   4   6   93.89   12.50
  -3   4   6  108.79   15.10
  -3   4   6  103.39   13.40
  -3   4   6  111.69   12.30
  -3   4   6   93.29    8.40
   2  -4  -6  298.17   21.10
   2  -4  -6  305.57   21.10
   2  -4  -6  313.87   20.80
   2  -4  -6  255.57   23.90
   2  -4  -6  302.17   21.90
   2  -4  -6  300.77   21.30
   2  -4  -6  294.27   19.50
  -2   4   6  287.27   22.50
  -2   4   6  339.17   25.10
  -2   4   6  287.37   21.70
  -2   4   6  328.17   23.10
  -2   4   6  305.87   21.90
  -2   4   6  303.77   22.70
   1  -4  -6  688.93   42.30
   1  -4  -6  662.13   41.30
   1  -4  -6  701.03   42.50
   1  -4  -6  728.93   42.10
   1  -4  -6  559.44   41.30
   1  -4  -6  679.03   40.30
   1  -4  -6  711.33   41.50
  -1   4   6  774.72   45.00
  -1   4   6  638.54   42.60
  -1   4   6  691.13   43.00
  -1   4   6  587.84   40.20
   0  -4  -6  782.42   43.80
   0  -4  -6  711.03   45.40
   0  -4  -6  747.43   45.60
   0  -4  -6  760.32   46.20
   0  -4  -6  753.22   46.80
   0  -4  -6  779.82   46.60
   0  -4  -6  714.13   46.60
   0   4   6  777.92   45.00
   0   4   6  761.22   48.30
   0   4   6  800.62   47.20
   0   4   6  673.53   47.00
  -1  -4  -6  968.80   55.39
  -1  -4  -6  914.81   56.29
  -1  -4  -6  855.51   54.39
  -1  -4  -6  883.31   54.49
  -1  -4  -6  883.61   54.99
  -1  -4  -6  876.21   55.09
   1   4   6  937.61   55.79
   1   4   6  942.21   56.19
   1   4   6  879.01   56.39
   1   4   6  958.30   54.29
  -2  -4  -6  982.80   56.99
  -2  -4  -6  914.61   57.19
  -2  -4  -6  932.01   56.19
  -2  -4  -6  875.81   55.99
  -2  -4  -6  877.71   55.79
  -2  -4  -6  915.61   55.79
   2   4   6  980.70   57.59
   2   4   6  977.30   59.79
   2   4   6  858.71   57.39
   2   4   6  966.40   55.79
   2   4   6  886.91   56.49
   2   4   6  986.80   58.09
  -3  -4  -6  678.63   43.50
  -3  -4  -6  700.63   44.30
  -3  -4  -6  669.33   43.50
  -3  -4  -6  710.03   44.40
   3   4   6  728.13   45.70
   3   4   6  737.33   45.00
   3   4   6  766.32   45.50
   3   4   6  722.23   48.10
   3   4   6  671.53   45.40
  -4  -4  -6 1168.88   72.29
  -4  -4  -6 1267.57   72.69
  -4  -4  -6 1181.58   72.59
  -4  -4  -6 1034.80   72.59
  -4  -4  -6 1167.38   72.39
   4   4   6 1187.58   76.59
   4   4   6 1245.68   73.89
   4   4   6 1268.17   74.69
   4   4   6 1292.87   72.89
   4   4   6 1229.78   74.09
   4   4   6 1228.98   74.29
  -5  -4  -6   -3.70    6.00
  -5  -4  -6   -1.20    3.90
  -5  -4  -6    3.80    3.40
  -5  -4  -6   -0.10    4.70
  -5  -4  -6   -5.50    5.70
  -5  -4  -6    3.10    4.80
   5   4   6    6.00    5.50
   5   4   6    3.30    4.30
   5   4   6    4.20    5.90
   5   4   6    1.40    9.90
   5   4   6   -1.30    7.90
   5   4   6   -0.70    7.20
  -6  -4  -6  972.60   57.79
  -6  -4  -6  880.71   58.59
  -6  -4  -6  923.51   56.69
  -6  -4  -6  916.41   58.59
  -6  -4  -6  960.70   58.69
  -6  -4  -6  966.40   58.39
   6   4   6 1027.40   58.39
   6   4   6  953.90   57.89
   6   4   6  952.50   60.99
   6   4   6  858.51   64.59
   6   4   6 1013.90   61.69
   6   4   6  769.82   58.69
  -7  -4  -6   22.10    8.20
  -7  -4  -6   21.90    7.00
  -7  -4  -6   18.80    6.30
  -7  -4  -6   14.30    8.60
   7   4   6   18.30    6.20
   7   4   6   -4.40    7.80
   7   4   6   23.00    7.10
   7   4   6    8.80   11.20
  -8  -4  -6  294.47   25.40
  -8  -4  -6  269.07   23.40
   8   4   6  247.98   21.50
   8   4   6  244.68   22.90
   8   4   6  241.48   31.00
   8   4   6  285.67   31.50
   8   4   6  245.18   25.60
  -9  -4  -6    6.10   10.60
  -9  -4  -6   15.80   12.00
   9   4   6    9.50   12.70
   9   4   6   -5.00   18.60
   9   4   6    1.70    9.50
   9   4   6   10.60    9.40
   9   4   6  -11.90   15.50
 -10  -4  -6   40.10   13.80
 -10  -4  -6   29.00   15.50
  10   4   6   34.70   18.80
  10   4   6   38.30   12.90
  10   4   6   47.40   13.90
   6  -5  -6    7.20    8.40
   6  -5  -6    6.50   10.00
   6  -5  -6   -4.40   12.00
   6  -5  -6  -11.10   10.10
  -6   5   6    6.90   15.50
  -6   5   6   16.30   17.10
  -6   5   6   23.50   19.20
  -6   5   6   13.90   18.00
  -6   5   6   -5.50    6.70
   5  -5  -6   15.90    9.50
   5  -5  -6   27.70   11.00
   5  -5  -6    4.00    6.80
   5  -5  -6   16.10    9.10
   5  -5  -6   21.90    7.00
  -5   5   6  -12.00   14.50
  -5   5   6   -2.10   15.50
  -5   5   6   15.60    5.10
  -5   5   6   -7.70   15.60
  -5   5   6   -4.40   11.60
   4  -5  -6    2.00    5.30
   4  -5  -6   -3.40    6.00
   4  -5  -6   15.50    8.80
   4  -5  -6    7.80    7.90
   4  -5  -6    1.20    5.70
   4  -5  -6   -7.00    6.60
  -4   5   6   14.20   12.80
  -4   5   6  -14.50   10.60
  -4   5   6   20.50   10.50
  -4   5   6   -6.40    9.40
  -4   5   6    2.60    4.10
   3  -5  -6  104.99   16.50
   3  -5  -6   84.39   10.30
   3  -5  -6   79.49    9.30
   3  -5  -6   64.49   10.00
   3  -5  -6   75.89   11.80
   3  -5  -6   83.99   11.70
  -3   5   6   76.19   12.70
  -3   5   6  103.39   16.80
  -3   5   6   84.09   11.70
  -3   5   6   85.89   14.00
  -3   5   6   54.29    9.00
  -3   5   6   73.79   12.00
  -3   5   6   86.39   17.40
   2  -5  -6   40.00    5.90
   2  -5  -6   38.30   10.90
   2  -5  -6   32.90    8.00
   2  -5  -6   36.80    7.30
   2  -5  -6   37.60    7.40
   2  -5  -6   30.10    6.50
   2  -5  -6   30.50    6.30
  -2   5   6   44.50    7.80
  -2   5   6   15.70    6.90
  -2   5   6   23.50    7.00
  -2   5   6   11.60    7.90
  -2   5   6   30.20    8.70
  -2   5   6   30.90    9.30
   1  -5  -6  295.47   22.10
   1  -5  -6  311.07   20.90
   1  -5  -6  309.87   22.10
   1  -5  -6  339.67   23.30
   1  -5  -6  373.46   23.40
   1  -5  -6  334.77   23.50
   1  -5  -6  339.57   22.50
  -1   5   6  285.37   21.00
  -1   5   6  346.07   24.40
  -1   5   6  344.27   26.60
  -1   5   6  323.47   23.70
  -1   5   6  270.97   23.50
   0  -5  -6    8.30    3.90
   0  -5  -6    2.50    5.50
   0  -5  -6    4.20    5.20
   0  -5  -6    3.50    2.50
   0  -5  -6    2.20    3.80
   0  -5  -6    3.40    3.80
   0  -5  -6   -5.80    4.60
   0   5   6    1.70    6.30
   0   5   6   -2.10    5.90
   0   5   6    6.00    3.50
   0   5   6    8.90    5.70
   0   5   6    3.40    4.30
  -1  -5  -6  467.85   31.00
  -1  -5  -6  474.75   30.00
  -1  -5  -6  504.35   31.50
  -1  -5  -6  495.15   31.90
  -1  -5  -6  496.75   33.40
  -1  -5  -6  478.55   31.90
  -1  -5  -6  519.55   31.80
   1   5   6  484.05   34.30
   1   5   6  462.45   32.70
   1   5   6  515.25   32.40
   1   5   6  503.95   33.20
   1   5   6  448.36   33.50
   1   5   6  528.55   31.00
  -2  -5  -6   82.79    9.70
  -2  -5  -6   91.29   10.30
  -2  -5  -6  112.59   11.50
  -2  -5  -6   97.29   10.00
  -2  -5  -6   91.79   10.40
  -2  -5  -6  115.79   11.40
   2   5   6  100.19   13.40
   2   5   6   95.19   12.70
   2   5   6  107.79    9.50
   2   5   6  105.09   12.10
   2   5   6   88.59   11.90
  -3  -5  -6 1038.20   64.99
  -3  -5  -6 1022.70   64.79
  -3  -5  -6  995.40   64.09
  -3  -5  -6 1022.50   64.09
  -3  -5  -6 1079.69   65.09
  -3  -5  -6 1126.99   65.39
   3   5   6 1113.19   65.89
   3   5   6 1082.29   66.09
   3   5   6 1120.79   65.69
   3   5   6 1128.89   64.29
   3   5   6 1020.20   65.99
   3   5   6 1018.90   67.29
  -4  -5  -6   -6.00    5.40
  -4  -5  -6    4.20    4.60
  -4  -5  -6   -0.20    4.00
  -4  -5  -6    0.60    4.60
  -4  -5  -6   -1.50    4.20
   4   5   6   -2.30    6.00
   4   5   6   -3.90    3.90
   4   5   6    1.00    5.70
   4   5   6    8.30    6.80
   4   5   6    2.50    4.80
   4   5   6   -8.80    9.00
   4   5   6   -5.80    5.70
  -5  -5  -6  703.43   48.60
  -5  -5  -6  764.62   48.00
  -5  -5  -6  760.72   48.10
  -5  -5  -6  754.22   47.80
  -5  -5  -6  775.82   47.90
  -5  -5  -6  713.63   46.60
   5   5   6  755.52   53.59
   5   5   6  789.12   47.90
   5   5   6  761.62   49.00
   5   5   6  784.72   49.60
   5   5   6  834.62   51.29
   5   5   6  745.23   49.90
  -6  -5  -6   72.59    9.90
  -6  -5  -6   68.59    9.00
  -6  -5  -6   44.60    8.30
  -6  -5  -6   77.49   11.90
  -6  -5  -6   47.60    9.40
   6   5   6   54.79    8.20
   6   5   6    8.80   15.20
   6   5   6   42.30    8.90
   6   5   6   33.60    9.40
   6   5   6   67.79   13.80
  -7  -5  -6  377.76   28.00
  -7  -5  -6  350.96   29.30
  -7  -5  -6  363.46   26.60
  -7  -5  -6  391.76   29.20
   7   5   6  374.76   32.50
   7   5   6  388.26   27.40
   7   5   6  361.26   30.20
   7   5   6  390.36   27.90
  -8  -5  -6   21.90    9.80
  -8  -5  -6    2.90    8.40
   8   5   6   13.70    8.40
   8   5   6   18.40    7.60
   8   5   6  -11.50   14.70
   8   5   6  -15.40   11.10
   8   5   6   -7.80   16.30
  -9  -5  -6  165.68   21.10
  -9  -5  -6  137.09   19.90
   9   5   6  173.28   21.10
   9   5   6  136.69   20.20
   9   5   6  172.88   20.60
 -10  -5  -6   10.60   15.00
 -10  -5  -6    0.00   12.00
  10   5   6  -12.00   15.70
  10   5   6    1.80   11.90
  10   5   6    8.80   12.50
   6  -6  -6    3.90   14.20
   6  -6  -6    3.80    9.00
   6  -6  -6  -11.90   12.10
  -6   6   6    2.60    8.20
  -6   6   6    8.80   20.70
  -6   6   6  -41.50   19.50
  -6   6   6    0.70   20.50
   5  -6  -6   -1.50   10.00
   5  -6  -6    0.20   10.90
   5  -6  -6    9.60    7.30
   5  -6  -6   -5.50   16.60
  -5   6   6    2.60    6.00
  -5   6   6    6.80   17.40
  -5   6   6    8.40   19.00
  -5   6   6  -23.10   15.30
  -5   6   6   22.20   13.50
   4  -6  -6  -18.00    7.20
   4  -6  -6   13.20    9.90
   4  -6  -6    0.80    7.10
   4  -6  -6   17.10   11.90
   4  -6  -6   12.20    7.70
  -4   6   6  -19.00    9.00
  -4   6   6    3.40    5.20
  -4   6   6    5.90   16.30
  -4   6   6   13.60   11.80
  -4   6   6    1.30   13.40
   3  -6  -6    7.20   10.60
   3  -6  -6   14.50    6.90
   3  -6  -6   -1.90    6.10
   3  -6  -6    6.60    8.80
   3  -6  -6    9.50    7.10
   3  -6  -6    1.20    7.90
  -3   6   6   -0.10   12.00
  -3   6   6    1.60   12.30
  -3   6   6   -7.30   10.90
  -3   6   6   13.40    8.40
  -3   6   6   13.80    9.30
   2  -6  -6   11.10    5.60
   2  -6  -6   15.50    6.70
   2  -6  -6   28.10    8.70
   2  -6  -6    2.00    6.30
   2  -6  -6   10.50    6.60
   2  -6  -6    9.60   10.30
  -2   6   6    2.30    8.50
  -2   6   6    5.70   10.70
  -2   6   6    4.30   10.80
  -2   6   6   14.20    6.80
  -2   6   6   14.00    9.10
  -2   6   6   14.00    8.00
   1  -6  -6   25.50    5.70
   1  -6  -6   26.20    8.20
   1  -6  -6   25.90    6.10
   1  -6  -6   19.70    6.30
   1  -6  -6   21.80    6.90
   1  -6  -6   37.10    7.60
   1  -6  -6   14.40    7.40
  -1   6   6   32.30    9.80
  -1   6   6   24.90    6.00
  -1   6   6   30.90    8.90
  -1   6   6   33.70    8.10
  -1   6   6   27.60    8.90
  -1   6   6   16.00    5.50
   0  -6  -6  124.39   10.80
   0  -6  -6  116.09   14.60
   0  -6  -6  127.99    9.90
   0  -6  -6  116.29   14.10
   0  -6  -6  109.29   12.10
   0  -6  -6   98.09   11.00
   0  -6  -6   99.39   10.80
   0   6   6  118.79   13.10
   0   6   6  108.89   11.10
   0   6   6  110.19   14.40
   0   6   6  121.39   14.80
   0   6   6  104.89   14.20
   0   6   6  120.59   13.90
  -1  -6  -6    4.80    5.30
  -1  -6  -6    5.40    5.60
  -1  -6  -6    7.00    6.10
  -1  -6  -6   14.80    4.40
  -1  -6  -6   16.30    5.30
   1   6   6    0.70    6.80
   1   6   6   11.40    4.80
   1   6   6    7.50    5.30
   1   6   6   13.10    8.00
   1   6   6   12.30    7.10
   1   6   6   20.70    7.70
  -2  -6  -6  310.87   22.90
  -2  -6  -6  293.07   21.20
  -2  -6  -6  327.57   22.50
  -2  -6  -6  295.67   21.20
  -2  -6  -6  307.77   20.80
  -2  -6  -6  317.57   22.40
   2   6   6  292.57   23.30
   2   6   6  250.27   23.40
   2   6   6  320.27   21.10
   2   6   6  296.67   24.70
   2   6   6  310.67   21.70
   2   6   6  280.77   23.60
  -3  -6  -6   21.20    7.30
  -3  -6  -6   16.20    6.00
  -3  -6  -6   19.00    8.20
  -3  -6  -6   29.30    6.10
  -3  -6  -6   15.30    5.70
  -3  -6  -6   31.20    7.70
   3   6   6   12.30    7.70
   3   6   6   19.50    5.80
   3   6   6   19.90    5.10
   3   6   6   25.10    9.10
   3   6   6   20.50    7.80
   3   6   6   13.60    8.80
  -4  -6  -6  481.75   37.90
  -4  -6  -6  572.04   38.30
  -4  -6  -6  581.34   37.90
  -4  -6  -6  587.94   37.50
  -4  -6  -6  602.24   38.80
  -4  -6  -6  620.04   38.40
   4   6   6  670.33   39.80
   4   6   6  574.44   39.80
   4   6   6  628.94   37.80
   4   6   6  542.55   42.30
   4   6   6  552.74   37.60
   4   6   6  581.04   39.60
  -5  -6  -6    6.70    5.80
  -5  -6  -6  -13.80    6.50
  -5  -6  -6    7.60    5.50
  -5  -6  -6   -1.60    5.80
  -5  -6  -6   -6.90    5.30
  -5  -6  -6    4.80    6.70
   5   6   6   39.80   13.70
   5   6   6    4.30    7.90
   5   6   6    5.50    6.30
   5   6   6    3.90    5.00
   5   6   6    1.20    7.30
   5   6   6   -7.20    8.70
   5   6   6  -10.10    9.20
  -6  -6  -6  394.76   31.30
  -6  -6  -6  439.36   29.30
  -6  -6  -6  409.86   29.90
  -6  -6  -6  434.96   31.80
   6   6   6  426.06   33.80
   6   6   6  460.85   32.40
   6   6   6  434.26   30.10
   6   6   6  406.66   30.90
  -7  -6  -6   22.50    8.30
  -7  -6  -6   23.10    8.30
  -7  -6  -6   31.50   10.80
   7   6   6   24.60    9.30
   7   6   6   35.60    8.40
   7   6   6    8.90    9.90
   7   6   6   -8.80   12.50
  -8  -6  -6  271.57   26.90
  -8  -6  -6  263.17   23.60
  -8  -6  -6  199.18   26.40
   8   6   6  258.77   28.10
   8   6   6  255.47   23.50
   8   6   6  304.07   24.30
  -9  -6  -6    8.00   11.50
  -9  -6  -6   39.10   13.50
   9   6   6   -1.90   13.90
   9   6   6   19.00   10.80
   9   6   6   27.90   11.10
   5  -7  -6   18.80   10.40
   5  -7  -6  -10.90   13.00
   5  -7  -6   11.60    8.50
  -5   7   6   10.20   20.60
  -5   7   6    1.40   20.40
  -5   7   6   -6.60    8.00
  -5   7   6    3.30   16.60
   4  -7  -6    0.00   10.20
   4  -7  -6    1.20   12.10
  -4   7   6    8.10   17.30
  -4   7   6   -3.90   15.20
  -4   7   6    3.80    6.40
  -4   7   6    1.10   17.50
   3  -7  -6   -5.10   12.50
   3  -7  -6    3.20   12.70
   3  -7  -6    5.80    8.90
   3  -7  -6    1.90    8.00
   3  -7  -6    6.50    9.20
   3  -7  -6   -5.40   10.80
  -3   7   6  -12.00   10.90
  -3   7   6  -18.20   15.00
  -3   7   6  -27.60   12.60
   2  -7  -6   -4.80    8.50
   2  -7  -6    3.90    8.10
   2  -7  -6    6.50    6.90
   2  -7  -6    7.00    6.30
   2  -7  -6    2.90    7.70
  -2   7   6    6.70    6.20
  -2   7   6    7.40    5.90
  -2   7   6   24.20   11.70
  -2   7   6    0.80    9.70
  -2   7   6   18.40   10.40
  -2   7   6   23.40   14.90
   1  -7  -6    0.10    5.70
   1  -7  -6  -10.20    6.10
   1  -7  -6   -5.90    7.40
   1  -7  -6    2.20    4.80
  -1   7   6  -20.10   13.70
  -1   7   6   -8.80    6.70
  -1   7   6    6.00    8.60
  -1   7   6   -9.00    7.30
  -1   7   6   11.00    9.90
  -1   7   6   14.10    8.50
  -1   7   6    4.40    6.50
   0  -7  -6    7.00    5.70
   0  -7  -6   -1.80    5.60
   0  -7  -6   -0.50    6.40
   0  -7  -6    4.60    5.20
   0  -7  -6   -5.00    4.80
   0  -7  -6   17.10    8.30
   0  -7  -6    8.80    8.00
   0   7   6    0.90    7.50
   0   7   6    3.40    9.50
   0   7   6    2.30    5.60
   0   7   6   15.20    8.00
   0   7   6   -5.20    6.00
   0   7   6    3.40    8.20
  -1  -7  -6   -3.60    6.10
  -1  -7  -6    6.80    7.60
  -1  -7  -6    6.20    5.00
  -1  -7  -6    2.90    6.10
  -1  -7  -6    4.60    4.90
  -1  -7  -6    6.90    7.10
  -1  -7  -6    7.20    5.30
   1   7   6   20.20    9.10
   1   7   6    0.30    8.30
   1   7   6   19.20    7.20
   1   7   6   16.90   13.40
   1   7   6    7.90    6.10
   1   7   6    3.00    5.20
  -2  -7  -6   25.60    7.10
  -2  -7  -6   28.60   13.10
  -2  -7  -6   15.40    6.20
  -2  -7  -6   17.40    6.50
  -2  -7  -6    5.20    5.90
  -2  -7  -6   19.90    6.30
  -2  -7  -6   13.50    6.30
   2   7   6    9.50    5.70
   2   7   6   17.90    5.80
   2   7   6   19.40    8.50
   2   7   6   -4.40    9.50
   2   7   6   21.40    8.20
   2   7   6   10.60    7.90
  -3  -7  -6   22.00    9.40
  -3  -7  -6   21.90    8.30
  -3  -7  -6   14.30    6.60
  -3  -7  -6   28.90    8.00
  -3  -7  -6   19.70    7.60
  -3  -7  -6   37.50    7.20
  -3  -7  -6   27.30    8.60
   3   7   6   44.30    7.90
   3   7   6   18.30    8.80
   3   7   6   31.00   10.00
   3   7   6   26.10   11.50
   3   7   6   40.40    7.80
   3   7   6   29.90    8.50
  -4  -7  -6   10.60    7.50
  -4  -7  -6    7.80    6.40
  -4  -7  -6    9.50    8.40
  -4  -7  -6    5.60    6.50
  -4  -7  -6    7.70    7.50
   4   7   6   21.50    6.10
   4   7   6   33.90    9.30
   4   7   6    1.50   12.00
   4   7   6    8.60    6.20
   4   7   6   15.30    9.10
   4   7   6    7.40    7.40
  -5  -7  -6   97.29   12.40
  -5  -7  -6   64.09   11.50
  -5  -7  -6   74.09   10.60
  -5  -7  -6   64.89   10.70
   5   7   6   92.39   13.80
   5   7   6   55.79   13.40
   5   7   6   85.99   11.60
   5   7   6   53.19   12.50
   5   7   6   44.80   15.30
   5   7   6   97.79   11.70
  -6  -7  -6   41.20   11.00
  -6  -7  -6   55.59   10.30
  -6  -7  -6   40.80   10.50
  -6  -7  -6   44.00    9.20
   6   7   6   38.00    9.60
   6   7   6   24.60    7.20
   6   7   6   31.40   11.50
   6   7   6   32.90   10.80
  -7  -7  -6  103.39   14.30
  -7  -7  -6   92.09   14.70
  -7  -7  -6   86.19   13.30
  -7  -7  -6   84.49   14.60
   7   7   6  112.49   14.40
   7   7   6  107.49   16.40
  -8  -7  -6   29.70   13.00
  -8  -7  -6   55.39   12.30
  -8  -7  -6   43.70   14.30
  -8  -7  -6   49.90   11.70
   8   7   6   70.39   13.80
   8   7   6   60.19   14.90
   8   7   6   26.30   10.30
  -9  -7  -6   71.49   14.70
  -9  -7  -6   83.49   17.70
   9   7   6   85.89   15.00
   9   7   6   70.09   14.50
   9   7   6   99.19   19.30
   4  -8  -6    7.00   14.30
   4  -8  -6   18.20   10.40
  -4   8   6   33.80   24.20
   3  -8  -6    5.80   15.50
   3  -8  -6    7.50    9.50
   3  -8  -6    8.70   10.90
   3  -8  -6   -5.80   11.70
  -3   8   6  -17.50   13.40
  -3   8   6  -14.90   16.40
  -3   8   6    3.80   18.40
   2  -8  -6   26.10   11.70
   2  -8  -6   19.10   11.00
   2  -8  -6   23.50    9.20
   2  -8  -6   32.70   11.10
  -2   8   6   29.20   12.70
  -2   8   6   47.40   19.80
  -2   8   6   34.70   12.10
  -2   8   6   49.70   15.60
   1  -8  -6   31.80   11.30
   1  -8  -6    3.60    9.10
   1  -8  -6   10.20    8.10
   1  -8  -6    6.70    7.80
   1  -8  -6    4.10    9.50
  -1   8   6   14.50   10.20
  -1   8   6    7.80    7.50
  -1   8   6    3.10   11.40
  -1   8   6   37.40   10.10
  -1   8   6  -16.80   23.20
   0  -8  -6    6.00    9.10
   0  -8  -6   -1.50    7.20
   0  -8  -6   18.20    6.70
   0  -8  -6    4.70    7.70
   0  -8  -6   26.70   10.10
   0  -8  -6    6.70    7.20
   0   8   6   10.10    7.40
   0   8   6   14.90    7.50
   0   8   6    2.10    7.80
   0   8   6    6.20    7.60
   0   8   6   10.80   10.30
   0   8   6    8.30    8.80
   0   8   6   -8.40   14.90
  -1  -8  -6    0.30    6.60
  -1  -8  -6    4.50    7.10
  -1  -8  -6    0.00    8.80
  -1  -8  -6   -1.00    7.10
  -1  -8  -6    8.30    8.40
   1   8   6   -8.70    9.20
   1   8   6    2.70    6.00
   1   8   6  -11.80    9.50
   1   8   6   -4.70   13.10
   1   8   6   11.50    8.80
   1   8   6    2.40    7.00
  -2  -8  -6    7.50    7.00
  -2  -8  -6    4.50    7.40
  -2  -8  -6   17.30    9.50
  -2  -8  -6   12.60    7.30
  -2  -8  -6   15.90    7.50
   2   8   6   -2.40    8.80
   2   8   6   -0.10    6.50
   2   8   6    8.20   10.00
   2   8   6   19.00    9.10
   2   8   6   -2.10    6.50
  -3  -8  -6    0.80    7.10
  -3  -8  -6    2.70    7.70
  -3  -8  -6    7.90    8.10
  -3  -8  -6   27.30   10.80
  -3  -8  -6    0.00    6.30
   3   8   6   -2.60    8.20
   3   8   6    3.90    9.50
   3   8   6   -2.50    6.00
   3   8   6   -1.90   11.70
   3   8   6    3.30    6.20
  -4  -8  -6   29.00    9.40
  -4  -8  -6   11.40    8.60
  -4  -8  -6   24.60   10.90
  -4  -8  -6   17.10    7.20
   4   8   6   18.40   14.00
   4   8   6   20.70    9.70
   4   8   6   16.40    7.50
   4   8   6   23.40    8.10
   4   8   6   19.80   10.20
  -5  -8  -6   22.20    9.30
  -5  -8  -6    1.00    7.60
  -5  -8  -6   18.60   10.70
  -5  -8  -6   14.70    9.20
   5   8   6   18.30   10.00
   5   8   6   11.30    8.30
   5   8   6    2.90   11.00
   5   8   6   31.60   15.40
   5   8   6   24.60    7.90
  -6  -8  -6   44.30   12.50
  -6  -8  -6   41.30   10.20
  -6  -8  -6   36.90   12.20
  -6  -8  -6   39.30   10.20
   6   8   6   45.60   10.20
   6   8   6   50.89   13.10
  -7  -8  -6   23.40    9.30
  -7  -8  -6   54.99   13.10
  -7  -8  -6   43.60   13.00
  -7  -8  -6   26.00   12.00
   7   8   6   17.30   10.70
   7   8   6   51.59   15.30
   7   8   6   27.70   10.90
  -8  -8  -6   10.20   11.70
  -8  -8  -6   36.20   11.80
  -8  -8  -6   28.10   17.00
   8   8   6   28.30   14.00
   8   8   6   27.30   13.20
   8   8   6   24.90   13.50
   8   8   6   29.60   11.80
  -9  -8  -6   19.90   14.70
  -9  -8  -6   11.50   14.10
   9   8   6   49.20   13.30
   9   8   6   33.50   14.80
   9   8   6    9.10   13.30
   9   8   6   10.50   15.60
   3  -9  -6    3.90   10.50
   3  -9  -6  -15.60   13.30
   3  -9  -6  -16.30   11.20
  -3   9   6    4.40   23.90
  -3   9   6   -4.50   15.90
   2  -9  -6   23.50   11.50
   2  -9  -6   -1.60   12.30
   2  -9  -6   18.90   11.00
  -2   9   6  -20.90   18.40
  -2   9   6    5.70   13.60
  -2   9   6   38.10   15.30
  -2   9   6  -23.70   20.00
   1  -9  -6    3.40   12.90
   1  -9  -6  -17.10   10.60
   1  -9  -6    2.40    8.20
   1  -9  -6  -17.00    9.90
  -1   9   6   -4.90   14.70
  -1   9   6   -1.50   18.80
  -1   9   6   10.50   11.50
  -1   9   6    3.90   10.60
   0  -9  -6   58.59   11.00
   0  -9  -6   57.99   12.40
   0  -9  -6   58.99   23.00
   0  -9  -6   54.29   16.30
   0  -9  -6   23.00   11.70
   0   9   6   53.89   10.70
   0   9   6   68.39   12.50
   0   9   6   52.79   14.50
   0   9   6   48.70   20.90
   0   9   6   52.49   11.50
  -1  -9  -6    6.60   11.70
  -1  -9  -6   14.80    9.50
  -1  -9  -6    2.70   10.70
   1   9   6  -14.90   10.70
   1   9   6   -9.40    8.10
   1   9   6  -10.80    8.40
   1   9   6  -16.00   10.60
   1   9   6   11.90   18.70
   1   9   6  -14.10    7.50
  -2  -9  -6   20.90   11.70
  -2  -9  -6   31.30    9.20
  -2  -9  -6   48.80   10.80
  -2  -9  -6   39.20   10.80
  -2  -9  -6   36.10    9.90
   2   9   6   38.20    9.40
   2   9   6  100.99   21.60
   2   9   6   39.90    9.60
   2   9   6   19.10   10.60
   2   9   6   34.10   12.10
  -3  -9  -6   13.40    8.60
  -3  -9  -6    7.40   10.60
  -3  -9  -6    2.80   11.10
  -3  -9  -6   10.20    9.70
  -3  -9  -6  -16.30    8.80
   3   9   6  -23.40   14.20
   3   9   6    0.30   10.30
   3   9   6    7.10    8.10
   3   9   6   -5.40   10.20
   3   9   6    9.40    6.90
   3   9   6   22.20   16.10
  -4  -9  -6   63.49   12.20
  -4  -9  -6   59.19   13.40
  -4  -9  -6   38.90   12.90
   4   9   6   50.59   12.70
   4   9   6   56.99   10.40
   4   9   6   50.09   13.30
   4   9   6   53.19   10.20
   4   9   6   66.59   17.00
  -5  -9  -6   -8.30    9.10
  -5  -9  -6    1.90    9.90
   5   9   6    7.40    9.80
   5   9   6   -1.10    8.10
   5   9   6    5.70   13.60
   5   9   6   16.10   11.50
   5   9   6   34.40   17.80
  -6  -9  -6   11.70   10.10
  -6  -9  -6    9.60    9.90
  -6  -9  -6   10.70   11.50
   6   9   6    8.90    9.50
   6   9   6   25.40   13.70
   6   9   6   -5.70    8.80
  -7  -9  -6   17.60   12.00
  -7  -9  -6   20.00   13.00
   7   9   6    8.40   10.70
   7   9   6   25.70   17.10
   7   9   6    6.40   11.10
  -8  -9  -6   37.60   13.40
  -8  -9  -6   -4.90   11.40
   8   9   6   -7.00   12.60
   8   9   6   37.10   20.50
   8   9   6   -4.20   11.70
   2 -10  -6   21.40   11.80
   2 -10  -6  -14.30   14.60
   2 -10  -6  -12.90   12.20
  -2  10   6   -7.30   15.40
  -2  10   6  -24.40   23.60
   1 -10  -6   40.60   10.20
   1 -10  -6   19.80   13.60
   1 -10  -6   41.90   14.80
  -1  10   6   35.30   25.40
  -1  10   6   47.30   14.50
   0 -10  -6   13.40   14.70
   0 -10  -6   26.80    9.50
   0 -10  -6    8.30   13.40
   0  10   6   11.70   27.80
   0  10   6   -3.50   10.40
   0  10   6   -3.90   11.70
   0  10   6   14.90   21.30
  -1 -10  -6   19.90    8.80
  -1 -10  -6   15.90   13.50
  -1 -10  -6   -9.50   13.00
   1  10   6   -0.50   10.90
   1  10   6   29.80   10.40
   1  10   6   32.80   23.20
   1  10   6   26.80   14.70
   1  10   6   -1.60   12.90
  -2 -10  -6   18.40   11.60
  -2 -10  -6  -13.90   12.10
  -2 -10  -6   10.50    8.50
  -2 -10  -6    1.90   12.10
   2  10   6  -15.40   14.00
   2  10   6   17.40   10.40
   2  10   6   34.70   22.30
   2  10   6   19.30   10.50
   2  10   6   22.60   11.30
   2  10   6    9.60   12.30
  -3 -10  -6   49.99   14.60
  -3 -10  -6   30.50   11.10
  -3 -10  -6   34.00   11.30
  -3 -10  -6   54.79   12.90
   3  10   6   25.60    9.80
   3  10   6   28.50   13.90
   3  10   6   33.70    9.40
   3  10   6   16.40   21.10
   3  10   6   63.29   16.30
   3  10   6   64.79   15.40
  -4 -10  -6   12.40   11.90
  -4 -10  -6   -5.80   11.80
  -4 -10  -6   11.00   13.70
  -4 -10  -6   -1.00   10.70
   4  10   6    9.90    9.00
   4  10   6   21.40   19.30
   4  10   6    3.90    8.90
   4  10   6   -4.30   13.70
   4  10   6  -29.80   16.60
  -5 -10  -6    7.50   11.80
  -5 -10  -6   21.90   13.70
   5  10   6   36.70   16.30
   5  10   6   28.70   10.70
   5  10   6   10.30   20.80
   5  10   6   40.40   20.70
   5  10   6   28.90   10.90
   5  10   6   -1.90   14.20
  -6 -10  -6   62.49   14.00
  -6 -10  -6   64.39   16.40
   6  10   6   44.60   17.40
   6  10   6   57.89   20.70
   6  10   6   46.00   12.10
   6  10   6   60.29   12.70
  -7 -10  -6   10.20   12.60
  -7 -10  -6   -2.80   11.90
   7  10   6   12.10   20.10
   7  10   6   -6.50   21.60
   7  10   6   14.00   11.10
   7  10   6  -10.30   10.80
   0 -11  -6  -14.60   17.80
   0 -11  -6  -12.50    9.70
   0 -11  -6  -21.00   16.50
   0  11   6    1.40   13.60
   0  11   6   29.60   15.20
   0  11   6   35.20   29.40
  -1 -11  -6  -19.70   15.80
  -1 -11  -6   18.90   18.60
  -1 -11  -6   22.10    9.90
   1  11   6   54.29   29.70
   1  11   6  -11.00   12.30
   1  11   6    0.70   13.40
  -2 -11  -6    9.80   15.00
  -2 -11  -6  -36.70   13.80
  -2 -11  -6    8.60   10.90
   2  11   6   36.80   28.40
   2  11   6   13.20   12.20
   2  11   6  -17.10   11.50
  -3 -11  -6   37.50   15.20
  -3 -11  -6   45.40   15.80
  -3 -11  -6   14.60   10.40
   3  11   6   52.19   26.40
   3  11   6   36.50   12.50
   3  11   6   25.80   11.10
  -4 -11  -6   20.20   13.40
  -4 -11  -6   44.70   13.80
  -4 -11  -6   35.60   18.00
   4  11   6   -4.70   25.40
   4  11   6    8.10   10.50
   4  11   6   -2.40   11.60
  -5 -11  -6   84.99   19.40
  -5 -11  -6  103.99   22.10
  -5 -11  -6   91.09   17.40
   5  11   6  109.19   27.20
   5  11   6   64.99   13.50
   5  11   6   92.09   14.00
  -6 -11  -6    1.20   15.90
  -6 -11  -6    7.40   14.30
   6  11   6    0.80   11.40
   6  11   6   -5.00   11.80
   6  11   6   13.90   22.60
   3   9  -7  157.28   25.10
  -3  -9   7  121.19   15.50
  -3  -9   7  128.79   30.80
  -2  -9   7   41.60    9.90
  -2  -9   7   20.80   24.60
  -1  -9   7   49.60    9.70
  -1  -9   7   52.49   10.80
  -1  -9   7   55.49   23.20
   5   8  -7   28.50   17.30
  -5  -8   7   -0.40    7.40
  -5  -8   7    7.40   14.60
  -5  -8   7  -13.70   22.50
  -5  -8   7    8.10   11.70
   4   8  -7  368.66   38.10
  -4  -8   7  377.46   24.20
  -4  -8   7  367.96   31.80
  -4  -8   7  396.56   48.10
  -4  -8   7  342.87   27.70
   3   8  -7   15.60   15.80
  -3  -8   7   23.40    8.70
  -3  -8   7   16.00   20.00
  -3  -8   7    2.20   11.50
   2   8  -7  311.37   31.70
  -2  -8   7  259.47   25.10
  -2  -8   7  239.78   18.10
  -2  -8   7  235.18   20.10
  -2  -8   7  240.18   30.40
  -1  -8   7    5.00    7.90
  -1  -8   7    5.20    6.40
  -1  -8   7   22.50   18.30
   0  -8   7  111.19   13.20
   0  -8   7  110.29   12.70
  -1   8  -7   -6.20   10.40
   1  -8   7    4.90    6.50
   1  -8   7   -8.00    9.30
   1  -8   7    1.60   19.50
  -2   8  -7   77.39   15.00
   2  -8   7   61.49   13.40
   2  -8   7   57.39   10.20
   6   7  -7   29.60    7.60
   6   7  -7   16.30   14.70
  -6  -7   7   80.39   25.00
  -6  -7   7   44.80   17.50
  -6  -7   7   15.80   14.60
   5   7  -7  315.07   22.00
   5   7  -7  373.56   33.00
  -5  -7   7  336.17   24.30
  -5  -7   7  326.67   22.20
  -5  -7   7  330.07   30.40
  -5  -7   7  363.26   42.70
  -5  -7   7  276.57   28.00
  -5  -7   7  282.07   24.20
   4   7  -7   91.99   17.80
  -4  -7   7   90.59   10.50
  -4  -7   7   89.39   13.70
  -4  -7   7   90.29   14.90
  -4  -7   7   64.39   23.70
  -4  -7   7  131.99   13.30
  -4  -7   7  114.69   10.80
  -4  -7   7  118.39   25.10
   3   7  -7  544.15   41.50
  -3  -7   7  517.75   31.40
  -3  -7   7  537.05   45.80
  -3  -7   7  521.95   31.80
  -3  -7   7  504.65   32.80
  -3  -7   7  516.55   35.50
  -3  -7   7  382.46   48.00
   2   7  -7   82.49   16.90
  -2  -7   7  102.59   23.20
  -2  -7   7   95.09   11.60
  -2  -7   7   98.69    9.90
  -2  -7   7  100.49   12.70
  -2  -7   7  100.29   11.80
  -2  -7   7  100.59   13.10
  -2  -7   7  105.39    9.50
   1   7  -7  342.67   37.90
   1   7  -7  481.55   36.80
  -1  -7   7  424.86   27.50
  -1  -7   7  421.26   28.20
  -1  -7   7  441.66   28.10
  -1  -7   7  450.55   30.70
   0   7  -7   64.59   18.10
   0  -7   7   77.99    9.50
   0  -7   7   77.19   13.00
   0  -7   7   93.99   11.20
   0  -7   7   40.10   15.40
  -1   7  -7  200.28   19.90
   1  -7   7  166.08   21.70
   1  -7   7  156.68   17.20
   1  -7   7  176.88   24.90
   1  -7   7  152.68   13.40
  -2   7  -7   45.10   11.10
  -2   7  -7   28.30   18.10
   2  -7   7   35.10    6.90
   2  -7   7   29.40   10.30
   2  -7   7   15.00   13.00
   2  -7   7   43.10    7.50
  -3   7  -7   20.70   20.60
  -3   7  -7   46.70   12.50
   3  -7   7   58.39   13.10
   3  -7   7   37.50    8.40
   3  -7   7   32.00    7.70
   7   6  -7   41.50    7.20
   7   6  -7   40.60   16.10
  -7  -6   7   54.09   18.20
  -7  -6   7   61.79   16.90
  -7  -6   7   64.59   24.70
   6   6  -7   35.30    6.40
   6   6  -7   16.90   13.80
  -6  -6   7    2.70   17.20
  -6  -6   7   48.30   14.40
  -6  -6   7   15.30   15.20
   5   6  -7  153.18   12.60
   5   6  -7  130.69   19.10
   5   6  -7  165.38   15.20
  -5  -6   7  169.08   20.80
  -5  -6   7  175.78   20.70
  -5  -6   7  153.98   15.20
  -5  -6   7  203.58   28.50
  -5  -6   7  162.88   13.30
  -5  -6   7  150.88   14.10
  -4  -6   7  102.39   10.90
  -4  -6   7  122.79   12.60
  -4  -6   7  139.79   16.50
  -4  -6   7  133.39   11.40
  -4  -6   7  120.29   23.10
  -4  -6   7  130.49   16.70
  -4  -6   7  144.09   16.80
  -4  -6   7  142.09   22.60
   3   6  -7  191.58   28.00
   3   6  -7  243.08   24.20
  -3  -6   7  226.18   16.40
  -3  -6   7  250.77   17.40
  -3  -6   7  241.18   21.20
  -3  -6   7  248.38   20.90
  -3  -6   7  189.78   27.70
  -3  -6   7  249.38   31.30
  -3  -6   7  246.98   20.60
  -3  -6   7  282.37   17.00
   2   6  -7  146.69   19.50
   2   6  -7  134.89   34.60
  -2  -6   7  128.29   11.00
  -2  -6   7  117.89   14.20
  -2  -6   7  145.49   10.50
  -2  -6   7  147.29   11.20
  -2  -6   7  111.09   19.70
  -2  -6   7  153.38   11.60
  -2  -6   7  125.89   23.60
  -2  -6   7  132.79   16.30
  -2  -6   7  111.89   14.40
  -2  -6   7  129.59   14.10
   1   6  -7  330.97   28.10
  -1  -6   7  320.37   20.70
  -1  -6   7  329.57   20.90
  -1  -6   7  338.67   22.10
  -1  -6   7  318.37   23.60
  -1  -6   7  314.07   21.40
  -1  -6   7  292.27   27.30
  -1  -6   7  312.97   21.00
   0   6  -7   73.69   17.20
   0   6  -7   99.79   13.30
   0   6  -7  103.79   15.70
   0  -6   7  108.59   12.00
   0  -6   7  130.29   18.80
   0  -6   7  108.69    9.50
   0  -6   7   77.09   15.40
   0  -6   7  109.89   13.70
   0  -6   7  108.79    9.10
  -1   6  -7  303.37   22.50
   1  -6   7  243.18   25.90
   1  -6   7  253.37   19.00
   1  -6   7  261.77   16.90
   1  -6   7  261.07   17.00
   1  -6   7  236.58   20.60
   1  -6   7  250.77   21.20
  -2   6  -7    9.90   13.50
  -2   6  -7   39.00   10.30
   2  -6   7   40.80    7.00
   2  -6   7   34.00    8.60
   2  -6   7   30.70    9.70
   2  -6   7   33.50    5.70
   2  -6   7   28.30   10.70
  -3   6  -7   90.79   12.70
  -3   6  -7   89.69   18.40
   3  -6   7  102.29   11.50
   3  -6   7   83.99    9.50
   3  -6   7  102.29   15.70
   3  -6   7   91.69   13.60
   3  -6   7   94.09   10.50
   3  -6   7   90.89   14.00
   3  -6   7   71.59   11.80
  -4   6  -7    3.00    8.70
  -4   6  -7    5.30   14.60
   4  -6   7   13.50    7.10
   4  -6   7   24.50   11.50
   4  -6   7   20.20   12.20
   4  -6   7    9.40    7.20
   4  -6   7   23.40    6.90
  -5   6  -7   19.00   17.40
  -5   6  -7   22.90   10.20
   5  -6   7   31.90    8.60
   5  -6   7   32.30    9.50
   5  -6   7   38.50    9.20
   5  -6   7   35.10   13.70
   8   5  -7    1.80   15.60
  -8  -5   7   -1.30   25.10
   7   5  -7   16.60    5.00
   7   5  -7   35.50   13.90
   7   5  -7   25.90    6.10
  -7  -5   7   11.30   14.50
  -7  -5   7   22.60   15.90
  -7  -5   7   -1.30   18.70
   6   5  -7   14.30    9.20
   6   5  -7   -0.30    4.40
   6   5  -7   -9.80   11.50
  -6  -5   7    9.30    8.60
  -6  -5   7   34.90   13.50
  -6  -5   7   -9.00   10.70
  -6  -5   7    1.30   16.70
  -6  -5   7   10.80   12.50
  -6  -5   7   20.40   16.30
   5   5  -7   11.70    6.90
   5   5  -7    8.50    3.90
   5   5  -7   12.10    9.80
  -5  -5   7   38.90   16.30
  -5  -5   7   -1.40    4.50
  -5  -5   7   11.40    6.70
  -5  -5   7   13.30   10.90
  -5  -5   7    8.40   17.00
  -5  -5   7   23.90   10.50
  -5  -5   7    9.00    8.40
  -5  -5   7    4.60    6.40
   4   5  -7   69.39   15.50
   4   5  -7   84.09   10.40
   4   5  -7   94.49   14.00
  -4  -5   7   75.79    8.60
  -4  -5   7   90.59   13.70
  -4  -5   7   69.79   12.50
  -4  -5   7   73.19    8.60
  -4  -5   7   68.99   17.30
  -4  -5   7  105.59   20.70
  -4  -5   7   76.99    8.40
  -4  -5   7   87.89   10.60
   3   5  -7   -3.10    4.30
   3   5  -7   -3.50    7.80
   3   5  -7  -11.90    8.70
  -3  -5   7    5.60    6.10
  -3  -5   7    6.60    4.10
  -3  -5   7    0.10    3.90
  -3  -5   7    4.20    3.70
  -3  -5   7    2.40    7.50
  -3  -5   7   -7.60   13.70
  -3  -5   7   13.80   12.40
  -3  -5   7   -9.50    6.90
   2   5  -7  121.59   15.40
   2   5  -7  108.69   18.70
  -2  -5   7   88.59   12.30
  -2  -5   7  103.39    9.10
  -2  -5   7  113.49   12.30
  -2  -5   7  109.59   10.30
  -2  -5   7  119.29    9.60
  -2  -5   7   93.19   11.10
  -2  -5   7  123.29    9.70
  -2  -5   7   97.69   17.40
  -2  -5   7   91.79   11.90
  -2  -5   7  111.29   20.00
   1   5  -7   13.70    8.00
   1   5  -7    4.70    9.80
  -1  -5   7    0.20    5.60
  -1  -5   7    9.80    5.40
  -1  -5   7    4.90    4.50
  -1  -5   7    8.50    7.00
  -1  -5   7    3.50    5.80
  -1  -5   7    7.80    3.00
  -1  -5   7    8.10    3.40
  -1  -5   7   -0.40   14.20
  -1  -5   7    4.30    3.90
  -1  -5   7   -8.20    9.90
  -1  -5   7    7.30    3.80
   0   5  -7  337.37   26.00
   0   5  -7  323.37   23.90
   0  -5   7  296.67   24.50
   0  -5   7  303.67   19.30
   0  -5   7  350.06   20.60
   0  -5   7  309.67   19.50
   0  -5   7  331.27   20.90
   0  -5   7  319.67   21.70
   0  -5   7  360.66   36.20
   0  -5   7  288.07   21.40
   0  -5   7  322.67   22.30
   0  -5   7  304.97   20.40
  -1   5  -7   -7.60    5.50
  -1   5  -7    3.30    9.90
   1  -5   7    6.00    6.00
   1  -5   7   -3.30    6.20
   1  -5   7   -1.20    2.40
   1  -5   7    1.60    7.80
   1  -5   7    6.80    5.20
   1  -5   7    1.90    3.30
   1  -5   7    6.70    5.30
   1  -5   7   -2.80    4.30
  -2   5  -7  127.79   20.80
  -2   5  -7  146.69   14.60
   2  -5   7  141.89   15.20
   2  -5   7  152.38   15.10
   2  -5   7  152.58   11.40
   2  -5   7  133.79   14.80
   2  -5   7  149.99   16.50
   2  -5   7  137.09   11.90
   2  -5   7  117.39   13.90
  -3   5  -7    8.20   10.80
  -3   5  -7   11.10    6.70
   3  -5   7    5.10    7.70
   3  -5   7   11.30    9.40
   3  -5   7   15.50    8.20
   3  -5   7   -7.90   10.40
   3  -5   7    7.30    4.90
   3  -5   7    8.90    5.50
   3  -5   7    5.00    3.90
  -4   5  -7  154.38   23.30
  -4   5  -7  106.19   14.30
   4  -5   7  128.09   15.30
   4  -5   7   79.69   16.30
   4  -5   7   94.79   15.40
   4  -5   7  105.49   11.00
   4  -5   7  102.29   15.00
   4  -5   7  113.79   12.10
   4  -5   7  109.39   12.40
  -5   5  -7    3.60    8.70
  -5   5  -7   16.60   14.10
   5  -5   7    4.20    6.60
   5  -5   7   12.50   15.00
   5  -5   7   15.50   13.00
   5  -5   7    8.50    7.10
   5  -5   7   -6.40    6.40
  -6   5  -7   27.70   10.70
   6  -5   7   19.40    9.50
   6  -5   7   18.20    8.70
   6  -5   7   26.40   13.80
   8   4  -7   20.10   14.80
   8   4  -7   -6.00    7.80
  -8  -4   7    4.90   16.20
  -8  -4   7   -3.80   19.90
  -8  -4   7  -44.40   24.90
   7   4  -7   77.69    7.90
   7   4  -7   69.89   15.60
   7   4  -7   81.59   11.10
   7   4  -7   48.70   14.60
  -7  -4   7   80.59   18.20
  -7  -4   7   74.79   16.70
  -7  -4   7   51.69   23.60
  -7  -4   7   55.79   17.70
   6   4  -7   -3.20   10.70
   6   4  -7   -1.40    5.60
   6   4  -7    2.60    4.80
   6   4  -7   -6.00    3.60
  -6  -4   7   -2.40    7.60
  -6  -4   7    4.10    5.80
  -6  -4   7    8.20    8.90
  -6  -4   7  -20.60   11.00
  -6  -4   7   11.30   17.00
  -6  -4   7   -0.50   11.20
   5   4  -7   97.49   12.70
   5   4  -7  107.89   15.20
   5   4  -7  105.09    9.00
   5   4  -7  104.79    8.00
   5   4  -7   99.69   17.80
   5   4  -7  105.49    9.20
  -5  -4   7  102.59   12.70
  -5  -4   7  129.99   16.30
  -5  -4   7  122.69   13.20
  -5  -4   7  116.39   16.40
  -5  -4   7  111.99   11.00
   4   4  -7   15.30    6.20
   4   4  -7   11.00    8.60
   4   4  -7   -2.00    9.10
  -4  -4   7   11.60    5.20
  -4  -4   7   14.20    4.50
  -4  -4   7    1.60    8.00
  -4  -4   7   13.70   12.50
  -4  -4   7    6.60    3.90
  -4  -4   7   16.80    6.40
  -4  -4   7   20.00    9.40
   3   4  -7   67.29    8.40
   3   4  -7   77.59   14.50
   3   4  -7   65.29   11.00
   3   4  -7   65.79    9.00
  -3  -4   7   63.29    8.60
  -3  -4   7   74.99   11.30
  -3  -4   7   79.19    7.60
  -3  -4   7   86.59   11.70
  -3  -4   7   67.69    7.90
  -3  -4   7   65.09    9.10
  -3  -4   7   62.59   13.70
   2   4  -7  104.49   18.10
   2   4  -7  161.88   16.10
   2   4  -7  155.78   11.60
   2   4  -7  148.79   11.80
  -2  -4   7  172.48   20.90
  -2  -4   7  136.89   14.40
  -2  -4   7  157.58   11.10
  -2  -4   7  175.88   12.10
  -2  -4   7  145.39   11.70
  -2  -4   7  126.09   14.50
  -2  -4   7  179.68   13.10
  -2  -4   7  166.08   12.00
  -2  -4   7  138.29   22.70
  -2  -4   7  164.18   10.80
   1   4  -7   -2.00    5.70
   1   4  -7   -1.00    8.50
  -1  -4   7    2.10    8.70
  -1  -4   7    0.60    2.20
  -1  -4   7    9.40    4.30
  -1  -4   7  -10.00    8.00
  -1  -4   7   35.80   13.30
  -1  -4   7    5.30    5.40
  -1  -4   7    3.60    4.90
  -1  -4   7    1.30    3.50
  -1  -4   7    0.00    4.20
  -1  -4   7   -5.00    5.40
  -1  -4   7   -1.10    2.00
   0   4  -7   -1.10    6.40
   0   4  -7    6.70    5.10
   0   4  -7  -15.10    6.90
   0  -4   7   -2.90    4.40
   0  -4   7   -5.30    4.60
   0  -4   7   -5.00    9.40
   0  -4   7   -0.40    3.50
   0  -4   7  -13.00   13.30
   0  -4   7    3.00    3.60
   0  -4   7   -2.10    3.50
   0  -4   7   -0.10    3.40
  -1   4  -7   63.69   12.20
  -1   4  -7   51.99    9.50
  -1   4  -7   60.39    8.60
   1  -4   7   46.00    7.20
   1  -4   7   68.69    8.80
   1  -4   7   55.29    7.60
   1  -4   7   58.89    7.00
   1  -4   7   34.50   14.10
   1  -4   7   20.60   16.80
   1  -4   7   46.90    6.40
   1  -4   7   58.89    8.10
  -2   4  -7   -0.10    8.20
  -2   4  -7    4.30    4.70
   2  -4   7    3.40    5.90
   2  -4   7    3.20    5.90
   2  -4   7   13.70    6.10
   2  -4   7    2.60    4.00
   2  -4   7    8.30    3.80
   2  -4   7    5.00    5.40
   2  -4   7   -3.10    5.90
  -3   4  -7   11.00    5.50
  -3   4  -7   15.70    9.10
   3  -4   7    6.10    6.90
   3  -4   7   11.70    7.50
   3  -4   7   15.90    5.60
   3  -4   7   11.50    7.50
   3  -4   7   12.10    8.80
   3  -4   7   14.20   10.20
   3  -4   7   14.30    5.50
  -4   4  -7    0.90    3.70
  -4   4  -7   -1.30    9.50
  -4   4  -7    1.10    5.40
   4  -4   7   10.10    7.90
   4  -4   7    3.10   11.20
   4  -4   7    5.50    5.90
   4  -4   7   -0.80    9.70
   4  -4   7    7.60    7.10
   4  -4   7    7.90    5.80
   4  -4   7    2.70    4.30
  -5   4  -7   13.70    6.80
  -5   4  -7   30.30   11.70
  -5   4  -7   14.20    7.60
   5  -4   7   17.30    6.60
   5  -4   7    0.30   10.60
   5  -4   7   23.40   14.80
   5  -4   7   15.30    5.80
   5  -4   7   28.80    9.00
   5  -4   7   24.50    7.90
  -6   4  -7   -3.10    8.60
  -6   4  -7    5.10   12.20
   6  -4   7   14.70   11.50
   6  -4   7    0.70    6.70
   6  -4   7   11.70    8.20
   6  -4   7  -10.80    7.00
   8   3  -7  123.29   21.40
   8   3  -7  120.19   16.50
  -8  -3   7  127.49   29.40
  -8  -3   7  145.39   26.10
  -8  -3   7  120.89   21.00
  -8  -3   7  115.79   19.50
   7   3  -7   56.19    6.60
   7   3  -7   64.09    9.30
   7   3  -7   37.00   14.40
   7   3  -7   65.79   10.80
  -7  -3   7   66.89   22.60
  -7  -3   7   66.19   17.30
  -7  -3   7   66.69   19.60
   6   3  -7  317.37   27.10
   6   3  -7  320.17   20.90
   6   3  -7  343.67   24.40
   6   3  -7  370.16   31.80
   6   3  -7  378.06   23.70
  -6  -3   7  350.06   25.60
  -6  -3   7  335.77   25.80
  -6  -3   7  358.06   31.90
  -6  -3   7  383.56   25.10
  -6  -3   7  368.16   37.60
  -6  -3   7  382.06   33.20
   5   3  -7  344.37   20.50
   5   3  -7  345.67   27.20
   5   3  -7  284.17   20.50
   5   3  -7  290.17   27.90
   5   3  -7  245.08   22.60
  -5  -3   7  299.17   27.20
  -5  -3   7  361.16   33.40
  -5  -3   7  348.97   27.60
  -5  -3   7  299.97   21.30
  -5  -3   7  318.27   22.10
  -5  -3   7  300.17   21.70
   4   3  -7  156.88   10.90
   4   3  -7  154.28   19.80
   4   3  -7  144.59   11.10
   4   3  -7  114.69   13.20
   4   3  -7  154.38   16.90
  -4  -3   7  140.99   12.00
  -4  -3   7  152.98   21.70
  -4  -3   7  149.29   11.80
  -4  -3   7  189.08   23.20
  -4  -3   7  154.28   17.50
  -4  -3   7  148.39   18.10
  -4  -3   7  138.19   12.50
  -4  -3   7  156.18   12.30
   3   3  -7  250.67   20.10
   3   3  -7  263.87   25.10
   3   3  -7  296.67   20.20
   3   3  -7  287.67   18.40
   3   3  -7  304.57   23.40
   3   3  -7  322.07   18.30
  -3  -3   7  299.87   20.30
  -3  -3   7  307.17   23.80
  -3  -3   7  285.37   22.70
  -3  -3   7  311.77   19.70
  -3  -3   7  300.57   19.70
  -3  -3   7  303.37   19.60
  -3  -3   7  338.77   27.20
   2   3  -7   69.09   10.30
   2   3  -7   42.40   10.60
   2   3  -7   59.69    5.80
   2   3  -7   57.69    7.20
   2   3  -7   60.69    7.60
  -2  -3   7   70.19    6.10
  -2  -3   7   70.59    7.00
  -2  -3   7   81.39   10.20
  -2  -3   7   55.39    7.40
  -2  -3   7   63.49    8.00
  -2  -3   7   57.59    9.40
  -2  -3   7   40.40   11.20
  -2  -3   7   77.19   13.40
   1   3  -7 1364.16   76.89
   1   3  -7 1315.77   77.09
   1   3  -7 1420.36   79.69
   1   3  -7 1296.67   76.79
   1   3  -7 1346.57   82.09
  -1  -3   7 1265.17   77.39
  -1  -3   7 1359.26   77.69
  -1  -3   7 1301.37   77.59
  -1  -3   7 1236.88   76.59
  -1  -3   7 1109.99   77.79
  -1  -3   7 1444.36   77.49
   0   3  -7   22.60    5.10
   0   3  -7   18.50    3.70
   0   3  -7   12.60    5.80
   0   3  -7   25.10    4.40
   0   3  -7   29.80    8.90
   0   3  -7   16.30    3.50
   0  -3   7   14.80    4.10
   0  -3   7   21.00    4.50
   0  -3   7   18.00    5.60
   0  -3   7   24.90    4.60
   0  -3   7   19.80    4.50
   0  -3   7   21.00    4.50
   0  -3   7    9.00    9.80
  -1   3  -7   41.80    6.00
  -1   3  -7   34.00    6.80
  -1   3  -7   45.10    9.90
  -1   3  -7   34.20    4.70
  -1   3  -7   47.40    6.60
  -1   3  -7   42.00    7.30
   1  -3   7   42.20    6.40
   1  -3   7   40.10    6.00
   1  -3   7   33.60    5.30
   1  -3   7   43.60    6.50
   1  -3   7   30.70   13.90
   1  -3   7   38.00    6.10
   1  -3   7   45.10    6.30
  -2   3  -7    1.90    3.90
  -2   3  -7   -3.50    6.40
  -2   3  -7    6.60    5.00
  -2   3  -7    3.60    2.40
  -2   3  -7    5.10    3.70
   2  -3   7    8.30    5.50
   2  -3   7   -4.60   15.50
   2  -3   7    8.80    4.60
   2  -3   7    7.70    3.70
   2  -3   7   -4.00    4.90
   2  -3   7    0.10    4.80
   2  -3   7    0.80    3.40
  -3   3  -7   13.80    5.30
  -3   3  -7   15.60    6.30
  -3   3  -7   12.20    3.30
  -3   3  -7   10.60    4.50
  -3   3  -7   16.00    8.80
   3  -3   7    8.40    5.10
   3  -3   7    0.40    6.80
   3  -3   7   13.60    5.30
   3  -3   7    9.40    5.90
   3  -3   7   10.00    7.90
  -4   3  -7   65.39    8.20
  -4   3  -7   87.49   12.60
  -4   3  -7   69.29    9.70
   4  -3   7   82.99   13.40
   4  -3   7   65.59   10.40
   4  -3   7   73.09   10.10
   4  -3   7   79.39    9.70
   4  -3   7   60.69   11.30
  -5   3  -7   10.40    7.10
  -5   3  -7   21.40    6.70
  -5   3  -7   19.50    9.60
  -5   3  -7   17.80    6.40
   5  -3   7    2.20   16.40
   5  -3   7   26.40    6.30
   5  -3   7   27.30   10.20
   5  -3   7   14.30    6.50
   5  -3   7   11.80   13.20
  -6   3  -7   22.90    9.00
  -6   3  -7   19.20   10.90
  -6   3  -7   21.70    8.20
   6  -3   7   20.10   12.30
   6  -3   7    5.10    9.90
   6  -3   7   10.40    7.80
   6  -3   7   17.30    7.10
  -7   3  -7    1.70   10.00
  -7   3  -7   10.70   11.50
   7  -3   7    0.80   11.00
   7  -3   7   -5.20    9.20
   7  -3   7    2.40    8.00
   8   2  -7   66.59   17.20
   8   2  -7   90.19   20.20
   8   2  -7   84.99   13.20
  -8  -2   7  127.79   28.70
  -8  -2   7   95.89   19.90
  -8  -2   7   82.19   22.80
  -8  -2   7   78.19   18.40
   7   2  -7  -10.70   13.10
   7   2  -7   10.90    7.70
   7   2  -7   -6.90   11.40
   7   2  -7   12.00    5.40
  -7  -2   7   17.40    8.60
  -7  -2   7    9.00   14.60
  -7  -2   7   28.60   19.50
  -7  -2   7   18.80   15.20
   6   2  -7  362.26   26.00
   6   2  -7  349.37   28.20
   6   2  -7  350.96   32.40
   6   2  -7  408.36   25.40
  -6  -2   7  317.97   26.60
  -6  -2   7  419.06   45.00
  -6  -2   7  371.16   26.20
  -6  -2   7  413.56   33.40
   5   2  -7   49.50   11.50
   5   2  -7   35.40    8.90
   5   2  -7   30.20   10.80
   5   2  -7   39.20    6.40
   5   2  -7   34.10    6.70
  -5  -2   7   46.50    7.00
  -5  -2   7   44.50    7.80
  -5  -2   7   47.20   11.70
  -5  -2   7   49.90    7.50
  -5  -2   7   32.60   12.00
  -5  -2   7   37.80   14.20
   4   2  -7  844.62   55.59
   4   2  -7  807.42   54.49
   4   2  -7  881.91   50.19
   4   2  -7  873.71   50.29
   4   2  -7  712.53   51.39
  -4  -2   7  839.42   50.69
  -4  -2   7  867.01   49.80
  -4  -2   7  855.51   54.29
  -4  -2   7  917.01   55.49
  -4  -2   7  898.11   57.89
  -4  -2   7  774.62   50.39
  -4  -2   7  800.12   50.29
   3   2  -7  130.29    9.50
   3   2  -7  102.39   16.60
   3   2  -7  140.19   15.10
   3   2  -7  108.59   11.00
   3   2  -7  138.09    8.20
  -3  -2   7  125.99   13.90
  -3  -2   7   94.99   15.90
  -3  -2   7  129.29    9.50
  -3  -2   7  127.19   16.20
  -3  -2   7  120.39   10.10
  -3  -2   7  121.09   11.10
  -3  -2   7  156.78   18.80
   2   2  -7  824.32   59.89
   2   2  -7  924.41   56.49
   2   2  -7  889.61   56.79
   2   2  -7 1033.70   55.19
   2   2  -7  924.41   55.49
   2   2  -7 1088.99   55.39
   2   2  -7  999.50   58.99
  -2  -2   7  823.32   58.79
  -2  -2   7  947.11   56.89
  -2  -2   7  975.90   55.79
  -2  -2   7  777.32   60.49
  -2  -2   7  991.20   55.39
  -2  -2   7 1013.70   58.69
  -2  -2   7  965.50   56.39
  -2  -2   7  941.81   61.29
   1   2  -7  340.97   24.30
   1   2  -7  332.87   18.40
   1   2  -7  278.07   19.40
   1   2  -7  284.67   20.80
   1   2  -7  293.67   17.80
   1   2  -7  299.57   19.10
  -1  -2   7  261.57   17.50
  -1  -2   7  279.47   25.80
  -1  -2   7  282.27   19.60
  -1  -2   7  237.98   19.10
  -1  -2   7  305.77   19.70
   0   2  -7  416.86   28.20
   0   2  -7  332.47   23.20
   0   2  -7  360.36   23.90
   0   2  -7  385.56   23.40
   0   2  -7  376.16   23.20
   0   2  -7  366.06   24.80
   0  -2   7  408.16   24.40
   0  -2   7  342.07   23.70
   0  -2   7  389.06   25.40
   0  -2   7  343.27   23.60
   0  -2   7  369.36   22.80
   0  -2   7  377.36   24.20
  -1   2  -7   10.10    3.40
  -1   2  -7    8.90    5.10
  -1   2  -7   17.80    4.00
  -1   2  -7    1.70    6.10
  -1   2  -7   11.90    3.80
  -1   2  -7   11.80    3.00
   1  -2   7    9.40    4.30
   1  -2   7    6.40    4.20
   1  -2   7    9.70    4.00
   1  -2   7   20.70    4.80
   1  -2   7   13.20    3.70
   1  -2   7    7.60    3.70
  -2   2  -7  399.76   26.00
  -2   2  -7  438.36   29.50
  -2   2  -7  407.96   25.60
  -2   2  -7  386.26   26.00
  -2   2  -7  394.46   26.60
  -2   2  -7  395.06   24.60
   2  -2   7  384.96   25.30
   2  -2   7  403.86   25.80
   2  -2   7  369.96   26.20
   2  -2   7  435.66   36.60
   2  -2   7  417.86   27.10
   2  -2   7  391.56   26.60
  -3   2  -7    2.20    6.40
  -3   2  -7   -2.80    4.50
  -3   2  -7   13.10    3.90
  -3   2  -7   -3.00    4.00
  -3   2  -7   -1.70    4.80
   3  -2   7   -6.40    6.50
   3  -2   7    5.50   13.40
   3  -2   7    3.20    4.60
   3  -2   7   -2.00    3.70
   3  -2   7    2.30    5.70
   3  -2   7    0.70    4.30
  -4   2  -7  171.28   11.70
  -4   2  -7  209.58   19.10
  -4   2  -7  154.78   13.30
  -4   2  -7  194.38   14.90
  -4   2  -7  163.78   15.50
   4  -2   7  122.39   15.80
   4  -2   7  159.78   14.40
   4  -2   7  168.78   14.00
   4  -2   7  123.69   18.00
   4  -2   7  200.28   15.90
  -5   2  -7    9.10    4.80
  -5   2  -7   19.50    8.80
  -5   2  -7   24.40    7.30
  -5   2  -7   15.40    6.00
   5  -2   7   27.90    8.10
   5  -2   7   18.50    6.40
   5  -2   7   22.10    6.00
   5  -2   7    5.10    8.10
   5  -2   7   26.10   12.40
  -6   2  -7   49.30   10.70
  -6   2  -7   24.50    7.00
  -6   2  -7   34.80    7.70
   6  -2   7   34.50    8.20
   6  -2   7    5.10   13.60
   6  -2   7   33.30    8.20
   6  -2   7   22.40    9.10
  -7   2  -7    7.30    5.60
  -7   2  -7    5.70    9.70
  -7   2  -7   19.70   10.90
   7  -2   7    3.50    7.10
   7  -2   7   21.20   10.90
   7  -2   7   -6.70   10.90
  -8   2  -7   19.30   12.70
  -8   2  -7  -12.60   11.50
   8  -2   7   19.00   10.80
   8  -2   7    5.10   12.50
   8   1  -7   30.70   12.80
   8   1  -7    8.80   15.50
   8   1  -7   18.10   14.20
   8   1  -7   18.80   10.30
  -8  -1   7   14.50   15.40
  -8  -1   7  -12.10   24.20
  -8  -1   7   30.00   16.50
  -8  -1   7   17.70   23.10
   7   1  -7  134.39   16.30
   7   1  -7  137.19   12.50
   7   1  -7  172.28   17.60
   7   1  -7  136.39   20.80
   7   1  -7  199.68   22.10
   7   1  -7  163.68   11.60
   7   1  -7  183.58   12.90
   7   1  -7  147.89   21.10
  -7  -1   7  116.79   24.10
  -7  -1   7  208.38   28.00
  -7  -1   7  164.58   18.10
  -7  -1   7  174.68   21.80
  -7  -1   7  130.59   25.40
  -7  -1   7  161.58   24.40
   6   1  -7   14.30    9.70
   6   1  -7    6.20    4.60
   6   1  -7   -1.60   10.70
   6   1  -7   -1.00    8.70
   6   1  -7    2.30    5.60
   6   1  -7   14.50    7.70
   6   1  -7   14.90    9.40
   6   1  -7    9.30    3.80
  -6  -1   7    5.40   11.30
  -6  -1   7    1.40    8.90
  -6  -1   7    2.40    6.50
  -6  -1   7    7.00   14.20
  -6  -1   7   12.30   15.20
   5   1  -7  794.52   44.00
   5   1  -7  698.83   48.50
   5   1  -7  717.13   42.10
   5   1  -7  702.43   48.60
   5   1  -7  724.43   44.80
   5   1  -7  716.63   46.00
   5   1  -7  686.83   44.40
  -5  -1   7  718.63   49.00
  -5  -1   7  710.23   42.70
  -5  -1   7  718.73   44.30
  -5  -1   7  588.74   49.00
  -5  -1   7  754.82   50.09
  -5  -1   7  718.73   51.59
  -5  -1   7  689.83   44.50
   4   1  -7   91.59   13.30
   4   1  -7  118.29    9.90
   4   1  -7  108.09   10.80
   4   1  -7   97.99   15.70
   4   1  -7   96.89   12.70
   4   1  -7  108.29   12.10
   4   1  -7  118.69   11.00
   4   1  -7  109.49    8.40
  -4  -1   7  109.09   16.80
  -4  -1   7  110.59   11.20
  -4  -1   7  106.09   16.80
  -4  -1   7  124.69   15.50
  -4  -1   7  107.49   10.40
  -4  -1   7  143.49   19.20
  -4  -1   7  119.49    8.60
  -4  -1   7  108.39   11.30
   3   1  -7  893.21   56.99
   3   1  -7  801.42   56.79
   3   1  -7  912.61   55.79
   3   1  -7  971.80   55.99
   3   1  -7  989.00   59.59
   3   1  -7  927.21   54.89
   3   1  -7 1023.80   55.79
  -3  -1   7  937.21   56.89
  -3  -1   7 1001.30   60.59
  -3  -1   7  929.01   56.29
  -3  -1   7  832.02   61.09
  -3  -1   7 1004.10   59.29
  -3  -1   7  938.21   55.79
  -3  -1   7  983.40   61.39
  -3  -1   7  947.91   54.59
   2   1  -7   74.69    8.30
   2   1  -7   59.39    9.50
   2   1  -7   97.39    6.90
   2   1  -7   65.39    7.00
   2   1  -7   77.29    7.30
   2   1  -7   79.79   13.00
   2   1  -7   78.49    8.50
  -2  -1   7   74.19   12.60
  -2  -1   7   62.89   13.50
  -2  -1   7   81.79    6.90
  -2  -1   7   78.29   11.10
  -2  -1   7   82.89    9.60
  -2  -1   7   83.79    8.00
  -2  -1   7   88.59   10.80
   1   1  -7 2160.28  109.69
   1   1  -7 1812.32  110.99
   1   1  -7 1947.11  110.19
   1   1  -7 1962.00  112.49
   1   1  -7 1875.81  110.09
  -1  -1   7 1711.23  110.79
  -1  -1   7 1955.10  109.09
  -1  -1   7 2013.30  111.19
  -1  -1   7 1887.21  111.29
  -1  -1   7 1612.24  111.49
   0   1  -7  640.74   38.20
   0   1  -7  719.03   42.50
   0   1  -7  618.54   39.40
   0   1  -7  615.54   38.10
   0   1  -7  636.74   40.50
   0   1  -7  604.54   37.70
   0   1  -7  600.14   38.60
   0   1  -7  654.83   37.30
   0  -1   7  583.84   39.20
   0  -1   7  624.64   39.20
   0  -1   7  606.04   38.80
   0  -1   7  678.23   40.50
   0  -1   7  621.74   39.00
   0  -1   7  655.73   37.20
  -1   1  -7 1557.94   87.69
  -1   1  -7 1533.85   92.29
  -1   1  -7 1485.95   88.79
  -1   1  -7 1515.05   88.69
  -1   1  -7 1522.85   89.09
  -1   1  -7 1500.95   88.59
  -1   1  -7 1428.46   88.29
   1  -1   7 1524.25   89.59
   1  -1   7 1520.25   89.19
   1  -1   7 1555.44   89.89
   1  -1   7 1513.35   89.69
   1  -1   7 1540.85   89.79
  -2   1  -7  283.47   23.30
  -2   1  -7  270.67   19.30
  -2   1  -7  300.57   17.90
  -2   1  -7  286.67   18.00
  -2   1  -7  295.67   19.40
  -2   1  -7  292.67   19.10
   2  -1   7  286.57   21.20
   2  -1   7  302.07   19.90
   2  -1   7  292.27   20.20
   2  -1   7  277.57   19.10
   2  -1   7  290.27   20.60
  -3   1  -7  585.44   32.40
  -3   1  -7  522.25   37.60
  -3   1  -7  534.05   32.60
  -3   1  -7  495.35   34.60
  -3   1  -7  468.35   37.20
  -3   1  -7  562.24   34.30
  -3   1  -7  576.74   34.30
   3  -1   7  586.24   34.10
   3  -1   7  527.65   35.50
   3  -1   7  493.35   35.80
   3  -1   7  574.04   34.90
   3  -1   7  524.15   34.60
  -4   1  -7  185.28   20.10
  -4   1  -7  206.38   14.30
  -4   1  -7  200.28   16.20
  -4   1  -7  244.88   16.90
  -4   1  -7  208.78   13.50
  -4   1  -7  192.08   16.10
  -4   1  -7  202.48   13.10
  -4   1  -7  197.58   15.30
   4  -1   7  152.18   26.50
   4  -1   7  180.68   19.10
   4  -1   7  222.38   27.60
   4  -1   7  219.58   16.90
   4  -1   7  215.38   16.20
   4  -1   7  198.28   15.90
   4  -1   7  228.58   28.10
  -5   1  -7   98.79    9.50
  -5   1  -7  101.59    8.90
  -5   1  -7   80.69   14.00
  -5   1  -7  102.09   12.20
   5  -1   7  121.79   16.30
   5  -1   7   85.39   13.10
   5  -1   7  116.79   13.30
   5  -1   7  101.49   11.70
   5  -1   7  103.09   11.10
  -6   1  -7  116.69   11.30
  -6   1  -7  112.09   16.30
  -6   1  -7  106.69    9.20
  -6   1  -7  102.29   10.80
   6  -1   7  103.89   12.70
   6  -1   7   92.79   13.40
   6  -1   7  115.39   16.30
  -7   1  -7   11.90    5.00
  -7   1  -7   16.60   11.70
  -7   1  -7   24.00    6.90
  -7   1  -7   23.30    8.80
   7  -1   7   17.20   10.30
   7  -1   7   38.20   15.20
   7  -1   7   21.30   12.70
   7  -1   7    4.50    7.30
  -8   1  -7   14.50   13.50
  -8   1  -7   -8.70    8.40
   8  -1   7    0.60   11.20
   8  -1   7   -3.50    9.40
   8  -1   7    4.60    9.20
   8   0  -7   10.70    8.00
   8   0  -7   -3.20   15.70
   8   0  -7  -10.60   14.20
   8   0  -7    8.40   10.50
   8   0  -7   32.10   14.00
  -8   0   7   33.80   25.40
  -8   0   7  -19.50   20.10
  -8   0   7  -11.50   16.00
  -8   0   7   44.90   18.30
   7   0  -7   42.40    9.70
   7   0  -7   50.19   12.00
   7   0  -7   37.60    7.70
   7   0  -7   37.50   10.90
   7   0  -7   44.90   12.10
  -7   0   7   40.90   26.30
  -7   0   7   49.60   21.80
  -7   0   7   44.90   14.90
  -7   0   7   45.40   10.50
  -7   0   7   24.90   15.50
   6   0  -7   60.29   10.40
   6   0  -7   57.79    8.80
   6   0  -7   63.39    9.30
   6   0  -7   67.39    6.10
   6   0  -7   69.49   12.10
   6   0  -7   66.19    8.20
   6   0  -7   74.39   12.20
  -6   0   7   78.19   18.20
  -6   0   7   70.69    9.90
  -6   0   7   74.69   16.30
  -6   0   7   66.29   15.80
   5   0  -7  245.58   17.60
   5   0  -7  223.88   18.20
   5   0  -7  223.78   20.40
   5   0  -7  234.68   22.40
  -5   0   7  199.18   18.80
  -5   0   7  229.08   18.00
  -5   0   7  233.88   26.90
  -5   0   7  268.47   24.70
  -5   0   7  236.58   23.90
   4   0  -7  235.78   19.50
   4   0  -7  256.97   22.20
   4   0  -7  235.48   19.60
   4   0  -7  272.67   17.30
   4   0  -7  237.28   17.50
   4   0  -7  242.98   17.80
   4   0  -7  256.37   16.80
  -4   0   7  240.18   23.90
  -4   0   7  196.08   18.60
  -4   0   7  247.68   22.00
  -4   0   7  280.87   23.30
  -4   0   7  236.38   18.40
  -4   0   7  235.48   14.90
  -4   0   7  226.78   17.40
   3   0  -7  583.84   37.60
   3   0  -7  652.13   36.20
   3   0  -7  618.74   35.80
   3   0  -7  483.85   39.00
   3   0  -7  616.84   36.70
   3   0  -7  585.04   36.00
  -3   0   7  586.94   39.40
  -3   0   7  526.65   37.40
  -3   0   7  644.64   41.60
  -3   0   7  587.04   36.30
  -3   0   7  648.94   41.10
  -3   0   7  555.04   36.50
   2   0  -7  752.92   46.60
   2   0  -7  708.03   48.00
   2   0  -7  917.81   51.59
   2   0  -7  789.32   46.90
   2   0  -7  904.81   47.20
   2   0  -7  708.63   47.90
   2   0  -7  790.52   47.30
  -2   0   7  782.92   46.90
  -2   0   7  836.02   50.09
  -2   0   7  767.42   48.50
  -2   0   7  814.72   51.69
  -2   0   7  715.43   50.59
  -2   0   7  755.32   47.80
   1   0  -7 1188.38   70.29
   1   0  -7 1167.38   72.19
   1   0  -7 1268.97   72.09
   1   0  -7 1192.58   71.29
  -1   0   7 1148.49   72.49
  -1   0   7 1175.08   73.29
  -1   0   7 1260.27   70.59
  -1   0   7 1300.37   72.49
   0   0  -7  781.62   49.20
   0   0  -7  874.11   52.89
   0   0  -7  897.71   48.60
   0   0  -7  782.42   49.10
   0   0  -7  853.71   49.20
   0   0  -7  817.12   50.19
   0   0  -7  792.22   49.90
   0   0  -7  824.12   48.20
   0   0   7  834.92   51.29
   0   0   7  871.71   49.99
   0   0   7  834.02   50.09
   0   0   7  676.73   49.80
  -1   0  -7 1826.82  102.19
  -1   0  -7 1718.33  103.09
  -1   0  -7 1790.22  102.09
  -1   0  -7 1580.24  102.99
  -1   0  -7 1851.11  102.89
  -1   0  -7 1580.64  105.89
  -1   0  -7 1691.43  103.09
   1   0   7 1907.61  104.29
   1   0   7 1895.01  104.09
   1   0   7 1780.52  103.89
   1   0   7 1655.03  103.89
   1   0   7 1850.41  103.59
  -2   0  -7  518.95   35.30
  -2   0  -7  567.84   35.80
  -2   0  -7  585.14   36.20
  -2   0  -7  594.34   35.00
  -2   0  -7  570.74   36.10
  -2   0  -7  537.05   35.40
   2   0   7  632.64   37.30
   2   0   7  586.64   37.20
   2   0   7  602.04   37.80
   2   0   7  616.54   36.70
   2   0   7  610.74   36.20
  -3   0  -7 1094.19   68.49
  -3   0  -7 1168.48   68.19
  -3   0  -7 1127.99   68.39
  -3   0  -7 1135.49   67.59
  -3   0  -7 1229.48   67.59
  -3   0  -7 1180.18   68.79
   3   0   7 1163.08   68.39
   3   0   7 1137.29   69.19
   3   0   7 1233.18   69.59
   3   0   7 1053.79   69.69
   3   0   7 1066.09   70.19
  -4   0  -7  212.18   16.10
  -4   0  -7  205.38   14.10
  -4   0  -7  200.68   12.80
  -4   0  -7  150.28   20.10
  -4   0  -7  202.38   14.50
  -4   0  -7  185.88   15.00
  -4   0  -7  217.58   15.70
   4   0   7  193.48   15.50
   4   0   7  207.48   15.90
   4   0   7  190.48   19.50
   4   0   7  194.88   18.30
   4   0   7  223.38   27.60
   4   0   7  210.58   16.80
  -5   0  -7  486.75   41.70
  -5   0  -7  584.04   37.60
  -5   0  -7  615.44   36.90
  -5   0  -7  575.64   35.60
  -5   0  -7  641.34   36.40
   5   0   7  551.14   38.10
   5   0   7  626.74   39.00
   5   0   7  598.64   37.90
   5   0   7  816.92   73.69
   5   0   7  631.94   48.20
   5   0   7  638.74   42.20
   5   0   7  535.65   40.60
  -6   0  -7   32.50    5.60
  -6   0  -7   16.30   11.40
  -6   0  -7   34.10    6.00
  -6   0  -7   32.40    7.30
  -6   0  -7   39.50    8.40
   6   0   7   50.09   12.60
   6   0   7   46.60    9.50
   6   0   7   41.00    7.90
   6   0   7   31.60    7.70
  -7   0  -7  109.89   11.00
  -7   0  -7  108.69   13.30
  -7   0  -7  116.09   12.60
  -7   0  -7  134.29   15.70
  -7   0  -7   83.69   16.70
   7   0   7  124.29   15.30
   7   0   7  107.29   14.40
   7   0   7   60.99   16.10
   7   0   7   99.69   13.90
  -8   0  -7   -2.60    6.90
  -8   0  -7  -14.10    8.40
  -8   0  -7    4.30    9.80
  -8   0  -7    8.40   10.90
  -8   0  -7   -5.90   14.10
   8   0   7   -3.80    8.00
   8   0   7  -10.90    9.50
   8   0   7   21.40    8.90
   9   0   7   63.29   14.80
   8  -1  -7    1.90   10.50
   8  -1  -7    6.40   10.20
   8  -1  -7    9.50   14.20
   8  -1  -7    9.10   14.20
  -8   1   7  -10.00   23.20
  -8   1   7   41.40   19.00
  -8   1   7   -6.20   25.40
  -8   1   7  -10.70   20.30
   7  -1  -7   -9.30    7.80
   7  -1  -7    2.10    8.50
   7  -1  -7    7.70   10.90
   7  -1  -7   14.70   12.80
  -7   1   7    2.50   18.70
  -7   1   7   13.80   11.40
  -7   1   7  -30.30   16.00
  -7   1   7   29.90   15.70
   6  -1  -7   33.10   10.40
   6  -1  -7   42.60   10.90
   6  -1  -7   33.40    9.30
   6  -1  -7   34.80    8.10
   6  -1  -7   39.70    5.20
   6  -1  -7   23.90    7.20
  -6   1   7   30.00    8.50
  -6   1   7   19.30   14.20
  -6   1   7   23.70   15.30
  -6   1   7   45.40   14.60
  -6   1   7   11.90   11.60
   5  -1  -7   -7.50    5.90
   5  -1  -7    0.60    2.50
   5  -1  -7    6.20    9.30
   5  -1  -7    2.70    7.90
   5  -1  -7    2.60    5.20
   5  -1  -7   -1.80    6.00
   5  -1  -7    0.70    5.60
  -5   1   7    1.10    5.50
  -5   1   7   11.00    7.30
  -5   1   7    4.60   10.70
  -5   1   7   -0.40   12.30
  -5   1   7   -3.00    8.80
   4  -1  -7  261.77   21.90
   4  -1  -7  250.87   18.50
   4  -1  -7  239.28   20.70
   4  -1  -7  248.88   18.50
   4  -1  -7  272.77   20.80
   4  -1  -7  276.37   18.50
   4  -1  -7  265.07   19.90
  -4   1   7  250.97   19.70
  -4   1   7  279.17   24.80
  -4   1   7  242.38   22.90
  -4   1   7  241.68   18.60
  -4   1   7  263.67   24.60
   3  -1  -7   25.40    4.60
   3  -1  -7   20.10    5.10
   3  -1  -7   15.80    4.50
   3  -1  -7   19.60    5.20
   3  -1  -7    4.60    4.90
   3  -1  -7   15.40    7.80
   3  -1  -7   10.60    5.40
  -3   1   7   10.40    6.20
  -3   1   7   11.20    6.90
  -3   1   7    6.50    8.20
  -3   1   7   12.00    8.30
  -3   1   7   13.90    5.20
   2  -1  -7  742.13   44.80
   2  -1  -7  643.64   46.10
   2  -1  -7  780.42   45.50
   2  -1  -7  694.03   46.20
   2  -1  -7  749.42   45.60
  -2   1   7  748.23   46.80
  -2   1   7  753.52   49.30
  -2   1   7  825.62   48.60
  -2   1   7  784.52   46.30
  -2   1   7  815.32   49.40
   1  -1  -7   54.09    5.30
   1  -1  -7   55.59    6.50
   1  -1  -7   63.59   10.30
   1  -1  -7   47.90    6.80
   1  -1  -7   50.79    6.70
   1  -1  -7   40.90    6.60
   1  -1  -7   59.09    6.30
  -1   1   7   56.29    7.50
  -1   1   7   43.50    6.70
  -1   1   7   51.99    6.20
  -1   1   7   53.99    8.80
  -1   1   7   35.30    8.50
   0  -1  -7 1694.03   93.09
   0  -1  -7 1594.54   92.69
   0  -1  -7 1741.13   92.59
   0  -1  -7 1589.64   92.69
   0  -1  -7 1546.15   91.29
   0  -1  -7 1484.45   93.79
   0   1   7 1618.04   93.89
   0   1   7 1634.94   94.19
   0   1   7 1504.35   91.19
   0   1   7 1734.93   93.99
   0   1   7 1341.67   93.69
   0   1   7 1515.15   94.99
  -1  -1  -7  152.78   11.10
  -1  -1  -7  127.19   11.10
  -1  -1  -7  151.28    9.50
  -1  -1  -7  149.09   10.90
  -1  -1  -7   98.09   15.00
  -1  -1  -7  148.69   11.60
  -1  -1  -7  144.99   11.40
  -1  -1  -7  127.09    8.60
   1   1   7  138.59   12.90
   1   1   7  164.18   13.10
   1   1   7  138.09   11.70
   1   1   7  148.49   11.90
   1   1   7  106.19   12.20
  -2  -1  -7 1288.47   85.09
  -2  -1  -7 1498.55   85.19
  -2  -1  -7 1438.96   84.69
  -2  -1  -7 1207.68   87.69
  -2  -1  -7 1477.45   84.59
   2   1   7 1590.44   85.49
   2   1   7 1522.35   85.79
   2   1   7 1322.67   85.89
   2   1   7 1415.86   86.49
   2   1   7 1615.84   86.59
  -3  -1  -7    8.80    3.60
  -3  -1  -7    7.90    4.10
  -3  -1  -7    8.70    8.60
  -3  -1  -7    4.60    1.90
  -3  -1  -7    2.80    3.20
  -3  -1  -7   11.30    4.40
  -3  -1  -7    0.00    4.50
   3   1   7   -1.30    4.40
   3   1   7    8.90    3.70
   3   1   7   10.60    5.00
   3   1   7    6.00    6.30
   3   1   7    3.90    5.60
  -4  -1  -7 1109.39   68.19
  -4  -1  -7 1036.10   71.49
  -4  -1  -7 1166.68   66.79
  -4  -1  -7 1117.29   66.89
  -4  -1  -7 1120.49   67.59
  -4  -1  -7 1042.40   65.29
  -4  -1  -7 1157.98   67.69
   4   1   7 1255.97   76.99
   4   1   7 1240.28   69.09
   4   1   7 1149.78   67.69
   4   1   7 1000.40   69.29
   4   1   7 1080.89   68.19
   4   1   7 1179.78   70.49
  -5  -1  -7    1.50    4.30
  -5  -1  -7    5.00    3.30
  -5  -1  -7    5.50    5.40
  -5  -1  -7    1.70    4.60
  -5  -1  -7    7.30    4.80
  -5  -1  -7    2.30    6.50
   5   1   7   -4.00    7.40
   5   1   7    8.20    5.20
   5   1   7   10.30    5.70
   5   1   7    3.40   18.80
   5   1   7   10.90   10.40
   5   1   7    4.90    4.80
  -6  -1  -7  423.66   28.70
  -6  -1  -7  436.16   32.70
  -6  -1  -7  482.05   30.60
  -6  -1  -7  484.85   29.60
   6   1   7  532.25   44.40
   6   1   7  511.75   33.20
   6   1   7  404.66   34.60
   6   1   7  459.85   30.90
   6   1   7  414.76   31.00
  -7  -1  -7   25.30    7.90
  -7  -1  -7    8.30    8.00
  -7  -1  -7   10.20    6.10
  -7  -1  -7    7.40    6.20
  -7  -1  -7   10.60   14.00
   7   1   7   21.10   13.20
   7   1   7   14.60    9.10
   7   1   7    5.20    8.00
  -8  -1  -7  143.39   17.30
  -8  -1  -7  173.98   20.30
  -8  -1  -7  198.58   19.80
  -8  -1  -7  170.28   25.20
   8   1   7  184.08   20.30
   8   1   7  169.78   19.00
   8   1   7  152.88   19.00
  -9  -1  -7   -2.80   21.90
  -9  -1  -7   12.80   11.80
   9   1   7  -12.20   10.70
   9   1   7    4.50   13.50
   9   1   7   -5.50   10.70
   7  -2  -7    7.80    9.00
   7  -2  -7   15.60   11.60
   7  -2  -7  -10.20   12.30
   7  -2  -7   -1.70    8.60
  -7   2   7    0.40    6.20
  -7   2   7   -4.90   20.50
  -7   2   7   26.00   19.30
  -7   2   7   21.00   18.40
  -7   2   7   15.80   17.50
   6  -2  -7   30.10   10.50
   6  -2  -7   22.40    9.90
   6  -2  -7   26.80    8.40
   6  -2  -7   19.10    5.70
   6  -2  -7   20.00    9.50
  -6   2   7   18.00    8.90
  -6   2   7   15.40   13.20
  -6   2   7   -7.00   14.40
  -6   2   7   28.20   15.20
  -6   2   7   26.30    5.00
  -6   2   7    0.30   15.10
   5  -2  -7   -4.50    7.90
   5  -2  -7    4.50    3.60
   5  -2  -7    1.60    5.30
   5  -2  -7   -0.70    9.30
   5  -2  -7    1.90    6.20
   5  -2  -7    5.30    7.80
  -5   2   7  -10.30    5.20
  -5   2   7    8.50   10.50
  -5   2   7   -4.20   11.70
  -5   2   7   -0.70    9.40
  -5   2   7   -0.80    2.90
  -5   2   7   -1.60   10.70
   4  -2  -7    2.60    5.60
   4  -2  -7    5.50    5.40
   4  -2  -7   15.10    8.10
   4  -2  -7   12.70    7.20
   4  -2  -7    1.90    4.20
   4  -2  -7   13.10    6.10
   4  -2  -7    9.70    2.70
   4  -2  -7    2.50    6.50
  -4   2   7    9.80    7.10
  -4   2   7    4.30    9.30
  -4   2   7   12.20    9.60
  -4   2   7   11.10    4.90
  -4   2   7   -1.70    7.60
   3  -2  -7   16.90    4.70
   3  -2  -7   17.00    5.80
   3  -2  -7   13.00    8.30
   3  -2  -7   13.20    5.30
   3  -2  -7   16.00    5.30
   3  -2  -7   22.60    7.00
   3  -2  -7   14.50    4.70
  -3   2   7   10.60    6.80
  -3   2   7   10.60    5.50
  -3   2   7   15.60    6.70
  -3   2   7   11.80    7.30
  -3   2   7    9.60    5.60
  -3   2   7   20.70    9.70
   2  -2  -7   83.79    8.40
   2  -2  -7   78.39    9.70
   2  -2  -7   86.99    9.50
   2  -2  -7   85.59    8.90
   2  -2  -7   85.99   10.50
   2  -2  -7   76.59   10.30
   2  -2  -7  113.79   14.80
  -2   2   7  114.39   14.00
  -2   2   7   89.89   11.90
  -2   2   7   85.19    9.90
  -2   2   7   91.89   10.00
  -2   2   7   99.19   11.10
  -2   2   7  118.99   16.20
   1  -2  -7  122.19   16.90
   1  -2  -7  135.79   12.00
   1  -2  -7  159.58   11.20
   1  -2  -7  152.68   12.80
   1  -2  -7  174.28   11.80
   1  -2  -7  163.08   12.50
   1  -2  -7  150.38   11.70
  -1   2   7  141.29   13.40
  -1   2   7  163.28   13.70
  -1   2   7  135.69   11.90
  -1   2   7  151.08   15.80
  -1   2   7  172.48   14.80
   0  -2  -7   31.10    5.10
   0  -2  -7   27.50    5.20
   0  -2  -7   35.50    5.90
   0  -2  -7   21.00    7.80
   0  -2  -7   26.10    4.80
   0  -2  -7   32.40    4.40
   0  -2  -7   34.40    6.80
   0   2   7   24.40    6.50
   0   2   7   22.10    5.90
   0   2   7   28.50    5.40
   0   2   7   27.80    3.70
   0   2   7   23.70    7.20
  -1  -2  -7  424.16   27.70
  -1  -2  -7  454.45   27.00
  -1  -2  -7  375.26   26.50
  -1  -2  -7  426.86   26.70
  -1  -2  -7  354.26   30.70
  -1  -2  -7  383.06   26.90
  -1  -2  -7  438.56   24.90
   1   2   7  426.26   28.50
   1   2   7  349.87   27.20
   1   2   7  445.16   28.90
   1   2   7  429.66   25.80
   1   2   7  493.55   29.20
   1   2   7  429.06   27.80
  -2  -2  -7   38.90    5.70
  -2  -2  -7   32.20    4.10
  -2  -2  -7   23.00    5.20
  -2  -2  -7   21.50    4.90
  -2  -2  -7   46.50    7.00
  -2  -2  -7   36.80    6.40
   2   2   7   25.80    6.50
   2   2   7   27.30    5.00
   2   2   7   33.20    6.60
   2   2   7   33.30    6.90
   2   2   7   32.70    6.20
  -3  -2  -7  963.10   56.19
  -3  -2  -7  947.91   57.19
  -3  -2  -7  839.12   56.89
  -3  -2  -7  897.41   54.69
  -3  -2  -7 1006.40   56.49
  -3  -2  -7 1012.80   57.39
   3   2   7  989.00   56.89
   3   2   7  879.41   58.59
   3   2   7 1004.10   57.79
   3   2   7  820.42   57.69
   3   2   7  912.31   58.49
  -4  -2  -7   14.60    5.70
  -4  -2  -7   10.30    5.50
  -4  -2  -7   11.60    5.00
  -4  -2  -7   15.50    4.70
  -4  -2  -7   10.40    4.70
  -4  -2  -7    5.30    3.00
   4   2   7    5.60    6.70
   4   2   7    9.20   13.00
   4   2   7    8.60    5.00
   4   2   7    8.40    8.50
   4   2   7   13.30    6.40
   4   2   7   11.00    3.90
  -5  -2  -7  393.46   25.60
  -5  -2  -7  335.47   27.00
  -5  -2  -7  383.06   26.00
  -5  -2  -7  356.06   24.00
  -5  -2  -7  385.66   26.40
  -5  -2  -7  396.66   26.50
   5   2   7  385.56   38.40
   5   2   7  428.66   28.60
   5   2   7  395.76   26.30
   5   2   7  384.46   26.90
   5   2   7  376.16   29.80
   5   2   7  422.26   30.80
  -6  -2  -7   17.60    7.00
  -6  -2  -7   18.70    7.40
  -6  -2  -7   36.60    6.80
  -6  -2  -7   13.10    4.90
   6   2   7   12.80    6.20
   6   2   7   35.20   18.50
   6   2   7   20.80    6.70
   6   2   7   16.50   11.70
   6   2   7   27.60    8.50
  -7  -2  -7  369.56   25.50
  -7  -2  -7  350.76   24.30
  -7  -2  -7  374.96   27.80
  -7  -2  -7  337.67   26.70
   7   2   7  309.07   27.70
   7   2   7  390.26   29.50
   7   2   7  353.76   26.60
   7   2   7  381.36   33.20
  -8  -2  -7   40.60   12.00
  -8  -2  -7   20.40   10.30
  -8  -2  -7   15.60    8.30
   8   2   7   18.90    8.70
   8   2   7   38.40   11.80
   8   2   7   27.20   15.20
   8   2   7   24.50    9.20
  -9  -2  -7   43.90   14.20
  -9  -2  -7   47.10   13.90
   9   2   7   65.99   13.50
   9   2   7   42.40   12.70
   9   2   7  104.69   16.60
   7  -3  -7  -28.60   13.40
   7  -3  -7    8.70    9.70
   7  -3  -7   26.40   13.30
   7  -3  -7    1.00   10.80
  -7   3   7   -3.40    5.60
  -7   3   7    5.30   17.60
  -7   3   7   15.70   19.90
  -7   3   7  -29.60   20.20
  -7   3   7    9.50   19.60
   6  -3  -7   12.30   10.10
   6  -3  -7    5.20    6.40
   6  -3  -7   21.50    9.70
   6  -3  -7   17.20    8.20
  -6   3   7   13.40   15.50
  -6   3   7   20.60   15.50
  -6   3   7   11.30   15.30
  -6   3   7   15.80    4.70
   5  -3  -7    5.80    5.00
   5  -3  -7   47.50   13.10
   5  -3  -7    0.90    6.30
   5  -3  -7   -8.60    7.80
   5  -3  -7   11.70    8.60
   5  -3  -7    2.40    8.40
  -5   3   7    1.80   11.70
  -5   3   7   13.20   14.60
  -5   3   7  -10.60   11.70
  -5   3   7    9.60    7.50
  -5   3   7    9.80   13.20
   4  -3  -7   40.60    9.00
   4  -3  -7   28.40    4.90
   4  -3  -7   14.50    7.30
   4  -3  -7   33.60    9.10
   4  -3  -7   17.90    6.40
   4  -3  -7   27.70    6.30
  -4   3   7   19.80    9.00
  -4   3   7   23.70   10.50
  -4   3   7   31.60   10.60
  -4   3   7   51.49   13.40
  -4   3   7   19.90    6.50
   3  -3  -7    4.20    6.70
   3  -3  -7    9.90    3.20
   3  -3  -7    3.20    5.10
   3  -3  -7   26.90    6.80
   3  -3  -7    8.80    4.60
   3  -3  -7    3.80    5.60
   3  -3  -7   18.60    8.70
  -3   3   7   15.20    5.90
  -3   3   7    5.10    6.60
  -3   3   7   14.30   10.50
  -3   3   7    7.00    6.80
  -3   3   7    9.10    6.60
  -3   3   7   16.50    8.40
   2  -3  -7    3.70    5.30
   2  -3  -7   -2.20    3.80
   2  -3  -7    2.10    7.80
   2  -3  -7    5.20    4.00
   2  -3  -7  -12.60    4.80
   2  -3  -7   -6.30    4.30
   2  -3  -7    1.70    4.60
  -2   3   7   -3.30    5.40
  -2   3   7   -1.10    5.20
  -2   3   7    6.60    6.50
  -2   3   7   -5.10    5.20
  -2   3   7    0.10    7.50
  -2   3   7   -0.80    5.70
   1  -3  -7   -2.50    3.40
   1  -3  -7    6.90    4.00
   1  -3  -7    7.00    4.80
   1  -3  -7   -2.00    3.40
   1  -3  -7    1.80    3.20
   1  -3  -7   -2.50    7.60
   1  -3  -7   -4.00    4.60
  -1   3   7   -6.10    7.30
  -1   3   7   -4.50    4.90
  -1   3   7   -2.50    4.90
  -1   3   7    6.80    5.20
   0  -3  -7    0.90    3.20
   0  -3  -7    9.70    7.50
   0  -3  -7   -3.90    4.60
   0  -3  -7    1.40    4.10
   0  -3  -7    3.40    4.20
   0  -3  -7   -4.60    3.50
   0  -3  -7    3.30    3.10
   0   3   7   -1.90    5.00
   0   3   7    2.90    4.40
   0   3   7    4.40    2.60
   0   3   7   -1.20    4.80
   0   3   7   -4.90    5.90
  -1  -3  -7    9.70    3.90
  -1  -3  -7   12.80    3.20
  -1  -3  -7   18.70    4.50
  -1  -3  -7   14.10    4.40
  -1  -3  -7    0.20    4.10
  -1  -3  -7    7.90    5.50
   1   3   7    9.30    6.00
   1   3   7    8.60    5.60
   1   3   7    2.50    4.30
   1   3   7   26.70    4.20
  -2  -3  -7   95.39   10.00
  -2  -3  -7   98.49   10.40
  -2  -3  -7  103.19   10.60
  -2  -3  -7   98.19    8.20
  -2  -3  -7   88.69    9.70
  -2  -3  -7   96.69   10.00
   2   3   7   95.29   10.00
   2   3   7  110.29    9.70
   2   3   7  106.59   12.20
   2   3   7  108.49   13.20
   2   3   7   98.89   12.70
   2   3   7  114.09   11.40
  -3  -3  -7  158.48   13.40
  -3  -3  -7  146.09   12.20
  -3  -3  -7  143.59   12.30
  -3  -3  -7  129.79   12.70
   3   3   7  173.48   23.50
   3   3   7  144.69   13.50
   3   3   7  162.48   12.70
   3   3   7  137.19   15.30
   3   3   7  116.39   14.10
  -4  -3  -7  136.19   13.10
  -4  -3  -7  130.79   13.50
  -4  -3  -7  166.38   13.70
  -4  -3  -7  137.89   12.20
  -4  -3  -7  141.59    9.70
  -4  -3  -7  107.69   11.70
  -4  -3  -7  135.79   12.30
   4   3   7  135.79   12.10
   4   3   7  104.89   14.50
   4   3   7  138.89   17.40
   4   3   7  118.59   15.50
   4   3   7  151.58   21.20
   4   3   7  137.19   14.10
  -5  -3  -7  149.39   14.60
  -5  -3  -7  175.68   13.80
  -5  -3  -7  145.99   15.30
  -5  -3  -7  139.39   15.60
  -5  -3  -7  151.48   12.20
  -5  -3  -7  166.28   14.60
   5   3   7  143.89   13.70
   5   3   7  176.78   19.60
   5   3   7  159.48   15.00
   5   3   7  179.98   20.00
   5   3   7  180.68   24.10
   5   3   7  155.58   16.60
  -6  -3  -7  303.87   21.90
  -6  -3  -7  336.07   24.60
  -6  -3  -7  325.67   23.40
  -6  -3  -7  341.67   24.50
  -6  -3  -7  285.17   25.60
   6   3   7  354.66   29.70
   6   3   7  325.47   26.00
   6   3   7  325.77   24.40
   6   3   7  351.76   24.30
  -7  -3  -7   75.39   11.70
  -7  -3  -7   77.39   11.60
  -7  -3  -7   66.99    8.60
   7   3   7   62.29   11.00
   7   3   7   57.39   19.40
   7   3   7   58.49   15.20
   7   3   7   93.09   19.90
  -8  -3  -7   52.59    9.50
  -8  -3  -7   60.79   11.70
  -8  -3  -7   81.39   13.70
   8   3   7   64.79   12.20
   8   3   7   65.29   21.20
   8   3   7   79.59   16.20
  -9  -3  -7   27.80   13.80
  -9  -3  -7   24.20   12.60
   9   3   7   34.70   12.20
   9   3   7    7.80    9.70
   9   3   7   31.60   14.00
   6  -4  -7   14.10   10.80
   6  -4  -7   16.80    8.70
   6  -4  -7    0.20   11.70
  -6   4   7   -9.30   17.30
  -6   4   7   32.60   17.40
  -6   4   7    7.10    5.20
  -6   4   7   -2.00   17.30
  -6   4   7  -20.60   17.70
   5  -4  -7   40.90    7.60
   5  -4  -7   34.80    9.90
   5  -4  -7   25.80    8.10
   5  -4  -7   19.50   10.70
   5  -4  -7   52.29   10.00
  -5   4   7   51.59   16.40
  -5   4   7   37.10    5.30
  -5   4   7   16.10   14.70
  -5   4   7   71.99   15.30
   4  -4  -7   62.29   11.10
   4  -4  -7   84.99   13.50
   4  -4  -7   48.50    9.40
   4  -4  -7   61.49    7.60
   4  -4  -7   60.69    9.80
   4  -4  -7   63.69    9.70
  -4   4   7   63.79   13.40
  -4   4   7   66.69   14.30
  -4   4   7   48.50    9.30
  -4   4   7   61.29   12.00
   3  -4  -7   30.20    7.20
   3  -4  -7   26.90    8.90
   3  -4  -7   33.70    6.80
   3  -4  -7   35.80   10.60
   3  -4  -7   32.70    8.00
   3  -4  -7   20.10    8.30
  -3   4   7   34.00    8.70
  -3   4   7   33.50    9.20
  -3   4   7   15.70    9.80
  -3   4   7   30.40   10.40
  -3   4   7   31.20    9.40
   2  -4  -7  175.68   15.60
   2  -4  -7  173.08   15.70
   2  -4  -7  213.48   15.40
   2  -4  -7  155.38   16.40
   2  -4  -7  184.98   16.90
   2  -4  -7  181.88   13.00
   2  -4  -7  131.79   19.30
   2  -4  -7  181.58   14.70
  -2   4   7  184.08   17.80
  -2   4   7  226.08   17.80
  -2   4   7  179.88   17.30
  -2   4   7  208.38   18.90
  -2   4   7  224.68   21.90
  -2   4   7  166.78   16.90
   1  -4  -7   13.80    4.50
   1  -4  -7   12.70    4.70
   1  -4  -7   21.60    9.50
   1  -4  -7   21.20    6.30
   1  -4  -7   23.00    5.70
   1  -4  -7   17.00    6.20
   1  -4  -7   18.20    6.30
  -1   4   7   20.00    7.90
  -1   4   7   24.30    9.70
  -1   4   7   17.30    4.30
  -1   4   7   16.30    7.00
  -1   4   7    8.20    7.20
   0  -4  -7   37.90    5.50
   0  -4  -7   23.10    5.70
   0  -4  -7   29.60    5.30
   0  -4  -7   38.10    7.80
   0  -4  -7   31.00    6.00
   0  -4  -7   44.00    7.30
   0   4   7   35.10    8.50
   0   4   7   31.80    8.60
   0   4   7   44.70    7.70
   0   4   7   43.00    6.90
   0   4   7   35.10    5.00
  -1  -4  -7   26.50    6.10
  -1  -4  -7   18.50    6.30
  -1  -4  -7   20.10    4.20
  -1  -4  -7   27.90    5.80
  -1  -4  -7   32.10    6.00
  -1  -4  -7   19.80    5.00
  -1  -4  -7   18.60    3.50
   1   4   7   25.10    4.80
   1   4   7   26.40    6.70
   1   4   7    5.20    6.20
   1   4   7   30.90    6.70
   1   4   7   16.10    7.10
  -2  -4  -7   19.30    5.80
  -2  -4  -7   17.60    5.60
  -2  -4  -7   16.00    5.00
  -2  -4  -7   18.10    4.40
  -2  -4  -7   25.00    6.50
  -2  -4  -7   18.80    5.40
   2   4   7    9.50    6.00
   2   4   7   22.00    6.70
   2   4   7   19.40    5.50
   2   4   7   26.10    5.10
   2   4   7   16.00    5.90
  -3  -4  -7  511.15   34.80
  -3  -4  -7  564.14   36.20
  -3  -4  -7  534.35   35.70
  -3  -4  -7  492.65   34.70
   3   4   7  656.83   42.70
   3   4   7  495.75   37.10
   3   4   7  591.74   38.10
   3   4   7  622.74   36.80
   3   4   7  549.54   37.30
   3   4   7  519.95   35.50
   3   4   7  575.34   35.20
  -4  -4  -7   15.50    5.60
  -4  -4  -7   21.40    6.50
  -4  -4  -7   23.00    6.00
  -4  -4  -7   14.30    6.00
  -4  -4  -7   14.60    6.50
  -4  -4  -7   25.50    5.60
   4   4   7   27.40    8.60
   4   4   7   16.20    6.80
   4   4   7   18.10    5.20
   4   4   7   15.30    9.50
   4   4   7   11.00    6.70
   4   4   7   16.10   12.90
  -5  -4  -7  126.49    9.60
  -5  -4  -7  115.69   15.10
  -5  -4  -7  112.09   13.00
  -5  -4  -7  109.89   14.40
  -5  -4  -7  147.49   12.90
  -5  -4  -7  135.29   13.60
  -5  -4  -7  135.69   11.50
   5   4   7  117.69   15.60
   5   4   7  122.89   12.60
   5   4   7  108.49   20.70
   5   4   7  105.09   17.10
   5   4   7  126.59   14.80
   5   4   7  139.69   19.00
  -6  -4  -7    2.00    8.10
  -6  -4  -7   -4.00    6.40
  -6  -4  -7   -1.10    6.40
  -6  -4  -7   21.20    5.70
   6   4   7    7.80    6.90
   6   4   7   -7.60    8.50
   6   4   7   10.60    5.80
   6   4   7    7.70   11.50
  -7  -4  -7  123.89   15.10
  -7  -4  -7   91.09   12.00
  -7  -4  -7   90.29   13.00
   7   4   7   60.49   14.70
   7   4   7  114.29   14.40
   7   4   7   89.39   15.30
  -8  -4  -7  138.69   18.20
  -8  -4  -7  121.49   16.60
   8   4   7  136.89   17.50
   8   4   7  126.79   26.90
   8   4   7  112.39   17.30
   8   4   7  135.69   17.50
   8   4   7  101.79   20.80
  -9  -4  -7    1.10   11.50
  -9  -4  -7   -6.40   12.00
   9   4   7   12.10   13.10
   9   4   7   -7.40   10.10
   9   4   7   23.10   10.10
   6  -5  -7  -20.30   13.20
   6  -5  -7   14.40    9.60
   6  -5  -7  -19.20   11.50
  -6   5   7  -38.80   18.30
  -6   5   7   -1.50    6.40
  -6   5   7  -34.10   20.00
  -6   5   7    6.20   17.80
  -6   5   7   -3.00   19.10
   5  -5  -7   43.80    9.10
   5  -5  -7   45.00   12.20
   5  -5  -7   42.60   13.00
   5  -5  -7   32.30    9.00
   5  -5  -7   38.00   15.90
   5  -5  -7   59.49   10.30
  -5   5   7   43.00    6.70
  -5   5   7   72.29   18.30
  -5   5   7   58.59   15.60
  -5   5   7   25.90   16.70
  -5   5   7   37.90   21.00
   4  -5  -7   17.10    9.10
   4  -5  -7   -6.90    6.00
   4  -5  -7    3.00    6.60
   4  -5  -7   -5.90    8.10
   4  -5  -7    5.40    8.80
   4  -5  -7   -5.40   10.20
  -4   5   7    3.30   16.70
  -4   5   7    1.40   12.90
  -4   5   7    0.00   10.80
  -4   5   7  -13.10   13.50
   3  -5  -7   91.99   12.80
   3  -5  -7   83.09   11.60
   3  -5  -7   90.29   10.50
   3  -5  -7  105.49   13.80
   3  -5  -7   82.69   12.60
  -3   5   7   76.09   12.10
  -3   5   7   88.29   13.90
  -3   5   7   84.49   14.30
  -3   5   7  115.09   18.20
   2  -5  -7   -2.70    7.50
   2  -5  -7  -11.50    9.50
   2  -5  -7   -4.90    5.50
   2  -5  -7    0.80    4.70
   2  -5  -7   -6.90    5.20
   2  -5  -7    7.40    7.70
   2  -5  -7    3.40    5.70
  -2   5   7   13.50   10.10
  -2   5   7   -0.80    7.30
  -2   5   7   -2.30    7.30
  -2   5   7    7.00    8.20
  -2   5   7   -9.30    8.90
  -2   5   7    0.80    8.60
   1  -5  -7   58.09    8.60
   1  -5  -7   79.69    9.80
   1  -5  -7   91.39   11.10
   1  -5  -7   63.09   13.10
   1  -5  -7   98.59   11.60
   1  -5  -7   65.49    8.90
   1  -5  -7   69.59    9.80
  -1   5   7   76.49   10.90
  -1   5   7   68.69    8.70
  -1   5   7   60.49    9.30
  -1   5   7   42.90   10.20
  -1   5   7   88.39   14.50
   0  -5  -7    2.10    5.80
   0  -5  -7   -2.50    4.00
   0  -5  -7    1.60    2.50
   0  -5  -7   -1.30    4.40
   0  -5  -7   -4.30    5.60
   0  -5  -7   -1.30    5.90
   0  -5  -7    5.00    4.50
   0   5   7    6.90    4.10
   0   5   7    5.10    6.20
   0   5   7    3.10    7.70
   0   5   7    3.30    8.40
   0   5   7    1.70    6.90
  -1  -5  -7  426.16   26.60
  -1  -5  -7  388.26   28.00
  -1  -5  -7  428.86   27.50
  -1  -5  -7  394.36   27.10
  -1  -5  -7  326.07   24.00
  -1  -5  -7  404.16   25.90
  -1  -5  -7  371.76   25.80
   1   5   7  323.97   28.40
   1   5   7  436.76   28.70
   1   5   7  379.76   28.80
   1   5   7  449.36   28.30
   1   5   7  411.16   25.50
  -2  -5  -7   43.60    8.50
  -2  -5  -7   43.60    6.30
  -2  -5  -7   34.30    6.40
  -2  -5  -7   32.50    6.60
  -2  -5  -7   26.60    6.50
  -2  -5  -7   35.20    6.90
   2   5   7   33.90    8.90
   2   5   7   40.70   12.00
   2   5   7   25.40    7.70
   2   5   7   39.00    6.80
   2   5   7   36.10    8.40
   2   5   7   30.10    8.50
  -3  -5  -7  213.48   18.10
  -3  -5  -7  236.18   18.10
  -3  -5  -7  220.28   18.70
  -3  -5  -7  250.17   19.40
  -3  -5  -7  267.37   19.80
   3   5   7  267.57   22.00
   3   5   7  253.07   19.90
   3   5   7  200.48   25.20
   3   5   7  280.27   18.50
   3   5   7  212.48   18.50
   3   5   7  209.68   20.80
  -4  -5  -7   33.40    7.50
  -4  -5  -7   39.60    8.70
  -4  -5  -7   46.80    8.20
  -4  -5  -7   25.60    6.60
  -4  -5  -7   19.40    8.80
  -4  -5  -7   22.50    6.40
   4   5   7   29.70    9.90
   4   5   7   29.00    9.10
   4   5   7   38.40    8.10
   4   5   7   40.40    8.90
   4   5   7   50.39   14.90
   4   5   7   16.70    7.50
   4   5   7   35.00    6.90
  -5  -5  -7  105.99   12.40
  -5  -5  -7  104.99   13.80
  -5  -5  -7  118.39   11.30
  -5  -5  -7   77.19   12.40
   5   5   7  106.59   12.60
   5   5   7  126.59   15.50
   5   5   7   98.39   15.60
   5   5   7  116.29   15.80
   5   5   7   93.69   18.40
  -6  -5  -7  117.19   14.10
  -6  -5  -7  125.99   13.40
  -6  -5  -7  124.39   11.70
  -6  -5  -7  125.99   15.60
  -6  -5  -7  127.19   16.40
   6   5   7   94.99   16.10
   6   5   7  115.99   16.20
   6   5   7  114.99   15.90
   6   5   7  133.29   14.20
  -7  -5  -7   -2.80    7.60
  -7  -5  -7   13.80    9.00
  -7  -5  -7    2.90    7.20
   7   5   7   -3.40    6.80
   7   5   7   -2.30    7.60
   7   5   7   16.90   10.00
   7   5   7  -29.20   10.60
  -8  -5  -7   83.09   12.60
  -8  -5  -7   89.29   15.10
   8   5   7   69.29   12.10
   8   5   7   49.00   15.20
   8   5   7   53.29   18.30
   8   5   7   69.39   23.90
   8   5   7   45.60   11.50
  -9  -5  -7   11.40   10.30
  -9  -5  -7    1.60   11.70
   9   5   7    7.40   14.80
   9   5   7    5.70   11.50
   9   5   7   11.30    9.90
   5  -6  -7   16.10   12.70
   5  -6  -7    7.10   12.30
   5  -6  -7   -3.00    8.80
  -5   6   7   20.10   19.90
  -5   6   7   21.10    6.90
  -5   6   7   13.90   17.80
  -5   6   7   -9.20   20.30
  -5   6   7   18.00   15.30
   4  -6  -7    7.60    7.50
   4  -6  -7   24.10   10.50
   4  -6  -7   14.50   10.90
   4  -6  -7    7.40   12.70
   4  -6  -7    9.40    8.80
  -4   6   7    8.10   17.50
  -4   6   7    0.60   12.10
  -4   6   7   -1.60   16.20
  -4   6   7   -3.90   14.50
   3  -6  -7   39.70    8.30
   3  -6  -7    9.00   10.70
   3  -6  -7   37.60   12.70
   3  -6  -7   20.40    8.90
   3  -6  -7   41.90   10.30
   3  -6  -7   29.20    9.10
  -3   6   7   23.30   13.10
  -3   6   7   22.50   10.90
  -3   6   7   25.00   18.00
  -3   6   7   60.59   17.00
   2  -6  -7  118.59   14.30
   2  -6  -7  118.99   14.60
   2  -6  -7  100.19   17.10
   2  -6  -7  100.59   12.10
   2  -6  -7  157.38   15.00
   2  -6  -7  126.29   17.80
  -2   6   7  118.59   15.80
  -2   6   7  115.89   16.00
   1  -6  -7  108.79   12.70
   1  -6  -7   88.19   12.60
   1  -6  -7  123.99   15.00
   1  -6  -7  118.09   13.30
   1  -6  -7  113.19   11.40
  -1   6   7   94.69   13.50
  -1   6   7  134.99   18.50
  -1   6   7   91.79   11.60
  -1   6   7  120.69   16.00
  -1   6   7   87.89   11.50
  -1   6   7  131.99   17.20
   0  -6  -7  208.08   18.30
   0  -6  -7  178.28   15.60
   0  -6  -7  168.58   18.00
   0  -6  -7  177.08   17.40
   0  -6  -7  173.58   12.80
   0  -6  -7  156.28   15.20
   0   6   7  171.38   18.10
   0   6   7  173.98   14.70
   0   6   7  182.68   17.70
   0   6   7  213.58   22.20
   0   6   7  196.18   19.70
  -1  -6  -7  172.98   16.10
  -1  -6  -7  163.28   17.50
  -1  -6  -7  181.28   15.20
  -1  -6  -7  188.68   16.70
  -1  -6  -7  189.88   15.40
  -1  -6  -7  155.48   12.80
   1   6   7  174.18   19.90
   1   6   7  181.98   20.80
   1   6   7  148.89   18.40
   1   6   7  150.98   17.70
   1   6   7  182.28   14.30
   1   6   7  197.08   17.40
  -2  -6  -7  183.78   15.30
  -2  -6  -7  157.18   14.90
  -2  -6  -7  152.58   13.90
  -2  -6  -7  167.58   16.50
  -2  -6  -7  168.58   15.10
  -2  -6  -7  176.38   14.50
  -2  -6  -7  157.78   15.20
   2   6   7  163.58   14.00
   2   6   7  165.58   18.30
   2   6   7  155.48   21.40
   2   6   7  171.98   15.90
   2   6   7  168.38   18.60
   2   6   7  156.58   17.80
  -3  -6  -7  318.57   24.90
  -3  -6  -7  279.87   23.60
  -3  -6  -7  339.97   24.40
  -3  -6  -7  298.27   23.00
  -3  -6  -7  341.17   23.50
  -3  -6  -7  322.47   23.80
   3   6   7  305.17   26.80
   3   6   7  326.37   29.10
   3   6   7  330.97   24.00
   3   6   7  334.37   25.10
   3   6   7  349.17   23.30
   3   6   7  322.27   26.20
  -4  -6  -7   -6.10    6.20
  -4  -6  -7  -13.50    7.20
  -4  -6  -7    6.80    6.30
  -4  -6  -7   -0.50    7.50
   4   6   7   -9.20    9.80
   4   6   7    1.80    5.60
   4   6   7   14.40   12.20
   4   6   7  -10.90    6.00
   4   6   7   -1.80    5.80
   4   6   7   -8.10    7.30
  -5  -6  -7  338.37   28.50
  -5  -6  -7  423.66   29.30
  -5  -6  -7  437.36   29.80
  -5  -6  -7  348.87   30.00
   5   6   7  441.86   32.00
   5   6   7  446.86   39.40
   5   6   7  448.36   31.10
   5   6   7  414.06   29.40
   5   6   7  395.76   33.40
   5   6   7  406.56   29.20
  -6  -6  -7   27.10   10.70
  -6  -6  -7   -0.80    7.70
  -6  -6  -7   13.00    6.90
  -6  -6  -7    5.40    6.60
   6   6   7   11.70    7.80
   6   6   7   26.40   14.20
   6   6   7   -4.10    8.90
   6   6   7  -13.80    9.70
  -7  -6  -7  160.98   20.30
  -7  -6  -7  135.19   17.00
  -7  -6  -7  116.69   18.30
   7   6   7  130.99   18.60
   7   6   7  159.18   19.30
   7   6   7  143.99   17.20
  -8  -6  -7   29.10   11.20
  -8  -6  -7   43.40   13.10
   8   6   7   29.10   10.40
   8   6   7   24.90   11.50
   8   6   7   34.60   14.90
  -9  -6  -7   63.89   14.70
  -9  -6  -7   45.30   13.50
   9   6   7   65.69   15.50
   9   6   7   52.69   17.70
   9   6   7   24.50   11.60
   4  -7  -7   14.00   11.20
   4  -7  -7    6.90   10.50
   4  -7  -7    4.60   12.30
   4  -7  -7   19.50    8.70
  -4   7   7   -9.40   19.10
  -4   7   7   22.70   19.60
  -4   7   7   28.70   17.80
   3  -7  -7   31.20   14.50
   3  -7  -7    6.70    9.50
   3  -7  -7    9.60    9.40
   3  -7  -7   20.80   10.80
   3  -7  -7    0.20   13.00
   3  -7  -7  -11.30    9.90
  -3   7   7    4.20    8.90
  -3   7   7  -12.70   16.10
  -3   7   7   -9.70   16.10
  -3   7   7   -5.50   17.20
   2  -7  -7   70.79   11.40
   2  -7  -7   40.10   15.30
   2  -7  -7   54.59   10.10
   2  -7  -7   51.89   11.60
   2  -7  -7   47.00    8.80
   2  -7  -7   28.10   11.20
  -2   7   7   62.29   13.30
  -2   7   7   62.49   11.40
  -2   7   7   34.10   17.30
  -2   7   7   40.50    9.60
  -2   7   7   57.29   15.80
   1  -7  -7    3.90    9.00
   1  -7  -7   -5.00    6.20
   1  -7  -7   12.40    7.70
   1  -7  -7    4.90    8.40
   1  -7  -7   16.90    6.70
  -1   7   7   -1.90    7.10
  -1   7   7   11.30   13.00
  -1   7   7   -1.70    7.10
  -1   7   7    3.50    9.60
  -1   7   7  -11.40   10.20
   0  -7  -7  136.29   17.60
   0  -7  -7   99.69   13.00
   0  -7  -7   82.49   10.60
   0  -7  -7   99.39   14.00
   0  -7  -7   59.29   10.10
   0   7   7   91.59   14.40
   0   7   7  118.69   17.70
   0   7   7   92.89   13.50
   0   7   7  104.69   13.30
   0   7   7   70.19   10.10
  -1  -7  -7   16.10    7.50
  -1  -7  -7   26.30    6.20
  -1  -7  -7   35.40    9.10
  -1  -7  -7   25.80    7.80
  -1  -7  -7    6.20    7.80
   1   7   7   21.90    8.40
   1   7   7   34.20   10.50
   1   7   7   22.70    7.00
   1   7   7   24.70   10.80
   1   7   7   26.70   11.10
   1   7   7   29.60   11.00
  -2  -7  -7  286.57   21.60
  -2  -7  -7  280.57   21.70
  -2  -7  -7  246.08   20.10
  -2  -7  -7  274.57   22.80
  -2  -7  -7  311.17   22.00
   2   7   7  215.18   24.60
   2   7   7  282.27   22.20
   2   7   7  276.77   20.40
   2   7   7  242.98   24.20
   2   7   7  226.48   25.80
   2   7   7  305.57   25.10
  -3  -7  -7    2.00    6.10
  -3  -7  -7    5.20    9.80
  -3  -7  -7    2.20    6.50
  -3  -7  -7    8.40    6.90
  -3  -7  -7   -3.00    7.20
   3   7   7    3.20   10.80
   3   7   7   -3.90    6.00
   3   7   7   17.50   12.60
   3   7   7   -4.00    7.20
   3   7   7   20.90    6.80
   3   7   7    7.50   10.20
  -4  -7  -7  259.47   21.90
  -4  -7  -7  236.38   24.20
  -4  -7  -7  278.47   23.40
  -4  -7  -7  223.78   22.30
   4   7   7  263.47   21.60
   4   7   7  313.97   23.90
   4   7   7  277.67   21.20
   4   7   7  254.07   30.00
  -5  -7  -7   12.90    8.50
  -5  -7  -7   -6.10    8.90
  -5  -7  -7    6.70    7.40
  -5  -7  -7   11.90    8.70
   5   7   7   11.60   22.50
   5   7   7    8.50   17.10
   5   7   7   21.80   10.10
   5   7   7   10.60    7.80
   5   7   7    9.20    7.90
  -6  -7  -7  189.08   19.10
  -6  -7  -7  148.19   21.60
  -6  -7  -7  182.98   20.60
  -6  -7  -7  203.68   19.50
   6   7   7  179.88   20.70
   6   7   7  211.38   22.50
   6   7   7  192.68   23.60
   6   7   7  196.18   28.00
  -7  -7  -7   14.80   10.70
  -7  -7  -7   38.70   14.50
  -7  -7  -7   14.10    9.80
  -7  -7  -7   14.80    9.40
   7   7   7   45.50   11.20
   7   7   7   14.50   12.30
   7   7   7   24.70   10.00
   7   7   7   29.30   13.30
  -8  -7  -7  101.09   15.00
  -8  -7  -7  120.99   17.80
   8   7   7  148.09   21.40
   8   7   7  156.88   18.60
   8   7   7  103.79   17.40
  -9  -7  -7   41.90   15.60
  -9  -7  -7   14.90   14.10
   9   7   7   -7.90   13.00
   9   7   7   24.80   17.90
   9   7   7   14.70   11.90
   4  -8  -7   19.60   15.30
  -4   8   7   49.99   25.70
   3  -8  -7   -9.40   17.50
   3  -8  -7   -3.40   11.70
   3  -8  -7   -1.50   10.90
   3  -8  -7  -11.40   11.80
  -3   8   7    6.40   19.40
  -3   8   7   -4.30   17.80
  -3   8   7   11.40   18.70
   2  -8  -7  -10.80   13.70
   2  -8  -7    2.40   10.30
   2  -8  -7  -21.40   16.90
   2  -8  -7   14.20    9.60
   2  -8  -7   -7.00   10.50
  -2   8   7   -8.30   13.40
  -2   8   7   23.80   18.70
  -2   8   7    0.40   18.70
   1  -8  -7   14.70   10.20
   1  -8  -7   25.90   10.90
   1  -8  -7   35.30   11.20
   1  -8  -7   30.00    9.90
   1  -8  -7   35.40   12.90
  -1   8   7   30.40   10.10
  -1   8   7   24.50   12.90
  -1   8   7   39.10   17.30
  -1   8   7   -5.10   18.40
   0  -8  -7    0.50   11.70
   0  -8  -7    8.90    7.80
   0  -8  -7    6.40    8.40
   0  -8  -7   -6.00    6.50
   0   8   7   11.80   11.00
   0   8   7   -6.80   13.10
   0   8   7   -1.10   15.40
   0   8   7   22.30   13.60
   0   8   7   13.20    9.70
   0   8   7    1.30    7.70
  -1  -8  -7   84.89   13.10
  -1  -8  -7   77.59   12.40
  -1  -8  -7   83.19   13.90
  -1  -8  -7   84.19   13.50
  -1  -8  -7   99.99   12.40
   1   8   7   85.49   13.80
   1   8   7   80.99   14.90
   1   8   7  113.59   13.60
   1   8   7  105.79   14.90
   1   8   7  136.19   19.50
  -2  -8  -7   29.90    9.60
  -2  -8  -7   -4.50    7.70
  -2  -8  -7   21.00    7.60
  -2  -8  -7    7.70    6.90
  -2  -8  -7    8.50    8.00
   2   8   7   -9.50   10.30
   2   8   7   24.80    9.00
   2   8   7  -31.50   11.00
   2   8   7   -5.00   11.70
   2   8   7    4.10    7.20
  -3  -8  -7  185.18   19.60
  -3  -8  -7  229.48   19.60
  -3  -8  -7  235.08   19.90
  -3  -8  -7  190.48   24.80
  -3  -8  -7  190.18   20.70
  -3  -8  -7  221.18   20.90
   3   8   7  164.88   22.10
   3   8   7  197.78   25.30
   3   8   7  203.28   18.20
   3   8   7  205.18   20.60
   3   8   7  178.58   23.40
  -4  -8  -7   -5.40   11.70
  -4  -8  -7    2.60   13.40
  -4  -8  -7   20.00    9.90
  -4  -8  -7    2.60   10.10
   4   8   7    2.90    8.90
   4   8   7   -0.60    9.20
   4   8   7   10.90    8.20
   4   8   7    2.00   15.70
  -5  -8  -7  142.39   20.50
  -5  -8  -7  193.18   20.80
  -5  -8  -7  144.99   22.50
  -5  -8  -7  175.78   21.60
   5   8   7  175.28   21.80
   5   8   7  193.18   20.00
   5   8   7  185.68   19.30
  -6  -8  -7   28.50   11.60
  -6  -8  -7   31.80   11.20
  -6  -8  -7   16.60   12.80
  -6  -8  -7   29.20   11.80
   6   8   7   35.50   10.30
   6   8   7   36.60   12.50
   6   8   7   43.90   13.20
  -7  -8  -7  142.69   20.50
  -7  -8  -7  113.79   16.10
  -7  -8  -7  161.28   19.50
   7   8   7  143.69   20.70
   7   8   7  113.39   16.80
   7   8   7  159.18   19.20
  -8  -8  -7   56.89   15.60
  -8  -8  -7   40.40   12.40
   8   8   7   25.70   16.60
   8   8   7   58.09   18.20
   8   8   7   37.40   13.60
   8   8   7   18.20   11.40
   2  -9  -7    9.10   12.50
   2  -9  -7   11.60   13.50
   2  -9  -7  -45.50   21.30
   2  -9  -7    2.10   11.20
  -2   9   7  -11.60   20.50
   1  -9  -7    5.50   11.90
   1  -9  -7   13.50   12.30
   1  -9  -7    9.10   10.60
  -1   9   7   -4.60   13.30
  -1   9   7   14.10   21.00
  -1   9   7   -6.50   18.60
   0  -9  -7    5.80   12.80
   0  -9  -7    0.10    8.50
   0  -9  -7  -11.40   10.80
   0  -9  -7   16.20   15.10
   0  -9  -7   -2.40   11.10
   0   9   7   -0.30   12.40
   0   9   7   -9.30   18.30
   0   9   7    3.50    8.30
   0   9   7   -1.50    6.40
   0   9   7   -8.10   16.70
   0   9   7    9.90    9.50
  -1  -9  -7    8.40   13.70
  -1  -9  -7    1.20    8.20
  -1  -9  -7   -2.90    8.40
  -1  -9  -7   12.50   11.00
  -1  -9  -7    4.00   11.00
   1   9   7   -4.50   15.00
   1   9   7   -3.60   15.80
   1   9   7   13.80    8.90
   1   9   7    7.90   11.00
   1   9   7   37.90   20.30
  -2  -9  -7    3.50    8.40
  -2  -9  -7    5.10   10.60
  -2  -9  -7   19.00    9.80
  -2  -9  -7   13.60   13.80
  -2  -9  -7   -3.00   10.10
   2   9   7    8.20   13.90
   2   9   7   42.40   16.60
   2   9   7    3.70   14.90
   2   9   7    1.90    8.60
   2   9   7    7.70    9.90
  -3  -9  -7   24.20   11.40
  -3  -9  -7    5.90    9.90
  -3  -9  -7   20.80   12.00
  -3  -9  -7   12.10   11.90
   3   9   7   25.70   15.80
   3   9   7    7.40    8.30
   3   9   7    2.40   13.80
   3   9   7   20.50   10.30
  -4  -9  -7    8.90   23.40
  -4  -9  -7   24.10   11.90
  -4  -9  -7    8.90   12.60
  -4  -9  -7   16.40    9.50
   4   9   7    3.80    9.70
   4   9   7  -10.50   12.70
   4   9   7  -13.40   16.30
  -5  -9  -7   32.90   11.10
  -5  -9  -7   36.40   14.10
  -5  -9  -7   27.70   12.40
   5   9   7   24.90   13.50
   5   9   7   36.10   14.60
   5   9   7   49.30   11.40
  -6  -9  -7   47.10   19.10
  -6  -9  -7   41.20   11.80
  -6  -9  -7   25.20   13.40
   6   9   7   58.19   12.80
   6   9   7   47.00   15.80
   6   9   7   51.99   13.10
  -7  -9  -7   23.00   12.70
  -7  -9  -7   40.90   13.60
   7   9   7   45.30   19.00
   7   9   7   55.29   14.90
   7   9   7   32.20   13.00
  -8  -9  -7   32.80   14.50
  -8  -9  -7   46.30   15.60
   8   9   7   18.90   20.80
   8   9   7   50.49   15.20
   8   9   7   23.10   16.00
   1 -10  -7    7.20   14.70
   1 -10  -7    6.70   10.80
   1 -10  -7   -1.00   14.30
  -1  10   7   -5.70   25.60
  -1  10   7  -15.90   16.40
   0 -10  -7   14.60   16.20
   0 -10  -7   10.90    9.60
   0 -10  -7  -32.80   12.60
   0  10   7  -26.90   25.90
   0  10   7  -16.30   12.00
   0  10   7   -6.40   13.70
  -1 -10  -7   18.50   17.80
  -1 -10  -7    3.40   13.20
  -1 -10  -7    4.70   10.00
   1  10   7   22.40   17.30
   1  10   7   12.40   10.60
   1  10   7   12.50   21.30
   1  10   7    4.90   12.70
   1  10   7    1.70   24.90
  -2 -10  -7   17.20   13.30
  -2 -10  -7    0.00   13.00
  -2 -10  -7   21.60   11.10
   2  10   7   -1.00   10.20
   2  10   7   16.30   23.20
   2  10   7   -0.20   12.00
   2  10   7   10.30   17.50
  -3 -10  -7   17.10   13.50
  -3 -10  -7    7.40   10.70
  -3 -10  -7  -11.70   11.10
   3  10   7    9.50   22.40
   3  10   7   22.60   16.40
   3  10   7    3.80   10.60
   3  10   7    7.40   10.50
  -4 -10  -7    6.20   11.20
  -4 -10  -7   10.10   12.40
  -4 -10  -7   -0.40   14.70
   4  10   7  -24.80   24.40
   4  10   7    5.70   10.70
   4  10   7   12.40   16.00
   4  10   7    9.60   11.80
  -5 -10  -7    4.30   14.60
  -5 -10  -7    5.00   14.90
  -5 -10  -7   12.10   12.50
   5  10   7   15.30   19.70
   5  10   7   18.50   11.20
   5  10   7    5.00   14.60
   5  10   7    9.50   14.80
  -6 -10  -7   25.70   13.00
  -6 -10  -7    4.80   15.60
   6  10   7   44.20   13.80
   6  10   7   38.70   16.10
   6  10   7   20.80   13.30
  -7 -10  -7  -19.60   14.40
  -7 -10  -7   -0.30   13.50
   7  10   7   10.30   13.70
   7  10   7    2.20   14.20
   1  11   7   23.30   14.90
  -2 -11  -7  -23.50   15.90
  -2 -11  -7    6.80   11.50
  -2 -11  -7   11.50   16.90
   2  11   7  -10.90   13.70
   2  11   7  -23.80   28.60
   2  11   7    1.80   11.60
  -3 -11  -7   14.00   14.40
  -3 -11  -7   -6.60   15.80
  -3 -11  -7   -1.70   12.30
   3  11   7   -8.10   29.80
   3  11   7  -27.80   12.60
   3  11   7    4.60   11.40
  -4 -11  -7   -1.60   17.40
  -4 -11  -7  -16.60   13.40
  -4 -11  -7   -6.90   12.30
   4  11   7   22.50   26.90
   4  11   7  -10.80   13.20
   4  11   7   -7.30   12.20
  -5 -11  -7   12.90   13.80
  -5 -11  -7   20.90   18.70
  -5 -11  -7   17.50   15.30
   5  11   7   -2.30   14.60
   5  11   7   10.80   26.00
   5  11   7   37.20   12.90
   3   8  -8   -6.90   16.60
  -3  -8   8   22.80   23.60
  -3  -8   8   -3.40    8.80
   2   8  -8    0.40   15.90
  -2  -8   8  -18.20   20.10
  -1  -8   8   -2.90    7.50
  -1  -8   8  -18.70   19.90
   0  -8   8   -2.60    9.30
   0  -8   8    5.80   20.20
   5   7  -8  112.19   20.10
  -5  -7   8  141.49   21.50
  -5  -7   8   60.49   16.80
  -5  -7   8   97.79   29.30
   4   7  -8  138.49   21.30
  -4  -7   8  105.49   27.30
  -4  -7   8  124.69   18.50
  -4  -7   8  108.79   13.50
  -4  -7   8   78.69   14.80
   3   7  -8   59.89   16.10
  -3  -7   8   28.50   11.30
  -3  -7   8   60.59    8.20
  -3  -7   8   45.60   13.40
  -3  -7   8   47.40   23.70
   2   7  -8   82.19   17.80
   2   7  -8   43.30   18.40
  -2  -7   8   93.39   11.00
  -2  -7   8   31.60   18.60
  -2  -7   8   53.79   13.00
  -2  -7   8   88.49    9.20
   1   7  -8   12.10   17.00
   1   7  -8   48.40   15.00
  -1  -7   8   37.80    7.10
  -1  -7   8   55.29   12.10
  -1  -7   8   32.10    6.20
  -1  -7   8   22.80   10.40
  -1  -7   8   23.50   18.80
   0   7  -8   32.50   17.40
   0  -7   8    7.70    6.90
   0  -7   8    2.40   15.00
   0  -7   8   21.40    7.80
   0  -7   8    9.20    4.80
  -1   7  -8   -7.90    9.40
  -1   7  -8   -6.10   17.00
   1  -7   8    0.10   14.70
   1  -7   8   17.60    6.00
   1  -7   8    1.30    8.70
  -2   7  -8   23.00   10.90
  -2   7  -8   23.50   18.50
   2  -7   8   20.90   14.40
   6   6  -8   12.60   15.20
  -6  -6   8    8.90   18.90
  -6  -6   8   20.90   15.80
  -6  -6   8   36.50   24.10
   5   6  -8  408.36   36.70
  -5  -6   8  419.86   49.30
  -5  -6   8  379.06   36.60
   4   6  -8    7.50   12.90
  -4  -6   8   26.20   21.90
  -4  -6   8   -6.30   19.70
  -4  -6   8   23.90    7.40
  -4  -6   8    8.10   10.80
  -4  -6   8    6.80   12.90
  -4  -6   8   18.60    6.80
   3   6  -8  361.16   34.00
   3   6  -8  272.07   35.50
  -3  -6   8  349.37   23.60
  -3  -6   8  321.17   28.30
  -3  -6   8  325.07   22.50
  -3  -6   8  362.16   40.10
  -3  -6   8  370.86   24.40
   2   6  -8   -7.40   13.20
   2   6  -8    6.80   11.60
  -2  -6   8   17.70    4.60
  -2  -6   8   11.10    5.20
  -2  -6   8    6.20    7.30
  -2  -6   8   -3.60    9.10
  -2  -6   8   12.50    7.70
  -2  -6   8    6.30    6.20
  -2  -6   8  -24.40   14.10
  -2  -6   8    5.10    5.10
  -2  -6   8   -7.60    7.50
   1   6  -8  228.58   24.70
   1   6  -8  221.18   29.80
  -1  -6   8  263.37   19.60
  -1  -6   8  213.28   16.30
  -1  -6   8  210.08   27.90
  -1  -6   8  254.27   19.20
  -1  -6   8  213.08   14.60
  -1  -6   8  211.78   16.30
   0   6  -8   -4.60   14.20
   0   6  -8   -9.10   10.20
   0  -6   8    5.90    5.70
   0  -6   8   -6.40    5.60
   0  -6   8   -2.50    5.60
   0  -6   8    7.60    8.20
   0  -6   8   15.50   18.60
  -1   6  -8  129.69   22.00
  -1   6  -8  175.48   18.90
   1  -6   8  186.98   16.10
   1  -6   8  168.28   13.30
   1  -6   8  140.29   18.10
   1  -6   8  171.78   17.00
  -2   6  -8   -3.00    8.60
  -2   6  -8   -6.20   13.80
   2  -6   8  -10.00    9.30
   2  -6   8    1.80    5.50
  -3   6  -8    7.20   14.80
  -3   6  -8    4.70    9.10
   3  -6   8    5.50    5.70
   3  -6   8   -6.60   11.10
   3  -6   8   -1.20    7.70
  -4   6  -8   17.20   18.50
  -4   6  -8    9.30    9.70
   4  -6   8   11.60   10.00
   4  -6   8   10.00    6.60
   4  -6   8   17.40   12.90
   4  -6   8   -7.20   13.50
   7   5  -8   37.20   15.10
  -7  -5   8   77.89   26.50
  -7  -5   8   17.90   21.40
  -7  -5   8   -0.20   17.70
   6   5  -8  315.67   32.30
  -6  -5   8  274.57   32.70
  -6  -5   8  286.47   33.90
  -6  -5   8  383.86   44.50
   5   5  -8   97.29   17.70
  -5  -5   8   95.49   12.80
  -5  -5   8   98.59   13.70
  -5  -5   8   83.89   22.00
  -5  -5   8   81.39   17.20
  -5  -5   8   93.19   11.00
  -5  -5   8   91.79   16.00
  -5  -5   8   73.29   22.30
   4   5  -8  646.34   52.99
   4   5  -8  728.93   49.10
  -4  -5   8  713.23   48.60
  -4  -5   8  733.53   44.40
  -4  -5   8  709.83   43.10
  -4  -5   8  674.33   57.09
  -4  -5   8  735.03   55.19
  -4  -5   8  669.63   43.20
  -4  -5   8  672.53   42.80
   3   5  -8  103.49   14.60
   3   5  -8   80.79   17.10
   3   5  -8  115.59   10.80
  -3  -5   8  138.79   23.80
  -3  -5   8  129.49   14.40
  -3  -5   8   96.89   10.50
  -3  -5   8   61.19   12.90
  -3  -5   8   99.09   13.80
  -3  -5   8  146.89   22.80
  -3  -5   8  102.29   14.50
   2   5  -8  583.54   51.89
   2   5  -8  783.82   48.50
  -2  -5   8  698.03   42.20
  -2  -5   8  673.43   44.20
  -2  -5   8  836.42   63.79
  -2  -5   8  758.32   44.10
  -2  -5   8  731.63   46.00
   1   5  -8  137.99   18.20
   1   5  -8  109.49   29.20
  -1  -5   8  146.39   12.80
  -1  -5   8  124.79   15.90
  -1  -5   8  112.59   19.00
  -1  -5   8  161.58   13.80
  -1  -5   8  143.59   14.60
  -1  -5   8  147.39   12.30
  -1  -5   8  160.08   12.40
   0   5  -8  439.36   32.00
   0   5  -8  414.16   47.10
   0  -5   8  423.86   28.60
   0  -5   8  378.86   26.90
   0  -5   8  446.76   27.40
   0  -5   8  429.16   27.30
   0  -5   8  400.26   27.40
   0  -5   8  437.56   28.40
  -1   5  -8  125.29   22.40
  -1   5  -8   89.19   11.80
   1  -5   8   86.89   12.20
   1  -5   8   88.49   10.60
   1  -5   8   91.59    9.20
   1  -5   8   80.59   10.60
   1  -5   8   90.19   12.60
   1  -5   8   92.79   11.50
  -2   5  -8  141.89   23.90
  -2   5  -8  117.89   14.90
   2  -5   8  117.19   14.30
   2  -5   8  132.19   15.20
   2  -5   8  132.49   15.30
   2  -5   8   99.39   12.90
   2  -5   8  129.49   15.50
   2  -5   8  117.09   11.00
  -3   5  -8   85.39   11.70
   3  -5   8   90.69   11.70
   3  -5   8   78.89   10.20
   3  -5   8   65.59   14.50
   3  -5   8   63.19   12.40
   3  -5   8  104.09   13.20
  -4   5  -8   17.50   24.70
  -4   5  -8   26.50    9.40
   4  -5   8   32.50    8.50
   4  -5   8   37.20    9.20
   4  -5   8   25.00   13.50
   4  -5   8   46.70   12.20
  -5   5  -8   30.60   17.70
  -5   5  -8   29.90    9.80
   5  -5   8    3.60   10.40
   5  -5   8   30.70    9.80
   5  -5   8   12.70   12.10
   7   4  -8   47.80    8.30
   7   4  -8   55.39   14.90
  -7  -4   8   59.79   20.10
  -7  -4   8   74.09   25.80
  -7  -4   8  100.99   21.00
   6   4  -8  186.78   14.00
   6   4  -8  202.68   25.30
  -6  -4   8  162.88   29.70
  -6  -4   8  167.18   19.30
  -6  -4   8  180.58   24.10
  -6  -4   8  181.28   25.30
   5   4  -8  212.58   23.00
   5   4  -8  180.48   18.20
   5   4  -8  167.68   26.40
  -5  -4   8  162.98   16.60
  -5  -4   8  178.98   22.50
  -5  -4   8  185.08   16.70
  -5  -4   8  189.48   24.20
  -5  -4   8  187.08   27.40
  -5  -4   8  149.69   16.10
   4   4  -8  333.37   37.90
   4   4  -8  437.56   33.10
   4   4  -8  421.76   28.70
  -4  -4   8  400.76   33.60
  -4  -4   8  459.35   42.30
  -4  -4   8  414.36   33.40
  -4  -4   8  464.45   27.60
  -4  -4   8  436.76   28.00
  -4  -4   8  388.06   28.00
  -4  -4   8  405.86   27.10
   3   4  -8  304.37   25.30
   3   4  -8  274.47   20.70
  -3  -4   8  307.77   21.20
  -3  -4   8  289.07   20.30
  -3  -4   8  301.37   31.70
  -3  -4   8  314.67   21.40
  -3  -4   8  286.77   25.40
  -3  -4   8  292.37   20.10
   2   4  -8  622.44   48.40
   2   4  -8  731.03   44.80
   2   4  -8  715.93   40.70
  -2  -4   8  633.44   39.00
  -2  -4   8  625.44   41.70
  -2  -4   8  706.73   41.70
  -2  -4   8  617.04   41.50
   1   4  -8  348.67   31.10
   1   4  -8  334.87   22.20
   1   4  -8  347.97   26.90
   1   4  -8  375.66   22.40
  -1  -4   8  364.26   23.40
  -1  -4   8  392.36   25.30
  -1  -4   8  303.87   31.70
  -1  -4   8  321.67   36.60
  -1  -4   8  377.06   23.20
  -1  -4   8  343.67   26.40
  -1  -4   8  337.17   23.70
   0   4  -8  767.02   48.70
   0   4  -8  832.02   53.69
   0   4  -8  765.92   49.90
   0  -4   8  734.63   48.40
   0  -4   8  720.23   46.80
   0  -4   8  743.93   47.10
   0  -4   8  763.32   47.10
   0  -4   8  837.62   47.40
   0  -4   8  813.72   47.10
  -1   4  -8  130.09   13.40
  -1   4  -8  109.99   18.80
  -1   4  -8  135.39   15.70
   1  -4   8  117.49   12.60
   1  -4   8  133.99   12.50
   1  -4   8  138.59   13.00
   1  -4   8  124.69   10.70
   1  -4   8  121.29   12.50
   1  -4   8  126.59   12.20
  -2   4  -8  374.96   25.80
  -2   4  -8  430.36   32.40
   2  -4   8  330.97   25.10
   2  -4   8  377.46   26.10
   2  -4   8  357.76   23.90
   2  -4   8  346.37   24.20
   2  -4   8  374.26   26.80
   2  -4   8  374.86   26.90
  -3   4  -8   64.89    9.50
  -3   4  -8   65.09   14.50
   3  -4   8   70.19   10.90
   3  -4   8   79.79    9.90
   3  -4   8   82.89   13.30
   3  -4   8   51.19   12.40
   3  -4   8   85.89   11.70
   3  -4   8   75.19    9.20
  -4   4  -8  124.29   17.70
  -4   4  -8  171.38   23.10
   4  -4   8  164.88   19.30
   4  -4   8  151.38   15.60
   4  -4   8  143.29   20.00
   4  -4   8  160.08   21.90
   4  -4   8  158.38   15.20
  -5   4  -8    0.40   12.80
  -5   4  -8    1.30    7.50
   5  -4   8   -2.30    9.20
   5  -4   8   -6.50   10.10
   5  -4   8   30.10    8.80
  -6   4  -8   37.40   10.50
  -6   4  -8   33.70   31.30
   6  -4   8   22.70   13.20
   6  -4   8   28.80   10.00
   6  -4   8   23.20   14.80
   7   3  -8   49.70   15.70
   7   3  -8   47.10    9.10
  -7  -3   8   39.10   18.30
  -7  -3   8   37.70   24.90
  -7  -3   8   19.60   17.40
   6   3  -8    1.80   12.40
   6   3  -8    8.20   10.70
   6   3  -8    5.90    7.50
   6   3  -8   -2.50    5.60
  -6  -3   8  -30.60   16.80
  -6  -3   8  -15.80   14.20
  -6  -3   8   27.30   15.30
  -6  -3   8    4.80    8.90
   5   3  -8  201.98   14.90
   5   3  -8  165.48   20.30
   5   3  -8  225.48   16.10
   5   3  -8  199.18   23.80
   5   3  -8  235.88   33.90
  -5  -3   8  207.88   25.70
  -5  -3   8  283.77   32.10
  -5  -3   8  209.88   17.00
  -5  -3   8  219.38   25.30
  -5  -3   8  220.88   17.00
  -5  -3   8  193.58   17.10
   4   3  -8   19.70    9.00
   4   3  -8   -5.20   11.10
   4   3  -8    3.50    4.10
   4   3  -8    1.70    3.40
  -4  -3   8    1.80    4.50
  -4  -3   8  -12.00    4.90
  -4  -3   8   15.40   20.40
  -4  -3   8   20.00   17.80
  -4  -3   8    2.90    9.00
  -4  -3   8   -3.60    4.90
   3   3  -8  319.77   22.90
   3   3  -8  337.57   26.00
  -3  -3   8  303.57   20.90
  -3  -3   8  335.17   26.70
  -3  -3   8  325.37   22.20
  -3  -3   8  336.27   22.00
  -3  -3   8  349.96   32.30
  -3  -3   8  347.87   23.40
   2   3  -8   25.50    4.20
   2   3  -8   22.30    5.20
   2   3  -8   29.10   10.80
   2   3  -8   22.40    7.50
  -2  -3   8   20.80    3.40
  -2  -3   8   16.70    5.90
  -2  -3   8   14.10    8.30
  -2  -3   8   31.30    6.00
  -2  -3   8    9.90   11.90
  -2  -3   8   20.80    7.90
  -2  -3   8   16.20    6.80
   1   3  -8  975.00   58.69
   1   3  -8 1038.00   62.39
   1   3  -8 1008.40   56.29
   1   3  -8  873.21   55.89
  -1  -3   8  932.21   57.99
  -1  -3   8  878.51   56.49
  -1  -3   8  885.41   58.79
  -1  -3   8  925.01   55.29
  -1  -3   8  976.80   56.79
  -1  -3   8  927.41   56.69
   0   3  -8    1.60    3.40
   0   3  -8    1.70    4.50
   0   3  -8    2.30    3.50
   0   3  -8   -4.40    8.10
   0   3  -8    5.40    4.00
   0   3  -8   -3.90    5.60
   0  -3   8    4.30    6.30
   0  -3   8   12.50    4.80
   0  -3   8    4.70    3.80
   0  -3   8   -6.80    3.70
   0  -3   8   -0.70    4.40
   0  -3   8   -4.20    4.40
  -1   3  -8  794.02   48.40
  -1   3  -8  677.63   42.20
  -1   3  -8  698.13   43.70
  -1   3  -8  701.43   44.60
  -1   3  -8  712.43   41.70
  -1   3  -8  706.83   43.20
   1  -3   8  684.83   42.70
   1  -3   8  694.53   43.60
   1  -3   8  669.23   43.50
   1  -3   8  659.13   42.60
   1  -3   8  709.53   43.70
   1  -3   8  725.03   43.60
  -2   3  -8   21.80    3.90
  -2   3  -8   12.60    5.90
  -2   3  -8   20.00    8.90
  -2   3  -8   28.70    6.20
   2  -3   8   22.70    6.00
   2  -3   8   17.20    4.90
   2  -3   8   26.00    5.80
   2  -3   8   10.50    5.90
   2  -3   8   15.90    7.50
   2  -3   8   12.80    6.90
  -3   3  -8  685.93   42.50
  -3   3  -8  561.04   35.60
  -3   3  -8  582.14   38.90
  -3   3  -8  563.64   37.70
   3  -3   8  581.14   37.40
   3  -3   8  578.34   37.20
   3  -3   8  605.04   40.40
   3  -3   8  596.24   38.60
   3  -3   8  608.34   39.80
  -4   3  -8    1.90    5.40
  -4   3  -8   -5.90    4.80
  -4   3  -8    0.30    9.50
   4  -3   8   -5.90    6.80
   4  -3   8   -9.50   12.20
   4  -3   8    4.10    6.00
   4  -3   8  -11.80    6.80
   4  -3   8    9.30    9.10
  -5   3  -8  113.89   15.60
  -5   3  -8  116.99   14.70
  -5   3  -8  117.19   20.50
   5  -3   8  120.09   14.70
   5  -3   8  115.39   17.40
   5  -3   8  134.39   17.40
   5  -3   8  104.39   13.40
  -6   3  -8  -13.70    8.50
  -6   3  -8   -7.80   11.80
   6  -3   8   11.00   11.00
   6  -3   8  -12.60    9.40
   6  -3   8    3.20    8.00
   7   2  -8   23.10   16.60
   7   2  -8   23.90   15.10
  -7  -2   8   -5.40   23.20
  -7  -2   8   36.00   18.30
  -7  -2   8   24.50   16.70
   6   2  -8    6.60    8.40
   6   2  -8   22.80   11.90
   6   2  -8    8.20   12.80
   6   2  -8   -3.50    5.80
   6   2  -8   41.50   14.20
  -6  -2   8    8.00   14.00
  -6  -2   8    2.70   14.60
  -6  -2   8   41.40   18.50
  -6  -2   8  -24.90   10.50
  -6  -2   8   11.10    8.00
   5   2  -8   32.40   10.10
   5   2  -8   62.69    8.50
   5   2  -8   64.19   15.20
   5   2  -8   64.09    8.40
   5   2  -8   38.00   15.80
  -5  -2   8   55.69   17.00
  -5  -2   8   57.09   14.20
  -5  -2   8   65.99   18.60
  -5  -2   8   62.09    9.40
  -5  -2   8   36.30    8.40
   4   2  -8   -1.40    6.20
   4   2  -8   21.60    9.40
   4   2  -8   -0.70    3.60
   4   2  -8  -12.40   10.30
   4   2  -8    2.80    4.60
  -4  -2   8    2.10    5.20
  -4  -2   8   -7.50   13.10
  -4  -2   8    8.20   11.40
  -4  -2   8    6.50    4.90
  -4  -2   8    3.30    3.80
  -4  -2   8   -4.10    8.90
   3   2  -8  205.68   25.00
   3   2  -8  296.77   17.70
   3   2  -8  269.47   23.70
   3   2  -8  289.47   16.60
   3   2  -8  272.97   18.10
  -3  -2   8  301.57   23.70
  -3  -2   8  285.07   19.30
  -3  -2   8  286.17   28.30
  -3  -2   8  237.88   20.30
  -3  -2   8  279.57   17.90
  -3  -2   8  210.88   24.40
   2   2  -8   97.09    7.20
   2   2  -8  100.09   15.80
   2   2  -8  107.99    7.30
   2   2  -8   91.99   12.60
   2   2  -8   74.59    8.00
  -2  -2   8   56.69   13.40
  -2  -2   8   82.39   11.80
  -2  -2   8   84.49   10.90
  -2  -2   8   76.89   18.10
  -2  -2   8  100.09   10.80
  -2  -2   8   86.79    7.30
  -2  -2   8   51.69   11.40
   1   2  -8   18.40    5.50
   1   2  -8   20.60    4.90
   1   2  -8   36.80    7.10
   1   2  -8   24.60    3.00
   1   2  -8   38.70   10.50
  -1  -2   8   17.90    6.10
  -1  -2   8   24.20    8.20
  -1  -2   8   22.80    7.00
  -1  -2   8   14.90    5.60
  -1  -2   8   25.90    5.40
   0   2  -8  286.37   20.50
   0   2  -8  313.67   22.50
   0   2  -8  315.87   21.20
   0   2  -8  352.56   26.20
   0   2  -8  307.47   20.50
   0   2  -8  310.87   20.40
   0  -2   8  320.47   22.10
   0  -2   8  321.77   19.80
   0  -2   8  344.37   22.10
   0  -2   8  311.37   21.40
   0  -2   8  285.67   21.10
   0  -2   8  343.67   23.50
  -1   2  -8   33.60    6.40
  -1   2  -8   42.20    5.80
  -1   2  -8   32.70    4.90
  -1   2  -8   35.60   10.20
  -1   2  -8   32.80    5.50
  -1   2  -8   27.80    5.30
   1  -2   8   40.30    6.40
   1  -2   8   34.50    6.20
   1  -2   8   34.50    6.60
   1  -2   8   32.90    7.00
   1  -2   8   31.90    6.80
  -2   2  -8  257.17   21.20
  -2   2  -8  200.58   15.80
  -2   2  -8  223.88   17.50
  -2   2  -8  214.28   14.90
  -2   2  -8  197.18   16.30
  -2   2  -8  229.98   17.10
   2  -2   8  209.28   15.90
   2  -2   8  234.28   17.70
   2  -2   8  247.38   18.70
   2  -2   8  224.78   16.60
   2  -2   8  230.38   17.60
  -3   2  -8    3.40    3.60
  -3   2  -8    3.60    3.90
  -3   2  -8   -5.70    5.30
  -3   2  -8    2.10    7.80
   3  -2   8    1.60    5.20
   3  -2   8    4.10    8.30
   3  -2   8    0.00    4.60
   3  -2   8    3.90    6.90
   3  -2   8    1.00    5.00
  -4   2  -8  161.88   14.10
  -4   2  -8  187.18   19.90
  -4   2  -8  170.28   15.10
   4  -2   8  144.49   18.00
   4  -2   8  164.68   16.00
   4  -2   8  163.38   14.90
   4  -2   8  174.68   16.20
   4  -2   8  162.28   20.60
  -5   2  -8   53.39   12.60
  -5   2  -8   49.90    8.70
  -5   2  -8   50.09    9.20
   5  -2   8   60.29   12.30
   5  -2   8   53.99   10.00
   5  -2   8   60.69   10.00
   5  -2   8   42.30   11.20
  -6   2  -8   72.89   12.70
  -6   2  -8  101.49   16.30
   6  -2   8   58.99   11.90
   6  -2   8   85.19   12.50
   6  -2   8   83.79   12.00
  -7   2  -8   22.90   13.20
  -7   2  -8   28.60   11.80
   7  -2   8   29.00   11.20
   7  -2   8   30.00    9.90
   7  -2   8   21.30   11.70
   7   1  -8   67.39   19.60
   7   1  -8   64.39   11.50
   7   1  -8   60.79   15.80
  -7  -1   8   54.09   18.30
  -7  -1   8   83.99   27.70
  -7  -1   8   61.99   21.80
   6   1  -8   37.10   13.50
   6   1  -8   32.80   14.10
   6   1  -8   28.40    4.90
   6   1  -8   27.60   14.00
   6   1  -8   31.20    7.40
  -6  -1   8   40.70    9.30
  -6  -1   8   37.20   19.00
  -6  -1   8   21.40    6.70
  -6  -1   8   40.20   16.10
  -6  -1   8   51.39   15.40
   5   1  -8    2.00    8.00
   5   1  -8   21.20   19.00
   5   1  -8   12.90   12.00
   5   1  -8    3.60    6.90
   5   1  -8    9.10    3.70
   5   1  -8   10.20    5.10
  -5  -1   8   28.50   16.80
  -5  -1   8    2.60   12.10
  -5  -1   8    9.80    3.90
  -5  -1   8   -4.20    7.00
  -5  -1   8    2.60   11.30
   4   1  -8   16.00    9.90
   4   1  -8   15.10    4.00
   4   1  -8   20.60    5.20
   4   1  -8   18.10    6.80
   4   1  -8   13.50    9.90
   4   1  -8    9.30    5.60
  -4  -1   8   22.50   13.20
  -4  -1   8   31.80   10.40
  -4  -1   8   26.90   13.10
  -4  -1   8   18.40    3.30
  -4  -1   8  -15.50   15.70
  -4  -1   8   19.80    6.40
  -4  -1   8   27.00    6.10
   3   1  -8   -0.80    8.30
   3   1  -8   -0.50    3.20
   3   1  -8   10.50    5.50
   3   1  -8   -9.60    4.00
   3   1  -8   -0.70    3.40
   3   1  -8   -8.20    7.00
  -3  -1   8    0.10    6.80
  -3  -1   8  -11.70   10.20
  -3  -1   8   -8.90    6.30
  -3  -1   8   -0.90    4.20
  -3  -1   8   -6.90    3.70
  -3  -1   8  -23.60   12.10
  -3  -1   8  -16.10    9.20
   2   1  -8  417.76   29.50
   2   1  -8  412.06   25.10
   2   1  -8  338.37   27.20
   2   1  -8  335.57   23.20
   2   1  -8  348.07   24.80
   2   1  -8  416.16   23.20
   2   1  -8  376.26   23.60
  -2  -1   8  359.06   25.20
  -2  -1   8  288.87   29.90
  -2  -1   8  365.26   24.80
  -2  -1   8  369.06   22.80
  -2  -1   8  352.66   27.20
   1   1  -8  118.39   10.10
   1   1  -8  117.19   11.70
   1   1  -8  134.49    9.00
   1   1  -8  151.98   16.70
   1   1  -8  128.69   13.40
  -1  -1   8  116.89   11.20
  -1  -1   8  113.19   11.10
  -1  -1   8  116.89   15.10
  -1  -1   8   93.29   12.60
   0   1  -8   47.50    7.00
   0   1  -8   44.80    7.20
   0   1  -8   39.90    4.80
   0   1  -8   43.90    9.90
   0   1  -8   42.50    5.50
   0   1  -8   42.00    6.20
   0   1  -8   42.80    5.60
   0   1  -8   42.50    5.90
   0  -1   8   50.29    8.90
   0  -1   8   48.20    7.70
   0  -1   8   48.20    4.50
   0  -1   8   48.20    6.90
   0  -1   8   51.49    8.70
   0  -1   8   37.50    7.10
  -1   1  -8  105.29    9.00
  -1   1  -8  122.39   15.60
  -1   1  -8  111.09   10.50
  -1   1  -8  103.29    9.60
  -1   1  -8  138.49   13.00
  -1   1  -8   95.79    8.00
   1  -1   8  114.39   11.70
   1  -1   8  116.49   10.40
   1  -1   8  109.99   10.50
   1  -1   8   80.39   11.10
   1  -1   8  102.99   11.50
  -2   1  -8   36.30    4.50
  -2   1  -8   29.50    5.30
  -2   1  -8   40.60    9.90
  -2   1  -8   38.70    5.40
  -2   1  -8   41.20    6.00
  -2   1  -8   33.30    5.20
  -2   1  -8   33.60    4.70
  -2   1  -8   46.70    5.90
   2  -1   8   54.79    8.20
   2  -1   8   40.00    6.10
   2  -1   8   38.20    7.20
   2  -1   8   33.20    6.40
   2  -1   8   35.00    8.60
  -3   1  -8  279.97   20.00
  -3   1  -8  278.37   17.40
  -3   1  -8  257.47   18.90
  -3   1  -8  274.07   17.40
  -3   1  -8  290.77   24.30
  -3   1  -8  273.17   19.30
   3  -1   8  290.27   20.90
   3  -1   8  266.37   20.00
   3  -1   8  284.07   22.80
   3  -1   8  293.67   21.80
   3  -1   8  274.17   19.40
  -4   1  -8  151.58   10.40
  -4   1  -8  134.79   13.60
  -4   1  -8  166.18   19.70
  -4   1  -8  140.79   14.30
  -4   1  -8  149.88   11.50
   4  -1   8  142.29   20.00
   4  -1   8  139.99   14.90
   4  -1   8  165.18   15.30
   4  -1   8  141.89   13.20
   4  -1   8  131.99   25.40
  -5   1  -8  115.79    9.80
  -5   1  -8  144.29   20.10
  -5   1  -8  126.09    9.40
  -5   1  -8  117.59   11.30
  -5   1  -8   98.09   14.10
   5  -1   8  118.49   16.30
   5  -1   8  127.49   13.40
   5  -1   8  111.59   14.80
   5  -1   8   99.69   14.70
  -6   1  -8   33.80    5.00
  -6   1  -8   45.30   13.70
  -6   1  -8   38.10    8.70
  -6   1  -8   29.00   10.60
  -6   1  -8   33.10    6.80
  -6   1  -8   34.40    6.70
   6  -1   8   27.10   12.30
   6  -1   8   16.90    8.90
   6  -1   8   41.20   10.30
   6  -1   8   28.60    8.40
  -7   1  -8   41.70   15.10
  -7   1  -8   26.00   10.50
  -7   1  -8   44.60    8.40
   7  -1   8   34.70    9.80
   7  -1   8   47.00   12.00
   7  -1   8   26.20   10.30
   7   0  -8   16.70   15.80
   7   0  -8   39.50   13.40
   7   0  -8   49.40   16.30
   7   0  -8   54.29   10.90
   7   0  -8   55.99    8.40
  -7   0   8   80.09   27.90
  -7   0   8   58.09   23.80
  -7   0   8   32.70   18.80
  -7   0   8   60.69   19.30
   6   0  -8    7.60   12.20
   6   0  -8   13.00    6.80
   6   0  -8   28.80    9.60
   6   0  -8   17.70    7.90
   6   0  -8   11.30   11.10
   6   0  -8   10.50    7.20
  -6   0   8   14.50   14.60
  -6   0   8   21.60    7.90
  -6   0   8   19.10    8.30
  -6   0   8   28.50   19.70
  -6   0   8   16.50   16.90
   5   0  -8  139.79   14.90
   5   0  -8  162.28   13.90
   5   0  -8  170.58   21.70
   5   0  -8  139.89   13.20
   5   0  -8  125.19   16.10
  -5   0   8  212.68   25.40
  -5   0   8  128.89   14.30
  -5   0   8  152.18   34.20
  -5   0   8  206.88   26.70
  -5   0   8  119.79   15.60
   4   0  -8   68.69    8.50
   4   0  -8   75.69    9.40
   4   0  -8   59.99   13.40
   4   0  -8   65.69   11.40
   4   0  -8   61.69    8.40
  -4   0   8   70.19   14.20
  -4   0   8   50.79   10.30
  -4   0   8   67.89    9.10
  -4   0   8   57.89   13.30
  -4   0   8   55.59   14.40
   3   0  -8  191.18   15.30
   3   0  -8  199.88   22.90
   3   0  -8  201.18   14.80
   3   0  -8  176.68   18.10
   3   0  -8  203.38   15.40
   3   0  -8  223.08   20.90
   3   0  -8  226.38   14.70
  -3   0   8  209.38   15.10
  -3   0   8  176.38   15.80
  -3   0   8  169.68   20.90
  -3   0   8  213.68   23.80
  -3   0   8  195.28   18.20
  -3   0   8  212.68   20.20
   2   0  -8  122.19   10.10
   2   0  -8  143.79   17.00
   2   0  -8  130.89    9.60
   2   0  -8  128.19   10.80
   2   0  -8  120.09    9.80
   2   0  -8  113.39   11.90
  -2   0   8  101.29   16.10
  -2   0   8  141.29   15.00
  -2   0   8  115.69   11.70
  -2   0   8  107.69   12.70
  -2   0   8  105.69   16.30
  -2   0   8  115.69    9.70
   1   0  -8   40.20    7.30
   1   0  -8   44.20    5.30
   1   0  -8   44.10    6.00
   1   0  -8   35.10    6.70
   1   0  -8   36.50    5.60
   1   0  -8   38.70    9.40
   1   0  -8   51.59    7.20
  -1   0   8   29.50    7.20
  -1   0   8   32.80    6.40
  -1   0   8   38.10    9.20
  -1   0   8   44.90    7.30
   0   0  -8    1.50    4.60
   0   0  -8   -0.70    2.90
   0   0  -8   -2.00    2.50
   0   0  -8   10.90    4.60
   0   0  -8    1.20    5.20
   0   0  -8    8.40    4.00
   0   0  -8    1.20    6.90
   0   0   8    3.60    4.30
   0   0   8    2.30    2.00
   0   0   8    6.20    4.90
   0   0   8    1.70    4.70
   0   0   8   -1.00    5.40
   0   0   8    1.70    5.80
   0   0   8    2.20    1.70
  -1   0  -8   80.29    9.30
  -1   0  -8   98.99    7.80
  -1   0  -8   92.59    7.70
  -1   0  -8  104.59    8.60
  -1   0  -8   88.09    8.50
  -1   0  -8   80.79    9.90
  -1   0  -8   96.39   15.00
  -1   0  -8   94.09   10.00
   1   0   8  115.19   12.10
   1   0   8   93.39   10.00
   1   0   8   98.79   11.40
   1   0   8  109.39   10.70
   1   0   8   99.79   11.40
  -2   0  -8   17.00    5.10
  -2   0  -8   20.60    4.20
  -2   0  -8   19.70    4.40
  -2   0  -8   20.60    4.20
  -2   0  -8   20.50    4.10
  -2   0  -8   25.40    4.20
  -2   0  -8   15.60    5.00
  -2   0  -8   29.00    8.90
   2   0   8   10.10    4.80
   2   0   8   18.70    6.10
   2   0   8   22.40    4.70
   2   0   8   34.10    8.10
   2   0   8   16.80    5.70
  -3   0  -8   25.70    9.60
  -3   0  -8   24.30    5.90
  -3   0  -8   32.60    5.80
  -3   0  -8   29.20    5.60
  -3   0  -8   28.30    5.60
  -3   0  -8   31.30    4.80
  -3   0  -8   36.00    5.90
   3   0   8   30.30    5.20
   3   0   8   15.90    7.60
   3   0   8   38.40    8.00
   3   0   8   18.80    5.80
   3   0   8   41.30    8.30
  -4   0  -8   98.59    9.60
  -4   0  -8   78.99   10.20
  -4   0  -8   79.49   10.90
  -4   0  -8   55.19   13.40
  -4   0  -8   79.69    8.30
  -4   0  -8   92.79   10.40
   4   0   8   86.49   12.10
   4   0   8   89.09   12.00
   4   0   8   99.99   15.10
   4   0   8   82.99   13.20
   4   0   8   69.09    9.90
  -5   0  -8    2.20   10.30
  -5   0  -8    1.30    4.70
  -5   0  -8   -1.20    4.10
  -5   0  -8    0.30    5.60
  -5   0  -8   -5.50    3.10
   5   0   8    6.00    5.60
   5   0   8    6.60    6.90
   5   0   8    1.20    6.40
   5   0   8    0.00    9.80
  -6   0  -8   52.59    9.10
  -6   0  -8   49.40    7.00
  -6   0  -8   54.69    7.00
  -6   0  -8   50.79    8.10
  -6   0  -8   42.70   14.70
   6   0   8   61.39   10.20
   6   0   8   55.99   10.80
   6   0   8   62.79   11.90
   6   0   8   44.40   15.90
  -7   0  -8    3.50    8.70
  -7   0  -8    7.80    5.70
  -7   0  -8   10.40    7.20
  -7   0  -8   11.50   14.80
   7   0   8   -3.80    8.10
   7   0   8    7.70    9.50
   7   0   8   14.10    9.10
  -8   0  -8   34.90   17.50
  -8   0  -8   26.40    9.30
   8   0   8  -13.70   10.30
   8   0   8   14.70   11.20
   8   0   8   18.00   12.30
   7  -1  -8   -1.60   11.60
   7  -1  -8   17.30    9.20
   7  -1  -8    4.20   14.70
   7  -1  -8   21.00   10.00
  -7   1   8  -43.10   23.90
  -7   1   8    4.20   17.00
  -7   1   8    0.40   21.70
   6  -1  -8  103.29   17.90
   6  -1  -8  189.08   17.40
   6  -1  -8  139.49   16.60
   6  -1  -8  147.49   17.80
   6  -1  -8  155.78   20.20
  -6   1   8  141.59   16.70
  -6   1   8  130.79   21.40
   5  -1  -8    2.40   10.50
   5  -1  -8    2.80    6.40
   5  -1  -8   -0.80    7.00
   5  -1  -8   -4.50    6.90
   5  -1  -8   -0.30    8.30
  -5   1   8   19.00   11.90
  -5   1   8    1.80    8.90
  -5   1   8  -10.40   13.10
  -5   1   8    8.30   15.40
  -5   1   8   13.40    6.30
   4  -1  -8  180.88   19.90
   4  -1  -8  202.08   19.10
   4  -1  -8  209.28   22.60
   4  -1  -8  230.58   17.70
   4  -1  -8  267.87   17.60
   4  -1  -8  240.08   17.60
  -4   1   8  243.58   24.60
  -4   1   8  261.07   28.00
  -4   1   8  207.38   18.10
  -4   1   8  273.27   27.40
  -4   1   8  226.08   18.80
   3  -1  -8   -5.10    6.60
   3  -1  -8    5.80    5.00
   3  -1  -8    9.70    4.90
   3  -1  -8   11.70    4.60
   3  -1  -8    2.90    5.00
   3  -1  -8    6.00    8.30
   3  -1  -8   -2.70    6.00
  -3   1   8   -4.70   10.10
  -3   1   8  -13.40    9.60
  -3   1   8   18.10    8.30
  -3   1   8   10.20    5.50
  -3   1   8    3.90    6.00
   2  -1  -8  634.74   38.40
   2  -1  -8  685.23   38.80
   2  -1  -8  653.93   40.50
   2  -1  -8  582.44   40.00
   2  -1  -8  622.84   39.20
   2  -1  -8  661.13   39.20
  -2   1   8  671.23   43.00
  -2   1   8  622.54   40.60
  -2   1   8  641.04   44.60
  -2   1   8  630.24   39.00
  -2   1   8  577.64   40.30
   1  -1  -8  170.68   12.80
   1  -1  -8  138.39   13.50
   1  -1  -8  172.78   11.90
   1  -1  -8  154.68   10.90
   1  -1  -8  178.18   18.10
   1  -1  -8  155.78   12.50
  -1   1   8  145.79   15.10
  -1   1   8  157.18   14.30
  -1   1   8  150.98   14.20
  -1   1   8  140.29   16.70
   0  -1  -8  544.85   34.20
   0  -1  -8  570.24   33.50
   0  -1  -8  549.25   38.60
   0  -1  -8  520.35   32.10
   0  -1  -8  507.85   34.00
   0  -1  -8  587.04   34.40
   0  -1  -8  508.45   35.10
   0   1   8  566.44   35.40
   0   1   8  575.24   37.20
   0   1   8  548.25   35.20
  -1  -1  -8  144.49   12.60
  -1  -1  -8  154.08   12.10
  -1  -1  -8  135.69   12.00
  -1  -1  -8  135.09   10.90
  -1  -1  -8  132.59   11.20
  -1  -1  -8   99.69   17.30
   1   1   8  145.89   12.90
   1   1   8  119.69   14.00
   1   1   8  174.58   14.60
   1   1   8  153.48   14.10
   1   1   8  136.49   12.80
  -2  -1  -8  225.08   15.80
  -2  -1  -8  159.28   21.30
  -2  -1  -8  210.98   15.30
  -2  -1  -8  195.78   14.60
  -2  -1  -8  221.28   15.90
  -2  -1  -8  200.28   17.00
  -2  -1  -8  233.78   15.70
   2   1   8  242.28   16.80
   2   1   8  217.38   18.00
   2   1   8  241.38   18.40
   2   1   8  235.58   19.10
   2   1   8  243.18   17.80
  -3  -1  -8  211.98   15.00
  -3  -1  -8  200.78   16.70
  -3  -1  -8  198.98   15.70
  -3  -1  -8  212.48   16.60
  -3  -1  -8  212.88   16.30
  -3  -1  -8  172.08   22.20
   3   1   8  216.78   18.60
   3   1   8  232.98   18.40
   3   1   8  214.38   16.90
   3   1   8  219.28   16.20
   3   1   8  226.48   19.50
  -4  -1  -8   37.80    7.20
  -4  -1  -8   43.90    6.60
  -4  -1  -8   26.10    7.20
  -4  -1  -8   33.40    4.40
  -4  -1  -8   44.40    6.20
  -4  -1  -8   27.60   12.20
   4   1   8   22.70    7.20
   4   1   8   25.70   10.70
   4   1   8   32.30    5.90
   4   1   8   32.10    9.70
   4   1   8   53.49    8.90
  -5  -1  -8  187.98   25.50
  -5  -1  -8  185.68   13.00
  -5  -1  -8  201.68   15.80
  -5  -1  -8  172.68   16.30
  -5  -1  -8  201.88   14.90
   5   1   8  180.18   17.40
   5   1   8  183.28   21.60
   5   1   8  171.58   15.70
   5   1   8  204.78   18.90
  -6  -1  -8   -0.70    4.70
  -6  -1  -8   -3.40    5.90
  -6  -1  -8    1.10    6.50
  -6  -1  -8  -12.30    4.90
  -6  -1  -8   -6.80   14.10
   6   1   8    6.90   10.20
   6   1   8    8.70   12.20
   6   1   8   -3.80    6.30
   6   1   8    2.60    8.90
  -7  -1  -8   22.30    6.90
  -7  -1  -8   -4.70   17.20
  -7  -1  -8   11.70    7.40
  -7  -1  -8   22.30    8.80
  -7  -1  -8   36.20   10.30
   7   1   8    1.90    9.10
   7   1   8   27.60    9.20
   7   1   8   26.20    9.00
  -8  -1  -8  -16.70   18.80
  -8  -1  -8   -5.40    8.80
   8   1   8   14.90   10.70
   8   1   8  -13.90    9.40
   8   1   8    4.80   11.60
   7  -2  -8    6.20   10.90
   7  -2  -8   27.80   11.10
   7  -2  -8    8.80   13.20
   7  -2  -8   21.80   15.00
  -7   2   8   30.50   20.70
  -7   2   8   25.20   23.40
  -7   2   8  -25.80   19.70
  -7   2   8   14.90   21.80
   6  -2  -8   54.09   13.10
   6  -2  -8   28.90    9.70
   6  -2  -8   35.00   11.60
   6  -2  -8   31.80   12.60
   6  -2  -8   35.70   10.80
  -6   2   8   29.80   19.40
  -6   2   8    8.40   16.20
  -6   2   8   55.49   22.60
   5  -2  -8   52.89   10.20
   5  -2  -8   68.89   13.80
   5  -2  -8   63.59    9.70
   5  -2  -8   49.80    9.70
   5  -2  -8   60.99   12.00
  -5   2   8   51.89   16.60
  -5   2   8   57.39   15.80
  -5   2   8   67.69   16.10
  -5   2   8   49.20    9.70
   4  -2  -8  153.58   13.40
   4  -2  -8  130.39   19.50
   4  -2  -8  132.89   15.80
   4  -2  -8  117.19   14.20
   4  -2  -8  125.29   13.10
  -4   2   8  130.69   19.00
  -4   2   8  136.29   14.90
  -4   2   8  130.99   15.50
  -4   2   8  144.79   19.10
  -4   2   8  201.78   25.70
   3  -2  -8  175.48   18.20
   3  -2  -8  258.77   22.60
   3  -2  -8  190.58   19.20
   3  -2  -8  233.58   16.80
   3  -2  -8  219.58   16.50
   3  -2  -8  224.38   17.70
   3  -2  -8  201.68   17.90
  -3   2   8  264.57   26.10
  -3   2   8  253.27   22.90
  -3   2   8  226.38   23.80
  -3   2   8  214.98   18.50
  -3   2   8  229.28   18.30
   2  -2  -8  480.95   31.40
   2  -2  -8  405.56   26.70
   2  -2  -8  386.96   25.30
   2  -2  -8  378.16   26.30
   2  -2  -8  359.46   27.30
   2  -2  -8  435.26   26.10
   2  -2  -8  356.46   27.30
  -2   2   8  390.56   31.70
  -2   2   8  383.16   27.90
  -2   2   8  410.36   31.40
  -2   2   8  412.36   30.00
  -2   2   8  395.16   26.50
   1  -2  -8  279.57   19.70
   1  -2  -8  275.07   17.90
   1  -2  -8  304.57   20.00
   1  -2  -8  295.07   18.80
   1  -2  -8  262.17   24.10
   1  -2  -8  241.68   19.00
   1  -2  -8  256.57   20.20
  -1   2   8  308.47   22.90
  -1   2   8  294.47   20.90
  -1   2   8  205.88   22.00
   0  -2  -8  791.32   44.20
   0  -2  -8  727.23   42.30
   0  -2  -8  750.92   43.50
   0  -2  -8  679.53   43.60
   0  -2  -8  627.04   44.80
   0  -2  -8  730.83   44.00
   0   2   8  723.83   45.10
   0   2   8  738.73   45.50
   0   2   8  646.84   41.60
   0   2   8  724.93   47.10
  -1  -2  -8  265.97   18.70
  -1  -2  -8  279.57   16.00
  -1  -2  -8  214.18   23.30
  -1  -2  -8  288.57   19.60
  -1  -2  -8  278.17   18.50
  -1  -2  -8  267.07   18.80
  -1  -2  -8  241.08   18.70
   1   2   8  300.47   21.50
   1   2   8  299.27   21.50
   1   2   8  242.68   20.70
   1   2   8  239.68   17.10
   1   2   8  267.87   19.80
   1   2   8  238.98   19.40
  -2  -2  -8  648.74   42.90
  -2  -2  -8  713.63   43.10
  -2  -2  -8  680.83   40.80
  -2  -2  -8  703.43   43.40
  -2  -2  -8  655.93   43.00
  -2  -2  -8  615.14   47.90
  -2  -2  -8  714.43   43.50
   2   2   8  765.42   45.20
   2   2   8  729.53   45.70
   2   2   8  790.42   44.80
   2   2   8  581.44   44.50
   2   2   8  756.12   44.00
  -3  -2  -8   76.09    6.60
  -3  -2  -8   77.69    7.50
  -3  -2  -8   85.59   10.90
  -3  -2  -8   92.89    9.90
  -3  -2  -8   59.49    9.70
  -3  -2  -8   96.89    9.40
  -3  -2  -8   81.29    6.90
  -3  -2  -8   91.29   16.10
  -3  -2  -8  103.19   10.90
   3   2   8   68.79   10.80
   3   2   8   87.29   10.80
   3   2   8  100.59   10.20
   3   2   8   88.69   11.40
   3   2   8  101.89   13.80
  -4  -2  -8  568.44   35.90
  -4  -2  -8  562.84   36.20
  -4  -2  -8  497.25   35.60
  -4  -2  -8  591.94   34.90
  -4  -2  -8  570.14   34.50
  -4  -2  -8  505.75   32.40
   4   2   8  538.15   38.20
   4   2   8  606.34   62.79
   4   2   8  459.35   38.90
   4   2   8  522.35   36.20
   4   2   8  571.54   37.30
   4   2   8  564.94   35.10
  -5  -2  -8   -2.20    4.40
  -5  -2  -8   15.80    5.60
  -5  -2  -8    4.80    6.20
  -5  -2  -8    6.20    5.00
   5   2   8    2.90    7.80
   5   2   8   -4.40    5.00
   5   2   8    1.30   10.30
   5   2   8   -1.00    7.10
  -6  -2  -8  131.39   13.70
  -6  -2  -8  153.68   15.50
  -6  -2  -8  130.09   12.10
  -6  -2  -8  168.08   15.20
   6   2   8  133.99   14.70
   6   2   8  141.89   20.30
   6   2   8  151.58   16.40
  -7  -2  -8   23.90    8.60
  -7  -2  -8   39.70   10.20
  -7  -2  -8   27.80    7.30
   7   2   8    8.30   10.30
   7   2   8   28.40    8.40
   7   2   8   12.50   15.00
   7   2   8   44.60   10.80
  -8  -2  -8  108.39   15.20
  -8  -2  -8  123.59   16.60
   8   2   8   93.79   15.30
   8   2   8  124.59   17.40
   8   2   8  100.19   14.50
   6  -3  -8   -7.10   12.30
   6  -3  -8   -0.70   11.90
   6  -3  -8    7.40   10.50
   6  -3  -8   -9.40    8.40
  -6   3   8   -1.50   18.10
  -6   3   8  -16.50   19.00
  -6   3   8   25.60   16.70
  -6   3   8  -36.30   19.00
   5  -3  -8   67.29   13.50
   5  -3  -8   58.69   11.40
   5  -3  -8   70.89    8.40
   5  -3  -8   74.89   10.80
   5  -3  -8   83.59   13.90
   5  -3  -8   58.19   11.20
  -5   3   8   76.29   19.40
  -5   3   8   54.79   17.70
  -5   3   8   83.19   17.40
   4  -3  -8    5.40    6.30
   4  -3  -8   18.40   10.20
   4  -3  -8   15.30    8.70
   4  -3  -8    3.50    7.50
  -4   3   8   18.30   10.20
  -4   3   8    8.70   10.80
  -4   3   8    8.70    8.20
  -4   3   8   11.30   11.80
  -4   3   8   15.80   14.90
   3  -3  -8  254.77   21.50
   3  -3  -8  285.67   19.40
   3  -3  -8  226.48   22.30
   3  -3  -8  329.37   24.80
   3  -3  -8  273.47   20.80
   3  -3  -8  248.08   19.50
  -3   3   8  235.18   21.20
  -3   3   8  244.18   21.40
  -3   3   8  275.47   25.10
  -3   3   8  292.57   29.20
  -3   3   8  284.07   25.50
   2  -3  -8   11.40    7.00
   2  -3  -8   19.00    5.10
   2  -3  -8   18.80    9.50
   2  -3  -8   18.90    6.10
   2  -3  -8   27.40    6.10
   2  -3  -8    5.30    6.20
   2  -3  -8   23.80    6.00
  -2   3   8   24.50    9.50
  -2   3   8   -4.50   10.10
  -2   3   8    7.40    9.70
  -2   3   8   36.40    7.70
  -2   3   8   14.20    7.40
   1  -3  -8  567.94   38.40
   1  -3  -8  698.23   38.70
   1  -3  -8  640.24   39.40
   1  -3  -8  634.94   39.30
   1  -3  -8  598.24   39.80
   1  -3  -8  600.74   37.50
  -1   3   8  658.03   42.00
  -1   3   8  480.75   42.10
  -1   3   8  619.04   40.60
  -1   3   8  648.34   40.50
   0  -3  -8   26.80    4.60
   0  -3  -8   29.60    5.90
   0  -3  -8   27.00    7.50
   0  -3  -8   24.10    6.30
   0  -3  -8   22.40    5.60
   0  -3  -8   30.30    5.80
   0  -3  -8   34.30   11.00
   0   3   8   19.30    7.90
   0   3   8   27.90    7.90
   0   3   8   30.30    7.60
   0   3   8   19.10    8.20
   0   3   8   25.80    4.10
  -1  -3  -8  810.52   48.00
  -1  -3  -8  773.82   50.39
  -1  -3  -8  876.61   49.90
  -1  -3  -8  940.51   50.09
  -1  -3  -8  787.42   49.40
  -1  -3  -8  771.62   46.80
  -1  -3  -8  803.12   49.99
  -1  -3  -8  737.33   53.79
   1   3   8  899.81   52.69
   1   3   8  660.83   50.39
   1   3   8  759.52   48.20
   1   3   8  859.91   52.09
   1   3   8  844.32   51.09
  -2  -3  -8   -1.30    4.90
  -2  -3  -8    3.10    4.70
  -2  -3  -8   -4.40    4.40
  -2  -3  -8    6.90    3.10
  -2  -3  -8   -3.30    4.40
  -2  -3  -8    0.80    4.70
   2   3   8    8.60    8.10
   2   3   8    2.90    4.50
   2   3   8    0.90    4.90
   2   3   8    2.00    4.70
   2   3   8    1.50    6.60
   2   3   8    1.70    6.50
  -3  -3  -8  930.41   56.19
  -3  -3  -8  962.50   58.89
  -3  -3  -8  979.00   57.69
  -3  -3  -8  929.01   57.69
  -3  -3  -8  946.71   58.29
   3   3   8  984.10   58.99
   3   3   8 1009.20   58.59
   3   3   8  973.70   60.49
   3   3   8  809.02   59.99
  -4  -3  -8   -2.10    5.70
  -4  -3  -8    8.30    5.40
  -4  -3  -8   13.60    6.10
  -4  -3  -8    2.80    6.20
  -4  -3  -8    3.10    3.10
  -4  -3  -8    1.00    5.30
  -4  -3  -8   19.90    8.20
   4   3   8    5.90    4.60
   4   3   8   12.50    7.00
   4   3   8   11.60    7.90
   4   3   8  -16.70   11.80
   4   3   8   11.30    7.30
   4   3   8   18.90   19.40
  -5  -3  -8  473.05   31.50
  -5  -3  -8  548.85   34.00
  -5  -3  -8  518.55   34.70
  -5  -3  -8  492.95   33.20
   5   3   8  541.65   34.10
   5   3   8  524.65   36.20
   5   3   8  467.75   38.50
   5   3   8  527.15   37.10
  -6  -3  -8   83.29   11.50
  -6  -3  -8   59.19    9.80
  -6  -3  -8   69.99    8.40
   6   3   8   62.19   15.10
   6   3   8   76.69   13.20
   6   3   8   47.50    9.20
  -7  -3  -8  227.48   19.20
  -7  -3  -8  264.57   22.70
  -7  -3  -8  294.67   23.80
   7   3   8  257.17   25.60
   7   3   8  254.07   21.30
   7   3   8  211.88   30.40
   7   3   8  246.48   25.10
  -8  -3  -8    6.60   11.00
  -8  -3  -8   30.00   11.20
  -8  -3  -8   29.70    9.50
   8   3   8   32.00   11.60
   8   3   8   17.20   12.20
   8   3   8   20.20    9.50
  -9  -3  -8   81.99   22.40
  -9  -3  -8   16.30   13.30
   9   3   8   31.90   15.70
   9   3   8   36.20   11.90
   9   3   8   61.59   14.00
   6  -4  -8    5.50    9.80
   6  -4  -8  -10.50   12.00
   6  -4  -8   -8.50   14.40
  -6   4   8    9.00   19.30
  -6   4   8  -22.60   23.40
  -6   4   8  -17.90   17.40
  -6   4   8   54.79   22.80
   5  -4  -8   -8.10   11.00
   5  -4  -8   20.40    9.70
   5  -4  -8   -6.10    8.00
   5  -4  -8   13.40   12.40
  -5   4   8   14.10   17.00
  -5   4   8    7.00   15.40
  -5   4   8   -6.70   14.70
  -5   4   8   19.70   19.20
   4  -4  -8   10.70    7.20
   4  -4  -8   20.20   10.50
   4  -4  -8   22.70    8.20
   4  -4  -8   34.00   13.30
   4  -4  -8   36.60   11.70
  -4   4   8   11.60   13.60
  -4   4   8   19.20   11.90
  -4   4   8   -9.40   12.90
   3  -4  -8   34.00    9.40
   3  -4  -8   21.60   10.30
   3  -4  -8   29.90    7.10
   3  -4  -8   41.20   11.60
   3  -4  -8   27.40    8.20
  -3   4   8   33.10   11.60
  -3   4   8   34.90   13.10
  -3   4   8   29.60   13.50
  -3   4   8   33.50   10.50
   2  -4  -8   79.69   10.80
   2  -4  -8   83.09   10.20
   2  -4  -8   74.09   11.10
   2  -4  -8   85.59   10.60
   2  -4  -8   80.39   15.00
   2  -4  -8   89.69   11.60
  -2   4   8   51.39    9.70
  -2   4   8   93.59   16.90
  -2   4   8  100.69   13.10
  -2   4   8   90.29   15.40
  -2   4   8  102.89   12.40
   1  -4  -8   27.60    7.90
   1  -4  -8   30.10    6.10
   1  -4  -8   28.10    6.90
   1  -4  -8   31.50    7.80
   1  -4  -8   19.80    6.20
   1  -4  -8   27.60    6.40
   1  -4  -8   27.10   10.70
  -1   4   8   25.60   11.30
  -1   4   8   47.80   11.10
  -1   4   8   27.80    8.50
   0  -4  -8  233.78   17.30
   0  -4  -8  236.38   20.50
   0  -4  -8  277.57   19.50
   0  -4  -8  229.98   25.20
   0  -4  -8  218.78   18.20
   0  -4  -8  275.97   19.50
   0  -4  -8  262.37   18.90
   0   4   8  251.47   20.40
   0   4   8  226.28   16.50
   0   4   8  271.47   21.40
   0   4   8  252.37   22.00
  -1  -4  -8    8.60    6.90
  -1  -4  -8   15.30    5.70
  -1  -4  -8   16.90    4.90
  -1  -4  -8   20.00    6.50
  -1  -4  -8   16.40    4.60
  -1  -4  -8   23.40    2.90
  -1  -4  -8   10.00    6.30
   1   4   8    9.10    5.90
   1   4   8   17.80    5.00
   1   4   8   18.10    8.30
   1   4   8   10.00    6.20
   1   4   8   19.50    9.40
  -2  -4  -8  569.24   37.00
  -2  -4  -8  583.54   36.20
  -2  -4  -8  551.34   34.60
  -2  -4  -8  589.84   36.50
  -2  -4  -8  585.14   36.50
  -2  -4  -8  516.35   36.20
   2   4   8  647.54   38.70
   2   4   8  467.65   36.60
   2   4   8  576.84   35.50
   2   4   8  631.64   38.80
   2   4   8  463.95   38.40
  -3  -4  -8   24.60    6.90
  -3  -4  -8   28.40    6.90
  -3  -4  -8   21.30    6.10
  -3  -4  -8   25.00    6.50
  -3  -4  -8   27.20    5.60
   3   4   8   13.70   16.60
   3   4   8   27.40    9.40
   3   4   8   19.80    9.20
   3   4   8   28.70    7.10
   3   4   8   22.10    8.40
   3   4   8   32.70    7.90
   3   4   8   46.80    8.40
  -4  -4  -8  279.57   20.30
  -4  -4  -8  265.57   20.30
  -4  -4  -8  245.28   19.40
  -4  -4  -8  253.37   21.20
  -4  -4  -8  278.27   21.90
   4   4   8  295.27   24.50
   4   4   8  215.98   22.80
   4   4   8  320.57   21.40
   4   4   8  293.27   22.10
   4   4   8  274.77   35.70
  -5  -4  -8   60.49    9.40
  -5  -4  -8   77.39   11.10
  -5  -4  -8   65.49    9.90
  -5  -4  -8   67.09    8.70
  -5  -4  -8   70.09    6.20
   5   4   8   78.89   15.60
   5   4   8   68.69   13.20
   5   4   8   65.39   11.40
   5   4   8   74.79   10.90
  -6  -4  -8  432.16   30.90
  -6  -4  -8  456.15   31.00
  -6  -4  -8  424.76   28.30
   6   4   8  405.76   32.60
   6   4   8  432.16   36.80
  -7  -4  -8  128.39   15.80
  -7  -4  -8   93.99   13.00
  -7  -4  -8  103.89   15.00
   7   4   8  127.39   23.00
   7   4   8   81.49   13.00
   7   4   8  113.29   17.30
   7   4   8   87.59   12.50
  -8  -4  -8   99.99   15.40
  -8  -4  -8   81.79   13.50
   8   4   8   83.09   13.70
   8   4   8   63.69   11.10
   8   4   8   60.79   26.50
   8   4   8   64.09   15.70
  -9  -4  -8   57.39   15.30
  -9  -4  -8   35.20   14.70
   9   4   8   41.10   11.20
   9   4   8   24.40   16.60
   9   4   8    3.40   14.00
   5  -5  -8  -10.80   12.80
   5  -5  -8    3.10   11.90
   5  -5  -8    8.30    8.80
   5  -5  -8    2.20   10.10
  -5   5   8  -22.40   17.10
  -5   5   8  -33.50   17.50
  -5   5   8   -0.90   17.30
  -5   5   8  -13.50   20.10
   4  -5  -8    6.10    7.10
   4  -5  -8   37.00   10.20
   4  -5  -8  -16.70   13.70
   4  -5  -8   20.10   10.70
   4  -5  -8   11.60   10.70
   4  -5  -8   11.90    8.00
  -4   5   8   35.00   14.10
  -4   5   8   -8.90   16.50
  -4   5   8   11.40   14.30
  -4   5   8   10.70   15.90
   3  -5  -8   10.40   10.60
   3  -5  -8    4.00    8.20
   3  -5  -8    4.20   11.00
   3  -5  -8    5.80    7.30
   3  -5  -8  -11.30    5.70
   3  -5  -8   11.20    7.60
  -3   5   8  -10.00   12.10
  -3   5   8   -0.20   11.00
  -3   5   8  -21.00   13.10
   2  -5  -8   -7.60    8.50
   2  -5  -8    7.30    6.20
   2  -5  -8    9.70   12.00
   2  -5  -8    2.80    7.00
   2  -5  -8    8.60    6.90
  -2   5   8   -5.40    9.00
  -2   5   8    2.10   12.80
  -2   5   8   14.80    9.40
  -2   5   8    9.40   10.90
   1  -5  -8   -4.60    5.30
   1  -5  -8   -4.20    7.30
   1  -5  -8    2.70    7.70
   1  -5  -8   -6.80   10.50
   1  -5  -8   -2.30    6.30
   1  -5  -8    0.80    5.50
  -1   5   8   22.10   12.50
  -1   5   8  -13.10    7.40
  -1   5   8    7.40    7.20
   0  -5  -8   49.50   10.70
   0  -5  -8   35.40    8.00
   0  -5  -8   33.50    6.20
   0  -5  -8   37.30    7.60
   0  -5  -8   47.70    7.90
   0   5   8   29.50    9.00
   0   5   8   27.60    8.80
   0   5   8   29.00    6.10
   0   5   8   23.30   11.80
  -1  -5  -8   20.80    7.70
  -1  -5  -8   25.20    7.20
  -1  -5  -8   24.00    7.80
  -1  -5  -8   24.60    5.40
  -1  -5  -8   38.90    7.80
  -1  -5  -8    6.40    6.80
  -1  -5  -8   26.20    3.60
   1   5   8   21.30    5.50
   1   5   8   28.90    8.30
   1   5   8   20.10   11.20
   1   5   8   13.10    9.40
   1   5   8   33.30    8.20
  -2  -5  -8  182.88   16.70
  -2  -5  -8  184.28   16.80
  -2  -5  -8  191.88   16.80
  -2  -5  -8  175.38   16.30
  -2  -5  -8  172.98   14.20
  -2  -5  -8  177.38   15.40
   2   5   8  179.88   15.10
   2   5   8  171.88   23.20
   2   5   8  214.28   19.30
   2   5   8  161.28   22.60
   2   5   8  151.88   17.00
   2   5   8  200.48   19.10
  -3  -5  -8   69.49    8.80
  -3  -5  -8   66.59   11.00
  -3  -5  -8  101.79   12.20
  -3  -5  -8   77.89   10.10
  -3  -5  -8   57.19   11.70
   3   5   8   51.09   17.20
   3   5   8   90.79   10.40
   3   5   8   33.80    8.50
   3   5   8   55.09    9.50
   3   5   8   61.59   11.50
  -4  -5  -8  226.68   19.10
  -4  -5  -8  214.08   17.70
  -4  -5  -8  211.28   18.90
   4   5   8  203.58   19.00
   4   5   8  182.18   21.40
   4   5   8  203.08   27.00
   4   5   8  192.88   21.50
   4   5   8  208.78   18.30
   4   5   8  198.38   18.00
  -5  -5  -8  295.17   24.60
  -5  -5  -8  273.17   22.40
  -5  -5  -8  265.27   22.40
  -5  -5  -8  272.47   19.50
   5   5   8  295.37   22.00
   5   5   8  290.87   23.70
   5   5   8  222.28   27.00
   5   5   8  235.68   25.10
  -6  -5  -8  123.99   14.10
  -6  -5  -8  124.79   10.60
  -6  -5  -8  135.29   15.60
   6   5   8   90.69   16.40
   6   5   8   88.19   17.90
   6   5   8  142.09   19.90
   6   5   8  165.28   16.50
  -7  -5  -8   48.20    9.60
  -7  -5  -8   37.80   10.40
  -7  -5  -8   63.99   12.60
   7   5   8   56.09   15.60
   7   5   8   52.39   19.90
   7   5   8   62.69   11.40
   7   5   8   50.19   12.40
  -8  -5  -8   48.40   13.60
  -8  -5  -8   66.39   14.60
   8   5   8   80.49   17.40
   8   5   8   80.19   27.40
   8   5   8   66.69   12.20
  -9  -5  -8   36.60   14.70
  -9  -5  -8    4.50   12.80
   9   5   8   13.60   16.90
   9   5   8    6.30   15.20
   9   5   8   42.80   12.20
   5  -6  -8   15.10   14.90
   5  -6  -8    0.10    9.80
   5  -6  -8   -4.40   12.40
  -5   6   8    4.80   23.40
  -5   6   8    4.50   20.40
  -5   6   8   16.90   22.50
   4  -6  -8    2.60   10.50
   4  -6  -8   20.30    8.80
   4  -6  -8   25.00   12.20
   4  -6  -8    7.70   12.70
  -4   6   8   11.80   17.20
  -4   6   8  -10.00   17.50
  -4   6   8   26.70   17.20
  -4   6   8  -12.00   14.00
   3  -6  -8   33.10   12.20
   3  -6  -8    9.00    9.00
   3  -6  -8   10.70   10.80
   3  -6  -8   23.70   13.50
   3  -6  -8    9.10    8.20
   3  -6  -8   17.10   12.60
  -3   6   8   23.40   14.20
  -3   6   8   28.00   18.50
  -3   6   8    7.90   13.30
  -3   6   8   39.00   18.10
   2  -6  -8   14.20    8.20
   2  -6  -8   -8.20    7.00
   2  -6  -8   -3.70    7.50
   2  -6  -8    2.50    9.50
   2  -6  -8   10.20   14.00
  -2   6   8    3.70    9.90
  -2   6   8   12.30   14.70
  -2   6   8    1.50   13.80
   1  -6  -8    1.50    6.90
   1  -6  -8   -5.70    8.60
   1  -6  -8   11.60    6.60
   1  -6  -8   -0.80   13.30
   1  -6  -8    8.30    9.70
  -1   6   8    6.80    9.30
  -1   6   8   13.80   12.50
  -1   6   8   26.90    9.30
   0  -6  -8   -4.20    9.80
   0  -6  -8    2.70    5.50
   0  -6  -8   -2.10    8.00
   0  -6  -8    0.80    6.60
   0   6   8    0.90    5.60
   0   6   8    3.00    7.90
   0   6   8   -2.90    8.00
   0   6   8    5.80   10.60
  -1  -6  -8   28.40   10.30
  -1  -6  -8   16.80    5.80
  -1  -6  -8   29.50    7.70
  -1  -6  -8   24.40    8.70
  -1  -6  -8   17.90    3.90
   1   6   8   12.40    5.70
   1   6   8   10.00    8.50
   1   6   8   14.20   11.60
   1   6   8   -4.70   13.50
   1   6   8   40.30   11.10
  -2  -6  -8  203.58   16.50
  -2  -6  -8  165.88   17.80
  -2  -6  -8  160.38   15.00
  -2  -6  -8  184.28   17.80
   2   6   8  185.78   20.90
   2   6   8  170.78   18.70
   2   6   8  161.98   20.40
   2   6   8  159.38   22.20
   2   6   8  182.98   15.30
  -3  -6  -8  101.59   14.00
  -3  -6  -8   99.19   14.00
  -3  -6  -8   98.39   12.10
  -3  -6  -8   94.49   11.80
   3   6   8   85.69   11.60
   3   6   8   74.19   14.70
   3   6   8   85.49   11.40
   3   6   8   82.19   13.20
   3   6   8   85.99   18.80
  -4  -6  -8   25.00    9.00
  -4  -6  -8   -4.80    8.90
  -4  -6  -8   39.00    8.90
  -4  -6  -8   21.30    9.20
   4   6   8   21.30    8.70
   4   6   8   44.00    9.50
   4   6   8   42.30   11.70
   4   6   8   33.80    8.40
   4   6   8   27.70   16.60
  -5  -6  -8   76.89   11.80
  -5  -6  -8   72.19   19.60
  -5  -6  -8   51.29   12.30
  -5  -6  -8   64.09   10.60
   5   6   8   70.99   12.80
   5   6   8   60.29   16.80
   5   6   8   71.79   12.80
   5   6   8   82.29   12.70
  -6  -6  -8   32.90   13.70
  -6  -6  -8   33.90    9.40
  -6  -6  -8   23.30    9.70
   6   6   8   39.80   12.50
   6   6   8   28.50   13.50
   6   6   8   12.80   10.50
   6   6   8   38.90   17.90
   6   6   8   11.40    8.60
  -7  -6  -8  230.28   23.00
  -7  -6  -8  241.58   26.00
   7   6   8  256.47   23.20
   7   6   8  199.48   27.40
   7   6   8  219.08   26.80
  -8  -6  -8  -10.10   11.50
  -8  -6  -8   -6.90   11.10
   8   6   8   -3.30   13.10
   8   6   8  -20.60   14.30
   8   6   8   -6.20    9.50
   4  -7  -8   -8.50   13.60
   4  -7  -8   -5.50   12.60
   4  -7  -8    1.20   10.00
  -4   7   8   30.00   21.40
  -4   7   8   -5.40   24.50
  -4   7   8    2.00   21.70
   3  -7  -8    8.00   11.30
   3  -7  -8   -3.30   10.40
   3  -7  -8   -3.90   10.50
   3  -7  -8   -2.00   13.60
  -3   7   8   -0.40   12.50
  -3   7   8   -3.20   22.50
  -3   7   8  -14.30   18.00
  -3   7   8   -6.00   15.60
   2  -7  -8    3.30    9.50
   2  -7  -8   18.50   12.60
   2  -7  -8   -7.60    9.20
   2  -7  -8    6.10   16.20
   2  -7  -8    7.70    8.80
  -2   7   8    0.60   10.50
  -2   7   8   10.70   17.30
  -2   7   8   19.90   17.40
  -2   7   8   24.20   15.00
   1  -7  -8    6.20    8.00
   1  -7  -8    3.50    9.00
   1  -7  -8   21.20   12.00
   1  -7  -8   12.80    9.30
  -1   7   8   -8.00   14.90
  -1   7   8   13.90    9.00
  -1   7   8   12.20   13.80
   0  -7  -8   58.49   11.80
   0  -7  -8   39.20    8.80
   0  -7  -8   72.39   14.70
   0  -7  -8   29.60    9.20
   0   7   8   45.80    9.20
   0   7   8   67.29   14.30
   0   7   8   43.60   14.70
   0   7   8   36.70   15.10
  -1  -7  -8   -4.20    6.30
  -1  -7  -8    6.30   17.00
  -1  -7  -8   -6.60    5.80
  -1  -7  -8    4.10    9.40
   1   7   8   12.50   13.80
   1   7   8   -0.70   12.60
   1   7   8    2.90    8.80
   1   7   8    3.10    6.10
  -2  -7  -8   26.50   10.20
  -2  -7  -8   25.10    9.40
  -2  -7  -8   25.70    7.20
  -2  -7  -8   20.50    7.20
  -2  -7  -8   29.60    7.20
   2   7   8   11.60   11.70
   2   7   8   17.70    7.50
   2   7   8   28.00   14.00
   2   7   8   22.80    9.40
  -3  -7  -8   55.09    9.60
  -3  -7  -8   60.59   12.50
  -3  -7  -8   25.50    9.60
  -3  -7  -8   57.99   10.70
   3   7   8   36.60    9.10
   3   7   8   75.59   17.40
   3   7   8   64.79   13.10
   3   7   8   39.20    9.40
  -4  -7  -8   29.80    8.50
  -4  -7  -8   21.00    9.30
  -4  -7  -8   13.10    9.90
  -4  -7  -8   24.90   10.20
  -4  -7  -8   14.20   11.00
   4   7   8   18.40    8.70
   4   7   8   12.90    9.90
   4   7   8    9.70    8.00
   4   7   8   35.20   19.20
  -5  -7  -8   43.90   10.70
  -5  -7  -8   38.70   11.10
  -5  -7  -8   40.70   10.80
  -5  -7  -8   44.40   11.30
   5   7   8   34.60   10.90
   5   7   8   43.90   11.50
   5   7   8   15.30   10.10
  -6  -7  -8   12.10   13.10
  -6  -7  -8    1.60    9.90
  -6  -7  -8   25.30   10.60
  -6  -7  -8   15.40   10.10
   6   7   8   28.60   11.60
   6   7   8   15.90    9.90
   6   7   8   24.90   13.10
   6   7   8   18.40   11.90
  -7  -7  -8    4.80   10.70
  -7  -7  -8   33.10   12.40
   7   7   8   19.30   10.50
   7   7   8   16.10   15.80
   7   7   8   28.10   14.80
   7   7   8   11.60   12.90
  -8  -7  -8   22.90   13.20
  -8  -7  -8    4.70   13.70
   8   7   8  -22.70   16.60
   8   7   8    8.30   16.20
   8   7   8   17.80   12.00
   8   7   8   50.09   14.90
   3  -8  -8   18.70   13.40
   3  -8  -8   12.80   13.10
   3  -8  -8    4.00   14.50
   3  -8  -8   36.20   17.00
  -3   8   8   23.20   26.50
  -3   8   8    2.20   21.70
  -3   8   8    9.60   19.80
   2  -8  -8   -6.80   10.80
   2  -8  -8   17.70   18.30
   2  -8  -8    1.40   12.50
   2  -8  -8   14.90   11.70
  -2   8   8    5.30   20.70
  -2   8   8    0.30   16.20
  -2   8   8    0.70   19.10
   1  -8  -8    9.40   11.00
   1  -8  -8   30.80   11.50
   1  -8  -8   22.10   13.80
   1  -8  -8   34.70   11.80
  -1   8   8   25.60   21.80
  -1   8   8   16.40   13.70
  -1   8   8   15.50   19.60
  -1   8   8   35.60   11.50
   0  -8  -8   10.50   17.20
   0  -8  -8  -11.50   10.70
   0  -8  -8   31.00   14.80
   0   8   8   18.10    9.10
   0   8   8   38.40   17.20
   0   8   8   23.10   14.00
  -1  -8  -8   31.90    9.00
  -1  -8  -8   29.90    7.70
  -1  -8  -8   40.40   13.20
  -1  -8  -8   35.90   10.30
  -1  -8  -8   34.40   14.40
   1   8   8   49.70   16.50
   1   8   8   23.50   12.40
   1   8   8   27.70    9.60
   1   8   8   10.40   14.20
  -2  -8  -8   21.00    8.80
  -2  -8  -8   27.30    8.80
  -2  -8  -8   32.90    9.70
  -2  -8  -8   29.10   10.40
  -2  -8  -8   32.60   10.80
   2   8   8   55.99   13.00
   2   8   8   29.60   15.90
   2   8   8   19.50   15.80
   2   8   8   35.00    9.20
  -3  -8  -8  -10.10   10.30
  -3  -8  -8  -17.50    7.70
  -3  -8  -8   -1.20    8.40
  -3  -8  -8  -10.40    7.70
  -3  -8  -8   -3.70    8.90
   3   8   8   14.50   11.30
   3   8   8   14.60   12.40
   3   8   8   -9.30    7.60
   3   8   8   17.50   17.90
  -4  -8  -8   91.69   14.40
  -4  -8  -8   58.69   15.50
  -4  -8  -8   72.99   13.00
  -4  -8  -8   71.09   13.20
  -4  -8  -8   84.19   14.80
   4   8   8   52.59   12.50
   4   8   8   75.99   15.30
   4   8   8   46.90   21.20
   4   8   8   65.19   12.50
  -5  -8  -8   -4.40    9.70
  -5  -8  -8   -9.30   11.80
  -5  -8  -8   18.30   11.60
  -5  -8  -8  -13.70   12.50
   5   8   8  -15.30   12.10
   5   8   8  -18.40    9.50
  -6  -8  -8   19.00   13.20
  -6  -8  -8   22.00   11.50
  -6  -8  -8   37.60   12.50
  -6  -8  -8   42.10   16.70
   6   8   8   30.10   13.70
   6   8   8   40.30   13.20
   6   8   8   -4.50   11.60
  -7  -8  -8   28.20   13.90
  -7  -8  -8   17.10   12.80
   7   8   8   37.40   16.50
   7   8   8   36.40   14.00
   7   8   8   63.39   15.50
  -8  -8  -8   13.90   14.10
  -8  -8  -8   25.90   13.90
   8   8   8   23.30   15.30
   8   8   8   11.90   17.30
   8   8   8    2.20   17.30
   8   8   8   26.00   12.60
   1  -9  -8    2.40   11.90
   1  -9  -8   -0.20   12.20
   1  -9  -8   -1.80   12.40
  -1   9   8   24.60   24.90
  -1   9   8   13.90   22.00
  -1   9   8  -11.30   16.50
   0  -9  -8    3.70   13.50
   0  -9  -8    3.90   10.10
   0  -9  -8    0.80   11.10
   0   9   8   21.40   23.70
   0   9   8   -1.10    8.80
   0   9   8    9.80   11.30
   0   9   8    7.90   15.30
   0   9   8    4.40   18.60
  -1  -9  -8   29.30   14.70
  -1  -9  -8   30.00   11.70
  -1  -9  -8   17.50   10.80
   1   9   8   12.00   10.60
   1   9   8   22.40   13.70
   1   9   8    3.70   17.90
   1   9   8   34.60   22.40
  -2  -9  -8   -1.20    8.50
  -2  -9  -8    8.50   12.20
  -2  -9  -8  -15.50   12.10
  -2  -9  -8   10.40   10.50
  -2  -9  -8    2.20   10.80
   2   9   8  -19.10    8.80
   2   9   8  -12.00   11.60
   2   9   8  -12.50   16.60
   2   9   8   21.10   17.70
  -3  -9  -8   37.60   12.10
  -3  -9  -8   23.50   11.60
  -3  -9  -8   10.30   13.70
  -3  -9  -8   36.40   12.40
  -3  -9  -8   23.10   10.00
   3   9   8   52.49   20.20
   3   9   8   24.80   18.20
   3   9   8   24.10   13.20
  -4  -9  -8   31.20   11.80
  -4  -9  -8   -4.90   12.00
  -4  -9  -8   32.90   16.10
  -4  -9  -8    7.20   13.10
  -4  -9  -8   12.10    9.70
   4   9   8    0.60   12.20
   4   9   8   16.70   10.90
   4   9   8    0.40   22.90
   4   9   8    8.40   13.80
  -5  -9  -8   21.90   11.60
  -5  -9  -8   42.40   13.80
  -5  -9  -8   60.99   16.50
   5   9   8   56.19   13.90
   5   9   8   30.60   13.80
   5   9   8   28.40   15.70
  -6  -9  -8    8.70   11.40
  -6  -9  -8   26.60   15.00
   6   9   8   10.50   13.40
   6   9   8   -2.80   13.90
   6   9   8   -0.90   14.90
  -7  -9  -8   25.00   16.10
  -7  -9  -8   36.50   14.80
   7   9   8   35.40   15.90
   7   9   8   32.30   18.60
   7   9   8   20.40   15.70
   0 -10  -8   39.40   17.00
   0 -10  -8   12.70   14.00
   0 -10  -8    9.60   13.20
   0  10   8   13.00   29.90
   0  10   8   13.40   14.10
   0  10   8   26.80   17.80
  -1 -10  -8  -23.90   11.40
  -1 -10  -8  -17.00   12.60
  -1 -10  -8    9.40   17.20
   1  10   8    9.20   12.80
   1  10   8   40.30   26.70
   1  10   8   -4.00   15.40
  -2 -10  -8   38.80   16.00
  -2 -10  -8   47.10   14.00
  -2 -10  -8   42.90   14.40
   2  10   8   51.19   15.50
   2  10   8   35.20   13.50
   2  10   8   33.50   25.30
   2  10   8   55.39   27.40
  -3 -10  -8  -17.20   12.00
  -3 -10  -8    5.20   12.20
  -3 -10  -8    5.00   13.30
   3  10   8   -2.90   11.80
   3  10   8   -3.60   18.60
   3  10   8    5.10   25.40
   3  10   8   17.30   14.10
  -4 -10  -8   35.30   14.40
  -4 -10  -8   15.10   15.00
  -4 -10  -8   47.10   13.70
   4  10   8   46.50   16.10
   4  10   8   35.00   13.40
   4  10   8   53.09   18.60
  -5 -10  -8   11.80   12.00
  -5 -10  -8    5.30   17.00
  -5 -10  -8    6.40   16.10
   5  10   8    0.40   17.40
   5  10   8   33.30   13.10
   5  10   8   19.60   15.80
  -6 -10  -8   42.00   19.20
   6  10   8   40.60   15.10
   6  10   8   27.50   16.70
   3   7  -9   23.60   16.00
  -3  -7   9   31.70    8.30
  -3  -7   9  -11.10   24.10
  -3  -7   9   -1.60   11.00
   2   7  -9   79.89   23.30
   2   7  -9   62.49   18.20
  -2  -7   9   46.30   23.80
  -2  -7   9  105.19   17.40
   1   7  -9   27.90   15.60
   1   7  -9  -14.10   17.10
  -1  -7   9    9.50   20.50
   0   7  -9  115.69   24.20
   0  -7   9  121.19   16.00
   0  -7   9  111.09   24.80
   4   6  -9   18.10   14.60
   4   6  -9  -23.30   16.80
  -4  -6   9   25.40   26.10
  -4  -6   9  -27.70   15.30
  -4  -6   9  -30.20   11.70
   3   6  -9   41.40   18.20
   3   6  -9   34.10   14.70
  -3  -6   9   45.90   10.40
  -3  -6   9   17.30   23.00
  -3  -6   9   37.90   14.20
  -3  -6   9   50.49   13.50
   2   6  -9   -6.10   15.30
   2   6  -9   10.50   12.80
  -2  -6   9    7.00    6.20
  -2  -6   9    8.50   10.20
  -2  -6   9   14.40   12.00
  -2  -6   9  -21.90   18.00
   1   6  -9   98.39   22.30
   1   6  -9   60.99   15.00
  -1  -6   9   85.19    9.80
  -1  -6   9   73.59   11.80
  -1  -6   9   69.39   22.50
  -1  -6   9   65.39    8.90
  -1  -6   9   88.59   12.90
   0   6  -9   46.50   13.70
   0   6  -9   46.90   17.70
   0  -6   9   15.30    8.30
   0  -6   9   17.90    7.50
   0  -6   9   18.20   15.90
  -1   6  -9  111.19   22.60
  -1   6  -9  105.29   14.60
   1  -6   9   84.19   10.40
   1  -6   9  106.39   19.20
   1  -6   9   97.19   12.20
  -2   6  -9   19.90   17.40
  -2   6  -9    4.70    9.50
   2  -6   9    9.80    7.10
   2  -6   9   -6.70   12.20
   5   5  -9   26.60   14.60
  -5  -5   9   60.59   27.70
  -5  -5   9   12.40   15.70
   4   5  -9   33.60   12.90
   4   5  -9   13.80   16.30
  -4  -5   9   14.80   14.70
  -4  -5   9   23.90   13.40
  -4  -5   9    7.60   21.80
   3   5  -9   26.60   16.30
   3   5  -9   28.60   12.20
  -3  -5   9   20.60   12.40
  -3  -5   9    9.30    8.80
  -3  -5   9   23.70   18.50
  -3  -5   9   13.60   12.50
  -3  -5   9   -1.50   11.80
   2   5  -9   15.00   10.40
   2   5  -9   -6.70   14.40
  -2  -5   9    1.70    9.40
  -2  -5   9    1.50   10.50
  -2  -5   9    1.10    7.00
  -2  -5   9    4.70   17.70
  -2  -5   9    0.00    8.30
   1   5  -9    2.50   10.30
   1   5  -9   -0.70   13.60
  -1  -5   9    7.60    8.00
  -1  -5   9    4.20    5.80
  -1  -5   9    5.00   15.20
  -1  -5   9    3.70    6.50
  -1  -5   9   -0.40    6.90
  -1  -5   9    5.90    6.50
  -1  -5   9   12.40    9.60
   0   5  -9   -0.50   13.30
   0   5  -9    0.20    9.30
   0  -5   9    7.60    6.40
   0  -5   9    3.60   13.10
   0  -5   9   11.60    6.80
   0  -5   9    1.00    8.40
   0  -5   9    3.20    6.60
   0  -5   9   14.70    7.40
   0  -5   9    2.00    6.70
  -1   5  -9    5.40    7.50
  -1   5  -9   12.80   14.70
   1  -5   9    6.10    8.70
   1  -5   9    2.30    5.60
   1  -5   9   25.10    7.80
   1  -5   9    1.20    7.60
   1  -5   9   -4.90    7.80
   1  -5   9  -13.70    7.70
  -2   5  -9   10.50   15.00
   2  -5   9   -4.20    8.00
   2  -5   9   12.30    9.70
   2  -5   9    6.60    7.10
   2  -5   9    6.80    6.30
  -3   5  -9   28.10   16.30
  -3   5  -9   22.90    8.80
   3  -5   9   22.60   10.90
   3  -5   9   31.20    7.60
   3  -5   9   43.30   13.40
   3  -5   9   27.60    7.20
  -4   5  -9    7.80   17.40
  -4   5  -9    1.10    8.90
   4  -5   9   24.10   12.30
   6   4  -9  129.49   19.70
  -6  -4   9   76.09   21.70
  -6  -4   9  138.39   30.40
  -6  -4   9  149.59   26.20
   5   4  -9    0.40   16.20
   5   4  -9   25.10   13.60
  -5  -4   9    6.30   13.70
  -5  -4   9   19.30   21.80
  -5  -4   9   -1.60   18.10
   4   4  -9  161.08   25.30
   4   4  -9  209.38   23.70
  -4  -4   9  170.28   22.50
  -4  -4   9  115.19   20.70
  -4  -4   9  181.08   28.90
  -4  -4   9  188.88   15.70
   3   4  -9   11.80   10.40
   3   4  -9   26.20   16.00
   3   4  -9  -12.00    6.90
  -3  -4   9  -12.90   11.20
  -3  -4   9    1.30   11.50
  -3  -4   9    9.80    8.40
  -3  -4   9   15.60   16.20
  -3  -4   9    8.90    7.30
  -3  -4   9    7.00    4.60
   2   4  -9  152.08   13.00
   2   4  -9  136.49   17.60
   2   4  -9  166.38   25.50
  -2  -4   9  127.09   16.30
  -2  -4   9   97.39   14.40
  -2  -4   9  131.49   13.70
  -2  -4   9  124.59   16.80
  -2  -4   9  121.69   20.30
   1   4  -9   -3.60    7.70
   1   4  -9    6.50    4.80
   1   4  -9    0.80   11.50
  -1  -4   9    8.00    5.10
  -1  -4   9   -2.20    5.80
  -1  -4   9    5.10    7.10
  -1  -4   9  -18.40   13.00
  -1  -4   9    5.20    9.00
  -1  -4   9    0.90    6.20
  -1  -4   9  -10.60    7.30
   0   4  -9  147.89   22.30
   0   4  -9  143.49   16.80
   0  -4   9  122.19   15.80
   0  -4   9  128.49   12.70
   0  -4   9  134.19   13.70
   0  -4   9  138.09   13.10
   0  -4   9  135.99   13.50
   0  -4   9  127.29   13.70
  -1   4  -9    1.80   10.30
  -1   4  -9    4.60    8.00
  -1   4  -9   -1.00    6.00
   1  -4   9    2.30    7.40
   1  -4   9   10.40    7.30
   1  -4   9   11.50    5.40
   1  -4   9   17.10    7.40
   1  -4   9   -7.10    5.60
   1  -4   9    7.70    7.40
  -2   4  -9    1.70   11.10
  -2   4  -9   11.10    6.80
   2  -4   9    2.00    5.10
   2  -4   9   -0.60    6.80
   2  -4   9    2.10    5.70
   2  -4   9   -1.20    9.40
   2  -4   9    1.50    7.80
   2  -4   9    2.40    9.20
  -3   4  -9   10.70    7.10
  -3   4  -9  -12.90   12.10
   3  -4   9    0.00    5.60
   3  -4   9   12.10    8.40
   3  -4   9    5.90    6.30
   3  -4   9   38.50   11.90
   3  -4   9   11.20   13.20
  -4   4  -9   -9.00    7.20
  -4   4  -9  -23.40   13.30
   4  -4   9   -0.50    9.80
   4  -4   9    3.50    7.40
   4  -4   9    0.30    7.00
  -5   4  -9   20.10   16.50
  -5   4  -9   14.50    9.00
   5  -4   9   27.10   12.20
   5  -4   9   -0.60    9.00
   5  -4   9   15.50   10.60
   6   3  -9   35.50    7.50
   6   3  -9   21.10   14.90
  -6  -3   9    3.60   17.50
  -6  -3   9   65.89   23.90
  -6  -3   9   42.60   19.20
   5   3  -9  338.47   31.90
   5   3  -9  319.97   37.70
   5   3  -9  338.37   22.30
  -5  -3   9  470.05   47.00
  -5  -3   9  422.86   35.80
  -5  -3   9  253.17   34.20
   4   3  -9   30.60   14.70
   4   3  -9   40.40    6.30
   4   3  -9   31.10   11.40
   4   3  -9   40.00    4.90
   4   3  -9   30.00    9.60
  -4  -3   9   21.20   12.50
  -4  -3   9   35.30   19.80
  -4  -3   9   35.70   13.30
  -4  -3   9   18.10    6.70
  -4  -3   9   29.60    7.70
  -4  -3   9   34.10    7.70
   3   3  -9  499.65   31.50
   3   3  -9  481.65   34.80
   3   3  -9  489.65   40.00
  -3  -3   9  451.55   28.70
  -3  -3   9  385.56   35.00
  -3  -3   9  441.36   31.00
  -3  -3   9  492.55   30.20
   2   3  -9   94.19   11.00
   2   3  -9  112.39   15.30
   2   3  -9  124.79   20.50
   2   3  -9   91.49    9.00
  -2  -3   9   94.19   11.70
  -2  -3   9  114.79   17.10
  -2  -3   9   94.49   11.80
  -2  -3   9   87.19   19.40
  -2  -3   9   77.09   13.40
   1   3  -9  394.86   28.10
   1   3  -9  397.76   25.10
   1   3  -9  384.46   24.40
  -1  -3   9  391.46   26.20
  -1  -3   9  391.86   23.10
  -1  -3   9  386.16   27.90
  -1  -3   9  389.76   32.50
  -1  -3   9  337.47   25.50
  -1  -3   9  400.66   45.50
  -1  -3   9  346.97   25.30
   0   3  -9  101.19    9.70
   0   3  -9  113.19   10.60
   0   3  -9  105.09   13.30
   0  -3   9   96.89   11.90
   0  -3   9   95.59   11.00
   0  -3   9   86.39   11.50
   0  -3   9  102.49   13.40
   0  -3   9   95.69    9.50
   0  -3   9   94.99   12.50
  -1   3  -9  141.19   13.10
  -1   3  -9  147.39   15.10
  -1   3  -9  140.09   13.30
   1  -3   9  125.69   12.00
   1  -3   9  123.19   13.90
   1  -3   9  139.89   12.30
   1  -3   9  150.38   14.60
   1  -3   9  138.79   13.80
  -2   3  -9  154.28   13.80
  -2   3  -9  153.58   15.10
  -2   3  -9  147.39   11.60
   2  -3   9  170.18   17.30
   2  -3   9  151.28   13.00
   2  -3   9  114.59   13.70
   2  -3   9  159.38   15.20
   2  -3   9  185.58   16.00
   2  -3   9  144.99   14.10
  -3   3  -9   35.70    5.40
  -3   3  -9   37.00   12.80
  -3   3  -9   28.60    7.10
   3  -3   9   41.30   12.10
   3  -3   9   31.50    6.90
   3  -3   9   25.20    9.60
   3  -3   9   28.90    8.70
   3  -3   9   26.90    8.40
   3  -3   9   32.20    6.90
  -4   3  -9   72.89   15.70
  -4   3  -9   65.09   10.20
   4  -3   9   52.59   11.10
   4  -3   9   85.99   13.80
   4  -3   9   51.69    8.90
   4  -3   9   60.89    9.50
  -5   3  -9    3.90   12.50
  -5   3  -9    9.50    7.50
   5  -3   9   -7.70    8.50
   5  -3   9   -2.70    9.50
   5  -3   9   -0.70    8.70
   6   2  -9   73.39   21.10
   6   2  -9   52.69   17.40
   6   2  -9   82.99   10.30
  -6  -2   9   94.79   22.60
  -6  -2   9   52.59   20.30
  -6  -2   9  107.19   25.90
   5   2  -9  272.67   18.20
   5   2  -9  248.28   19.70
   5   2  -9  206.58   32.40
   5   2  -9  275.17   24.40
   5   2  -9  281.27   29.60
  -5  -2   9  203.88   20.60
  -5  -2   9  194.98   26.90
  -5  -2   9  291.27   31.00
  -5  -2   9  335.87   39.10
   4   2  -9  156.68   17.50
   4   2  -9  120.89   26.10
   4   2  -9  196.88   13.50
   4   2  -9  188.28   15.00
  -4  -2   9  131.39   22.50
  -4  -2   9  162.28   15.00
  -4  -2   9  170.58   13.20
  -4  -2   9  173.68   23.60
  -4  -2   9  240.08   28.90
  -4  -2   9  180.68   16.20
   3   2  -9  487.55   30.20
   3   2  -9  519.85   35.90
   3   2  -9  507.95   39.90
   3   2  -9  486.95   28.50
   3   2  -9  497.75   29.30
  -3  -2   9  341.77   43.30
  -3  -2   9  419.96   35.30
  -3  -2   9  469.65   29.70
  -3  -2   9  484.65   32.00
   2   2  -9  344.57   22.30
   2   2  -9  301.47   20.00
   2   2  -9  346.77   24.80
   2   2  -9  361.76   29.40
   2   2  -9  307.27   19.50
   2   2  -9  333.17   19.20
  -2  -2   9  241.98   31.30
  -2  -2   9  303.87   18.80
  -2  -2   9  244.58   24.80
  -2  -2   9  286.07   23.00
  -2  -2   9  274.47   26.90
  -2  -2   9  280.57   24.60
   1   2  -9  865.71   52.19
   1   2  -9  732.53   44.90
   1   2  -9  787.32   46.20
   1   2  -9  715.83   47.60
  -1  -2   9  709.43   46.50
  -1  -2   9  721.73   46.60
  -1  -2   9  792.82   49.90
  -1  -2   9  780.02   48.60
  -1  -2   9  673.33   46.60
   0   2  -9  113.89   10.70
   0   2  -9  117.39   13.30
   0   2  -9  136.99   17.90
   0   2  -9  115.49   10.30
   0  -2   9  113.79   11.20
   0  -2   9  130.49   13.10
   0  -2   9  103.79   12.30
   0  -2   9  113.89   13.10
   0  -2   9  105.89    8.80
   0  -2   9  108.39   14.70
  -1   2  -9  562.94   38.90
  -1   2  -9  544.65   34.60
  -1   2  -9  500.55   33.60
  -1   2  -9  478.15   32.60
  -1   2  -9  535.15   32.20
   1  -2   9  490.25   34.20
   1  -2   9  478.75   32.90
   1  -2   9  520.35   34.20
   1  -2   9  542.15   33.70
   1  -2   9  539.05   34.10
   1  -2   9  542.75   34.90
  -2   2  -9   91.09   14.40
  -2   2  -9   92.59   11.90
  -2   2  -9   67.69    7.80
  -2   2  -9   75.49   10.50
  -2   2  -9   68.79    9.30
   2  -2   9   76.79   10.30
   2  -2   9   86.69   11.50
   2  -2   9   76.19    9.80
   2  -2   9   81.19   11.30
   2  -2   9   68.39    9.50
   2  -2   9   79.09   10.50
  -3   2  -9  412.56   31.30
  -3   2  -9  368.76   25.30
  -3   2  -9  379.56   24.00
   3  -2   9  336.17   27.80
   3  -2   9  354.26   25.80
   3  -2   9  370.66   26.70
   3  -2   9  408.36   30.20
   3  -2   9  364.76   25.30
  -4   2  -9    8.50    5.70
  -4   2  -9    5.70    5.50
   4  -2   9    0.70    6.60
   4  -2   9   13.70   10.40
   4  -2   9   -5.30    7.60
   4  -2   9    0.40    6.40
  -5   2  -9  103.29   17.30
   5  -2   9   71.49   12.40
   5  -2   9   83.49   12.00
   5  -2   9   92.59   13.50
  -6   2  -9    3.30    8.90
  -6   2  -9   -0.50   12.70
   6  -2   9   -5.00    9.40
   6  -2   9   16.70   10.50
   6  -2   9    4.80   10.50
   6   1  -9  119.59   14.50
   6   1  -9  117.49   20.20
   6   1  -9  138.39   22.10
   6   1  -9   94.29   18.20
  -6  -1   9  132.39   23.20
  -6  -1   9  135.29   27.20
  -6  -1   9  112.49   28.40
   5   1  -9   -8.30   18.30
   5   1  -9   26.40   14.80
   5   1  -9    7.00    8.50
   5   1  -9    4.70    6.10
   5   1  -9   -1.10    5.30
   5   1  -9    5.90    4.90
   5   1  -9   12.70   10.20
  -5  -1   9    0.10    8.20
  -5  -1   9   -4.70   12.40
  -5  -1   9   12.10   16.90
  -5  -1   9   18.70   10.00
  -5  -1   9   -0.20   18.80
   4   1  -9  180.98   30.30
   4   1  -9  203.58   15.90
   4   1  -9  267.27   18.50
   4   1  -9  238.68   28.60
   4   1  -9  263.17   17.10
   4   1  -9  245.08   21.00
  -4  -1   9  195.88   27.30
  -4  -1   9  242.28   26.70
  -4  -1   9  198.98   28.30
  -4  -1   9  214.28   18.10
  -4  -1   9  258.07   19.90
   3   1  -9   11.10    7.20
   3   1  -9   12.10   10.20
   3   1  -9   23.90    4.70
   3   1  -9   15.60   10.30
   3   1  -9   16.70    4.40
   3   1  -9   19.30    5.90
  -3  -1   9   -1.30   12.10
  -3  -1   9   10.90    9.30
  -3  -1   9    7.20   13.60
  -3  -1   9    3.40    4.90
  -3  -1   9    7.30    6.40
   2   1  -9  883.91   55.99
   2   1  -9  948.41   53.49
   2   1  -9  867.91   51.99
   2   1  -9  855.61   51.39
   2   1  -9  949.01   51.29
  -2  -1   9  712.93   56.79
  -2  -1   9  809.02   53.79
  -2  -1   9  836.92   50.69
   1   1  -9   15.90    5.30
   1   1  -9    8.90    6.80
   1   1  -9    5.00    8.40
   1   1  -9    3.80    4.30
   1   1  -9    7.50    2.90
  -1  -1   9  -14.30    5.90
  -1  -1   9   15.30    5.60
  -1  -1   9   13.70    7.80
  -1  -1   9   19.40    9.90
   0   1  -9  929.61   54.59
   0   1  -9  859.71   53.99
   0   1  -9  903.91   52.89
   0   1  -9  869.81   55.49
   0   1  -9  833.72   53.39
   0   1  -9 1021.20   59.89
   0  -1   9  846.82   55.29
   0  -1   9  838.12   55.39
   0  -1   9  917.61   56.19
   0  -1   9  977.40   56.79
   0  -1   9  984.80   57.99
  -1   1  -9   11.70    4.60
  -1   1  -9    2.60    3.20
  -1   1  -9   10.70    8.90
  -1   1  -9    8.80    5.20
  -1   1  -9    4.00    4.30
  -1   1  -9    4.50    2.70
  -1   1  -9   14.90    4.10
   1  -1   9   10.50    6.20
   1  -1   9    9.10    5.20
   1  -1   9    6.90    6.40
   1  -1   9   -2.00    6.60
   1  -1   9    6.00    3.70
  -2   1  -9  982.40   64.09
  -2   1  -9 1027.00   62.49
  -2   1  -9 1066.89   63.69
  -2   1  -9 1080.09   64.09
  -2   1  -9 1145.69   69.39
  -2   1  -9 1091.99   64.89
   2  -1   9 1104.39   66.69
   2  -1   9 1045.80   64.69
   2  -1   9 1074.79   65.49
   2  -1   9 1127.29   66.09
   2  -1   9 1069.59   66.19
  -3   1  -9    6.30    2.90
  -3   1  -9    7.30    4.30
  -3   1  -9   -4.20    9.00
  -3   1  -9   10.10    4.30
  -3   1  -9   -1.10    6.40
  -3   1  -9    7.10    2.90
   3  -1   9    2.00    4.90
   3  -1   9    0.20    7.90
   3  -1   9    4.70    5.50
   3  -1   9    3.20    9.70
   3  -1   9    6.00    6.30
  -4   1  -9  290.87   18.10
  -4   1  -9  288.97   20.70
  -4   1  -9  274.87   17.70
  -4   1  -9  263.07   20.90
  -4   1  -9  327.17   29.40
   4  -1   9  294.87   22.40
   4  -1   9  287.87   23.10
   4  -1   9  290.47   35.00
   4  -1   9  274.07   20.70
  -5   1  -9   22.20   16.00
  -5   1  -9   12.80    8.70
  -5   1  -9   21.00    7.70
  -5   1  -9   15.40    4.80
   5  -1   9    5.70    6.80
   5  -1   9    3.60    8.60
   5  -1   9   24.70    8.90
   5  -1   9   11.90   12.10
  -6   1  -9  205.88   27.90
  -6   1  -9  128.59   13.70
  -6   1  -9  123.69   16.60
   6  -1   9  149.19   20.60
   6  -1   9  162.58   18.40
   6  -1   9  145.19   18.90
  -7   1  -9    0.60   16.50
  -7   1  -9  -10.10   11.60
   7  -1   9   18.00   10.40
   7  -1   9   12.90   11.90
   7  -1   9    8.30   11.30
   6   0  -9   51.29   18.00
   6   0  -9   33.10   14.50
   6   0  -9   31.90    9.50
   6   0  -9   66.69   16.80
   6   0  -9   60.59    8.80
   6   0  -9   46.60   11.70
  -6   0   9   21.50   18.30
  -6   0   9   33.10   24.10
  -6   0   9   49.30   24.30
   5   0  -9    2.10   13.30
   5   0  -9    6.30   11.70
   5   0  -9    5.00    8.00
   5   0  -9   12.30   10.90
   5   0  -9   11.50    6.90
   5   0  -9   17.10    6.80
  -5   0   9   20.50   14.60
  -5   0   9   33.20   10.20
  -5   0   9    5.80   19.30
  -5   0   9  -12.20    8.60
  -5   0   9    3.20   18.60
   4   0  -9  203.28   16.60
   4   0  -9  193.88   19.90
   4   0  -9  175.48   16.70
   4   0  -9  209.68   15.40
   4   0  -9  204.58   15.40
   4   0  -9  153.38   25.30
  -4   0   9  165.68   16.70
  -4   0   9  174.28   18.40
  -4   0   9  148.39   26.00
  -4   0   9  231.28   37.30
   3   0  -9  100.29   11.80
   3   0  -9  149.69   21.00
   3   0  -9  114.89   10.20
   3   0  -9   96.49   14.00
   3   0  -9  103.79   11.30
   3   0  -9  119.89   11.20
   3   0  -9  116.79   15.80
  -3   0   9   99.49   11.10
  -3   0   9  102.89   13.40
  -3   0   9  126.09   22.00
  -3   0   9  125.09   17.90
   2   0  -9   38.50    5.40
   2   0  -9   38.70    6.90
   2   0  -9   61.19   12.90
   2   0  -9   28.50    9.30
   2   0  -9   37.40    6.50
   2   0  -9   44.00    7.90
  -2   0   9   40.90    9.00
  -2   0   9   52.49   14.60
  -2   0   9   27.10   10.90
  -2   0   9   20.50    8.60
  -2   0   9   53.59    7.30
   1   0  -9  320.77   22.00
   1   0  -9  303.57   22.30
   1   0  -9  341.77   20.60
   1   0  -9  381.46   27.90
   1   0  -9  316.77   25.00
   1   0  -9  337.07   22.50
  -1   0   9  319.47   23.40
  -1   0   9  303.37   26.90
  -1   0   9  243.18   24.70
  -1   0   9  326.27   23.60
   0   0  -9   49.30    7.40
   0   0  -9   71.39    7.90
   0   0  -9   49.00    7.40
   0   0  -9   60.19   11.80
   0   0  -9   52.79    9.00
   0   0   9   67.09   11.00
   0   0   9   55.09    8.00
   0   0   9   41.50    8.90
   0   0   9   64.49   11.00
   0   0   9   57.19    9.80
  -1   0  -9  383.96   30.20
  -1   0  -9  348.87   23.90
  -1   0  -9  376.36   24.40
  -1   0  -9  389.06   25.30
  -1   0  -9  385.36   23.40
  -1   0  -9  379.06   23.60
  -1   0  -9  355.96   25.10
   1   0   9  388.26   27.30
   1   0   9  381.86   27.40
   1   0   9  394.66   27.30
   1   0   9  348.37   26.10
   1   0   9  389.86   26.30
  -2   0  -9   58.19   12.30
  -2   0  -9   34.90    6.50
  -2   0  -9   35.50    6.10
  -2   0  -9   40.20    5.90
  -2   0  -9   40.10    5.40
  -2   0  -9   37.70    5.00
  -2   0  -9   47.30    5.80
   2   0   9   19.50    6.90
   2   0   9   32.70    9.50
   2   0   9   46.40    9.40
   2   0   9   36.80    6.60
   2   0   9   33.90    7.80
  -3   0  -9  334.57   31.30
  -3   0  -9  363.26   23.50
  -3   0  -9  353.96   24.30
  -3   0  -9  373.96   24.30
  -3   0  -9  354.66   25.30
  -3   0  -9  383.06   23.70
   3   0   9  359.36   27.30
   3   0   9  370.56   29.10
   3   0   9  388.36   25.40
   3   0   9  375.86   25.90
   3   0   9  384.46   27.00
  -4   0  -9  144.39   14.90
  -4   0  -9  178.48   13.00
  -4   0  -9  165.18   15.10
  -4   0  -9  163.18   14.30
  -4   0  -9  138.59   23.70
   4   0   9  185.68   18.10
   4   0   9  178.58   15.00
   4   0   9  193.68   19.60
   4   0   9  209.18   20.60
  -5   0  -9  188.98   35.60
  -5   0  -9  192.28   18.60
  -5   0  -9  201.08   18.80
  -5   0  -9  207.78   15.40
  -5   0  -9  230.58   17.30
   5   0   9  217.18   18.60
   5   0   9  228.38   24.20
   5   0   9  212.48   20.60
   5   0   9  240.58   20.90
  -6   0  -9   84.09   10.50
  -6   0  -9   67.59    8.80
  -6   0  -9  100.09   20.60
  -6   0  -9   90.69   13.00
  -6   0  -9   87.49   13.20
   6   0   9   92.59   12.90
   6   0   9   96.39   14.70
   6   0   9   87.59   13.90
  -7   0  -9   50.59    9.30
  -7   0  -9   20.80   10.90
  -7   0  -9   43.60   19.20
   7   0   9   18.40   11.50
   7   0   9   28.80   11.70
   7   0   9   29.00   11.20
   6  -1  -9    6.40   14.40
   6  -1  -9   -1.40   15.80
   6  -1  -9    0.90    8.70
   6  -1  -9    4.70   10.50
  -6   1   9   -6.20   18.00
  -6   1   9    8.00   23.80
  -6   1   9   28.90   24.10
   5  -1  -9    7.00    8.20
   5  -1  -9    0.50   14.00
   5  -1  -9    5.60    8.10
   5  -1  -9   -0.90    6.90
   5  -1  -9   -1.10    9.60
  -5   1   9   -0.60   14.30
  -5   1   9  -11.70    8.50
  -5   1   9  -15.40   18.00
  -5   1   9  -18.00   18.60
   4  -1  -9    4.80    6.90
   4  -1  -9    9.20    6.80
   4  -1  -9    6.10    9.90
   4  -1  -9   -1.30   10.70
   4  -1  -9    1.70    5.10
  -4   1   9   17.20   15.80
  -4   1   9   21.70   12.80
  -4   1   9   -4.70    7.30
  -4   1   9    4.90   16.50
  -4   1   9   19.30    9.80
   3  -1  -9   41.70    7.30
   3  -1  -9   37.00    6.70
   3  -1  -9   39.00   11.70
   3  -1  -9   29.10    5.60
   3  -1  -9   21.30   10.00
   3  -1  -9   28.90    7.40
  -3   1   9   37.40   14.70
  -3   1   9   -7.30   12.50
  -3   1   9   26.30    7.10
  -3   1   9   13.50    6.60
  -3   1   9   24.20   11.50
   2  -1  -9  101.59   12.30
   2  -1  -9  128.69   11.20
   2  -1  -9  127.39   10.80
   2  -1  -9  141.29   14.20
   2  -1  -9  142.59   18.70
   2  -1  -9  121.69   12.40
  -2   1   9  126.69   16.40
  -2   1   9   82.19   17.40
  -2   1   9  128.49   12.00
   1  -1  -9  212.38   16.40
   1  -1  -9  191.68   13.10
   1  -1  -9  170.58   15.10
   1  -1  -9  199.98   15.40
   1  -1  -9  223.38   20.80
  -1   1   9  178.78   20.70
  -1   1   9  167.08   16.80
   0  -1  -9  131.09   10.30
   0  -1  -9  120.89   11.40
   0  -1  -9  113.89   12.30
   0  -1  -9  118.79   12.00
   0  -1  -9  128.49   17.60
   0   1   9  122.39   14.10
   0   1   9  152.58   15.80
   0   1   9  149.99   14.80
   0   1   9   91.49   12.30
  -1  -1  -9  195.78   13.40
  -1  -1  -9  176.98   21.20
  -1  -1  -9  162.48   15.80
  -1  -1  -9  163.98   14.40
  -1  -1  -9  180.58   15.60
  -1  -1  -9  190.38   14.10
   1   1   9  184.88   15.90
   1   1   9  185.68   17.80
   1   1   9  211.28   18.00
   1   1   9  199.38   16.60
   1   1   9  155.48   17.90
   1   1   9  173.18   13.00
  -2  -1  -9  322.07   22.40
  -2  -1  -9  317.57   22.20
  -2  -1  -9  327.97   22.30
  -2  -1  -9  341.07   22.20
  -2  -1  -9  301.07   21.00
  -2  -1  -9  301.07   23.70
   2   1   9  380.76   26.20
   2   1   9  353.66   24.90
   2   1   9  370.76   23.90
   2   1   9  360.76   25.40
   2   1   9  355.66   27.00
  -3  -1  -9  409.16   25.30
  -3  -1  -9  412.76   26.90
  -3  -1  -9  379.56   26.80
  -3  -1  -9  418.66   27.80
  -3  -1  -9  414.56   27.70
  -3  -1  -9  381.66   28.30
   3   1   9  446.26   30.90
   3   1   9  455.15   30.50
   3   1   9  440.96   29.10
   3   1   9  447.16   28.30
  -4  -1  -9  205.38   16.30
  -4  -1  -9  204.98   16.50
  -4  -1  -9  211.28   15.50
  -4  -1  -9  171.28   26.00
  -4  -1  -9  206.38   18.10
   4   1   9  184.38   21.00
   4   1   9  198.58   16.90
   4   1   9  235.98   19.70
   4   1   9  197.28   18.20
  -5  -1  -9  173.38   11.90
  -5  -1  -9  189.78   14.70
  -5  -1  -9  207.68   16.50
  -5  -1  -9  141.09   26.10
  -5  -1  -9  162.18   17.30
   5   1   9  135.49   19.20
   5   1   9  177.98   16.10
   5   1   9  225.88   24.00
  -6  -1  -9   85.79   10.50
  -6  -1  -9   87.39   13.20
  -6  -1  -9   72.29    9.30
  -6  -1  -9   46.20   19.40
  -6  -1  -9   66.29    8.90
   6   1   9   80.49   11.80
   6   1   9   85.19   18.20
   6   1   9   63.79   12.70
   6   1   9   61.79   13.00
  -7  -1  -9   58.89   21.30
  -7  -1  -9   44.40    9.90
   7   1   9   32.90   11.20
   7   1   9   57.89   12.90
   7   1   9   69.59   11.50
   8   1   9   80.39   16.50
   6  -2  -9   10.10   11.20
   6  -2  -9   -1.60    9.90
   6  -2  -9  -22.20   15.20
   6  -2  -9    6.60   15.40
  -6   2   9  -28.00   24.20
  -6   2   9   13.10   19.00
  -6   2   9   39.70   24.30
   5  -2  -9   33.10    9.60
   5  -2  -9   15.50    7.80
   5  -2  -9   24.40   15.30
   5  -2  -9   14.40    9.80
   5  -2  -9    7.70   11.80
  -5   2   9   21.10   15.30
  -5   2   9   16.40   12.70
  -5   2   9    5.90   35.70
  -5   2   9  -14.70   21.50
   4  -2  -9    3.40    7.40
   4  -2  -9    4.10    7.90
   4  -2  -9   21.40   12.60
   4  -2  -9  -15.40    8.20
   4  -2  -9    5.70    6.00
  -4   2   9   12.80   17.80
  -4   2   9    7.60   10.30
  -4   2   9    9.00    9.40
  -4   2   9   16.90   14.10
  -4   2   9   34.60   18.70
   3  -2  -9   41.70    6.70
   3  -2  -9   29.50    8.00
   3  -2  -9   39.40   10.10
   3  -2  -9   44.80   12.40
   3  -2  -9   30.40    6.90
  -3   2   9   34.00   15.80
  -3   2   9   53.29   10.60
  -3   2   9   30.10    8.30
  -3   2   9   61.99   16.50
   2  -2  -9   -0.30    6.30
   2  -2  -9   11.10    9.10
   2  -2  -9    8.20    4.70
   2  -2  -9   18.60    7.30
   2  -2  -9   22.50    7.20
  -2   2   9   17.00   12.60
  -2   2   9    7.80    9.30
  -2   2   9    8.60   11.10
  -2   2   9    5.20    6.10
  -2   2   9    5.30    7.50
   1  -2  -9    3.40    3.80
   1  -2  -9   -0.50   12.90
   1  -2  -9   12.00    5.80
   1  -2  -9    5.40    4.50
   1  -2  -9   -0.40    5.90
   1  -2  -9   18.80    9.40
   1  -2  -9    4.60    5.90
  -1   2   9    0.90   10.80
  -1   2   9    1.30    7.60
  -1   2   9   -4.90    6.10
   0  -2  -9    0.20    9.30
   0  -2  -9    7.50    6.60
   0  -2  -9   -5.50    4.70
   0  -2  -9    2.00    5.00
   0  -2  -9    0.60    3.80
   0  -2  -9   -3.40    4.90
   0  -2  -9    1.40    3.10
   0   2   9   -6.80    6.70
   0   2   9  -10.60    7.20
  -1  -2  -9    2.40    5.50
  -1  -2  -9    2.00    9.20
  -1  -2  -9    5.70    6.00
  -1  -2  -9   11.50    6.00
  -1  -2  -9    3.10    4.60
  -1  -2  -9    9.30    4.50
  -1  -2  -9    8.70    2.60
   1   2   9   10.00    7.00
   1   2   9    5.70    4.00
   1   2   9   -2.50    6.20
   1   2   9    4.30    6.90
   1   2   9    7.00    6.20
   1   2   9   28.60   13.70
  -2  -2  -9   20.10    5.80
  -2  -2  -9   40.70   12.80
  -2  -2  -9   30.00    4.50
  -2  -2  -9   32.90    6.30
  -2  -2  -9   25.10    7.50
  -2  -2  -9   16.80   11.40
  -2  -2  -9   37.60    7.20
   2   2   9   32.40    9.30
   2   2   9   29.20    7.10
   2   2   9   39.40    9.00
   2   2   9   27.50    8.80
  -3  -2  -9   60.09    7.90
  -3  -2  -9   44.40   14.90
  -3  -2  -9   59.69    8.90
  -3  -2  -9   61.09   10.60
  -3  -2  -9   56.39    9.20
   3   2   9   50.49    8.40
   3   2   9   58.69   12.30
   3   2   9   50.09    9.10
   3   2   9   66.29   11.40
  -4  -2  -9  111.09   13.40
  -4  -2  -9   90.99   10.80
  -4  -2  -9   98.59    7.70
  -4  -2  -9   96.59    8.00
  -4  -2  -9   79.19   18.60
  -4  -2  -9   84.89   12.10
   4   2   9  100.99   14.40
   4   2   9  147.29   18.20
   4   2   9  114.69   13.80
   4   2   9  110.99   12.40
  -5  -2  -9   63.69    9.50
  -5  -2  -9   53.59    7.40
  -5  -2  -9   43.20    8.00
  -5  -2  -9   60.89   10.30
  -5  -2  -9   46.10   22.40
   5   2   9   50.89   17.20
   5   2   9   59.89    9.80
   5   2   9   54.59   11.90
   5   2   9   52.89   23.10
  -6  -2  -9  109.49   12.30
  -6  -2  -9   96.19   12.60
  -6  -2  -9  106.69   23.80
  -6  -2  -9   97.19   10.90
  -6  -2  -9  113.99   14.70
   6   2   9   78.69   11.20
   6   2   9  108.19   16.60
   6   2   9   52.49   17.40
   6   2   9   80.39   14.10
  -7  -2  -9   10.10    8.70
  -7  -2  -9  -11.80   20.30
  -7  -2  -9   11.00   10.20
   7   2   9   55.09   13.60
   7   2   9   17.40   11.00
   7   2   9   -9.40    7.70
  -8  -2  -9   93.49   28.10
  -8  -2  -9   95.39   14.00
   8   2   9   76.49   16.00
   8   2   9  100.89   14.80
   8   2   9   74.39   15.80
   5  -3  -9   23.90   13.10
   5  -3  -9   44.20   11.30
   5  -3  -9   42.20   15.90
   5  -3  -9   32.30    8.50
  -5   3   9   52.19   18.10
  -5   3   9   69.19   40.00
  -5   3   9   38.70   19.80
   4  -3  -9    5.70    6.40
   4  -3  -9   24.30   11.70
   4  -3  -9    0.90    9.60
   4  -3  -9  -11.30    9.30
   4  -3  -9   -3.30    7.40
  -4   3   9  -20.10   17.00
  -4   3   9   -3.80    8.70
  -4   3   9   18.20   15.40
  -4   3   9   25.40   14.10
   3  -3  -9  112.19   16.40
   3  -3  -9   92.19   12.40
   3  -3  -9   70.39   15.40
   3  -3  -9   81.19   11.30
   3  -3  -9   93.79   12.00
  -3   3   9   94.59   15.30
  -3   3   9  102.89   20.00
  -3   3   9  100.49   17.30
  -3   3   9  112.29   16.00
  -3   3   9   95.69   17.30
   2  -3  -9    2.40   10.00
   2  -3  -9    9.70    7.40
   2  -3  -9    7.20    7.10
   2  -3  -9    6.80    5.70
   2  -3  -9   10.30    5.30
  -2   3   9    6.00   10.40
  -2   3   9    0.80   11.50
  -2   3   9   -7.80    8.60
  -2   3   9    5.40   13.10
   1  -3  -9   77.99   14.60
   1  -3  -9   61.29   10.60
   1  -3  -9  103.79   12.10
   1  -3  -9   72.09   14.60
   1  -3  -9   92.19   12.40
   1  -3  -9   73.19    8.70
   1  -3  -9   99.39   10.50
  -1   3   9   71.39   16.10
  -1   3   9   83.19   14.50
  -1   3   9   51.49   10.40
   0  -3  -9   10.60   11.20
   0  -3  -9   12.60    4.00
   0  -3  -9   22.40    6.70
   0  -3  -9   12.70    5.30
   0  -3  -9   19.00    6.20
   0  -3  -9   12.80    6.30
   0  -3  -9   13.20    7.50
   0   3   9    9.00    7.20
   0   3   9   11.60    9.70
   0   3   9   16.50    8.20
   0   3   9    9.40    3.80
  -1  -3  -9   26.20    4.50
  -1  -3  -9   20.30    6.40
  -1  -3  -9   25.90    6.60
  -1  -3  -9   -0.30   10.60
  -1  -3  -9   28.40    7.20
  -1  -3  -9   19.90    5.90
  -1  -3  -9   24.00    7.20
   1   3   9   20.10    9.60
   1   3   9   27.80    4.80
   1   3   9   26.70    8.10
   1   3   9   20.40    6.80
  -2  -3  -9   59.39    9.50
  -2  -3  -9   58.39    8.40
  -2  -3  -9   54.89   15.10
  -2  -3  -9   70.49   10.20
  -2  -3  -9   52.19    9.00
  -2  -3  -9   61.59    9.60
  -2  -3  -9   57.69    6.40
   2   3   9   48.20    7.70
   2   3   9   60.89   11.60
   2   3   9   51.99   10.50
   2   3   9   61.89   10.80
   2   3   9   48.40    9.10
  -3  -3  -9   10.90   12.70
  -3  -3  -9    2.20    3.50
  -3  -3  -9    4.20    6.20
  -3  -3  -9    3.60    5.60
  -3  -3  -9   18.50    6.80
   3   3   9    2.40    6.00
   3   3   9    4.10    9.10
   3   3   9   -6.50    7.60
   3   3   9   15.10    6.30
  -4  -3  -9  104.89   12.10
  -4  -3  -9   87.49    9.60
  -4  -3  -9   93.49    9.10
  -4  -3  -9  120.69   12.70
  -4  -3  -9  110.39   14.00
   4   3   9  105.89   14.00
   4   3   9   95.29   12.50
   4   3   9  112.79   16.30
   4   3   9  106.99   16.10
  -5  -3  -9   52.29   10.70
  -5  -3  -9   32.10    8.40
  -5  -3  -9   17.60    5.30
   5   3   9   27.30   11.70
   5   3   9   43.30   13.70
   5   3   9   27.00    8.60
  -6  -3  -9   12.40    6.30
  -6  -3  -9    2.90    8.10
  -6  -3  -9   10.90    8.50
   6   3   9   13.00    7.10
   6   3   9   12.20   11.30
   6   3   9   45.50   16.90
  -7  -3  -9   49.60   12.90
  -7  -3  -9   47.70   11.40
   7   3   9   39.30   14.30
   7   3   9   34.80   11.00
   7   3   9   44.20   10.30
  -8  -3  -9    6.70   11.70
  -8  -3  -9   17.90   15.10
   8   3   9   27.10   10.70
   8   3   9   35.70   13.90
   8   3   9   22.40   13.30
   5  -4  -9   26.60   14.40
   5  -4  -9   11.00   11.30
   5  -4  -9    5.50   15.70
   5  -4  -9  -14.50    8.50
  -5   4   9  -11.30   20.50
  -5   4   9   22.90   24.00
  -5   4   9   45.40   21.60
  -5   4   9   11.00   17.80
   4  -4  -9   37.10   14.20
   4  -4  -9   23.20    9.50
   4  -4  -9   32.50    8.90
   4  -4  -9   20.80   10.20
  -4   4   9   -0.30   18.50
  -4   4   9   45.30   17.80
  -4   4   9   42.30   17.00
   3  -4  -9   56.69   13.70
   3  -4  -9   34.10   10.00
   3  -4  -9   39.20    8.30
  -3   4   9   25.10   12.90
  -3   4   9   59.89   19.30
  -3   4   9   45.30   14.70
  -3   4   9   39.70   15.40
  -3   4   9   38.20   13.40
   2  -4  -9   45.00    8.00
   2  -4  -9   57.09   17.70
   2  -4  -9   41.20   10.00
   2  -4  -9   64.89    9.90
   2  -4  -9   63.29   13.10
  -2   4   9   67.79   15.10
  -2   4   9   67.39   14.10
  -2   4   9   38.50   10.30
  -2   4   9   65.39   18.00
   1  -4  -9   78.39   11.00
   1  -4  -9   95.69   13.10
   1  -4  -9   70.89    9.70
   1  -4  -9   87.29   13.20
   1  -4  -9  120.29   12.30
   1  -4  -9   70.29   15.30
  -1   4   9   55.69   15.80
  -1   4   9   84.89   14.70
  -1   4   9   74.89   11.70
   0  -4  -9   65.09   10.10
   0  -4  -9   69.99   14.80
   0  -4  -9   67.99    9.00
   0  -4  -9   87.89   11.10
   0  -4  -9   77.59    9.90
   0  -4  -9   53.09   11.40
   0   4   9   66.99   15.90
   0   4   9   92.29   14.60
   0   4   9   71.79   11.00
   0   4   9   80.89    7.80
  -1  -4  -9  128.59   12.60
  -1  -4  -9  115.49   19.10
  -1  -4  -9  122.59   14.50
  -1  -4  -9  146.79   15.50
  -1  -4  -9  119.69   14.70
  -1  -4  -9  108.09   10.40
   1   4   9  109.19   15.80
   1   4   9  124.89   15.90
   1   4   9  111.09   10.80
   1   4   9  140.69   18.50
  -2  -4  -9    5.00    7.40
  -2  -4  -9   13.10    7.30
  -2  -4  -9   17.30    6.00
  -2  -4  -9   13.00    4.00
   2   4   9   10.50    7.20
   2   4   9   11.00    8.80
   2   4   9   19.30    5.70
   2   4   9   11.70    8.60
  -3  -4  -9  128.69   14.80
  -3  -4  -9  130.49   14.00
  -3  -4  -9  123.79   11.30
   3   4   9  109.19   13.70
   3   4   9  160.38   16.70
   3   4   9  129.09   18.40
   3   4   9  150.58   18.80
   3   4   9  177.98   16.30
  -4  -4  -9   -5.40    7.10
  -4  -4  -9    3.80    6.10
  -4  -4  -9    3.90    4.60
  -4  -4  -9   -9.60    5.80
   4   4   9    3.10    7.00
   4   4   9    2.90    7.00
   4   4   9    4.70    9.80
   4   4   9  -19.80    9.20
  -5  -4  -9   72.69   12.30
  -5  -4  -9   56.69   10.20
  -5  -4  -9   38.50    6.90
   5   4   9   51.59    9.40
   5   4   9   64.49   13.70
   5   4   9   33.90   14.00
   5   4   9   66.99   12.10
  -6  -4  -9   85.79   11.40
  -6  -4  -9   75.69   13.70
  -6  -4  -9   81.79   12.60
   6   4   9  101.49   20.90
   6   4   9   83.09   16.80
   6   4   9   74.49   11.80
   6   4   9   67.59   14.00
  -7  -4  -9   43.30   12.50
  -7  -4  -9   47.80   11.20
  -7  -4  -9   52.49   12.80
   7   4   9  103.69   30.40
   7   4   9   69.19   15.50
   7   4   9   52.99   10.90
   7   4   9   74.29   16.60
  -8  -4  -9   42.80   13.40
  -8  -4  -9   39.00   13.70
   8   4   9   29.40   15.50
   8   4   9   39.30   10.60
   8   4   9   39.20   16.30
   4  -5  -9   42.40   14.20
   4  -5  -9   41.50   11.30
   4  -5  -9   40.00   14.30
   4  -5  -9   38.60   10.80
  -4   5   9   27.50   16.90
  -4   5   9   77.19   21.40
  -4   5   9   40.60   17.50
   3  -5  -9   17.00   10.20
   3  -5  -9   19.80   13.60
   3  -5  -9    1.50    7.50
  -3   5   9    2.80   15.60
  -3   5   9    7.60   13.80
  -3   5   9   -1.60   18.30
   2  -5  -9  116.69   15.70
   2  -5  -9   58.99   16.40
   2  -5  -9  101.09   13.30
   2  -5  -9  114.09   19.00
   2  -5  -9  117.89   14.90
  -2   5   9  100.49   19.70
  -2   5   9  132.59   17.90
  -2   5   9   95.19   17.00
   1  -5  -9  -22.70   11.60
   1  -5  -9    3.70    5.60
   1  -5  -9    0.40    9.50
   1  -5  -9   -2.00    7.10
   1  -5  -9    4.80    7.00
  -1   5   9    0.10   14.20
  -1   5   9    5.00   11.60
  -1   5   9    7.80   10.80
   0  -5  -9  222.38   18.30
   0  -5  -9  216.48   19.30
   0  -5  -9  184.18   16.00
   0  -5  -9  218.18   22.40
   0  -5  -9  171.18   25.70
   0   5   9  193.88   20.70
   0   5   9  193.68   15.40
   0   5   9  252.67   24.60
  -1  -5  -9    2.80    4.40
  -1  -5  -9   10.60    6.30
  -1  -5  -9  -10.40    8.10
  -1  -5  -9   13.30    8.40
   1   5   9  -13.00    8.60
   1   5   9    6.50   10.80
   1   5   9  -10.60    8.20
   1   5   9    9.20    5.20
  -2  -5  -9  281.17   23.70
  -2  -5  -9  341.07   22.50
  -2  -5  -9  301.87   24.40
  -2  -5  -9  293.37   20.50
   2   5   9  250.97   24.70
   2   5   9  250.77   21.10
   2   5   9  322.37   26.60
   2   5   9  277.47   37.60
   2   5   9  363.46   27.50
  -3  -5  -9    3.40    7.30
  -3  -5  -9   24.00    9.30
  -3  -5  -9    7.00    7.00
  -3  -5  -9    9.60    5.10
   3   5   9    5.10    7.60
   3   5   9   10.50    7.10
   3   5   9    6.80   11.00
   3   5   9    4.70    9.00
  -4  -5  -9  128.49   17.00
  -4  -5  -9  179.78   15.00
  -4  -5  -9  171.38   18.40
  -4  -5  -9  192.38   17.70
   4   5   9  121.99   21.00
   4   5   9  182.18   18.40
   4   5   9  138.59   17.30
  -5  -5  -9   83.29   13.30
  -5  -5  -9   69.59    8.40
  -5  -5  -9   65.89   10.80
   5   5   9   89.09   12.70
   5   5   9   30.20   12.40
   5   5   9   47.20   18.30
   5   5   9   77.69   11.30
  -6  -5  -9  131.79   16.40
  -6  -5  -9  114.79   13.70
  -6  -5  -9  138.69   18.70
   6   5   9   81.99   17.20
   6   5   9  141.39   23.30
   6   5   9   95.29   15.20
   6   5   9  132.49   16.90
  -7  -5  -9   40.30   10.50
  -7  -5  -9   60.69   12.60
  -7  -5  -9   41.20   13.10
   7   5   9   66.79   17.30
   7   5   9   46.40   10.50
   7   5   9   40.80   15.50
   7   5   9   40.00   24.50
  -8  -5  -9   34.50   13.50
  -8  -5  -9   16.10   14.00
   8   5   9    4.90    9.30
   8   5   9   15.20   16.30
   8   5   9   23.80   17.50
   4  -6  -9   17.70   15.00
   4  -6  -9   -2.70   11.80
   4  -6  -9   35.90   14.90
   4  -6  -9    0.50    9.10
  -4   6   9    3.70   19.40
  -4   6   9   65.29   26.20
  -4   6   9   43.10   22.30
  -4   6   9    9.60   19.20
   3  -6  -9   34.60   10.90
   3  -6  -9   28.70   10.40
   3  -6  -9   58.99   17.60
  -3   6   9   35.20   15.70
  -3   6   9    3.30   21.30
  -3   6   9   22.80   16.10
   2  -6  -9    0.50    8.90
   2  -6  -9    5.40   15.50
   2  -6  -9    5.30   15.00
   2  -6  -9   -2.10    7.60
   2  -6  -9   -0.80   10.80
  -2   6   9   -5.00   12.60
  -2   6   9    0.80   13.80
  -2   6   9   21.40   18.60
   1  -6  -9   38.70   10.30
   1  -6  -9   49.30    9.90
   1  -6  -9   48.50   12.70
   1  -6  -9   59.09   16.60
   1  -6  -9   76.49   11.80
  -1   6   9   79.49   14.60
  -1   6   9   64.99   14.20
  -1   6   9   73.29   19.60
   0  -6  -9   -0.10    6.20
   0  -6  -9    5.90    7.70
   0  -6  -9  -11.10   11.40
   0  -6  -9    7.90    9.30
   0   6   9   13.60   11.00
   0   6   9   -0.90    6.30
   0   6   9   29.90   13.70
  -1  -6  -9  140.59   14.20
  -1  -6  -9  193.28   20.60
  -1  -6  -9  161.58   19.60
  -1  -6  -9  174.68   16.30
   1   6   9  145.99   24.50
   1   6   9  132.09   18.90
   1   6   9  139.09   13.80
   1   6   9  131.39   18.90
  -2  -6  -9    7.60    5.20
  -2  -6  -9   12.40   11.80
  -2  -6  -9   10.50    9.20
  -2  -6  -9    5.90    6.60
  -2  -6  -9   10.10    5.80
   2   6   9    5.00    6.60
   2   6   9   21.30   11.90
   2   6   9   18.50   10.80
   2   6   9   29.00   19.20
  -3  -6  -9   59.59   10.10
  -3  -6  -9   67.69    9.60
  -3  -6  -9   74.59   12.30
  -3  -6  -9   48.00   12.20
   3   6   9   71.29   10.70
   3   6   9  102.49   14.90
   3   6   9   78.09   15.70
  -4  -6  -9   46.50   12.90
  -4  -6  -9   49.40   10.40
  -4  -6  -9   40.70    8.80
  -4  -6  -9   27.80   10.80
  -4  -6  -9   45.90   11.50
   4   6   9   45.30   14.10
   4   6   9   51.69   12.40
   4   6   9   36.30   10.70
   4   6   9   49.40   10.30
  -5  -6  -9  171.18   19.50
  -5  -6  -9  231.78   23.30
  -5  -6  -9  245.68   22.10
   5   6   9  211.08   30.40
   5   6   9  218.18   26.10
   5   6   9  161.88   21.70
   5   6   9  252.67   22.70
   5   6   9  237.78   22.50
  -6  -6  -9   99.69   12.70
  -6  -6  -9  129.69   17.30
  -6  -6  -9  106.79   15.00
   6   6   9  132.69   17.70
   6   6   9   97.79   19.90
   6   6   9   65.39   19.70
   6   6   9   84.29   14.10
  -7  -6  -9   49.99   13.60
  -7  -6  -9   61.59   13.80
   7   6   9   20.50   15.70
   7   6   9   29.00   15.90
   7   6   9   61.99   12.70
  -8  -6  -9   81.89   15.90
  -8  -6  -9   46.00   15.00
   8   6   9   15.00   17.60
   8   6   9   75.79   19.00
   8   6   9   55.29   13.40
   3  -7  -9   20.40   14.20
   3  -7  -9    5.70   11.90
   3  -7  -9   42.80   18.30
   3  -7  -9  -15.00   11.10
  -3   7   9    7.10   18.00
  -3   7   9   13.80   20.50
  -3   7   9  -39.60   23.20
  -3   7   9  -19.20   20.70
   2  -7  -9    0.40   10.10
   2  -7  -9   -9.70   17.00
   2  -7  -9  -24.00   11.60
   2  -7  -9   -8.60    9.60
  -2   7   9    4.60   18.30
  -2   7   9   19.80   21.80
  -2   7   9   13.00   15.50
   1  -7  -9  -13.70   14.00
   1  -7  -9   -2.80   17.90
   1  -7  -9    1.20   10.10
   1  -7  -9    9.30   14.90
   1  -7  -9   14.30   10.60
  -1   7   9   49.50   12.80
  -1   7   9   25.00   15.00
  -1   7   9   23.10   19.40
   0  -7  -9   10.70    8.30
   0  -7  -9   12.50   10.60
   0  -7  -9    9.50    9.60
   0  -7  -9   28.70   15.00
   0   7   9   -4.30   16.60
   0   7   9   -0.60   12.60
   0   7   9    2.30    7.20
   0   7   9  -14.00   18.90
  -1  -7  -9   75.99   14.00
  -1  -7  -9   49.00   10.30
  -1  -7  -9   58.49    7.80
  -1  -7  -9   50.09   10.20
  -1  -7  -9   33.90   11.60
   1   7   9   62.19   19.30
   1   7   9   37.50    8.90
   1   7   9   -2.00   15.10
   1   7   9   55.59   13.90
  -2  -7  -9   -2.70   10.70
  -2  -7  -9   13.70    7.40
  -2  -7  -9   18.70   10.50
  -2  -7  -9    7.70    8.70
  -2  -7  -9   16.70    6.80
   2   7   9  -28.60   18.60
   2   7   9   18.80    7.70
   2   7   9   27.00   14.70
   2   7   9   24.40   12.20
  -3  -7  -9   82.19   11.90
  -3  -7  -9   59.69   10.10
  -3  -7  -9   32.30    9.40
  -3  -7  -9   37.70   12.20
   3   7   9   40.20   12.60
   3   7   9   49.50   14.80
   3   7   9   66.79   10.60
  -4  -7  -9  111.69   13.70
  -4  -7  -9  111.99   14.90
  -4  -7  -9   75.49   15.60
  -4  -7  -9  103.09   14.70
  -4  -7  -9   87.29   15.60
   4   7   9   93.29   15.70
   4   7   9  109.99   14.60
   4   7   9  130.19   18.30
  -5  -7  -9   74.69   13.70
  -5  -7  -9   68.19   13.70
  -5  -7  -9   76.39   12.50
  -5  -7  -9   61.79   15.00
   5   7   9   73.89   14.00
   5   7   9   83.89   14.60
   5   7   9   55.59   14.20
  -6  -7  -9   24.30   11.20
  -6  -7  -9   19.80   12.30
   6   7   9   -7.40   13.20
   6   7   9   13.00   12.20
   6   7   9   29.80   10.50
   6   7   9   25.10   12.60
  -7  -7  -9   48.80   15.50
  -7  -7  -9   74.09   15.50
   7   7   9   48.60   14.30
   7   7   9   50.59   15.80
   7   7   9   44.60   16.40
   7   7   9    2.70   15.40
   2  -8  -9    5.90   12.30
   2  -8  -9    1.50   15.60
   2  -8  -9  -16.20   12.40
   2  -8  -9   16.50   20.40
  -2   8   9    6.00   19.30
  -2   8   9    6.00   23.90
  -2   8   9   11.90   24.60
   1  -8  -9   -9.70   10.60
   1  -8  -9   12.00   12.50
   1  -8  -9   -6.20   12.70
  -1   8   9   -9.40   13.10
  -1   8   9    4.00   17.00
  -1   8   9   -0.40   24.40
   0  -8  -9   17.50   11.70
   0  -8  -9   19.20   10.10
   0  -8  -9    3.70   12.60
   0   8   9    8.80   15.60
   0   8   9    9.50    9.00
   0   8   9   31.30   20.00
  -1  -8  -9    6.30   14.50
  -1  -8  -9   40.20   12.10
  -1  -8  -9   32.50   14.20
   1   8   9   32.20   16.10
   1   8   9   34.40   18.40
   1   8   9   34.40   10.30
   1   8   9   10.80   18.00
  -2  -8  -9   38.60   10.60
  -2  -8  -9   38.60   12.90
  -2  -8  -9   64.29   13.30
  -2  -8  -9   59.89   14.70
   2   8   9   34.80   21.00
   2   8   9   26.30   18.80
   2   8   9   49.70   15.30
   2   8   9   29.20   10.20
  -3  -8  -9  -13.00   11.60
  -3  -8  -9    4.20    8.60
  -3  -8  -9   -6.00   16.00
  -3  -8  -9  -15.30    8.80
  -3  -8  -9   -4.50   10.60
   3   8   9   15.50   12.70
   3   8   9    4.00   13.20
   3   8   9   -0.10    9.40
  -4  -8  -9   53.99   13.50
  -4  -8  -9   30.90   15.20
  -4  -8  -9   44.40   11.60
  -4  -8  -9   10.20   17.10
  -4  -8  -9   48.10   11.80
   4   8   9   57.79   14.60
   4   8   9   37.90   11.90
   4   8   9   53.19   14.20
  -5  -8  -9   -2.60   10.80
  -5  -8  -9    0.80   10.00
   5   8   9  -15.30   12.50
   5   8   9   -7.00   11.30
   5   8   9   12.50   14.20
  -6  -8  -9  103.79   17.70
  -6  -8  -9  133.39   20.50
   6   8   9  145.89   20.10
   6   8   9  116.89   18.50
   6   8   9  153.58   20.10
  -7  -8  -9  -10.00   13.70
  -7  -8  -9   23.30   15.90
   7   8   9   -5.80   14.10
   7   8   9   -4.20   12.60
   7   8   9    5.80   17.50
   0  -9  -9   -0.80   12.00
   0  -9  -9   24.30   15.40
   0  -9  -9  -21.20   12.40
   0   9   9    6.40   25.10
   0   9   9    5.50   12.40
   0   9   9   -5.50   23.90
   0   9   9   -2.30   18.20
  -1  -9  -9  -40.20   14.70
  -1  -9  -9  -20.30   10.80
  -1  -9  -9    4.80   12.20
   1   9   9    2.70   11.00
   1   9   9  -49.50   21.80
   1   9   9  -16.60   15.30
  -2  -9  -9   30.00   13.00
  -2  -9  -9    9.30   15.40
  -2  -9  -9   28.00   12.30
   2   9   9    4.60   21.30
   2   9   9   -3.20   15.20
  -3  -9  -9  -11.30   10.30
  -3  -9  -9    7.80   11.70
  -3  -9  -9   18.50   14.90
   3   9   9   10.00   16.30
   3   9   9   -8.20   11.20
   3   9   9    6.60   18.00
  -4  -9  -9  -17.20   11.30
  -4  -9  -9   13.00   13.50
  -4  -9  -9   12.30   12.80
   4   9   9   -0.50   12.50
   4   9   9   44.40   16.40
   4   9   9    4.80   17.20
  -5  -9  -9   27.20   16.20
  -5  -9  -9   -1.40   11.50
  -5  -9  -9   -7.90   13.60
   5   9   9   -0.50   16.20
   5   9   9   34.60   17.90
   5   9   9   10.60   13.50
  -6  -9  -9   -1.70   13.00
  -6  -9  -9  -21.70   16.60
   6   9   9   21.00   17.80
   6   9   9    2.00   16.30
   6   9   9   -1.30   14.30
   3   5 -10  210.68   24.40
   3   5 -10  233.88   35.60
  -3  -5  10  186.28   30.70
  -3  -5  10  187.18   23.30
  -3  -5  10  174.48   24.40
   2   5 -10  -18.30   12.20
  -2  -5  10  -13.60   13.20
  -2  -5  10    9.80   12.90
  -2  -5  10  -12.00   20.10
   1   5 -10  276.47   36.30
   1   5 -10  319.27   28.80
  -1  -5  10  317.87   22.90
  -1  -5  10  278.47   23.30
  -1  -5  10  318.67   39.00
  -1  -5  10  287.87   27.60
  -1  -5  10  320.97   27.10
   0   5 -10  -17.40   11.60
   0   5 -10   12.20   15.90
   0  -5  10    5.40    8.00
   0  -5  10   26.30   16.40
   0  -5  10    9.40    8.70
   0  -5  10   22.20   10.50
   0  -5  10    8.00    8.20
  -1   5 -10  378.86   38.60
  -1   5 -10  330.37   28.40
   1  -5  10  363.66   26.10
   1  -5  10  350.56   24.80
   1  -5  10  297.27   27.00
   1  -5  10  308.47   26.20
  -2   5 -10   62.59   19.30
  -2   5 -10   38.40   10.80
   2  -5  10   33.90    9.80
   2  -5  10   32.90    8.90
   4   4 -10   86.29   21.80
   4   4 -10   87.79   16.90
  -4  -4  10   97.09   19.60
  -4  -4  10   22.20   20.00
  -4  -4  10   35.50   24.70
   3   4 -10   52.69   18.20
   3   4 -10   20.20   12.90
  -3  -4  10   31.00   14.00
  -3  -4  10   32.20   15.80
  -3  -4  10   27.10   19.80
   2   4 -10  195.58   23.30
   2   4 -10  232.28   29.40
  -2  -4  10  210.78   24.00
  -2  -4  10  203.98   30.00
  -2  -4  10  185.68   19.50
  -2  -4  10  204.08   24.40
   1   4 -10   74.89   12.50
   1   4 -10   87.29   18.30
  -1  -4  10   43.50   12.60
  -1  -4  10   74.59   13.30
  -1  -4  10   65.89   10.40
  -1  -4  10   62.59   10.60
  -1  -4  10   95.09   20.40
   0   4 -10  325.07   27.00
   0   4 -10  362.66   33.60
   0  -4  10  327.17   24.50
   0  -4  10  294.77   26.10
   0  -4  10  368.86   25.20
   0  -4  10  323.77   27.00
   0  -4  10  281.37   23.60
  -1   4 -10   41.80   14.40
  -1   4 -10   53.69   10.00
  -1   4 -10   55.79   11.50
   1  -4  10   60.99    9.80
   1  -4  10   53.49   11.20
   1  -4  10   58.99   11.10
   1  -4  10   48.80    9.70
   1  -4  10   49.60   13.20
  -2   4 -10   90.79   17.10
  -2   4 -10   71.89   11.70
   2  -4  10   72.99   13.60
   2  -4  10   72.99   10.20
   2  -4  10   77.89   11.60
   2  -4  10   50.09   10.20
  -3   4 -10   -1.40    8.10
  -3   4 -10   12.10   15.30
   3  -4  10  -15.20    9.10
   3  -4  10    0.50    6.80
   3  -4  10    3.00    7.80
   5   3 -10   10.90   13.70
   5   3 -10    1.20   18.70
  -5  -3  10   -1.80   20.40
  -5  -3  10  -17.10   24.70
  -5  -3  10    1.60   17.60
   4   3 -10   33.50   18.50
   4   3 -10   -1.80   12.00
  -4  -3  10   14.00   15.30
  -4  -3  10   -6.10   22.40
  -4  -3  10   22.00   16.10
   3   3 -10   13.10   15.60
   3   3 -10   19.20   11.00
  -3  -3  10  -13.50   13.30
  -3  -3  10  -18.80   11.40
  -3  -3  10   15.00   18.20
   2   3 -10   92.59   18.60
   2   3 -10   71.09   13.00
   2   3 -10   75.89   12.10
  -2  -3  10  121.89   17.00
  -2  -3  10   65.49   15.00
  -2  -3  10   77.69   11.10
  -2  -3  10   66.19   20.70
   1   3 -10   63.99   14.20
   1   3 -10   55.79    8.50
   1   3 -10   47.10   10.70
   1   3 -10   46.50    7.70
  -1  -3  10   67.09    9.40
  -1  -3  10   44.70   11.20
  -1  -3  10   58.99   13.70
  -1  -3  10   54.89    9.30
  -1  -3  10   65.09   18.10
   0   3 -10   44.80   14.00
   0   3 -10   48.20    9.40
   0   3 -10   39.00    7.70
   0  -3  10   25.80    7.70
   0  -3  10   45.80    8.80
   0  -3  10   41.00    6.00
   0  -3  10   52.69   10.90
   0  -3  10   34.20    9.40
  -1   3 -10   30.50    6.80
  -1   3 -10   59.89    9.00
  -1   3 -10   74.69   14.90
  -1   3 -10   55.89    8.90
  -1   3 -10   57.29   10.20
   1  -3  10   55.29    9.00
   1  -3  10   51.29    9.50
   1  -3  10   48.70    9.40
   1  -3  10   38.40    7.60
   1  -3  10   58.89   10.60
  -2   3 -10  161.98   23.00
  -2   3 -10  142.69   14.80
   2  -3  10  149.69   16.70
   2  -3  10  121.39   16.50
   2  -3  10  134.59   15.00
   2  -3  10  115.99   14.20
   2  -3  10  128.19   13.80
  -3   3 -10   51.49   14.00
  -3   3 -10   44.10    9.00
   3  -3  10   34.20    8.40
   3  -3  10   40.00   16.50
   3  -3  10   43.50    8.80
  -4   3 -10   57.09   16.30
  -4   3 -10   62.89   10.70
   4  -3  10   61.39   10.00
   4  -3  10   51.09   10.20
   4  -3  10   65.19   13.10
   5   2 -10   22.00   15.30
   5   2 -10   16.50    6.20
   5   2 -10    1.90   19.70
  -5  -2  10   43.50   20.20
  -5  -2  10  -14.40   18.50
  -5  -2  10   13.20   27.60
   4   2 -10    9.00    5.10
   4   2 -10    4.90   16.10
   4   2 -10   20.20   13.20
  -4  -2  10    6.90   21.70
  -4  -2  10   35.30   15.70
  -4  -2  10   -1.50   15.70
   3   2 -10   15.10    8.10
   3   2 -10   -2.00   14.20
   3   2 -10   19.30    7.40
   3   2 -10    5.80    4.30
   3   2 -10    6.90    5.70
  -3  -2  10    2.20   12.60
  -3  -2  10   20.00   17.40
  -3  -2  10  -14.30   14.50
  -3  -2  10   14.40   12.30
   2   2 -10   -6.20    3.10
   2   2 -10   17.60    7.60
   2   2 -10   -2.70   10.70
   2   2 -10    3.70    4.20
   2   2 -10   15.70    9.20
  -2  -2  10  -11.10    9.80
  -2  -2  10  -10.50   15.70
  -2  -2  10    3.40    7.40
  -2  -2  10    2.50   11.90
   1   2 -10    5.50    6.40
   1   2 -10    1.80    4.30
   1   2 -10   -4.70    7.30
   1   2 -10   -1.30   10.00
  -1  -2  10   16.40    6.80
  -1  -2  10   -9.80    9.90
  -1  -2  10   15.70    9.50
  -1  -2  10    3.50   13.30
   0   2 -10    3.10    5.00
   0   2 -10   -5.20   10.40
   0   2 -10    9.10    5.60
   0   2 -10  -13.50    6.60
   0  -2  10    8.80    3.10
   0  -2  10    9.00    7.20
   0  -2  10    4.50    5.90
   0  -2  10    4.20    8.90
   0  -2  10   -9.00    6.70
  -1   2 -10   40.10    7.30
  -1   2 -10   48.90    7.10
  -1   2 -10   37.50   12.30
  -1   2 -10   53.29    7.90
  -1   2 -10   40.10    8.80
   1  -2  10   51.49    9.40
   1  -2  10   45.20    8.90
   1  -2  10   54.49   10.10
   1  -2  10   60.89    9.00
  -2   2 -10   12.30    7.60
  -2   2 -10   24.40   12.90
  -2   2 -10   10.10    5.70
  -2   2 -10   20.00    5.70
   2  -2  10   27.70    8.00
   2  -2  10    2.70    7.40
   2  -2  10   18.60    6.60
   2  -2  10   14.60    6.70
   2  -2  10   23.50    7.60
  -3   2 -10   46.00   13.80
  -3   2 -10   31.00    7.10
   3  -2  10   39.70    8.90
   3  -2  10   30.80    7.70
   3  -2  10   47.30    9.10
   3  -2  10   35.00   10.10
   3  -2  10   20.60   10.60
  -4   2 -10   21.20    7.60
  -4   2 -10   33.60   13.70
   4  -2  10   23.40    9.50
   4  -2  10   30.80    8.10
   4  -2  10   14.50    7.60
  -5   2 -10   54.79   16.80
  -5   2 -10   41.70   10.00
   5  -2  10   53.19   10.80
   5  -2  10   43.60   11.90
   5  -2  10   54.69   11.60
   5   1 -10    8.30   19.30
   5   1 -10   -5.30    6.10
   5   1 -10    9.30   15.10
  -5  -1  10   20.30   24.90
  -5  -1  10  -17.00   19.40
  -5  -1  10   -8.20   17.80
   4   1 -10  123.99   22.60
   4   1 -10  108.19   19.20
   4   1 -10  149.09   19.00
   4   1 -10  134.19   15.10
   4   1 -10  124.39   11.90
  -4  -1  10  142.09   24.20
  -4  -1  10   55.89   19.50
  -4  -1  10  118.89   26.10
   3   1 -10   10.30    7.10
   3   1 -10    8.90    7.30
   3   1 -10   32.00   12.60
   3   1 -10   13.50    8.30
   3   1 -10   27.70   14.00
   3   1 -10   14.60    4.70
  -3  -1  10  -26.10   16.90
  -3  -1  10   28.20   15.30
  -3  -1  10   18.50    9.90
   2   1 -10  130.99   14.00
   2   1 -10  112.19   13.00
   2   1 -10  114.89   15.70
   2   1 -10  152.28   21.50
   2   1 -10  124.29   11.20
   2   1 -10  124.49   10.00
  -2  -1  10  120.89   19.50
  -2  -1  10   78.19   16.80
  -2  -1  10  104.29   20.50
  -2  -1  10  113.19   15.20
   1   1 -10   22.80    6.10
   1   1 -10   23.60    5.70
   1   1 -10   15.10   11.70
   1   1 -10   29.00    9.20
   1   1 -10   20.90    4.10
  -1  -1  10   27.50   11.70
  -1  -1  10   37.10    8.30
  -1  -1  10   11.10    9.30
   0   1 -10   27.30    7.70
   0   1 -10   30.60    7.70
   0   1 -10   22.20    3.90
   0   1 -10   31.30    6.30
   0   1 -10   34.50   12.30
   0  -1  10   47.50    9.50
   0  -1  10   40.70   12.10
   0  -1  10   26.10    8.60
   0  -1  10   32.40    7.20
  -1   1 -10   78.89    9.10
  -1   1 -10   77.49    7.70
  -1   1 -10  103.99    9.70
  -1   1 -10   89.89   11.90
  -1   1 -10   92.79    7.00
  -1   1 -10  116.69   19.00
  -1   1 -10   88.79    9.70
   1  -1  10   65.99    8.10
   1  -1  10  101.39   11.80
   1  -1  10   97.99   12.60
   1  -1  10   75.69   10.70
   1  -1  10   77.79   12.30
  -2   1 -10    2.40    6.20
  -2   1 -10   -0.40    4.30
  -2   1 -10   17.20    6.80
  -2   1 -10    0.30    9.40
  -2   1 -10   -4.70    4.30
   2  -1  10    0.90    6.60
   2  -1  10   -3.40    5.40
   2  -1  10   -0.50    5.70
   2  -1  10   -2.50    7.20
  -3   1 -10   61.49    7.90
  -3   1 -10   57.59    8.00
  -3   1 -10   74.79   15.00
   3  -1  10   57.79    9.00
   3  -1  10   42.10    9.00
   3  -1  10   72.09   10.90
  -4   1 -10   14.80   13.90
  -4   1 -10   13.80    6.00
   4  -1  10    7.90    6.70
   4  -1  10   18.40    7.20
   4  -1  10   12.20    9.60
  -5   1 -10   25.50   15.30
  -5   1 -10   16.00    8.70
   5  -1  10   28.50   10.30
   5  -1  10   13.00    7.90
   5  -1  10   19.70   10.20
  -6   1 -10   36.30   17.50
  -6   1 -10   35.70   10.30
   6  -1  10   32.20   10.90
   6  -1  10   15.30   11.80
   6  -1  10   18.40   12.10
   5   0 -10   28.40   14.70
   5   0 -10   65.69    9.50
   5   0 -10   39.80   18.90
   5   0 -10   41.30   19.50
  -5   0  10   44.70   18.20
  -5   0  10   37.20   28.40
  -5   0  10   31.00   21.70
   4   0 -10  126.89   15.80
   4   0 -10  126.49   13.40
   4   0 -10  134.49   20.50
   4   0 -10  124.49   21.40
  -4   0  10   55.09   20.20
  -4   0  10  109.59   22.10
  -4   0  10   99.49   27.30
   3   0 -10  132.29   21.80
   3   0 -10  135.39   14.90
   3   0 -10  129.69   14.20
   3   0 -10  144.19   12.50
   3   0 -10  148.89   24.10
   3   0 -10  151.48   16.60
  -3   0  10  153.98   21.40
  -3   0  10  127.39   13.30
  -3   0  10  125.59   20.30
  -3   0  10  116.59   23.00
  -3   0  10   83.49   22.70
   2   0 -10  276.27   33.30
   2   0 -10  243.98   17.00
   2   0 -10  276.77   25.50
   2   0 -10  232.48   19.60
   2   0 -10  260.37   19.10
   2   0 -10  285.37   20.90
  -2   0  10  168.28   25.00
  -2   0  10  210.78   28.00
  -2   0  10  242.98   22.00
  -2   0  10  239.38   29.20
   1   0 -10   25.30    4.70
   1   0 -10   29.40    7.70
   1   0 -10   34.50    8.30
   1   0 -10   37.10    7.80
   1   0 -10   37.60   10.00
  -1   0  10   43.50    9.80
  -1   0  10   31.20   17.00
  -1   0  10   19.70   10.60
   0   0 -10  233.38   16.90
   0   0 -10  198.28   17.30
   0   0 -10  221.38   19.20
   0   0 -10  177.68   17.10
   0   0 -10  225.98   14.60
   0   0  10  243.28   33.30
   0   0  10  230.98   20.10
   0   0  10  203.28   18.10
  -1   0 -10   16.50    6.20
  -1   0 -10   18.10    4.50
  -1   0 -10   19.90    5.40
  -1   0 -10   18.00    6.30
  -1   0 -10   40.80   15.60
  -1   0 -10   26.70    5.80
   1   0  10   25.20    7.90
   1   0  10   15.70    3.90
   1   0  10   25.30    8.00
   1   0  10   28.30    8.80
  -2   0 -10  275.57   21.90
  -2   0 -10  287.47   20.60
  -2   0 -10  303.77   20.40
  -2   0 -10  292.07   19.70
  -2   0 -10  322.47   28.90
  -2   0 -10  274.77   19.50
  -2   0 -10  303.47   19.10
   2   0  10  325.57   24.50
   2   0  10  291.17   23.60
   2   0  10  319.47   23.90
   2   0  10  291.37   22.30
  -3   0 -10    8.50    6.60
  -3   0 -10    6.20    4.60
  -3   0 -10    9.10    4.30
  -3   0 -10   -3.70    3.90
  -3   0 -10   10.70   11.70
   3   0  10   -8.30    8.90
   3   0  10    3.40    6.70
   3   0  10    6.70    6.10
   3   0  10    5.20    8.30
  -4   0 -10   63.99    9.30
  -4   0 -10   71.19    9.00
  -4   0 -10   84.09   17.10
  -4   0 -10   68.69    9.10
   4   0  10   79.39   11.00
   4   0  10   61.09   10.40
   4   0  10   38.70   12.50
   4   0  10   76.89   12.70
  -5   0 -10   10.10    8.20
  -5   0 -10   16.10    7.00
  -5   0 -10    5.70   16.80
   5   0  10    8.40    8.80
   5   0  10   42.80   11.10
   5   0  10   14.50    8.40
  -6   0 -10   87.99   21.70
  -6   0 -10   15.80   11.20
  -6   0 -10   48.60   10.40
   6   0  10   71.29   14.00
   6   0  10   49.00   12.30
   6   0  10   54.99   10.80
   5  -1 -10   55.89   10.50
   5  -1 -10   86.99   12.00
   5  -1 -10   61.49   15.60
   5  -1 -10   58.59   20.50
  -5   1  10   87.09   21.70
  -5   1  10   34.80   24.00
  -5   1  10   32.40   27.90
   4  -1 -10    9.00    7.90
   4  -1 -10   -4.40   10.70
   4  -1 -10   12.30    6.70
   4  -1 -10   24.80   27.40
  -4   1  10   19.50   19.70
  -4   1  10    8.10   15.10
  -4   1  10    1.40   10.60
  -4   1  10  -13.40   20.40
   3  -1 -10  414.16   41.00
   3  -1 -10  356.56   25.20
   3  -1 -10  358.86   24.00
   3  -1 -10  363.46   23.80
   3  -1 -10  376.86   27.80
  -3   1  10  311.37   34.40
  -3   1  10  313.77   25.10
  -3   1  10  282.57   28.70
  -3   1  10  326.77   39.90
   2  -1 -10   -0.90    7.10
   2  -1 -10   21.00    8.30
   2  -1 -10   16.10    5.50
   2  -1 -10    1.70   12.50
   2  -1 -10   23.40    7.40
   2  -1 -10   11.60    4.90
  -2   1  10   16.10   15.20
  -2   1  10   27.60   10.60
  -2   1  10   27.20   30.80
   1  -1 -10  408.56   26.30
   1  -1 -10  373.26   28.40
   1  -1 -10  422.96   26.00
   1  -1 -10  495.55   31.90
   1  -1 -10  480.85   34.40
   1  -1 -10  414.66   28.50
   1  -1 -10  374.66   28.00
  -1   1  10  380.96   35.20
  -1   1  10  393.86   30.10
   0  -1 -10   -5.00    3.70
   0  -1 -10    8.20    7.20
   0  -1 -10    6.10   11.00
   0  -1 -10   10.60    5.70
   0  -1 -10   -9.20    7.90
   0  -1 -10    9.30    6.90
   0   1  10   -7.20    9.70
   0   1  10   -9.60    7.90
   0   1  10   -8.20    7.00
  -1  -1 -10  706.43   40.20
  -1  -1 -10  668.03   41.20
  -1  -1 -10  673.43   39.10
  -1  -1 -10  720.33   52.69
  -1  -1 -10  563.74   42.40
  -1  -1 -10  637.64   41.20
  -1  -1 -10  643.44   42.50
   1   1  10  629.54   44.20
   1   1  10  698.43   45.20
   1   1  10  681.53   43.80
   1   1  10  636.64   43.20
  -2  -1 -10   18.40    5.30
  -2  -1 -10   17.50    5.80
  -2  -1 -10   15.10    3.80
  -2  -1 -10   11.40   16.00
  -2  -1 -10   18.20    5.30
  -2  -1 -10   31.90   11.90
  -2  -1 -10   29.10    6.40
   2   1  10   22.50    8.50
   2   1  10   37.30    8.70
   2   1  10   17.20    8.20
   2   1  10   29.50   10.20
  -3  -1 -10  195.88   14.00
  -3  -1 -10  195.18   16.00
  -3  -1 -10  177.28   27.50
  -3  -1 -10  217.68   15.50
  -3  -1 -10  217.38   16.60
  -3  -1 -10  217.18   16.40
   3   1  10  219.88   18.10
   3   1  10  219.68   21.30
   3   1  10  190.88   19.50
   3   1  10  243.18   21.60
  -4  -1 -10   21.30   15.30
  -4  -1 -10   44.60    8.50
  -4  -1 -10   42.80    8.50
  -4  -1 -10   35.50    6.90
  -4  -1 -10   43.90    7.90
   4   1  10   46.00   12.10
   4   1  10   49.70   12.60
   4   1  10   28.80    8.80
  -5  -1 -10  131.49   16.40
  -5  -1 -10  138.69   13.80
  -5  -1 -10  125.59   23.20
  -5  -1 -10  143.69   16.40
  -5  -1 -10  144.59   18.50
   5   1  10  157.88   18.00
   5   1  10  155.98   16.50
   5   1  10  181.88   20.10
  -6  -1 -10   18.20   10.20
  -6  -1 -10   16.40   19.80
  -6  -1 -10   15.30    9.70
   6   1  10   30.00   11.60
   6   1  10   35.20   12.00
   6   1  10   13.40    8.40
  -7  -1 -10   -1.10   21.10
  -7  -1 -10   43.30   11.20
  -7  -1 -10   23.20   11.90
   7   1  10   12.60   12.10
   7   1  10   23.60   10.90
   7   1  10   44.20   15.00
   5  -2 -10   78.59   15.00
   5  -2 -10   51.09   10.80
   5  -2 -10   55.39   15.90
   5  -2 -10   28.40   24.90
  -5   2  10   29.70   26.20
  -5   2  10   71.79   29.00
  -5   2  10   52.19   21.90
   4  -2 -10   48.20   16.70
   4  -2 -10   32.70    9.10
   4  -2 -10   19.70   11.60
   4  -2 -10   29.10    8.50
  -4   2  10   47.00   22.80
  -4   2  10   48.80   18.50
  -4   2  10  -13.30   20.40
  -4   2  10   17.70   11.60
   3  -2 -10   18.80    6.80
   3  -2 -10   23.70    9.10
   3  -2 -10   13.20    7.10
   3  -2 -10    6.20   12.00
   3  -2 -10   19.20   10.60
  -3   2  10   30.50    9.30
  -3   2  10   15.50   10.80
  -3   2  10  -20.30   16.70
  -3   2  10   27.20   16.30
   2  -2 -10   97.39   11.70
   2  -2 -10  139.79   21.10
   2  -2 -10  126.09   15.20
   2  -2 -10  141.29   16.30
   2  -2 -10  110.89   11.40
  -2   2  10   72.99   18.40
  -2   2  10   72.49   13.20
  -2   2  10   95.89   18.00
  -2   2  10   69.49   18.70
   1  -2 -10    9.40    7.20
   1  -2 -10   23.10    5.20
   1  -2 -10   27.20    6.10
   1  -2 -10   33.70   13.10
   1  -2 -10   18.20    7.40
  -1   2  10   33.90   15.00
  -1   2  10   26.30    9.50
   0  -2 -10  193.48   23.20
   0  -2 -10  198.08   14.50
   0  -2 -10  173.78   12.70
   0  -2 -10  164.98   16.90
   0  -2 -10  223.88   16.70
   0  -2 -10  168.68   17.50
   0   2  10  174.38   20.30
   0   2  10  228.38   24.00
   0   2  10  170.78   18.10
  -1  -2 -10   29.60    9.30
  -1  -2 -10   30.20    8.60
  -1  -2 -10   44.00    7.50
  -1  -2 -10   43.90   14.40
  -1  -2 -10   31.50    6.20
   1   2  10   46.90   11.80
   1   2  10   40.20    5.50
   1   2  10   28.70   10.60
   1   2  10   29.00    8.50
  -2  -2 -10  255.97   18.90
  -2  -2 -10  270.97   18.80
  -2  -2 -10  212.28   18.90
  -2  -2 -10  228.58   19.50
  -2  -2 -10  230.88   16.00
   2   2  10  283.37   24.00
   2   2  10  288.77   21.40
   2   2  10  271.17   22.90
   2   2  10  256.47   18.40
  -3  -2 -10  181.68   13.60
  -3  -2 -10  201.28   17.20
  -3  -2 -10  168.18   15.70
  -3  -2 -10  174.18   15.60
  -3  -2 -10  169.38   13.90
  -3  -2 -10  145.49   23.10
   3   2  10  211.58   21.20
   3   2  10  213.88   19.40
   3   2  10  231.88   17.90
  -4  -2 -10  180.28   18.00
  -4  -2 -10  174.98   25.50
  -4  -2 -10  163.48   15.20
  -4  -2 -10  189.98   17.20
  -4  -2 -10  185.18   15.10
   4   2  10  180.68   18.10
   4   2  10  170.48   19.00
   4   2  10  116.79   20.00
   4   2  10  230.98   30.80
  -5  -2 -10  150.38   15.80
  -5  -2 -10  165.68   26.50
  -5  -2 -10  156.78   17.50
  -5  -2 -10  182.28   19.10
   5   2  10  169.48   16.60
   5   2  10  163.78   21.90
   5   2  10  138.39   22.40
   5   2  10  164.48   19.20
  -6  -2 -10   43.30   13.20
  -6  -2 -10   24.10   20.30
  -6  -2 -10   28.40   10.30
   6   2  10   22.10   10.80
   6   2  10   37.90    9.70
   6   2  10   19.30   11.10
  -7  -2 -10  192.88   21.40
  -7  -2 -10  118.09   29.70
   7   2  10  198.68   27.90
   7   2  10  159.48   19.80
   7   2  10  198.88   23.90
   4  -3 -10   21.70   16.00
   4  -3 -10   -6.70    8.40
   4  -3 -10   14.20   10.60
   4  -3 -10   -4.00    7.20
  -4   3  10   -2.90   18.50
  -4   3  10    1.60   20.80
  -4   3  10  -11.20   22.10
   3  -3 -10   41.10   13.00
   3  -3 -10   59.49   15.50
   3  -3 -10   42.10    8.60
   3  -3 -10   30.70   10.90
   3  -3 -10   48.30    9.10
  -3   3  10   80.89   18.60
  -3   3  10   75.19   15.70
  -3   3  10   30.40   18.90
  -3   3  10   26.80   11.30
   2  -3 -10  121.99   12.80
   2  -3 -10  120.19   15.30
   2  -3 -10  135.59   17.80
   2  -3 -10  142.39   22.50
  -2   3  10  118.69   20.00
  -2   3  10   97.29   23.40
   1  -3 -10   50.89   10.10
   1  -3 -10   51.59    7.20
   1  -3 -10   56.99    9.90
   1  -3 -10   47.60    8.20
   1  -3 -10   64.49   15.50
  -1   3  10   61.79   15.20
  -1   3  10   58.19   11.90
  -1   3  10   49.20   17.40
   0  -3 -10  155.18   14.40
   0  -3 -10  169.78   15.40
   0  -3 -10  155.38   17.40
   0  -3 -10  148.49   24.30
   0  -3 -10  140.49   12.10
   0   3  10  190.68   25.20
   0   3  10  129.49   17.30
  -1  -3 -10  154.38   15.00
  -1  -3 -10  122.49   20.80
  -1  -3 -10  171.98   14.40
  -1  -3 -10  152.98   11.70
   1   3  10  152.58   18.80
   1   3  10  193.48   22.10
   1   3  10  154.38   11.90
   1   3  10  129.79   18.00
  -2  -3 -10  320.17   21.90
  -2  -3 -10  369.56   25.20
  -2  -3 -10  345.17   26.10
   2   3  10  409.86   29.90
   2   3  10  402.46   29.70
   2   3  10  347.87   24.20
   2   3  10  364.16   29.00
  -3  -3 -10  111.29   13.70
  -3  -3 -10   93.39    9.80
  -3  -3 -10  109.99   13.10
  -3  -3 -10  113.39   21.70
  -3  -3 -10   94.99    9.00
  -3  -3 -10  111.99    9.80
   3   3  10  116.09   13.50
   3   3  10  118.29   17.30
   3   3  10  114.09   15.80
   3   3  10  111.89   16.00
  -4  -3 -10  240.78   16.60
  -4  -3 -10  213.58   29.90
  -4  -3 -10  252.37   16.70
  -4  -3 -10  249.58   21.50
  -4  -3 -10  260.87   21.70
   4   3  10  270.27   26.10
   4   3  10  290.17   27.00
   4   3  10  249.48   28.60
   4   3  10  271.47   22.00
  -5  -3 -10   46.80   11.00
  -5  -3 -10   53.19    7.10
  -5  -3 -10   45.40    6.30
  -5  -3 -10   32.20   22.20
  -5  -3 -10   60.39   12.80
   5   3  10   21.90   15.10
   5   3  10   36.20    9.00
   5   3  10   62.39   13.70
   5   3  10   32.80   10.70
  -6  -3 -10  103.89   27.50
  -6  -3 -10  110.79   16.30
  -6  -3 -10  118.89   15.20
   6   3  10  123.39   17.70
   6   3  10  126.89   17.10
   6   3  10  109.79   16.50
  -7  -3 -10   98.29   14.90
  -7  -3 -10   52.89   26.30
   7   3  10   84.89   13.00
   7   3  10   81.99   19.20
   7   3  10   66.99   15.90
   4  -4 -10   14.30    8.50
   4  -4 -10   15.10   14.10
   4  -4 -10   51.39   16.70
   4  -4 -10    9.90   10.10
  -4   4  10   33.10   18.90
  -4   4  10  -31.10   25.20
  -4   4  10   63.49   22.70
   3  -4 -10   25.20    7.90
   3  -4 -10   19.80    8.50
   3  -4 -10   25.50   11.50
   3  -4 -10   30.80   14.60
  -3   4  10   45.30   18.00
  -3   4  10   24.80   16.00
  -3   4  10  -11.30   19.50
   2  -4 -10   16.90   13.40
   2  -4 -10    5.70    7.30
   2  -4 -10   -5.20    9.10
   2  -4 -10    3.60    6.60
  -2   4  10   25.60   14.50
  -2   4  10    6.00   18.20
  -2   4  10   27.00   15.30
  -2   4  10   -8.40   11.80
   1  -4 -10   16.60    6.80
   1  -4 -10    9.50    6.20
   1  -4 -10   24.90    8.30
   1  -4 -10   24.10   14.10
  -1   4  10   17.70   12.50
  -1   4  10   -3.30   14.90
  -1   4  10   19.60   10.30
   0  -4 -10    7.70    7.00
   0  -4 -10   -1.10   13.90
   0  -4 -10   -8.60    4.70
   0  -4 -10  -11.30   13.40
   0   4  10    0.40   12.30
   0   4  10   -5.30    9.10
   0   4  10   -4.10    3.70
   0   4  10  -22.90    9.80
  -1  -4 -10   73.49   11.00
  -1  -4 -10   55.69   23.10
  -1  -4 -10   79.39   10.50
  -1  -4 -10   62.09    8.60
   1   4  10  109.69   17.70
   1   4  10   57.79   13.70
   1   4  10   65.29    9.00
   1   4  10   44.00   12.20
  -2  -4 -10    7.90    6.10
  -2  -4 -10    9.10    4.40
  -2  -4 -10    4.90   14.80
  -2  -4 -10    4.30    2.80
  -2  -4 -10    6.40    8.30
   2   4  10    2.60    6.20
   2   4  10    4.80    9.70
   2   4  10    8.40   10.40
   2   4  10    2.60    8.40
  -3  -4 -10  136.29   12.00
  -3  -4 -10  147.69   24.40
  -3  -4 -10  171.88   15.70
  -3  -4 -10  149.49   18.60
   3   4  10  134.59   15.00
   3   4  10  149.09   19.90
   3   4  10  163.58   21.70
   3   4  10  165.38   18.00
  -4  -4 -10   17.40    5.50
  -4  -4 -10   -2.00   19.10
  -4  -4 -10    7.90    6.90
  -4  -4 -10   25.40    6.70
  -4  -4 -10   16.30    8.20
   4   4  10    5.90   11.90
   4   4  10   17.50   10.40
   4   4  10   20.90    9.00
   4   4  10   18.70   11.70
   4   4  10   22.80    8.70
  -5  -4 -10  157.58   18.70
  -5  -4 -10  172.48   18.90
  -5  -4 -10  147.49   14.40
  -5  -4 -10  147.69   13.70
   5   4  10  140.89   19.80
   5   4  10  138.59   18.00
   5   4  10  133.89   20.60
   5   4  10  163.18   20.10
  -6  -4 -10   -3.10    9.80
  -6  -4 -10   -4.10   11.20
   6   4  10   18.00    8.40
   6   4  10    7.70   11.30
   6   4  10   -6.20   13.10
  -7  -4 -10  160.88   19.70
  -7  -4 -10  171.18   21.70
   7   4  10  157.98   21.70
   7   4  10  162.18   20.40
   7   4  10  188.88   24.50
   3  -5 -10    6.90   18.10
   3  -5 -10  -15.30   11.70
   3  -5 -10   18.90   14.70
  -3   5  10  -17.20   18.50
  -3   5  10  -25.10   22.20
  -3   5  10    6.10   17.90
   2  -5 -10  -12.20    7.70
   2  -5 -10   24.90   11.50
   2  -5 -10    8.70    8.80
   2  -5 -10   15.90   14.70
  -2   5  10  -16.90   21.10
  -2   5  10    2.70   16.00
  -2   5  10  -11.70   16.30
   1  -5 -10    0.60    6.40
   1  -5 -10    7.50    9.20
   1  -5 -10   10.10   14.90
   1  -5 -10   -9.00    7.80
  -1   5  10   28.10   14.20
  -1   5  10   16.70   14.80
  -1   5  10  -14.80   17.50
   0  -5 -10   -1.50    7.50
   0  -5 -10   -3.10    7.30
   0  -5 -10    3.00    5.80
   0  -5 -10   -7.00   17.00
   0   5  10   -1.00    5.10
   0   5  10   -3.20   12.40
   0   5  10   -1.70   14.70
   0   5  10   -0.10   10.40
  -1  -5 -10   -3.90    8.40
  -1  -5 -10   -8.80    5.20
  -1  -5 -10  -19.10   17.20
  -1  -5 -10    5.40    6.10
   1   5  10   -4.40   12.90
   1   5  10    9.40   11.80
   1   5  10   -7.20   10.70
   1   5  10   -3.30    5.30
  -2  -5 -10   15.40    5.40
  -2  -5 -10    6.50    7.20
  -2  -5 -10   25.20   10.60
  -2  -5 -10    4.70   16.40
   2   5  10   28.40   12.70
   2   5  10   10.80   10.20
   2   5  10   13.80    6.40
   2   5  10    9.40   12.20
  -3  -5 -10    9.50    7.20
  -3  -5 -10    5.40    5.50
  -3  -5 -10   12.40    9.70
   3   5  10   -4.70   10.10
   3   5  10   11.00   10.50
   3   5  10   23.00   12.90
   3   5  10   13.60    8.00
  -4  -5 -10   54.79   11.50
  -4  -5 -10   37.30    7.50
  -4  -5 -10   38.50   10.70
  -4  -5 -10   29.20    9.40
   4   5  10   19.30   14.40
   4   5  10   43.70   14.90
   4   5  10   48.70   11.00
   4   5  10   24.30    9.90
   4   5  10   60.99   13.70
  -5  -5 -10   18.40   11.10
  -5  -5 -10    6.60    7.20
  -5  -5 -10   -1.50    7.80
  -5  -5 -10   13.60    9.90
   5   5  10    7.60   12.70
   5   5  10   -0.90   12.20
   5   5  10   12.50   11.10
   5   5  10   -5.60    9.10
   5   5  10    5.80   16.90
  -6  -5 -10   66.09   13.40
  -6  -5 -10   93.49   16.00
   6   5  10   76.29   13.50
   6   5  10   72.89   15.90
   6   5  10   67.69   16.80
  -7  -5 -10   25.50   15.00
  -7  -5 -10    4.30   11.70
   7   5  10   32.20   14.90
   7   5  10   30.50   16.30
   7   5  10   21.60   11.60
   3  -6 -10    7.90   10.30
   3  -6 -10   13.40   14.00
   3  -6 -10   23.80   16.90
  -3   6  10   22.70   21.30
  -3   6  10   46.80   28.10
  -3   6  10   -6.30   18.90
   2  -6 -10   24.40   11.70
   2  -6 -10   -9.10   10.40
   2  -6 -10    1.60   11.60
   2  -6 -10   -9.40   16.00
  -2   6  10    9.00   17.50
  -2   6  10  -19.90   14.80
  -2   6  10    5.20   24.30
   1  -6 -10   20.40    8.40
   1  -6 -10   12.80    9.00
   1  -6 -10   28.50   12.30
   1  -6 -10   10.60   26.40
  -1   6  10    7.40   14.90
  -1   6  10    6.30   16.10
  -1   6  10   11.00   19.10
   0  -6 -10   12.50    9.60
   0  -6 -10   -1.40    6.40
   0  -6 -10    8.20    9.00
   0  -6 -10   10.30   20.40
   0   6  10    1.10   12.80
   0   6  10    8.50    6.60
   0   6  10   15.20   17.90
  -1  -6 -10   -3.00   11.00
  -1  -6 -10    8.50   17.80
  -1  -6 -10    1.50    7.40
  -1  -6 -10   -8.80    6.10
   1   6  10  -12.50   12.60
   1   6  10  -25.70   14.70
   1   6  10   -3.80    6.20
  -2  -6 -10   12.50    7.70
  -2  -6 -10   13.90    4.10
  -2  -6 -10   -0.10   10.90
  -2  -6 -10   10.30    6.40
   2   6  10  -15.80   13.80
   2   6  10  -12.90   11.20
   2   6  10    4.20    7.10
  -3  -6 -10    7.10   10.60
  -3  -6 -10    3.80    6.60
  -3  -6 -10    8.30    8.10
   3   6  10    0.20    8.10
   3   6  10  -15.30   12.60
   3   6  10    0.50   11.70
  -4  -6 -10   -7.20    6.80
  -4  -6 -10   -4.60    8.30
  -4  -6 -10   -2.30    9.40
  -4  -6 -10  -27.00   11.10
   4   6  10   12.10   10.60
   4   6  10   18.10   11.70
   4   6  10   -2.40    9.20
  -5  -6 -10   40.60   13.20
  -5  -6 -10   43.60   10.40
  -5  -6 -10   46.50   12.50
   5   6  10   32.50   12.60
   5   6  10   23.40   14.30
   5   6  10   26.00   11.50
   5   6  10   54.59   12.40
  -6  -6 -10   11.60   12.00
  -6  -6 -10    7.30   12.60
   6   6  10   12.80   12.70
   6   6  10  -18.10   15.40
   6   6  10    9.60   10.20
   6   6  10  -11.90   12.70
  -7  -6 -10   18.00   15.90
  -7  -6 -10   41.20   13.00
   7   6  10   54.49   13.20
   7   6  10   18.50   15.80
   7   6  10   30.20   16.80
   7   6  10   49.90   18.10
   2  -7 -10   -3.70   12.20
   2  -7 -10    4.20   10.80
   2  -7 -10    0.90   14.80
   1  -7 -10   31.40   13.60
   1  -7 -10   17.10   10.40
   1  -7 -10   36.40   12.50
   1  -7 -10   19.00   21.00
  -1   7  10   23.80   15.80
  -1   7  10   41.70   20.00
  -1   7  10   -7.30   22.90
   0  -7 -10   -0.10   11.50
   0  -7 -10  -11.70    8.10
   0  -7 -10  -15.10   20.30
   0  -7 -10   -8.50   10.30
   0   7  10   -3.20   16.30
   0   7  10  -33.00   19.90
   0   7  10    7.60    8.10
  -1  -7 -10   28.70   13.00
  -1  -7 -10   63.89   11.80
  -1  -7 -10   43.40    9.40
   1   7  10   31.40   19.60
   1   7  10   50.69   10.10
   1   7  10   43.90   16.50
  -2  -7 -10   -2.20   12.10
  -2  -7 -10   -9.10    7.10
  -2  -7 -10    8.80    9.80
   2   7  10   -7.50   14.20
   2   7  10  -23.10   16.00
   2   7  10   11.30    8.70
  -3  -7 -10   16.20   11.70
  -3  -7 -10   18.00    8.10
  -3  -7 -10   14.90    9.20
   3   7  10   10.80   13.50
   3   7  10   21.00   10.00
   3   7  10   39.90   15.70
  -4  -7 -10   20.70   11.50
  -4  -7 -10   17.30   11.30
  -4  -7 -10   22.00    9.10
   4   7  10   15.10   13.10
   4   7  10   23.40   11.20
   4   7  10   25.80   15.90
  -5  -7 -10   16.60   11.90
  -5  -7 -10   30.00   12.60
  -5  -7 -10    7.30    9.40
   5   7  10    3.30   13.00
   5   7  10   11.10   12.20
   5   7  10   12.50   13.40
  -6  -7 -10   11.20   14.80
  -6  -7 -10   21.60   13.20
  -6  -7 -10   35.00   12.10
   6   7  10    9.50   12.80
   6   7  10   27.00   15.50
   0  -8 -10   -2.60   23.50
   0  -8 -10   14.00   13.20
   0  -8 -10   22.80   11.20
   0  -8 -10    6.00   13.60
   0   8  10    5.30   10.00
   0   8  10  -34.50   24.60
   0   8  10   49.50   19.60
   0   8  10   48.30   17.90
  -1  -8 -10    2.40    9.70
  -1  -8 -10  -14.80   13.90
  -1  -8 -10    1.10   11.30
   1   8  10   22.90   10.10
   1   8  10   14.90   17.00
   1   8  10   31.20   22.00
  -2  -8 -10  -15.80   14.30
  -2  -8 -10    1.50   11.10
   2   8  10    2.80   19.00
   2   8  10   17.50   18.20
   2   8  10    9.50   10.40
  -3  -8 -10   18.60   11.40
  -3  -8 -10   21.30   13.50
  -3  -8 -10    8.60   10.10
   3   8  10    4.00   17.90
   3   8  10    2.40   15.40
   3   8  10   -1.90   10.80
  -4  -8 -10   68.79   14.80
  -4  -8 -10   51.19   14.70
  -4  -8 -10   58.39   13.20
   4   8  10   65.29   20.00
   4   8  10   44.70   13.80
   4   8  10   48.50   17.30
  -5  -8 -10   42.10   14.60
  -5  -8 -10   44.90   14.90
   5   8  10   41.40   15.80
   5   8  10   19.00   15.10
   5   8  10    6.60   16.20
   2   4 -11    0.80   16.50
   2   4 -11   43.80   14.80
  -2  -4  11   10.50   24.30
   1   4 -11  199.88   31.10
   1   4 -11   99.19   17.20
  -1  -4  11  144.89   26.30
  -1  -4  11  120.59   18.00
  -1  -4  11  148.19   19.20
   0   4 -11   23.40   11.70
   0   4 -11   35.00   16.60
   0  -4  11   29.00    9.80
   0  -4  11    6.40   11.40
   0  -4  11   42.00   18.80
   0  -4  11   16.80   11.90
   1  -4  11   56.49   11.80
   3   3 -11    3.60   13.60
   3   3 -11   -6.00   17.70
  -3  -3  11   24.70   16.90
  -3  -3  11   10.10   18.30
  -3  -3  11    9.20   23.50
   2   3 -11  284.87   29.20
   2   3 -11  319.57   35.10
  -2  -3  11  247.38   34.00
  -2  -3  11  275.47   31.20
  -2  -3  11  276.67   32.00
   1   3 -11   13.00   11.20
   1   3 -11    8.50   14.40
  -1  -3  11   -5.70   12.20
  -1  -3  11   30.30   13.10
  -1  -3  11   20.10   19.10
   0   3 -11  396.86   36.40
   0   3 -11  377.56   30.50
   0  -3  11  419.26   32.60
   0  -3  11  417.56   31.80
   0  -3  11  407.96   30.00
  -1   3 -11   72.19   12.40
  -1   3 -11   82.19   18.70
   1  -3  11   47.20   12.20
   1  -3  11   77.09   11.90
   1  -3  11   62.69   12.10
  -2   3 -11  185.28   17.70
  -2   3 -11  197.68   26.30
   2  -3  11  168.18   20.80
   2  -3  11  140.99   18.10
   2  -3  11  158.68   18.80
   4   2 -11   48.10   17.00
  -4  -2  11    5.10   27.30
   3   2 -11  138.79   20.50
   3   2 -11  204.68   32.10
  -3  -2  11  106.09   22.60
  -3  -2  11  172.88   26.50
  -3  -2  11  185.18   31.70
   2   2 -11   83.99   17.30
  -2  -2  11   77.39   18.80
  -2  -2  11   92.19   23.10
  -2  -2  11   75.29   17.20
   1   2 -11  347.47   34.10
   1   2 -11  343.27   29.50
  -1  -2  11  411.76   39.20
  -1  -2  11  449.86   42.80
  -1  -2  11  368.16   32.70
   0   2 -11  137.09   22.00
   0   2 -11   99.89   13.60
   0  -2  11  119.39   16.30
   0  -2  11  100.59   13.90
   0  -2  11  108.69   16.50
  -1   2 -11  124.39   16.80
  -1   2 -11  129.39   22.50
  -1   2 -11  129.99   17.90
   1  -2  11  130.69   17.20
   1  -2  11  124.39   17.80
   1  -2  11  137.89   17.30
  -2   2 -11   41.50    9.70
  -2   2 -11   28.30   13.20
  -2   2 -11   26.70    8.20
   2  -2  11   35.60   10.40
   2  -2  11   59.19   12.00
   2  -2  11   31.20    9.50
  -3   2 -11  133.39   20.50
  -3   2 -11   96.79   12.20
   3  -2  11  108.89   14.50
   3  -2  11  112.69   15.20
   3  -2  11   87.59   16.10
   4  -2  11   66.89   13.80
   4   1 -11   38.50   17.80
   4   1 -11   10.30   18.20
   4   1 -11    6.70    6.00
  -4  -1  11  -10.70   18.10
  -4  -1  11   12.60   19.00
  -4  -1  11  -23.90   27.10
   3   1 -11   89.49   10.50
   3   1 -11  117.89   20.50
   3   1 -11  112.59   18.70
  -3  -1  11  111.49   22.40
  -3  -1  11   47.30   18.70
  -3  -1  11   64.89   26.00
   2   1 -11   44.50   15.70
   2   1 -11   40.20    5.70
   2   1 -11   58.49   13.80
  -2  -1  11   39.40   21.10
  -2  -1  11   38.20   15.80
  -2  -1  11   43.10   15.90
   1   1 -11  102.99   13.00
   1   1 -11  107.89   15.10
   1   1 -11  142.09   21.60
   1   1 -11   88.29    9.10
  -1  -1  11  144.69   24.40
  -1  -1  11  132.59   19.50
  -1  -1  11   82.29   17.20
   0   1 -11   47.00    7.90
   0   1 -11   60.69    6.60
   0   1 -11   43.60   10.10
   0   1 -11   47.30   14.10
   0  -1  11   62.69   13.70
   0  -1  11   57.39   14.60
  -1   1 -11  257.07   27.70
  -1   1 -11  229.18   21.70
  -1   1 -11  232.78   20.40
   1  -1  11  239.18   23.00
   1  -1  11  246.08   23.30
   1  -1  11  280.47   22.70
  -2   1 -11   88.59   10.80
  -2   1 -11   57.29    9.20
  -2   1 -11   62.69   14.10
   2  -1  11   52.19   12.00
   2  -1  11   64.29   11.70
   2  -1  11   73.29   12.40
  -3   1 -11  185.08   15.60
  -3   1 -11  187.88   25.90
   3  -1  11  160.98   17.70
   3  -1  11  176.08   21.20
   3  -1  11  164.68   18.40
  -4   1 -11   59.59   16.60
  -4   1 -11   35.60    8.80
   4  -1  11   60.49   11.10
   4  -1  11   33.50   12.10
   4  -1  11   46.30   10.30
   4   0 -11    5.60    7.00
   4   0 -11   30.20   18.70
   4   0 -11    3.10   18.50
  -4   0  11   25.50   18.90
  -4   0  11   28.30   27.00
  -4   0  11   33.20   20.00
   3   0 -11  -10.40   13.80
   3   0 -11  -10.20   15.60
   3   0 -11    0.80    5.70
  -3   0  11  -29.30   21.60
  -3   0  11   -1.90   18.60
  -3   0  11   -7.50   18.10
   2   0 -11   24.60   10.40
   2   0 -11   14.40    4.90
   2   0 -11   14.00   10.20
   2   0 -11   11.10   13.20
   2   0 -11   13.00   12.80
  -2   0  11   20.80   15.30
  -2   0  11  -18.30   18.30
  -2   0  11   -3.00   15.60
   1   0 -11   -2.10    8.50
   1   0 -11    8.30   11.70
   1   0 -11   -7.20   10.20
   1   0 -11    3.10    4.20
   1   0 -11    3.50    8.30
   1   0 -11    2.20    8.00
  -1   0  11   -1.20   14.10
  -1   0  11    9.90   12.90
   0   0 -11  110.99   13.50
   0   0 -11  138.59   22.00
   0   0 -11  111.39   14.00
   0   0 -11  125.69   10.10
   0   0 -11  102.39   12.20
   0   0 -11  115.69   13.00
   0   0  11  128.49   18.90
   0   0  11  116.59   16.60
   0   0  11  126.09   18.60
  -1   0 -11   13.90    7.20
  -1   0 -11   17.80   12.40
  -1   0 -11    3.00    3.90
  -1   0 -11   16.60    6.20
  -1   0 -11   15.50    6.00
   1   0  11    2.60    9.90
   1   0  11   15.90   10.50
   1   0  11   10.80    9.80
  -2   0 -11  134.59   11.80
  -2   0 -11  146.59   24.30
  -2   0 -11  126.09   14.20
  -2   0 -11  142.79   14.10
   2   0  11  126.89   17.70
   2   0  11  136.09   18.70
   2   0  11  103.39   16.30
  -3   0 -11    3.00    5.20
  -3   0 -11   11.80    4.90
  -3   0 -11   22.30   14.60
   3   0  11    1.40    7.10
   3   0  11    3.70    8.30
   3   0  11   -0.20    9.50
  -4   0 -11  151.48   12.40
  -4   0 -11  127.99   21.70
  -4   0 -11  132.09   14.00
   4   0  11  183.18   21.10
   4   0  11  172.58   17.40
   4   0  11  126.19   17.70
  -5   0 -11    1.10   17.50
  -5   0 -11   10.70    8.50
  -5   0 -11    0.00    6.30
   5   0  11    2.80   10.40
   5   0  11    5.40    9.90
   5   0  11   17.40    9.80
   4  -1 -11   -1.00    8.00
   4  -1 -11    6.60   10.80
   4  -1 -11    8.00   17.80
   4  -1 -11  -17.50   17.30
  -4   1  11   28.00   20.80
  -4   1  11  -49.80   21.00
  -4   1  11   16.70   29.20
   3  -1 -11   20.00   16.30
   3  -1 -11   26.80    8.60
   3  -1 -11   29.00   15.90
   3  -1 -11   10.50    6.70
   3  -1 -11   12.20   12.00
  -3   1  11   19.30   24.90
  -3   1  11   44.70   20.00
  -3   1  11   15.50   21.20
   2  -1 -11    3.80    9.00
   2  -1 -11   25.90   13.60
   2  -1 -11   -5.10    9.50
   2  -1 -11    2.10    5.30
   2  -1 -11  -23.90   20.80
  -2   1  11    3.30   13.00
  -2   1  11    0.60   19.30
  -2   1  11  -16.80   17.00
   1  -1 -11   -3.70    4.70
   1  -1 -11   -0.90    9.50
   1  -1 -11    8.60   10.20
   1  -1 -11    4.60    8.30
   1  -1 -11    1.50   12.50
   1  -1 -11    2.90   11.40
  -1   1  11    4.50   12.50
  -1   1  11    5.90   14.20
   0  -1 -11    8.40   12.10
   0  -1 -11   16.60    9.00
   0  -1 -11   -1.20    9.90
   0  -1 -11   19.10    7.70
   0  -1 -11   21.10   10.70
   0   1  11    7.10    9.00
   0   1  11   23.90   10.50
   0   1  11    0.50   11.60
  -1  -1 -11   20.10    5.20
  -1  -1 -11   24.30    7.60
  -1  -1 -11   41.70    9.40
  -1  -1 -11   16.10    7.40
  -1  -1 -11   12.30   13.60
   1   1  11    9.30    9.70
   1   1  11    4.20    9.00
   1   1  11    9.30   11.00
  -2  -1 -11    6.30    4.70
  -2  -1 -11   12.40    5.90
  -2  -1 -11   19.30    6.70
  -2  -1 -11    8.00    4.30
  -2  -1 -11   -0.30   13.80
  -2  -1 -11   12.10    6.40
   2   1  11   12.30    7.60
   2   1  11   24.70   10.80
   2   1  11    4.90    8.80
   2   1  11    5.50   10.30
  -3  -1 -11   43.50    8.50
  -3  -1 -11   63.39    8.30
  -3  -1 -11   57.69   17.10
  -3  -1 -11   53.99    7.80
   3   1  11   76.69   12.80
   3   1  11   47.40   13.60
   3   1  11   46.80    9.90
  -4  -1 -11    1.50    6.20
  -4  -1 -11   21.30   17.10
  -4  -1 -11    8.30    6.70
   4   1  11   -3.10    8.50
   4   1  11   10.70   10.90
   4   1  11   -2.90    7.90
  -5  -1 -11   92.39   11.90
  -5  -1 -11  106.69   24.40
  -5  -1 -11   79.29   12.10
   5   1  11   89.39   16.50
   5   1  11   96.99   13.90
   5   1  11   75.29   13.30
   4  -2 -11   40.00   18.30
   4  -2 -11   16.20   19.60
   4  -2 -11   35.60   11.30
  -4   2  11   -7.30   24.70
  -4   2  11  121.79   29.40
   3  -2 -11   39.60    9.90
   3  -2 -11   17.50   13.00
   3  -2 -11   27.60    8.00
   3  -2 -11   32.40   17.00
  -3   2  11   16.90   18.80
  -3   2  11   78.69   24.50
  -3   2  11   -0.50   22.80
   2  -2 -11    0.60   10.30
   2  -2 -11    7.20    6.80
   2  -2 -11    3.50    9.60
   2  -2 -11    7.60    6.80
   2  -2 -11   17.80   13.60
  -2   2  11   -9.90   19.80
  -2   2  11    0.40   14.90
  -2   2  11    0.40   19.50
   1  -2 -11   27.80    6.40
   1  -2 -11   27.20   14.20
   1  -2 -11   24.30    9.20
   1  -2 -11   29.00   12.90
  -1   2  11    5.40   17.10
  -1   2  11    7.90   14.30
  -1   2  11   19.90   14.20
   0  -2 -11   -1.30    7.90
   0  -2 -11    7.40   12.90
   0  -2 -11   -7.20    5.30
   0   2  11   -2.70   12.80
   0   2  11   -2.10   10.70
   0   2  11   -0.40   10.00
  -1  -2 -11   58.79   11.80
  -1  -2 -11   86.29   11.20
  -1  -2 -11   65.09    8.70
  -1  -2 -11   53.89   15.90
   1   2  11   96.49   14.60
   1   2  11   73.59   14.20
   1   2  11   88.49   16.50
  -2  -2 -11    5.20   14.60
  -2  -2 -11   12.40    4.30
  -2  -2 -11    2.30    6.20
  -2  -2 -11   22.50    8.30
  -2  -2 -11   10.40    6.00
  -2  -2 -11   18.20    8.20
   2   2  11   17.20    6.30
   2   2  11    9.90    8.50
   2   2  11   30.70   12.00
   2   2  11   11.00   11.20
   2   2  11   12.90   11.80
  -3  -2 -11  -10.30    6.80
  -3  -2 -11    3.10    8.00
  -3  -2 -11   -9.30   15.30
  -3  -2 -11    4.10    4.80
  -3  -2 -11    8.80    4.20
  -3  -2 -11    7.00    7.10
   3   2  11   -1.00   11.40
   3   2  11   16.40    8.90
   3   2  11    3.90    9.70
  -4  -2 -11   65.89   10.90
  -4  -2 -11   78.69   20.10
  -4  -2 -11   37.30    8.90
  -4  -2 -11   39.50    7.80
   4   2  11   58.09   14.50
   4   2  11   33.10   11.20
   4   2  11   49.99   11.10
  -5  -2 -11   -1.70   19.90
  -5  -2 -11    5.50   11.10
  -5  -2 -11   29.20    9.20
   5   2  11   27.10    9.20
   5   2  11   28.50   10.00
   5   2  11   28.70   12.50
  -6  -2 -11   79.99   18.90
  -6  -2 -11   33.30   22.80
  -6  -2 -11   62.29   14.70
   6   2  11   51.89   11.60
   6   2  11   61.89   14.80
   6   2  11   46.50   14.30
   3  -3 -11   21.30   16.00
   3  -3 -11   -3.50   13.20
   3  -3 -11   17.80    8.90
   3  -3 -11   11.40    8.10
  -3   3  11  -33.10   22.40
  -3   3  11   45.30   19.30
  -3   3  11  -25.20   25.40
   2  -3 -11   73.79    9.70
   2  -3 -11   72.19    9.80
   2  -3 -11   64.29   12.90
   2  -3 -11   96.29   16.90
  -2   3  11   20.90   15.90
  -2   3  11   41.10   22.00
  -2   3  11   65.49   21.80
   1  -3 -11   -9.70    6.50
   1  -3 -11   -0.20    8.80
   1  -3 -11    4.20   14.50
   1  -3 -11   -0.20    5.90
  -1   3  11   -5.00   11.70
  -1   3  11   21.70   17.20
  -1   3  11   23.10   13.30
   0  -3 -11  168.98   17.80
   0  -3 -11  165.78   26.10
   0  -3 -11  168.18   13.90
   0  -3 -11  178.38   16.30
   0   3  11  240.98   30.80
   0   3  11  168.08   23.20
  -1  -3 -11    0.20    7.00
  -1  -3 -11   10.30   15.50
  -1  -3 -11   15.20    4.20
   1   3  11   29.80   12.80
   1   3  11    6.30   10.90
   1   3  11    7.40   14.30
  -2  -3 -11   30.30   10.10
  -2  -3 -11   43.30    8.20
  -2  -3 -11   44.80   18.20
   2   3  11   49.00   14.10
   2   3  11   48.90    7.90
   2   3  11   73.39   13.70
   2   3  11   47.90   11.00
  -3  -3 -11   19.50    5.00
  -3  -3 -11   20.10    7.70
  -3  -3 -11   26.30    8.00
  -3  -3 -11   41.20   18.00
  -3  -3 -11   38.00   19.20
   3   3  11   -4.70   13.90
   3   3  11   34.00   10.50
   3   3  11   27.60    8.20
   3   3  11   33.30   12.90
   3   3  11   26.20   11.90
  -4  -3 -11   49.60   10.30
  -4  -3 -11   64.39   12.80
  -4  -3 -11   40.80   21.00
  -4  -3 -11   53.29    8.50
   4   3  11   63.69   10.80
   4   3  11   61.99   13.40
   4   3  11   56.79   14.90
  -5  -3 -11   28.60   11.00
  -5  -3 -11   12.40   12.00
  -5  -3 -11   14.10   22.30
   5   3  11   18.70    9.40
   5   3  11   35.40   15.30
   5   3  11   19.30   11.70
  -6  -3 -11   27.00   23.20
  -6  -3 -11   -4.40   11.70
   6   3  11    5.50    9.90
   6   3  11   27.70   13.40
   6   3  11    1.00   14.50
   3  -4 -11   -3.40    9.10
   3  -4 -11   18.90   13.30
   3  -4 -11   33.00    9.70
   3  -4 -11   25.30   18.70
  -3   4  11   27.70   20.30
  -3   4  11   55.79   24.70
  -3   4  11   36.00   29.20
   2  -4 -11  -16.70   15.40
   2  -4 -11    9.00    7.60
   2  -4 -11   -6.90   11.70
  -2   4  11   -5.30   19.80
  -2   4  11   -7.50   23.30
  -2   4  11    4.50   19.50
   1  -4 -11   55.49   10.10
   1  -4 -11   37.20   17.00
   1  -4 -11   20.80   10.60
   1  -4 -11   38.70    7.90
  -1   4  11   32.00   18.80
  -1   4  11   38.30   19.90
  -1   4  11   53.39   24.10
  -1   4  11   41.50   17.50
   0  -4 -11    8.80    7.50
   0  -4 -11    4.00    6.00
   0  -4 -11   27.80   16.70
   0  -4 -11    0.30    7.60
   0   4  11   20.90   18.30
   0   4  11   -7.90   11.20
   0   4  11   11.60   14.70
  -1  -4 -11   52.29   10.50
  -1  -4 -11   60.09    8.00
  -1  -4 -11   86.09   11.00
  -1  -4 -11   55.89   19.30
   1   4  11   72.39   18.50
   1   4  11   73.19   15.30
   1   4  11   60.49   13.30
   1   4  11   80.09    9.00
  -2  -4 -11   73.19   11.80
  -2  -4 -11   64.89   10.20
  -2  -4 -11   58.29    7.30
  -2  -4 -11   60.59   19.90
   2   4  11   53.19   14.80
   2   4  11   32.00   12.50
   2   4  11   98.99   16.90
   2   4  11   65.79    8.50
  -3  -4 -11   51.09    6.90
  -3  -4 -11   46.20    6.70
  -3  -4 -11   59.89    9.50
  -3  -4 -11   45.30   21.30
  -3  -4 -11   61.09   12.70
   3   4  11   69.39   10.60
   3   4  11   66.39   14.40
   3   4  11   51.39   16.20
   3   4  11   57.59   12.50
  -4  -4 -11   87.69   10.40
  -4  -4 -11   96.69   12.40
  -4  -4 -11   86.09   15.20
  -4  -4 -11  108.19   14.10
  -4  -4 -11  112.59   25.50
   4   4  11  157.68   19.00
   4   4  11  122.29   14.90
   4   4  11   87.69   17.70
   4   4  11  109.19   17.80
  -5  -4 -11  -35.20   22.80
  -5  -4 -11   -6.50    9.40
  -5  -4 -11   11.20   11.50
  -5  -4 -11   15.70   11.60
   5   4  11   -9.30   11.80
   5   4  11  -11.00   14.00
   5   4  11    8.90    9.50
  -6  -4 -11  119.59   30.40
   6   4  11  154.98   21.80
   6   4  11  197.58   22.20
   6   4  11  112.19   18.70
   2  -5 -11   13.30    9.40
   2  -5 -11   37.30   10.60
   2  -5 -11   26.40   19.10
   2  -5 -11   17.80   14.70
  -2   5  11   -0.20   19.90
  -2   5  11   -8.70   22.90
  -2   5  11   46.60   25.80
   1  -5 -11   18.00    8.20
   1  -5 -11   45.30   13.00
   1  -5 -11   33.20   10.50
   1  -5 -11   52.19   19.60
  -1   5  11   23.40   25.00
  -1   5  11   41.50   19.20
   0  -5 -11   34.00   19.70
   0  -5 -11   49.99   10.80
   0  -5 -11   39.60   10.60
   0  -5 -11   32.10    7.30
   0   5  11   -0.10   36.70
   0   5  11   12.50   15.70
  -1  -5 -11   76.49   22.00
  -1  -5 -11  118.99   16.30
  -1  -5 -11   81.49   12.00
  -1  -5 -11  104.09   14.10
   1   5  11  115.79   19.30
   1   5  11  105.59   11.80
   1   5  11   87.79   16.70
  -2  -5 -11   31.20   12.00
  -2  -5 -11   10.10    8.50
  -2  -5 -11    4.20   20.90
  -2  -5 -11   17.20    6.60
   2   5  11   15.90    7.20
   2   5  11  -21.00   29.20
   2   5  11   25.60   14.00
   2   5  11   51.79   16.70
  -3  -5 -11  101.59   23.20
  -3  -5 -11  138.09   18.00
  -3  -5 -11  125.19   16.20
  -3  -5 -11  112.09   12.30
   3   5  11  111.29   15.70
   3   5  11  163.08   20.70
   3   5  11  123.69   21.50
   3   5  11  107.79   20.90
  -4  -5 -11  -27.40   19.40
  -4  -5 -11    3.80    8.80
  -4  -5 -11    2.00   12.40
  -4  -5 -11    5.90    6.20
   4   5  11    4.50   10.40
   4   5  11   -1.30   10.10
   4   5  11    4.50   12.80
  -5  -5 -11   85.89   10.40
  -5  -5 -11   63.49   13.60
  -5  -5 -11   80.39   15.20
   5   5  11   96.49   15.70
   5   5  11   70.69   14.40
   5   5  11  102.59   16.30
   5   5  11   57.29   17.60
   6   5  11   27.10   18.70
   1  -6 -11   29.70   12.90
   1  -6 -11   20.00   20.90
   1  -6 -11   -4.50    9.00
   1  -6 -11    7.80   10.30
  -1   6  11   13.60   26.90
  -1   6  11   -9.70   19.40
  -1   6  11   -6.70   20.40
   0  -6 -11   -4.60   18.90
   0  -6 -11   35.60   11.70
   0  -6 -11    7.50    8.30
   0  -6 -11   32.00   11.20
   0   6  11   36.40   38.00
   0   6  11   18.40   18.60
  -1  -6 -11  -11.30   10.70
  -1  -6 -11   12.80    7.40
  -1  -6 -11    9.60    9.90
  -1  -6 -11   11.70   20.40
   1   6  11   11.70   17.00
   1   6  11   -4.50    6.80
   1   6  11   17.00   21.80
  -2  -6 -11   37.40   21.80
  -2  -6 -11   45.80   13.60
  -2  -6 -11   31.80    8.30
  -2  -6 -11   48.80   11.10
   2   6  11   39.00   15.80
   2   6  11   42.10   23.90
   2   6  11   50.49    9.80
  -3  -6 -11    3.90    8.90
  -3  -6 -11   -1.20   13.00
  -3  -6 -11   -3.70    7.00
   3   6  11   -4.20    8.80
   3   6  11  -21.30   18.90
   3   6  11   16.70   14.10
  -4  -6 -11   70.99   15.30
  -4  -6 -11   60.19   10.10
  -4  -6 -11   72.29   13.00
   4   6  11   49.40   13.00
   4   6  11   78.49   17.70
   4   6  11   93.09   18.30
  -5  -6 -11   -9.10   12.30
  -5  -6 -11    8.10    9.30
  -5  -6 -11  -23.40   12.10
   5   6  11    8.70   12.40
   5   6  11   10.90   13.20
  -1  -7 -11    5.00    8.80
  -1  -7 -11   10.70   13.30
  -1  -7 -11   33.70   23.60
   1   7  11    9.80   18.40
   1   7  11   18.10   23.60
   1   7  11    0.40    9.00
  -2  -7 -11  -39.70   20.90
  -2  -7 -11   -1.90    8.30
  -2  -7 -11  -20.10   14.00
  -2  -7 -11    4.10   10.10
   2   7  11   -7.10   19.50
   2   7  11   27.20   17.50
   2   7  11  -18.90    9.10
  -3  -7 -11    2.00   14.80
  -3  -7 -11   25.10   11.10
  -3  -7 -11    4.80    8.20
   3   7  11   -9.60   16.80
   3   7  11   -5.10   10.40
  -4  -7 -11   30.40   11.60
  -4  -7 -11   -0.80    8.90
  -4  -7 -11    3.50   14.50
   4   7  11   14.20   12.50
   4   7  11   18.00   19.50
   4   7  11   23.90   16.50
   1   1 -12  214.78   25.00
   1   1 -12  248.88   29.20
  -1  -1  12  212.48   27.00
  -1  -1  12  210.68   31.40
  -1  -1  12  210.68   30.00
   0   1 -12   69.49   16.70
   0   1 -12   51.19   11.30
   0  -1  12   69.59   16.50
   0  -1  12   42.50   14.20
  -1   1 -12   92.49   18.50
  -1   1 -12   88.29   13.10
   1  -1  12  105.09   16.00
   1  -1  12   92.59   14.80
   1  -1  12   99.39   17.00
  -2   1 -12   33.70   16.20
  -2   1 -12   37.30    8.40
   2  -1  12   28.40   11.60
   2  -1  12   46.20   11.30
   2  -1  12   30.20   13.10
   2   0 -12  175.18   14.50
   2   0 -12  164.88   23.40
  -2   0  12  114.79   22.40
  -2   0  12  129.59   29.20
  -2   0  12  144.49   25.30
   1   0 -12   59.29   14.60
   1   0 -12   66.39   16.40
   1   0 -12   57.29    7.10
  -1   0  12   49.50   21.90
  -1   0  12   53.69   16.60
  -1   0  12   53.29   17.00
   0   0 -12   54.29    6.90
   0   0 -12   64.99   16.90
   0   0 -12   61.09   11.80
   0   0  12   96.89   16.70
   0   0  12   59.59   16.30
  -1   0 -12   40.90   10.20
  -1   0 -12   41.40    5.90
  -1   0 -12   44.90   15.70
   1   0  12   54.79   14.50
   1   0  12   39.20   12.20
  -2   0 -12   90.49   17.90
  -2   0 -12   72.69    9.10
   2   0  12   76.59   15.30
   2   0  12   78.99   16.30
   2   0  12  104.09   15.10
  -3   0 -12   95.09   13.00
  -3   0 -12  175.88   28.10
   3   0  12  109.89   15.60
   3   0  12  119.79   18.40
   3   0  12  117.09   15.70
   2  -1 -12   58.59    9.00
   2  -1 -12   79.79   17.90
   2  -1 -12   43.20   20.00
  -2   1  12   77.19   21.60
  -2   1  12   56.19   24.50
  -2   1  12   24.20   18.40
   1  -1 -12   18.20    5.90
   1  -1 -12   42.70   15.90
   1  -1 -12   25.20   14.80
  -1   1  12   14.00   20.20
  -1   1  12   43.40   17.90
  -1   1  12   10.60   16.60
   0  -1 -12  173.28   25.60
   0  -1 -12  188.18   23.40
   0  -1 -12  129.29   13.60
   0   1  12  196.58   24.70
   0   1  12  155.48   21.50
  -1  -1 -12   21.10   14.90
  -1  -1 -12   15.70   10.30
   1   1  12   26.60   12.90
   1   1  12   38.40   13.80
  -2  -1 -12  160.48   13.90
  -2  -1 -12  135.99   16.20
  -2  -1 -12  214.28   28.60
   2   1  12  200.58   24.40
   2   1  12  162.08   22.30
   2   1  12  152.68   21.60
  -3  -1 -12   18.60    6.20
  -3  -1 -12   12.50   17.10
   3   1  12   22.60   11.60
   3   1  12   32.50   13.90
   3   1  12    2.40    9.90
   2  -2 -12   -1.50   15.40
   2  -2 -12   -3.00   17.00
  -2   2  12   -2.70   24.10
   1  -2 -12   70.39   20.60
   1  -2 -12   69.69   16.60
   1  -2 -12   57.89    9.20
  -1   2  12   69.29   18.10
  -1   2  12   95.39   22.80
  -1   2  12   96.89   23.10
   0  -2 -12   -6.20   13.20
   0  -2 -12   -6.30   13.00
   0   2  12    6.90   13.90
   0   2  12  -16.40   14.50
  -1  -2 -12  111.29   20.50
  -1  -2 -12  103.69   15.60
   1   2  12  128.29   21.70
   1   2  12  108.79   18.60
  -2  -2 -12    8.70    7.00
  -2  -2 -12    8.10   15.90
  -2  -2 -12   -3.00    8.60
   2   2  12   21.40   14.80
   2   2  12    4.00   11.60
  -3  -2 -12  114.39   24.00
  -3  -2 -12  156.48   16.90
   3   2  12  125.19   15.90
   3   2  12  139.19   19.50
   3   2  12  120.19   20.30
   3   2  12  131.79   18.70
  -4  -2 -12    0.60   19.80
  -4  -2 -12    2.00    6.20
   4   2  12   -7.30   11.10
   4   2  12    5.30   10.00
   4   2  12   23.60   14.30
   1  -3 -12   -6.80   12.70
   1  -3 -12   18.80   15.00
  -1   3  12    9.50   22.90
  -1   3  12   22.30   21.80
  -1   3  12  -20.10   15.90
   0  -3 -12   19.50    8.50
   0  -3 -12   33.30   16.20
   0  -3 -12    6.40   10.10
   0   3  12   45.50   16.20
   0   3  12   49.40   19.30
  -1  -3 -12   12.60   16.40
  -1  -3 -12   18.10    8.20
  -1  -3 -12    3.10    8.50
   1   3  12    7.00   13.80
   1   3  12   27.30   17.00
  -2  -3 -12   48.30   19.50
  -2  -3 -12   47.30   10.20
  -2  -3 -12   47.10   12.80
  -2  -3 -12   28.70    9.40
   2   3  12   56.79   12.60
   2   3  12   50.39   16.30
  -3  -3 -12   17.90    9.20
  -3  -3 -12   13.30   20.20
   3   3  12  -10.50    8.40
   3   3  12    0.50   13.50
   3   3  12    8.60   12.20
   3   3  12   27.50   16.20
  -4  -3 -12   36.00   21.40
  -4  -3 -12   90.79   14.40
  -4  -3 -12   69.39   11.60
   4   3  12   63.29   16.10
   4   3  12   79.49   17.60
   4   3  12  108.49   14.70
   4   3  12   65.69   13.10
   0  -4 -12   18.20   17.80
   0  -4 -12    5.80    8.40
   0  -4 -12  -14.50   11.40
   0   4  12   -6.60   16.70
   0   4  12   -6.10   22.70
  -1  -4 -12   -7.80    9.10
  -1  -4 -12   37.40   19.20
  -1  -4 -12   -2.40    9.60
   1   4  12    1.20   19.30
   1   4  12  -35.10   13.30
  -2  -4 -12   26.40   20.20
  -2  -4 -12   -6.40    9.50
  -2  -4 -12  -25.00    8.90
   2   4  12  -19.10   15.50
   2   4  12  -12.80   12.80
  -3  -4 -12   21.00   13.00
  -3  -4 -12   17.70    9.00
  -3  -4 -12   12.40   21.00
   3   4  12   49.00    9.90
   3   4  12   42.60   15.90
   3   4  12   28.90   13.00
  -4  -4 -12  -30.20   20.60
   4   4  12   -5.70   11.50
   4   4  12  -10.50   15.40
   4   4  12    8.30   10.30
  -1  -5 -12   24.60   20.70
  -1  -5 -12   16.30   10.50
  -1  -5 -12  -17.00   10.30
  -1  -5 -12    6.10    9.00
   1   5  12  -21.70   20.40
   1   5  12   -2.10   16.30
  -2  -5 -12   12.00   21.40
  -2  -5 -12   -7.10   11.40
  -2  -5 -12    0.40    9.80
   2   5  12   -1.00   14.70
   2   5  12   -3.60   18.50
  -3  -5 -12   -7.90   13.10
  -3  -5 -12   -4.90   22.50
  -3  -5 -12  -24.30    8.70
   3   5  12   28.80   17.90
   3   5  12   11.20    8.80
   3   5  12    3.70   12.90

_computing_structure_solution     'SHELXT 2014/4 (Sheldrick, 2014)'
;
_shelx_hkl_checksum              50754
loop_
_space_group_symop_operation_xyz
'x, y, z'
'-x, -y, -z'
loop_
_atom_site_label
_atom_site_type_symbol
_atom_site_fract_x
_atom_site_fract_y
_atom_site_fract_z
_atom_site_U_iso_or_equiv
_atom_site_adp_type
_atom_site_occupancy
_atom_site_site_symmetry_order
_atom_site_calc_flag
_atom_site_refinement_flags_posn
_atom_site_refinement_flags_adp
I2 I 0.73009(4) 0.74100(4) 1.19626(3) 0.06445(13) Uani 1 1 d . .
I1 I 0.23932(4) 0.40224(4) 1.37961(3) 0.06313(13) Uani 1 1 d . .
O2 O 0.5302(4) 0.8050(4) 0.9260(3) 0.0489(8) Uani 1 1 d . .
O1 O -0.0138(4) 0.9018(4) 0.1718(3) 0.0555(8) Uani 1 1 d . .
N2 N 0.3197(4) 0.7929(4) 0.7581(3) 0.0401(7) Uani 1 1 d . .
N1 N 0.1558(6) 1.0409(5) 0.1117(4) 0.0571(11) Uani 1 1 d D .
C2 C 0.1574(5) 0.9109(4) 0.3475(4) 0.0345(8) Uani 1 1 d . .
C11 C 0.4638(5) 0.7197(4) 1.0224(4) 0.0361(8) Uani 1 1 d . .
C12 C 0.3330(5) 0.5385(5) 1.2256(4) 0.0424(9) Uani 1 1 d . .
C9 C 0.3292(5) 0.6734(4) 0.9934(4) 0.0369(8) Uani 1 1 d . .
C7 C 0.2604(5) 0.8278(4) 0.6222(4) 0.0372(8) Uani 1 1 d . .
C13 C 0.5300(5) 0.6731(4) 1.1550(4) 0.0392(9) Uani 1 1 d . .
C1 C 0.0943(5) 0.9503(4) 0.2033(4) 0.0399(9) Uani 1 1 d . .
C8 C 0.2593(5) 0.7152(5) 0.8574(4) 0.0407(9) Uani 1 1 d . .
H8 H 0.1687 0.6853 0.8411 0.049 Uiso 1 1 calc R U
C14 C 0.4645(5) 0.5845(4) 1.2551(4) 0.0416(9) Uani 1 1 d . .
H14 H 0.5088 0.5554 1.3430 0.050 Uiso 1 1 calc R U
C10 C 0.2650(5) 0.5826(5) 1.0966(4) 0.0424(9) Uani 1 1 d . .
H10 H 0.1760 0.5521 1.0778 0.051 Uiso 1 1 calc R U
C3 C 0.1066(5) 0.8032(5) 0.4369(4) 0.0458(10) Uani 1 1 d . .
H3 H 0.0351 0.7595 0.4054 0.055 Uiso 1 1 calc R U
C5 C 0.1598(6) 0.7599(5) 0.5711(4) 0.0494(11) Uani 1 1 d . .
H5 H 0.1281 0.6846 0.6278 0.059 Uiso 1 1 calc R U
C4 C 0.2604(6) 0.9765(5) 0.3978(4) 0.0469(10) Uani 1 1 d . .
H4 H 0.2961 1.0487 0.3397 0.056 Uiso 1 1 calc R U
C6 C 0.3110(6) 0.9359(5) 0.5339(4) 0.0491(11) Uani 1 1 d . .
H6 H 0.3798 0.9817 0.5665 0.059 Uiso 1 1 calc R U
H1A H 0.242(7) 1.068(6) 0.140(6) 0.068(16) Uiso 1 1 d . .
H2A H 0.473(7) 0.819(6) 0.866(6) 0.072(19) Uiso 1 1 d . .
H1B H 0.114(6) 1.059(5) 0.035(3) 0.059(14) Uiso 1 1 d D .
loop_
_atom_site_aniso_label
_atom_site_aniso_U_11
_atom_site_aniso_U_22
_atom_site_aniso_U_33
_atom_site_aniso_U_23
_atom_site_aniso_U_13
_atom_site_aniso_U_12
I2 0.0769(2) 0.0987(3) 0.03627(16) 0.01329(15) -0.01782(14) -0.0594(2)
I1 0.0767(2) 0.0649(2) 0.05008(19) 0.00935(15) 0.01375(15) -0.03753(18)
O2 0.0599(19) 0.063(2) 0.0332(15) 0.0129(14) -0.0122(14) -0.0374(16)
O1 0.065(2) 0.079(2) 0.0371(15) 0.0040(15) -0.0168(14) -0.0429(18)
N2 0.0438(19) 0.0453(19) 0.0322(16) 0.0047(14) -0.0111(14) -0.0164(15)
N1 0.069(3) 0.076(3) 0.037(2) 0.0148(19) -0.0192(19) -0.044(2)
C2 0.0329(19) 0.035(2) 0.0357(19) -0.0020(15) -0.0061(15) -0.0107(15)
C11 0.044(2) 0.038(2) 0.0278(17) 0.0010(15) -0.0004(15) -0.0160(17)
C12 0.048(2) 0.043(2) 0.0346(19) 0.0020(17) 0.0075(17) -0.0189(19)
C9 0.040(2) 0.041(2) 0.0296(18) -0.0009(16) -0.0033(15) -0.0131(17)
C7 0.037(2) 0.042(2) 0.0332(18) 0.0034(16) -0.0081(15) -0.0138(17)
C13 0.048(2) 0.046(2) 0.0297(18) 0.0014(16) -0.0056(16) -0.0238(18)
C1 0.045(2) 0.043(2) 0.0332(19) -0.0028(17) -0.0082(16) -0.0152(18)
C8 0.037(2) 0.047(2) 0.039(2) 0.0011(18) -0.0089(16) -0.0162(18)
C14 0.051(2) 0.045(2) 0.0279(18) 0.0033(16) -0.0033(16) -0.0163(19)
C10 0.039(2) 0.049(2) 0.042(2) 0.0017(18) 0.0024(17) -0.0208(18)
C3 0.051(2) 0.056(3) 0.040(2) 0.0026(19) -0.0105(18) -0.031(2)
C5 0.060(3) 0.055(3) 0.041(2) 0.0100(19) -0.0081(19) -0.034(2)
C4 0.059(3) 0.052(2) 0.038(2) 0.0096(18) -0.0135(19) -0.031(2)
C6 0.058(3) 0.057(3) 0.042(2) 0.0065(19) -0.0167(19) -0.034(2)
loop_
_atom_type_symbol
_atom_type_description
_atom_type_scat_dispersion_real
_atom_type_scat_dispersion_imag
_atom_type_scat_source
C C 0.0033 0.0016 'International Tables Vol C Tables 4.2.6.8 and 6.1.1.4'
H H 0.0000 0.0000 'International Tables Vol C Tables 4.2.6.8 and 6.1.1.4'
N N 0.0061 0.0033 'International Tables Vol C Tables 4.2.6.8 and 6.1.1.4'
O O 0.0106 0.0060 'International Tables Vol C Tables 4.2.6.8 and 6.1.1.4'
I I -0.4742 1.8119 'International Tables Vol C Tables 4.2.6.8 and 6.1.1.4'
loop_
_geom_angle_atom_site_label_1
_geom_angle_atom_site_label_2
_geom_angle_atom_site_label_3
_geom_angle
C11 O2 H2A 101(4)
C8 N2 C7 122.5(3)
C1 N1 H1A 117(3)
C1 N1 H1B 113(4)
H1A N1 H1B 130(5)
C4 C2 C3 118.2(3)
C4 C2 C1 124.1(3)
C3 C2 C1 117.6(3)
O2 C11 C13 119.9(3)
O2 C11 C9 121.6(3)
C13 C11 C9 118.5(3)
C10 C12 C14 120.2(4)
C10 C12 I1 120.7(3)
C14 C12 I1 119.1(3)
C10 C9 C11 119.7(3)
C10 C9 C8 119.6(4)
C11 C9 C8 120.7(3)
C5 C7 C6 118.6(4)
C5 C7 N2 124.7(3)
C6 C7 N2 116.7(3)
C14 C13 C11 120.8(4)
C14 C13 I2 121.0(3)
C11 C13 I2 118.2(3)
O1 C1 N1 121.3(4)
O1 C1 C2 120.4(4)
N1 C1 C2 118.3(4)
N2 C8 C9 121.3(4)
N2 C8 H8 119.3
C9 C8 H8 119.3
C13 C14 C12 120.4(4)
C13 C14 H14 119.8
C12 C14 H14 119.8
C12 C10 C9 120.4(4)
C12 C10 H10 119.8
C9 C10 H10 119.8
C5 C3 C2 121.3(4)
C5 C3 H3 119.3
C2 C3 H3 119.3
C3 C5 C7 120.3(4)
C3 C5 H5 119.8
C7 C5 H5 119.8
C2 C4 C6 120.7(4)
C2 C4 H4 119.7
C6 C4 H4 119.7
C4 C6 C7 120.8(4)
C4 C6 H6 119.6
C7 C6 H6 119.6
loop_
_geom_bond_atom_site_label_1
_geom_bond_atom_site_label_2
_geom_bond_distance
I2 C13 2.082(4)
I1 C12 2.089(4)
O2 C11 1.341(4)
O2 H2A 0.76(6)
O1 C1 1.225(5)
N2 C8 1.287(5)
N2 C7 1.405(5)
N1 C1 1.328(5)
N1 H1A 0.92(6)
N1 H1B 0.823(19)
C2 C4 1.378(6)
C2 C3 1.388(5)
C2 C1 1.493(5)
C11 C13 1.402(5)
C11 C9 1.408(5)
C12 C10 1.375(6)
C12 C14 1.383(6)
C9 C10 1.402(5)
C9 C8 1.443(5)
C7 C5 1.382(6)
C7 C6 1.385(5)
C13 C14 1.378(5)
C8 H8 0.9300
C14 H14 0.9300
C10 H10 0.9300
C3 C5 1.374(6)
C3 H3 0.9300
C5 H5 0.9300
C4 C6 1.383(6)
C4 H4 0.9300
C6 H6 0.9300
