#------------------------------------------------------------------------------
#$Date: 2017-04-05 14:49:03 +0300 (Wed, 05 Apr 2017) $
#$Revision: 195194 $
#$URL: file:///home/coder/svn-repositories/cod/cif/1/54/56/1545684.cif $
#------------------------------------------------------------------------------
#
# This file is available in the Crystallography Open Database (COD),
# http://www.crystallography.net/. The original data for this entry
# were provided by IUCr Journals, http://journals.iucr.org/.
#
# The file may be used within the scientific community so long as
# proper attribution is given to the journal article from which the
# data were obtained.
#
data_1545684
loop_
_publ_author_name
'Mittapalli, Sudhir'
'Sravanakumar Perumalla, D.'
'Nangia, Ashwini'
_publ_section_title
;
 Mechanochemical synthesis of <i>N</i>-salicylideneaniline: thermosalient
 effect of polymorphic crystals
;
_journal_issue                   3
_journal_name_full               IUCrJ
_journal_page_first
;
;
_journal_paper_doi               10.1107/S2052252517004043
_journal_volume                  4
_journal_year                    2017
_chemical_formula_moiety         'C14 H10 Br2 N2 O2'
_chemical_formula_sum            'C14 H10 Br2 N2 O2'
_chemical_formula_weight         398.06
_chemical_melting_point          547.2
_chemical_name_common
((E)-4-((3,5-Dibromo-2-Hydroxybenzylidene)amino)benzamide
_chemical_name_systematic
((E)-4-((3,5-Dibromo-2-Hydroxybenzylidene)amino)benzamide
_space_group_crystal_system      triclinic
_space_group_IT_number           2
_space_group_name_Hall           '-P 1'
_space_group_name_H-M_alt        'P -1'
_symmetry_space_group_name_Hall  '-P 1'
_symmetry_space_group_name_H-M   'P -1'
_atom_sites_solution_hydrogens   mixed
_audit_creation_method           SHELXL-2014/7
_cell_angle_alpha                81.620(7)
_cell_angle_beta                 75.049(7)
_cell_angle_gamma                81.589(7)
_cell_formula_units_Z            2
_cell_length_a                   8.3928(7)
_cell_length_b                   9.2815(8)
_cell_length_c                   9.3877(8)
_cell_measurement_reflns_used    2179
_cell_measurement_temperature    298(2)
_cell_measurement_theta_max      66.601
_cell_measurement_theta_min      4.848
_cell_volume                     694.45(11)
_computing_structure_refinement  'SHELXL-2014/7 (Sheldrick, 2014)'
_diffrn_ambient_temperature      298(2)
_diffrn_measured_fraction_theta_full 0.994
_diffrn_measured_fraction_theta_max 0.994
_diffrn_measurement_device_type  'Xcalibur, Eos, Gemini'
_diffrn_measurement_method       '\w scans'
_diffrn_radiation_type           CuK\a
_diffrn_radiation_wavelength     1.54184
_diffrn_reflns_av_R_equivalents  0.0195
_diffrn_reflns_av_unetI/netI     0.0293
_diffrn_reflns_Laue_measured_fraction_full 0.994
_diffrn_reflns_Laue_measured_fraction_max 0.994
_diffrn_reflns_limit_h_max       8
_diffrn_reflns_limit_h_min       -9
_diffrn_reflns_limit_k_max       11
_diffrn_reflns_limit_k_min       -10
_diffrn_reflns_limit_l_max       8
_diffrn_reflns_limit_l_min       -11
_diffrn_reflns_number            3838
_diffrn_reflns_point_group_measured_fraction_full 0.994
_diffrn_reflns_point_group_measured_fraction_max 0.994
_diffrn_reflns_theta_full        66.601
_diffrn_reflns_theta_max         66.601
_diffrn_reflns_theta_min         4.848
_exptl_absorpt_coefficient_mu    7.436
_exptl_absorpt_correction_type   none
_exptl_crystal_colour            red
_exptl_crystal_density_diffrn    1.904
_exptl_crystal_density_method    'not measured'
_exptl_crystal_description       block
_exptl_crystal_F_000             388
_exptl_crystal_size_max          0.32
_exptl_crystal_size_mid          0.31
_exptl_crystal_size_min          0.30
_refine_diff_density_max         0.426
_refine_diff_density_min         -0.798
_refine_diff_density_rms         0.108
_refine_ls_extinction_method     none
_refine_ls_goodness_of_fit_ref   1.050
_refine_ls_hydrogen_treatment    mixed
_refine_ls_matrix_type           full
_refine_ls_number_parameters     189
_refine_ls_number_reflns         2433
_refine_ls_number_restraints     0
_refine_ls_restrained_S_all      1.050
_refine_ls_R_factor_all          0.0407
_refine_ls_R_factor_gt           0.0369
_refine_ls_shift/su_max          0.001
_refine_ls_shift/su_mean         0.000
_refine_ls_structure_factor_coef Fsqd
_refine_ls_weighting_details
'w=1/[\s^2^(Fo^2^)+(0.0592P)^2^+0.2373P] where P=(Fo^2^+2Fc^2^)/3'
_refine_ls_weighting_scheme      calc
_refine_ls_wR_factor_gt          0.0965
_refine_ls_wR_factor_ref         0.1007
_reflns_Friedel_coverage         0.000
_reflns_number_gt                2179
_reflns_number_total             2433
_reflns_threshold_expression     'I > 2\s(I)'
_cod_data_source_file            lq5003.cif
_cod_data_source_block           compoundB
_cod_depositor_comments
;
The following automatic conversions were performed:

'_chemical_melting_point' value '547.2K' was changed to '547.2' - the
value should be numeric and without a unit designator.

Automatic conversion script
Id: cif_fix_values 4973 2017-02-22 13:04:09Z antanas 
;
_cod_database_code               1545684
_shelx_shelxl_version_number     2014/7
_shelx_space_group_comment
;
The symmetry employed for this shelxl refinement is uniquely defined
by the following loop, which should always be used as a source of
symmetry information in preference to the above space-group names.
They are only intended as comments.
;
_shelx_res_file
;

    shelx.res created by SHELXL-2014/7

TITL 35br4aba in P1 #1           New: P-1
CELL  1.54184   8.3928   9.2815   9.3877   81.620   75.049   81.589
ZERR     2.00   0.0007   0.0008   0.0008    0.007    0.007    0.007
LATT   1
SFAC  C    H    BR   N    O
UNIT  28 20 4 4 4
MERG   2
SHEL 0.84 999
FMAP   2
PLAN    5
ACTA
BOND   $H
CONF
L.S.   5
WGHT    0.059200    0.237300
FVAR       4.71312
BR1   3    0.751754    0.894647   -0.104761    11.00000    0.07720    0.03778 =
         0.05840    0.00986   -0.03656    0.00028
BR2   3    1.226151    0.692794    0.229388    11.00000    0.07438    0.03744 =
         0.10378    0.02083   -0.05975   -0.02696
O1    5    0.484503   -0.324780    0.393454    11.00000    0.05269    0.03266 =
         0.06516    0.00335   -0.03283   -0.01724
O2    5    1.036345    0.428316    0.306731    11.00000    0.05804    0.02745 =
         0.06064    0.01318   -0.03486   -0.01631
AFIX   3
H2A   2    0.990406    0.354016    0.317181    11.00000   -1.50000
AFIX   0
N1    4    0.655066   -0.393487    0.544172    11.00000    0.05750    0.02850 =
         0.06943    0.01107   -0.03414   -0.01884
N2    4    0.817702    0.268607    0.293827    11.00000    0.04044    0.02934 =
         0.04188    0.00340   -0.01216   -0.01258
C4    1    0.754308   -0.099033    0.484534    11.00000    0.05401    0.03004 =
         0.04654    0.00727   -0.02653   -0.01335
AFIX  43
H4    2    0.788723   -0.159858    0.561471    11.00000   -1.20000
AFIX   0
C8    1    0.755182    0.375102    0.213763    11.00000    0.03774    0.03248 =
         0.04537    0.00034   -0.01511   -0.00932
AFIX  43
H8    2    0.660151    0.364845    0.184354    11.00000   -1.20000
AFIX   0
C1    1    0.592107   -0.296287    0.447788    11.00000    0.03700    0.02671 =
         0.04173   -0.00045   -0.01174   -0.00679
C3    1    0.607173   -0.057049    0.293417    11.00000    0.04344    0.03170 =
         0.04412    0.00108   -0.02040   -0.01070
AFIX  43
H3    2    0.538972   -0.088339    0.242966    11.00000   -1.20000
AFIX   0
C11   1    0.969433    0.531088    0.216771    11.00000    0.04034    0.02667 =
         0.03632    0.00057   -0.01287   -0.00497
C14   1    0.973969    0.770376    0.072474    11.00000    0.05245    0.02409 =
         0.04579    0.00389   -0.01593   -0.00854
AFIX  43
H14   2    1.021415    0.857551    0.040649    11.00000   -1.20000
AFIX   0
C13   1    1.038203    0.662896    0.166900    11.00000    0.04524    0.02602 =
         0.04785    0.00228   -0.02085   -0.00972
C5    1    0.660251    0.079940    0.251939    11.00000    0.05163    0.03361 =
         0.04343    0.00584   -0.02406   -0.01116
AFIX  43
H5    2    0.630913    0.138774    0.171540    11.00000   -1.20000
AFIX   0
C10   1    0.764535    0.620221    0.073536    11.00000    0.04007    0.03584 =
         0.04434   -0.00227   -0.01886   -0.00281
AFIX  43
H10   2    0.671251    0.607230    0.042818    11.00000   -1.20000
AFIX   0
C7    1    0.756489    0.130506    0.328638    11.00000    0.03443    0.02757 =
         0.03901   -0.00009   -0.00808   -0.00911
C12   1    0.837676    0.745939    0.026089    11.00000    0.04948    0.02522 =
         0.04033    0.00196   -0.01918    0.00023
C9    1    0.829923    0.510671    0.168531    11.00000    0.03837    0.02811 =
         0.03771   -0.00096   -0.00967   -0.00762
C2    1    0.654589   -0.149372    0.410263    11.00000    0.03154    0.02559 =
         0.03633    0.00049   -0.00921   -0.00810
C6    1    0.803585    0.039750    0.446503    11.00000    0.04836    0.03415 =
         0.05370    0.00123   -0.02795   -0.01477
AFIX  43
H6    2    0.868109    0.072765    0.499360    11.00000   -1.20000
AFIX   0
H1B   2    0.622448   -0.475361    0.562581    11.00000    0.05163
H1A   2    0.739113   -0.370865    0.574134    11.00000    0.08756
HKLF 4

REM  35br4aba in P1 #1           New: P-1
REM R1 =  0.0369 for    2179 Fo > 4sig(Fo)  and  0.0407 for all    2433 data
REM    189 parameters refined using      0 restraints

END

WGHT      0.0592      0.2373

REM Highest difference peak  0.426,  deepest hole -0.798,  1-sigma level  0.108
Q1    1   1.2552  0.6626  0.1415  11.00000  0.05    0.43
Q2    1   0.7986  0.8048 -0.0599  11.00000  0.05    0.34
Q3    1   1.2445  0.7736  0.1736  11.00000  0.05    0.34
Q4    1   0.6817  0.8311 -0.0837  11.00000  0.05    0.32
Q5    1   1.1117  0.6968  0.2940  11.00000  0.05    0.32
;
_shelx_res_checksum              16894
_shelx_hkl_file
;
 -10  -4  -4 2029.06 147.580   9
 -10  -4  -3 52.2440 28.7524   9
 -10  -4  -2 1407.84 124.630   9
 -10  -3  -4 106.554 37.7485   9
 -10  -3  -3 3027.83 199.321   9
 -10  -3  -2 456.680 77.6267   9
 -10  -3  -1 526.045 79.3092   9
 -10  -2  -4 36.3734 21.9803   9
 -10  -2  -3 151.290 47.8341   9
 -10  -2  -2 2921.29 201.209   9
 -10  -2  -1 583.357 89.1870   9
 -10  -1  -3 444.900 74.6714   9
 -10  -1  -2 1634.45 146.913   9
 -10  -1  -1 435.952 79.1490   9
 -10  -1   0 50.8574 34.8702   9
 -10   0  -2 49.0224 28.5098   9
 -10   0  -1 1528.98 135.277   9
  -9  -6  -6 5195.65 226.604  15
  -9  -6  -5 3090.50 192.887  15
  -9  -6  -4 6632.92 298.710  15
  -9  -6  -3 5650.84 282.978  15
  -9  -6  -2 1646.55 142.061   9
  -9  -6  -2 1587.19 137.861  25
  -9  -6  -1 454.145 73.5464  25
  -9  -6   0 122.741 37.6193  25
  -9  -5  -6 559.590 86.8820  15
  -9  -5  -5 2796.54 206.611  15
  -9  -5  -4 3246.13 235.010  15
  -9  -5  -3 1671.07 175.236  15
  -9  -5  -2 10402.9 418.448   9
  -9  -5  -2 10270.2 389.385  25
  -9  -5  -1 124.347 49.4174  25
  -9  -5  -1 191.599 58.9689   9
  -9  -5   0 2518.41 168.167   9
  -9  -5   0 2652.60 191.903  25
  -9  -5   1 342.758 65.1223  25
  -9  -4  -6 493.456 79.4242  18
  -9  -4  -6 687.972 100.624  15
  -9  -4  -5 6234.41 326.957  15
  -9  -4  -4-4.97925 41.7528  15
  -9  -4  -3 893.480 135.587  15
  -9  -4  -2 494.393 105.626   9
  -9  -4  -1 161.588 54.6982  25
  -9  -4  -1 139.059 57.0736   9
  -9  -4   0 70.7331 44.0994   9
  -9  -4   0 75.1517 40.1028  25
  -9  -4   1 303.792 67.1493  25
  -9  -4   1 265.010 57.7676   9
  -9  -3  -7 1279.37 133.248  18
  -9  -3  -6 489.963 93.6231  18
  -9  -3  -5 317.562 81.0082  18
  -9  -3  -4 15117.2 543.794  18
  -9  -3  -4 13909.0 514.968  15
  -9  -3  -3 1861.96 196.488  15
  -9  -3  -3 1651.56 189.519   9
  -9  -3  -2 1720.29 192.557   9
  -9  -3  -1 1327.02 149.075  25
  -9  -3  -1 1631.78 186.161   9
  -9  -3   0 115.707 48.8195  25
  -9  -3   0 108.395 50.5160   9
  -9  -3   1 3074.69 218.679  25
  -9  -3   1 3492.37 232.478   9
  -9  -3   2 2196.96 168.353  25
  -9  -2  -8 112.677 39.2317  18
  -9  -2  -7 4943.87 282.655  18
  -9  -2  -6 4380.05 292.026  18
  -9  -2  -5 2555.12 234.195  18
  -9  -2  -5 1995.25 181.067   9
  -9  -2  -4 1760.57 181.486   9
  -9  -2  -4 2090.37 222.332  18
  -9  -2  -3 6112.95 355.006   9
  -9  -2  -2 81.7467 50.7002   9
  -9  -2  -1 1329.11 167.525   9
  -9  -2   0 2681.70 232.243   9
  -9  -2   0 2278.03 192.519  25
  -9  -2   1 41.9443 37.0260   9
  -9  -2   1 10.3128 25.6529  25
  -9  -2   2 449.957 79.7780  25
  -9  -2   2 628.289 93.2330   9
  -9  -1  -8 126.915 42.6162  18
  -9  -1  -7 119.635 47.9527  18
  -9  -1  -6 7217.73 383.052  18
  -9  -1  -5 8139.09 433.972  18
  -9  -1  -4 866.366 124.158   9
  -9  -1  -4 998.752 162.903  18
  -9  -1  -3 4978.90 310.380   9
  -9  -1  -2 1746.49 191.134   9
  -9  -1  -1 33.2293 38.6372   9
  -9  -1   0-22.7280 38.9475   9
  -9  -1   1 519.251 101.309   9
  -9  -1   1 604.362 97.0949  25
  -9  -1   2 98.2795 46.8778  25
  -9  -1   2-17.8776 29.8173   9
  -9   0  -7 1243.96 138.518  18
  -9   0  -6 160.255 61.7224  18
  -9   0  -5 962.529 148.763  18
  -9   0  -4 1801.02 211.556  18
  -9   0  -3 2693.17 216.213   9
  -9   0  -2 1624.40 174.692   9
  -9   0  -1 442.322 94.5140   9
  -9   0   0 360.215 88.2655   9
  -9   0   1 139.875 54.1841   9
  -9   0   2 29.2081 34.8796   9
  -9   1  -6 453.562 87.3299  18
  -9   1  -5 7986.64 389.610  18
  -9   1  -4 1894.99 188.022   8
  -9   1  -2 242.559 66.8141   9
  -9   1  -1 124.252 54.5001   9
  -9   1   0 308.980 79.9936   9
  -9   1   0 246.326 73.8015  21
  -9   1   1 577.054 105.155   9
  -9   1   1 790.491 122.095  21
  -9   1   2 979.149 123.006  21
  -9   1   2 1009.86 126.467   9
  -9   2  -5 12.4613 21.1026   8
  -9   2  -4 2576.40 212.443   8
  -9   2  -3 6645.98 359.758   8
  -9   2  -1 1251.63 140.806   9
  -9   2  -1 1538.83 173.354  21
  -9   2   0 369.878 79.5092   9
  -9   2   0 451.065 93.0164  21
  -9   2   1 67.6907 39.1318   9
  -9   2   1 302.140 76.7353  21
  -9   2   2 404.922 74.3780   9
  -9   3  -4 629.067 96.8376   8
  -9   3  -3 4334.02 265.232   8
  -9   3  -2 294.761 73.4876   8
  -9   3  -1 661.051 106.568  21
  -9   3   0 918.545 105.608   9
  -9   3   0 1055.37 129.789  21
  -9   3   1 77.6700 35.8538  21
  -9   4  -3 2302.64 162.373   8
  -9   4  -2 771.973 97.5036   8
  -9   4  -1-42.6761 29.0327   8
  -8  -8  -5 4204.74 197.480  15
  -8  -8  -4 13.9254 23.0073  15
  -8  -8  -1 452.556 68.2945  25
  -8  -7  -7 1028.43 101.578  15
  -8  -7  -6 6031.79 274.448  15
  -8  -7  -5 2975.62 207.336  15
  -8  -7  -4 8517.82 363.146  15
  -8  -7  -3 1.57061 35.6073  15
  -8  -7  -2 4750.08 275.909  15
  -8  -7   0 3462.99 220.833  25
  -8  -7   1 937.714 101.825  25
  -8  -6  -8 586.450 75.9265  15
  -8  -6  -7 5544.66 275.626  15
  -8  -6  -6 2201.36 191.498  15
  -8  -6  -5 7589.87 375.823  15
  -8  -6  -4 10100.9 448.292  15
  -8  -6  -3 17.7648 36.9348  15
  -8  -6  -2 4585.30 311.921  15
  -8  -6   0 2250.34 207.918  25
  -8  -6   1 1537.99 161.349  25
  -8  -6   2 2095.32 161.606  25
  -8  -5  -8 247.507 58.3642  15
  -8  -5  -7 2447.06 201.360  15
  -8  -5  -6 2193.74 210.557  15
  -8  -5  -5 315.783 89.9521  15
  -8  -5  -4 4488.03 322.544  15
  -8  -5  -3 5087.25 354.693  15
  -8  -5  -2 1158.06 174.370  15
  -8  -5  -1 4127.37 319.026  15
  -8  -5   0 5880.51 362.901  25
  -8  -5   0 6462.62 356.558   9
  -8  -5   1 502.680 109.297  25
  -8  -5   2 6.30273 29.5697  25
  -8  -5   3 42.0114 32.6378  25
  -8  -4  -8 1030.45 121.099  18
  -8  -4  -8 917.062 110.168  15
  -8  -4  -7 2535.84 216.963  15
  -8  -4  -7 2757.13 218.063  18
  -8  -4  -6 20968.8 633.065  18
  -8  -4  -6 20229.9 666.236  15
  -8  -4  -5 1113.62 170.152  15
  -8  -4  -5 1275.26 161.525  18
  -8  -4  -4 5331.98 370.796  15
  -8  -4  -3 240.669 93.3289  15
  -8  -4  -2 815.449 149.888  15
  -8  -4  -1 5449.61 387.354  15
  -8  -4   0 14831.1 588.227  25
  -8  -4   0 14418.0 579.768   9
  -8  -4   1 2052.59 202.745   9
  -8  -4   1 1678.87 196.934  25
  -8  -4   2 516.268 106.712  25
  -8  -4   3 620.100 104.740  25
  -8  -3  -9 1593.03 141.359  18
  -8  -3  -8 757.866 117.276  18
  -8  -3  -7 2511.66 232.263  18
  -8  -3  -6-1.60510 43.6859  18
  -8  -3  -6 5.48923 38.0754  15
  -8  -3  -5 24943.6 783.612  18
  -8  -3  -5 25143.1 774.415  15
  -8  -3  -4 79.4118 54.6167  18
  -8  -3  -4 181.166 78.7846  15
  -8  -3  -3 8277.78 468.426  15
  -8  -3  -3 9007.95 481.314  18
  -8  -3  -2 7582.35 438.594  18
  -8  -3  -2 6663.60 425.126  15
  -8  -3  -1 211.646 73.9962  25
  -8  -3  -1 236.201 93.2558  15
  -8  -3   0 1012.11 161.779   9
  -8  -3   0 1075.40 159.477  25
  -8  -3   1 311.423 90.2881   9
  -8  -3   1 209.672 73.8864  25
  -8  -3   2 3296.57 250.126   9
  -8  -3   2 2855.96 250.863  25
  -8  -3   3 98.6860 48.8022  25
  -8  -3   4 363.193 71.3817  25
  -8  -2  -9 564.451 92.3490  18
  -8  -2  -8 11584.0 476.527  18
  -8  -2  -7 6060.43 381.136  18
  -8  -2  -6 2026.47 231.299  18
  -8  -2  -5 3558.75 314.656  18
  -8  -2  -4 258.571 101.707  18
  -8  -2  -3 14.1294 59.0064  18
  -8  -2  -3-35.4208 52.5415  15
  -8  -2  -2 3467.33 295.611  15
  -8  -2  -2 3654.34 330.112  18
  -8  -2  -1 6164.79 359.828  25
  -8  -2  -1 5464.54 368.189   9
  -8  -2   0 714.062 128.917  25
  -8  -2   0 639.763 129.598   9
  -8  -2   1 1893.78 206.300  25
  -8  -2   1 1955.53 221.152   9
  -8  -2   2-1.23418 34.5552  25
  -8  -2   2 24.0192 41.1482   9
  -8  -2   3 571.319 111.534  25
  -8  -2   4 589.570 100.724  25
  -8  -1  -9 2435.46 181.585  18
  -8  -1  -8 1091.67 151.186  18
  -8  -1  -7 7750.64 435.594  18
  -8  -1  -6 3378.47 304.919  18
  -8  -1  -5 14054.2 636.094  18
  -8  -1  -4 6619.62 442.652  18
  -8  -1  -3 955.827 173.833  18
  -8  -1  -2 1418.54 183.358   9
  -8  -1  -2 1563.17 224.077  18
  -8  -1  -1 21.5990 56.3140   9
  -8  -1   0 495.981 113.261   9
  -8  -1   0 531.370 104.777  25
  -8  -1   1 528.163 108.143  25
  -8  -1   1 434.869 109.057   9
  -8  -1   2 995.990 145.471  25
  -8  -1   2 975.041 157.672   9
  -8  -1   3 50.2106 45.0008   9
  -8  -1   3 41.4053 34.0027  25
  -8  -1   4 2192.77 178.918  27
  -8  -1   4 2358.42 199.604  25
  -8   0  -8 119.886 49.7789  18
  -8   0  -7 7603.22 416.096  18
  -8   0  -6 229.208 88.2397  18
  -8   0  -5 659.119 140.754  18
  -8   0  -4 5258.19 394.305  18
  -8   0  -3 4100.43 353.896  18
  -8   0  -3 4356.90 301.728   9
  -8   0  -2 273.055 82.6173   9
  -8   0  -2 249.563 106.499  18
  -8   0  -1 5709.49 362.924   9
  -8   0   0 4270.46 320.563   9
  -8   0   1 30.8130 34.5441  25
  -8   0   1 70.8837 64.7499   9
  -8   0   2 302.667 84.4421  25
  -8   0   2 183.686 77.4840   9
  -8   0   3-29.5576 26.8093  25
  -8   0   3-37.4247 38.7401   9
  -8   0   4-13.6221 26.7144   9
  -8   0   4 25.9414 20.9242  27
  -8   1  -8 2008.01 164.843  18
  -8   1  -7 870.359 129.688  18
  -8   1  -6 9028.34 453.366  18
  -8   1  -5 9615.61 493.666  18
  -8   1  -5 9763.88 461.782   8
  -8   1  -4 7142.47 443.565  18
  -8   1  -3 1668.52 221.743  18
  -8   1  -3 1871.73 189.524   9
  -8   1  -2 33.0640 68.9696  18
  -8   1  -2-26.9490 45.3059   9
  -8   1  -1 37.7774 49.6148   9
  -8   1   0 5035.49 342.092   9
  -8   1   1 1444.35 187.029   9
  -8   1   2 1227.24 170.688   9
  -8   1   3 115.611 57.3620   9
  -8   1   4 312.317 74.2057   9
  -8   2  -7 64.5756 33.7369  18
  -8   2  -6 49.6374 38.2378   8
  -8   2  -6 111.926 50.7070  18
  -8   2  -5 17334.1 603.889  18
  -8   2  -5 18759.7 625.266   8
  -8   2  -4 48.0814 44.7922  18
  -8   2  -4 157.215 71.1036   8
  -8   2  -3 6177.42 397.016  18
  -8   2  -3 6852.84 406.179  21
  -8   2  -2 5702.90 328.524   9
  -8   2  -2 6365.22 410.518  21
  -8   2  -1 806.029 154.825  21
  -8   2  -1 708.747 124.046   9
  -8   2   0 376.107 98.4107   9
  -8   2   1-3.50843 35.4836   9
  -8   2   2 227.857 76.9462   9
  -8   2   3 18.2288 32.1077   9
  -8   2   4 84.2426 41.6347   9
  -8   3  -6 259.757 63.5117   8
  -8   3  -5 3089.40 240.486   8
  -8   3  -4 408.167 98.1560   8
  -8   3  -3 204.459 70.5140   8
  -8   3  -3 172.022 64.3932  21
  -8   3  -2 1352.90 185.833  21
  -8   3  -1 2219.85 241.996  21
  -8   3  -1 1894.63 187.719   9
  -8   3   0 391.064 90.1898   9
  -8   3   0 308.264 89.8302  21
  -8   3   1 1903.83 196.397   9
  -8   3   1 2033.71 224.832  21
  -8   3   2 787.993 127.734   9
  -8   3   3 60.6878 43.6432  21
  -8   3   3 26.5552 35.1230   9
  -8   4  -6 883.238 99.5196   8
  -8   4  -5 5516.73 287.772   8
  -8   4  -4 9922.67 420.434   8
  -8   4  -3 1041.39 144.705   8
  -8   4  -2 245.593 74.1236  21
  -8   4  -2 139.455 63.0060   8
  -8   4  -1 424.034 102.325  21
  -8   4   0 953.241 143.009  21
  -8   4   0 887.063 123.612   9
  -8   4   1 1946.39 181.149   9
  -8   4   1 2419.10 220.214  21
  -8   4   2 585.922 102.863  21
  -8   4   2 374.046 78.4711   9
  -8   4   3 31.5700 28.5156  21
  -8   5  -5 190.025 44.2419   8
  -8   5  -4 1426.57 136.908   8
  -8   5  -3 2224.52 180.303   8
  -8   5  -2 82.6642 51.8676   8
  -8   5  -1 2861.61 205.029   8
  -8   5  -1 2852.99 218.901  21
  -8   5   0-14.2360 30.5557   8
  -8   5   0 70.2385 42.7279  21
  -8   5   1 979.392 118.540  21
  -7  -8  -7 251.976 52.3251  15
  -7  -8  -6 9567.30 344.676  15
  -7  -8  -5 536.327 89.1763  15
  -7  -8  -4 12273.5 425.517  15
  -7  -8  -3 5679.50 291.681  15
  -7  -8  -2 10029.6 380.308  15
  -7  -8   1 818.442 99.2651  25
  -7  -7  -8 431.368 71.5718  15
  -7  -7  -7 5424.54 285.244  15
  -7  -7  -6 2186.71 195.113  15
  -7  -7  -5 336.367 82.0710  15
  -7  -7  -4 635.527 120.132  15
  -7  -7  -3 4155.03 294.200  15
  -7  -7  -2 5623.46 342.243  15
  -7  -7  -1 9861.24 443.392  15
  -7  -7   2 2050.59 171.376  25
  -7  -6  -9 72.5798 33.9416  15
  -7  -6  -8 3188.73 221.564  15
  -7  -6  -7 109.446 49.4270  15
  -7  -6  -6 7842.82 407.475  15
  -7  -6  -5 6830.01 396.680  15
  -7  -6  -4 3269.34 281.176  15
  -7  -6  -3 8911.69 470.480  15
  -7  -6  -2 3707.82 306.464  15
  -7  -6  -1 2373.73 241.471  15
  -7  -6   2 11.1818 36.6517  25
  -7  -6   3 2637.33 199.458  25
  -7  -5  -9 2000.04 147.600  18
  -7  -5  -9 2111.64 166.862  15
  -7  -5  -8 9639.05 421.717  15
  -7  -5  -8 10487.7 399.709  18
  -7  -5  -7 95.9941 56.4394  15
  -7  -5  -6 1992.41 221.296  15
  -7  -5  -5 2312.09 247.246  15
  -7  -5  -4 4581.61 349.612  15
  -7  -5  -3 788.036 151.344  15
  -7  -5  -2 42582.2 1087.32  15
  -7  -5  -1 6024.89 407.125  15
  -7  -5   0 3659.93 315.361  15
  -7  -5   2 77.7250 57.6256  25
  -7  -5   3 108.169 55.8520  25
  -7  -5   4 1135.35 127.070  25
  -7  -5   4 974.987 114.952  27
  -7  -4  -9 549.164 90.9075  15
  -7  -4  -9 621.934 100.158  18
  -7  -4  -8 924.235 139.389  15
  -7  -4  -8 898.147 140.031  18
  -7  -4  -7 25312.8 761.480  18
  -7  -4  -7 27656.6 825.001  15
  -7  -4  -6 398.194 111.201  15
  -7  -4  -6 366.831 95.5077  18
  -7  -4  -5 10952.9 513.613  18
  -7  -4  -5 11319.0 559.491  15
  -7  -4  -4 3048.44 298.864  15
  -7  -4  -3 1370.86 202.135  15
  -7  -4  -2 50.1730 69.2882  15
  -7  -4  -1 3218.32 307.685  15
  -7  -4   0 10421.3 548.543  15
  -7  -4   1-10.5698 51.7400   9
  -7  -4   2 2911.62 275.603  25
  -7  -4   3 15.3505 45.6971  25
  -7  -4   4 495.153 95.3721  27
  -7  -4   4 379.162 86.7339  25
  -7  -4   5 263.949 55.8709  27
  -7  -4   5 344.755 66.0214  25
  -7  -3 -10 5631.01 263.877  18
  -7  -3  -9 1919.63 194.765  18
  -7  -3  -8 597.389 110.165  15
  -7  -3  -8 614.432 119.870  18
  -7  -3  -7 66.2703 59.1177  18
  -7  -3  -7-96.7861 58.6143  15
  -7  -3  -6 406.163 108.390  18
  -7  -3  -6 794.179 147.308  15
  -7  -3  -5 1049.14 171.552  18
  -7  -3  -5 1092.98 175.495  15
  -7  -3  -4 18884.9 726.356  18
  -7  -3  -4 17533.7 700.725  15
  -7  -3  -3 19296.1 718.677  18
  -7  -3  -3 18220.2 715.509  15
  -7  -3  -2 6020.82 395.475  18
  -7  -3  -2 5734.63 401.243  15
  -7  -3  -1 8066.53 481.531  15
  -7  -3   0 139.726 73.2274  15
  -7  -3   1 326.269 95.6746   9
  -7  -3   1 431.363 114.743  25
  -7  -3   2 6469.47 412.744  25
  -7  -3   2 7150.61 408.650   9
  -7  -3   3 1690.43 207.611  25
  -7  -3   4 822.137 132.983  25
  -7  -3   4 780.669 128.328  27
  -7  -3   5 880.089 119.288  25
  -7  -3   5 728.745 110.982  27
  -7  -2 -10 3277.45 210.797  18
  -7  -2  -9 10358.4 467.993  18
  -7  -2  -8 1859.87 225.864  18
  -7  -2  -7 16277.8 697.833  18
  -7  -2  -6 4751.28 385.005  18
  -7  -2  -5 101.518 49.9318  15
  -7  -2  -5 140.719 74.4997  18
  -7  -2  -4 290.419 90.7367  15
  -7  -2  -4 160.012 68.7101  18
  -7  -2  -3 4375.63 359.005  18
  -7  -2  -3 4554.17 342.424  15
  -7  -2  -2 4774.07 369.802  18
  -7  -2  -2 4268.13 334.178  15
  -7  -2  -1 6672.64 436.816  18
  -7  -2  -1 6271.28 409.544  15
  -7  -2   0 12835.2 546.305  25
  -7  -2   0 12786.8 597.130  15
  -7  -2   1 107.008 66.0301   9
  -7  -2   1 37.8068 45.0427  25
  -7  -2   2 6731.93 415.654  25
  -7  -2   2 7072.15 424.245   9
  -7  -2   3 1357.64 178.587  27
  -7  -2   3 1514.65 199.329  25
  -7  -2   3 1682.21 195.030   9
  -7  -2   4 866.656 141.625  25
  -7  -2   4 870.238 141.913  27
  -7  -2   5-16.2119 41.0888  27
  -7  -2   5 62.3715 49.9586  25
  -7  -1 -10 65.0927 32.8948  18
  -7  -1  -9 1001.84 146.222  18
  -7  -1  -8 315.961 103.998  18
  -7  -1  -7 468.253 129.271  18
  -7  -1  -6 20689.7 809.379  18
  -7  -1  -5 11852.9 612.050  18
  -7  -1  -4 340.298 107.731  18
  -7  -1  -3 16937.7 719.790  18
  -7  -1  -2 4267.94 314.932  15
  -7  -1  -2 4507.70 370.299  18
  -7  -1  -1 450.473 106.047  15
  -7  -1  -1 612.102 144.950  18
  -7  -1   0 272.872 82.9247   9
  -7  -1   0 812.403 132.138  25
  -7  -1   1 805.450 136.416  25
  -7  -1   1 929.592 155.983   9
  -7  -1   2 21.7179 38.8739   9
  -7  -1   2 103.628 60.9694  25
  -7  -1   3 5176.47 358.807   9
  -7  -1   3 4405.72 324.582  27
  -7  -1   3 4252.53 326.761  25
  -7  -1   4 1154.34 167.480  25
  -7  -1   4 939.950 148.041  27
  -7  -1   5 888.222 133.798  27
  -7  -1   5 1040.61 151.029  25
  -7  -1   6 161.163 47.8939  27
  -7   0  -9 1459.59 162.811  18
  -7   0  -8 9214.20 477.535  18
  -7   0  -7 4223.41 348.642  18
  -7   0  -6 6860.75 387.881  16
  -7   0  -6 6822.84 452.668  18
  -7   0  -5 342.582 114.972  18
  -7   0  -4 2953.90 299.135  18
  -7   0  -3 2695.47 284.228  18
  -7   0  -2 28106.4 921.030  18
  -7   0  -2 30213.2 803.151   9
  -7   0  -1 6362.60 447.373  18
  -7   0  -1 6809.76 395.498   9
  -7   0   0 7290.00 418.141   9
  -7   0   1 726.488 131.256  25
  -7   0   1 690.034 135.782   9
  -7   0   2 1214.69 171.581  25
  -7   0   2 1191.02 181.693   9
  -7   0   3-7.50153 41.5345  25
  -7   0   3 38.9703 37.4072  27
  -7   0   3 50.0204 62.2514   9
  -7   0   4 34.5408 33.6299   9
  -7   0   4 45.4398 43.7480  25
  -7   0   4 27.0214 35.5659  27
  -7   0   5 95.1958 51.0363  27
  -7   0   6 148.135 49.1107  27
  -7   1  -9-23.3660 23.2010  18
  -7   1  -8 4432.41 293.923  18
  -7   1  -7 31608.5 870.714  18
  -7   1  -7 30332.3 794.013  16
  -7   1  -6-59.9334 63.0992  18
  -7   1  -6-6.88078 32.1850  16
  -7   1  -5 17944.8 660.233   8
  -7   1  -5 17564.6 615.040  16
  -7   1  -5 16761.4 680.797  18
  -7   1  -4 8477.98 491.455  18
  -7   1  -3 2042.77 249.239  18
  -7   1  -2 284.877 83.3309   9
  -7   1  -2 198.404 78.9788  18
  -7   1  -2 176.644 67.6138  21
  -7   1  -1 4531.05 379.047  18
  -7   1  -1 4466.37 314.349   9
  -7   1   0 163.571 75.3382   9
  -7   1   1 1440.16 192.983   9
  -7   1   1 1489.29 177.278  25
  -7   1   2 2088.35 218.665  25
  -7   1   2 1943.56 220.638  27
  -7   1   2 1896.88 223.353   9
  -7   1   3 113.282 53.7643   9
  -7   1   3 153.679 65.2622  27
  -7   1   3 259.272 87.3717  25
  -7   1   4 554.180 121.564   9
  -7   1   4 395.682 101.169  27
  -7   1   5 183.625 63.5303  27
  -7   1   5 268.499 68.1566   9
  -7   2  -8 56.6447 33.8742  16
  -7   2  -7 321.417 84.2369  16
  -7   2  -7 373.601 85.7447  18
  -7   2  -7 284.221 72.1802   8
  -7   2  -6 714.080 130.269  18
  -7   2  -6 740.144 128.303  16
  -7   2  -5 2365.88 241.025  18
  -7   2  -5 2076.36 224.900   8
  -7   2  -5 2230.39 217.725  16
  -7   2  -4 127.921 64.5963  21
  -7   2  -4 280.518 90.8053  18
  -7   2  -3 14749.0 629.974  21
  -7   2  -3 14091.4 617.410  18
  -7   2  -2 1992.87 237.156  21
  -7   2  -2 1822.13 192.932   9
  -7   2  -2 1689.30 221.353  18
  -7   2  -1 8731.14 435.386   9
  -7   2   0 2293.82 230.816   9
  -7   2   1 25.2893 42.4049   9
  -7   2   2 271.300 88.1026   9
  -7   2   2 285.899 83.0360  27
  -7   2   3 23.9776 41.1202   9
  -7   2   3-11.4332 33.6590  27
  -7   2   4 827.205 143.748   9
  -7   2   4 821.573 139.610  27
  -7   2   5 802.534 125.791   9
  -7   3  -8 1823.21 156.265  16
  -7   3  -7 11000.0 410.079   8
  -7   3  -7 10611.1 427.276  16
  -7   3  -6 13439.9 520.327   8
  -7   3  -6 13667.0 514.744  16
  -7   3  -5 657.302 129.698   8
  -7   3  -5 805.746 130.790  18
  -7   3  -4 466.141 106.576  18
  -7   3  -4 679.831 135.907   8
  -7   3  -3 1125.16 174.796  21
  -7   3  -3 985.041 159.080  18
  -7   3  -2 763.371 152.218  21
  -7   3  -1 14147.6 643.466  21
  -7   3  -1 14621.0 555.301   9
  -7   3   0 7778.74 422.360   9
  -7   3   1 356.482 100.486   9
  -7   3   2 347.919 101.512   9
  -7   3   3 787.869 145.252   9
  -7   3   4 232.529 74.4260   9
  -7   4  -7 461.764 79.0253  16
  -7   4  -6 8298.28 376.943   8
  -7   4  -5 11415.8 484.645   8
  -7   4  -4 125.338 57.1759   8
  -7   4  -3 9044.79 476.960  21
  -7   4  -3 9089.06 469.348   8
  -7   4  -2 546.379 123.705  21
  -7   4  -1 2478.22 261.181  21
  -7   4   0 770.572 128.876   9
  -7   4   0 946.866 169.379  21
  -7   4   1 774.684 137.344   9
  -7   4   1 721.694 140.408  21
  -7   4   2 152.046 69.9053   9
  -7   4   3 1386.53 176.948   9
  -7   4   4 81.7236 49.4803   9
  -7   5  -5 200.794 70.9137   8
  -7   5  -4 49.2728 48.4691   8
  -7   5  -3 1042.54 148.340   8
  -7   5  -2 8183.35 416.470   8
  -7   5  -2 8656.81 447.351  21
  -7   5  -1 1540.16 195.406  21
  -7   5  -1 1820.83 195.894   8
  -7   5   0 608.269 128.338  21
  -7   5   1 7216.28 371.524   9
  -7   5   1 7898.70 423.403  21
  -7   5   2 983.629 146.297  21
  -7   5   2 836.810 129.036   9
  -7   5   3 83.2516 43.7285  21
  -7   6  -4 3487.01 216.759   8
  -7   6  -3 2294.29 187.660   8
  -7   6  -2 94.3850 46.0780   8
  -7   6  -1 189.298 58.7223   8
  -7   6   0 48.0871 39.9335  21
  -7   6   0-2.16343 27.8573   8
  -7   6   1 956.327 128.352  21
  -7   6   2 834.240 108.640  21
  -6  -9  -6 8155.41 274.442  15
  -6  -8  -8 14.4906 18.6729  15
  -6  -8  -7 76.7017 33.9797  15
  -6  -8  -6 1331.67 146.980  15
  -6  -8  -5 5922.13 319.343  15
  -6  -8  -4 4790.25 294.505  15
  -6  -8  -3 17194.0 555.787  15
  -6  -8  -2 4691.31 287.975  15
  -6  -8   2 476.105 80.9177  25
  -6  -7  -9 37.9653 28.0150  15
  -6  -7  -8 4947.03 280.933  15
  -6  -7  -7 2377.01 212.056  15
  -6  -7  -6 1373.32 167.528   4
  -6  -7  -6 1401.25 172.682  15
  -6  -7  -5 5488.39 352.429   4
  -6  -7  -5 5673.55 352.770  15
  -6  -7  -4 126.320 61.3799  15
  -6  -7  -3 1603.43 195.629  15
  -6  -7  -2 7087.32 402.114  15
  -6  -7  -1 12282.4 522.285  15
  -6  -7   0 718.156 123.814  15
  -6  -7   2 3597.22 250.522  26
  -6  -7   3 1324.15 142.120  26
  -6  -7   3 1340.29 138.421  25
  -6  -7   4 215.900 51.2012  26
  -6  -6  -9 17.3675 29.4409  15
  -6  -6  -8 1.48485 35.7767  15
  -6  -6  -7 4232.43 314.211  15
  -6  -6  -6 4426.42 329.647  15
  -6  -6  -6 4408.73 316.893   4
  -6  -6  -5 806.345 144.591  15
  -6  -6  -5 740.057 139.242   4
  -6  -6  -4 36937.7 983.145   4
  -6  -6  -4 38470.3 992.487  15
  -6  -6  -3 5099.24 365.178  15
  -6  -6  -2 5433.41 378.379  15
  -6  -6  -1 1960.91 227.099  15
  -6  -6   0 1774.64 209.782  15
  -6  -6   2 11909.9 510.290  26
  -6  -6   3 87.6670 48.3524  26
  -6  -6   3 171.764 59.7465  25
  -6  -6   4 1651.77 152.108  25
  -6  -6   4 1589.73 167.701  26
  -6  -5 -10 652.204 89.7233  15
  -6  -5  -9 12043.2 445.381  18
  -6  -5  -9 12015.2 473.746  15
  -6  -5  -8 228.460 73.3757  18
  -6  -5  -8 61.7824 38.9715  15
  -6  -5  -7 2418.94 252.946  15
  -6  -5  -6 244.591 90.0318  15
  -6  -5  -5 579.249 128.975   4
  -6  -5  -5 533.745 131.573  15
  -6  -5  -4 3520.57 302.731   4
  -6  -5  -4 3631.34 315.873  15
  -6  -5  -3 20417.7 748.473  15
  -6  -5  -2 26726.4 848.981  15
  -6  -5  -1 1022.85 163.301  15
  -6  -5   0 6916.22 427.240  15
  -6  -5   1 398.761 105.095  15
  -6  -5   2 807.841 141.321  26
  -6  -5   3 28.2600 34.8626  26
  -6  -5   3 207.733 74.7896  25
  -6  -5   4-19.3877 25.6672  25
  -6  -5   4-36.4853 40.8128  26
  -6  -5   5 1709.42 176.295  26
  -6  -4 -10 69.8938 32.9903  15
  -6  -4 -10-3.20288 31.8317  18
  -6  -4  -9 1823.91 196.406  15
  -6  -4  -9 1958.90 206.472  18
  -6  -4  -8 659.752 131.553  18
  -6  -4  -8 947.713 144.936  17
  -6  -4  -7 3715.28 315.608  18
  -6  -4  -7 4400.96 322.608  17
  -6  -4  -6 18461.0 678.910  17
  -6  -4  -6 17344.3 680.566  18
  -6  -4  -6 17129.8 705.263  15
  -6  -4  -5 16789.3 658.121  18
  -6  -4  -5 17096.3 702.285  15
  -6  -4  -4 10703.7 551.905  15
  -6  -4  -3 4985.69 370.264  15
  -6  -4  -2 6077.61 405.256  15
  -6  -4  -1 1452.25 197.572  15
  -6  -4   0 41090.9 1042.43  15
  -6  -4   1 16240.1 659.788  15
  -6  -4   2 6331.52 396.639  26
  -6  -4   3 6594.92 409.908  26
  -6  -4   3 6366.21 412.997  25
  -6  -4   4 183.555 63.6246  25
  -6  -4   4 269.847 91.2252  26
  -6  -4   5 61.8084 42.9063  25
  -6  -4   6 221.421 64.9590  27
  -6  -3 -10 198.346 64.0834  18
  -6  -3  -9 4259.89 327.262  18
  -6  -3  -9 4119.84 297.361  15
  -6  -3  -8 402.093 112.480  18
  -6  -3  -7 22.9378 45.0507  18
  -6  -3  -6 2090.96 253.979  18
  -6  -3  -5 22241.2 800.287  18
  -6  -3  -5 23275.0 822.634  15
  -6  -3  -4 7579.79 456.044  18
  -6  -3  -4 7145.08 446.106  15
  -6  -3   0 10180.6 669.596  24
  -6  -3   0 11934.9 556.710  15
  -6  -3   1 163.914 82.8846  15
  -6  -3   2 5549.17 368.199  26
  -6  -3   3 562.513 129.012  25
  -6  -3   3 643.242 131.762  26
  -6  -3   4 4032.42 323.820  26
  -6  -3   4 3806.77 313.949  25
  -6  -3   5 28.9068 36.7176  25
  -6  -3   6 1203.52 152.017  27
  -6  -3   6 1285.15 138.672  25
  -6  -2 -10 282.433 80.7117  18
  -6  -2  -9 266.661 94.2675  18
  -6  -2  -8 22981.1 855.549  18
  -6  -2  -7 9415.82 558.757  18
  -6  -2  -6 96.0917 63.6829  18
  -6  -2  -6 87.3115 51.3020  15
  -6  -2  -5 12918.7 594.388  15
  -6  -2  -5 13226.0 642.403  18
  -6  -2  -4-101.108 65.7607  10
  -6  -2   0 212.286 97.0260  24
  -6  -2   1 22297.9 769.496  15
  -6  -2   2 5253.14 365.504  25
  -6  -2   2 5125.59 353.719   9
  -6  -2   2 5407.20 356.922  26
  -6  -2   3 1371.40 187.953  26
  -6  -2   3 1418.11 196.817  25
  -6  -2   4 191.634 75.0080  25
  -6  -2   5 25.2269 36.0157  25
  -6  -2   6 208.128 76.0255  27
  -6  -2   6 184.882 62.3028  25
  -6  -2   7 14.9643 26.7078  27
  -6  -1 -10 2959.08 236.061  18
  -6  -1  -9 376.234 109.697  18
  -6  -1  -8 745.797 160.268  18
  -6  -1  -7 5834.44 446.589  18
  -6  -1  -7 5294.80 346.716  16
  -6  -1  -6 7764.52 509.225  18
  -6  -1  -6 8270.80 426.150  16
  -6  -1  -5 12068.2 616.996  18
  -6  -1  -5 12646.2 513.441  16
  -6  -1  -4 61304.2 1513.41  10
  -6  -1  -3 7657.77 527.282  10
  -6  -1   0 599.985 154.882  24
  -6  -1   1 865.799 140.316   9
  -6  -1   1 1037.81 148.143  25
  -6  -1   2 6130.23 389.520   9
  -6  -1   2 6691.74 399.310  25
  -6  -1   3 2762.60 262.194   9
  -6  -1   3 2827.12 271.764  25
  -6  -1   4 1360.49 192.650  25
  -6  -1   4 1279.23 183.300  27
  -6  -1   5 3851.07 312.382  25
  -6  -1   5 3588.67 299.888  27
  -6  -1   6 52.6958 41.1567  27
  -6  -1   7-10.2653 28.3077  27
  -6   0 -10 5500.71 286.534  18
  -6   0  -9 17325.3 642.293  18
  -6   0  -8 160.128 79.0997  18
  -6   0  -8 272.005 82.5807  16
  -6   0  -7 12803.1 542.995  16
  -6   0  -7 13500.0 659.249  18
  -6   0  -6 2115.06 260.468  18
  -6   0  -6 2285.33 225.269  16
  -6   0  -5 4125.17 355.396  18
  -6   0  -5 4009.96 289.275  16
  -6   0  -4 2820.68 285.528  18
  -6   0  -3 33588.9 1116.14  10
  -6   0  -2 129.118 76.0429  10
  -6   0  -1 17624.2 786.025  10
  -6   0  -1 15557.2 780.532  11
  -6   0   0 9231.29 622.691  11
  -6   0   0 9426.76 574.216  10
  -6   0   1 1381.58 176.300   9
  -6   0   1 1264.98 160.605  25
  -6   0   2 1661.31 192.351  27
  -6   0   2 1682.47 196.320  25
  -6   0   2 1578.21 198.022   9
  -6   0   3-49.8554 49.1013  25
  -6   0   3 63.9635 57.1890   9
  -6   0   4 125.618 66.7559  27
  -6   0   4 13.5754 41.4110  25
  -6   0   4 7.41390 51.4709   9
  -6   0   5 905.798 154.894  25
  -6   0   5 879.645 149.690  27
  -6   0   6 151.535 65.7653  27
  -6   0   7 323.293 78.0806  27
  -6   1  -9 896.171 129.783  18
  -6   1  -9 817.475 124.596  16
  -6   1  -8 3814.93 307.686  18
  -6   1  -8 3055.58 255.801  16
  -6   1  -7 5756.17 402.673  18
  -6   1  -7 5801.26 361.491  16
  -6   1  -6 493.579 108.417  16
  -6   1  -6 1167.37 182.657  18
  -6   1  -5 24430.8 832.535  18
  -6   1  -5 26184.0 796.790   8
  -6   1  -5 25886.7 735.953  16
  -6   1  -4 3019.11 286.553  18
  -6   1  -4 3047.46 242.991  16
  -6   1  -3 9122.92 590.669  10
  -6   1  -2 19.7856 42.3940  11
  -6   1  -2 80.9666 56.6441  10
  -6   1  -1 3.60206 31.6943  10
  -6   1  -1 42.6918 46.3776  11
  -6   1   0 11090.5 629.370  10
  -6   1   0 9930.60 529.927  18
  -6   1   0 10376.1 462.084   9
  -6   1   0 10909.0 689.490  11
  -6   1   1 5345.05 347.229   9
  -6   1   1 5877.51 340.042  25
  -6   1   2 6398.49 395.072   9
  -6   1   2 6599.11 383.048  25
  -6   1   2 7419.43 413.322  27
  -6   1   3 7229.08 437.927   9
  -6   1   3 7346.16 428.328  27
  -6   1   3 7531.68 425.425  25
  -6   1   4 620.898 132.929  27
  -6   1   4 814.612 146.705  25
  -6   1   4 697.157 138.940   9
  -6   1   5 96.4725 56.4852   9
  -6   1   5 33.0933 44.4947  27
  -6   1   6 28.1402 41.6945  27
  -6   1   7 243.050 67.5971  27
  -6   2  -9 7508.25 343.567  16
  -6   2  -8 5593.28 335.007  16
  -6   2  -7 21.2203 42.1141   8
  -6   2  -7 3.29690 49.0607  16
  -6   2  -7-26.0483 47.8366  18
  -6   2  -6 4246.17 309.180  16
  -6   2  -6 4770.76 344.757  18
  -6   2  -6 4303.12 325.385   8
  -6   2  -5 16209.2 632.448   8
  -6   2  -5 16193.0 639.941  18
  -6   2  -5 16067.4 590.780  16
  -6   2  -4 84.5813 36.0082  16
  -6   2  -4 55.2357 43.2774  21
  -6   2  -4 5.85029 34.1584  18
  -6   2  -3 58530.7 1199.67  21
  -6   2  -3 59060.9 1221.99  18
  -6   2  -2 27656.7 824.933  21
  -6   2  -2 27058.6 836.350  18
  -6   2  -1 1239.30 189.909  18
  -6   2  -1 1331.28 163.297   9
  -6   2   0 1001.50 145.267   9
  -6   2   1 779.930 138.159   9
  -6   2   2 596.903 118.974  27
  -6   2   2 469.090 112.813   9
  -6   2   2 637.488 124.094  25
  -6   2   3 1451.06 195.252  27
  -6   2   3 1380.02 195.370   9
  -6   2   3 1481.80 191.448  25
  -6   2   4 3637.06 321.933   9
  -6   2   4 3296.77 295.877  27
  -6   2   5 299.263 101.162   9
  -6   2   5 235.782 80.2046  27
  -6   2   6 422.833 95.2685  27
  -6   3  -9 1084.28 118.882  16
  -6   3  -8 15083.3 520.060  16
  -6   3  -7 17185.0 582.660   8
  -6   3  -7 18839.5 631.504  16
  -6   3  -6 153.447 64.1858  16
  -6   3  -6 94.3998 54.5859   8
  -6   3  -5 9402.73 482.901   8
  -6   3  -5 9504.71 462.947  16
  -6   3  -4 206.154 73.6036  18
  -6   3  -4 204.271 85.6232  21
  -6   3  -4 85.1014 49.7710   8
  -6   3  -3 4151.36 329.706  21
  -6   3  -3 4147.59 314.299  18
  -6   3  -2 11839.1 544.278  18
  -6   3  -2 10174.4 519.912  21
  -6   3  -1 14050.5 527.859   9
  -6   3  -1 14182.9 617.515  18
  -6   3   0 652.454 121.407   9
  -6   3   1 7886.21 430.631   9
  -6   3   2 3365.09 293.140   9
  -6   3   2 3267.60 294.002  27
  -6   3   3 300.366 96.1430   9
  -6   3   3 238.353 89.9222  27
  -6   3   4 429.089 107.021   9
  -6   3   4 428.451 109.163  27
  -6   3   5 2015.41 229.826   9
  -6   4  -8 83.7189 41.1045  16
  -6   4  -7 1728.61 181.453  16
  -6   4  -6 1351.31 170.339   8
  -6   4  -6 1244.97 163.103  16
  -6   4  -5 3785.31 289.654  16
  -6   4  -5 3691.97 296.798   8
  -6   4  -4 28397.7 839.814   8
  -6   4  -3 5752.75 381.698   8
  -6   4  -3 5917.94 396.971  21
  -6   4  -2 2846.60 279.993  21
  -6   4  -1 13705.1 619.319  21
  -6   4   0 1096.69 157.958   9
  -6   4   1 513.441 113.629   9
  -6   4   2 1975.65 229.103   9
  -6   4   3 1262.33 187.197   9
  -6   4   4 153.642 73.8412   9
  -6   4   5 2419.73 240.703   9
  -6   5  -7 8220.91 337.423  16
  -6   5  -6 2364.76 181.623   7
  -6   5  -6 2187.29 196.388  16
  -6   5  -6 2407.73 204.211   8
  -6   5  -5 2698.38 239.457   8
  -6   5  -5 2516.15 205.440   7
  -6   5  -4 856.010 131.010   7
  -6   5  -4 798.975 136.201   8
  -6   5  -3 5461.67 335.197   7
  -6   5  -3 5226.36 356.859   8
  -6   5  -2 47.2239 50.8022  21
  -6   5  -2 193.095 69.9449   7
  -6   5  -2 86.7804 38.2660   8
  -6   5  -1 9433.91 476.007   7
  -6   5  -1 8090.37 469.348  21
  -6   5   0 8345.55 479.879  21
  -6   5   1 37.1314 43.6291   9
  -6   5   1 86.2364 58.3436  21
  -6   5   2-92.6922 57.1304  21
  -6   5   2-33.0905 42.1468   9
  -6   5   3 225.807 73.3147   9
  -6   5   4 19.7758 39.3163   9
  -6   5   5 715.687 102.364  21
  -6   6  -6 11445.4 334.509   7
  -6   6  -5 9293.22 385.071   8
  -6   6  -5 8597.12 338.164   7
  -6   6  -4 62.9542 33.7910   8
  -6   6  -4 61.0721 36.7391   7
  -6   6  -3 6815.87 371.754   8
  -6   6  -3 6518.95 343.768   7
  -6   6  -2 175.137 63.1687   7
  -6   6  -2 290.605 86.2933   8
  -6   6  -1 989.393 144.626   8
  -6   6  -1 902.556 150.933  21
  -6   6  -1 912.973 139.878   7
  -6   6   0 1372.65 174.933   7
  -6   6   0 1297.33 179.221  21
  -6   6   0 1505.76 172.875   8
  -6   6   1 380.353 100.306  21
  -6   6   1 349.764 84.9559   9
  -6   6   2 57.3129 37.4927  21
  -6   6   3 2568.04 213.828  21
  -6   6   4 1353.99 133.291  21
  -6   7  -4 71.0369 33.3381   7
  -6   7  -3 7715.42 323.271   7
  -6   7  -3 7516.86 322.763   8
  -6   7  -2 6226.64 307.574   7
  -6   7  -2 6572.14 310.440   8
  -6   7  -1 155.028 57.7169   7
  -6   7   0 512.986 94.2814   7
  -6   7   1 476.024 92.7114  21
  -6   7   1 316.330 74.6066   7
  -6   7   2 522.668 86.8961  21
  -6   7   2 556.635 90.8293   7
  -6   7   3 134.983 48.1149   7
  -6   8  -1 1369.50 115.795   7
  -6   8   0 201.030 44.4110   7
  -5  -9  -7 2084.32 158.200   4
  -5  -9  -6 2657.96 201.719   4
  -5  -9  -5 7616.06 362.733   4
  -5  -9  -4 302.057 83.0572   4
  -5  -9   2 5208.28 239.139  26
  -5  -8  -8 68.1078 38.5608  15
  -5  -8  -8 110.966 37.7536   4
  -5  -8  -7 1442.24 156.035   4
  -5  -8  -7 1313.77 149.014  15
  -5  -8  -6 623.675 110.532  15
  -5  -8  -6 530.307 104.793   4
  -5  -8  -5 114.830 65.0851   4
  -5  -8  -5 72.9935 48.2033  15
  -5  -8  -4 10831.9 455.738  15
  -5  -8  -4 10359.1 485.439   4
  -5  -8  -3 8993.25 463.218   4
  -5  -8   1 2311.14 208.573  26
  -5  -8   2 5881.20 322.529  26
  -5  -8   3 2686.72 204.426  26
  -5  -8   4 118.683 36.1919  26
  -5  -7  -9 1881.86 166.394  15
  -5  -7  -8 1962.94 193.715  15
  -5  -7  -7 968.802 143.205   4
  -5  -7  -7 907.364 142.096  15
  -5  -7  -6 12307.1 532.268   4
  -5  -7  -6 11222.6 510.449  15
  -5  -7  -5 2913.11 268.244   4
  -5  -7  -5 3447.24 286.197  15
  -5  -7  -4 54.2828 42.7975   4
  -5  -7  -4 70.7339 44.4605  15
  -5  -7  -3 15019.0 625.318   4
  -5  -7  -3 16219.7 612.868  15
  -5  -7  -2 3136.61 288.799   4
  -5  -7  -2 3226.80 270.516  15
  -5  -7   1 440.584 107.582  26
  -5  -7   2 8110.45 432.119  26
  -5  -7   3 52.1523 46.9555  26
  -5  -7   4 45.9833 34.3740  26
  -5  -7   5 33.4390 22.0623  26
  -5  -6 -10 133.972 44.5171  15
  -5  -6  -9 77.9937 47.0844  17
  -5  -6  -8 1947.03 207.942  17
  -5  -6  -7 193.602 80.0379  17
  -5  -6  -7 173.619 70.2312   4
  -5  -6  -6 8118.86 447.454   4
  -5  -6  -6 7953.69 445.985  17
  -5  -6  -5 17871.6 678.094   4
  -5  -6  -4 30840.6 896.286   4
  -5  -6  -4 31074.5 893.896  15
  -5  -6  -3 638.053 135.918   4
  -5  -6  -3 349.445 95.7551  15
  -5  -6  -2 1200.93 181.893   4
  -5  -6  -2 1829.06 211.131  15
  -5  -6  -1 1488.79 188.097  15
  -5  -6   0 132.216 60.3833  15
  -5  -6   1 5808.08 365.549  15
  -5  -6   1 6422.47 398.877  26
  -5  -6   2 8.03635 34.7051  26
  -5  -6   3 10312.7 512.405  26
  -5  -6   4 11626.1 522.488  26
  -5  -6   5 231.460 71.5001  26
  -5  -6   6 1246.31 128.982  26
  -5  -5 -10 334.443 69.8873  18
  -5  -5 -10 303.479 67.7810  17
  -5  -5  -9 1890.92 198.132  18
  -5  -5  -9 1729.16 188.385  17
  -5  -5  -8 3143.06 273.775  18
  -5  -5  -8 3567.40 289.882  17
  -5  -5  -7 6911.79 412.165  18
  -5  -5  -7 6510.60 401.583  17
  -5  -5  -6 3660.52 300.919  17
  -5  -5  -5 139.969 66.0767  17
  -5  -5  -5 196.315 73.6361   4
  -5  -5  -4 14979.4 615.222   4
  -5  -5   0 31668.4 851.736  15
  -5  -5   1 11191.1 515.411  26
  -5  -5   1 10987.2 506.436  15
  -5  -5   2 78.4473 58.6413  26
  -5  -5   3 28.4734 41.0944  26
  -5  -5   4 1469.80 200.298  26
  -5  -5   4 1398.26 176.497  25
  -5  -5   5 1487.76 192.190  26
  -5  -5   6 33.1384 36.7681  26
  -5  -4 -10 109.896 45.7927  17
  -5  -4 -10 118.940 54.4297  18
  -5  -4  -9 245.652 75.3486  17
  -5  -4  -9 132.128 64.7287  18
  -5  -4  -8 5175.65 382.164  18
  -5  -4  -8 5521.03 362.370  17
  -5  -4  -7 20708.9 770.758  18
  -5  -4  -7 22186.3 731.859  17
  -5  -4  -6 3097.98 289.692  18
  -5  -4  -6 3184.95 278.357  17
  -5  -4   0 12857.4 731.410  24
  -5  -4   1 9796.34 682.481  24
  -5  -4   2 26780.4 798.654  26
  -5  -4   3 3.75975 33.3692  26
  -5  -4   4 2348.81 242.718  25
  -5  -4   4 2067.86 237.162  26
  -5  -4   5 833.814 152.339  26
  -5  -4   5 832.667 132.454  25
  -5  -4   6 329.846 91.1731  26
  -5  -4   7 1365.72 144.106  27
  -5  -3 -11 413.923 76.6025  18
  -5  -3 -10 8923.14 445.745  18
  -5  -3  -9 3930.00 339.202  18
  -5  -3  -9 3630.91 277.456  17
  -5  -3  -8 316.167 94.9596  17
  -5  -3  -8 409.300 119.679  18
  -5  -3  -7 456.883 125.236  18
  -5  -3  -7 642.256 128.279  17
  -5  -3  -6 5230.86 394.380  18
  -5  -3  -6 5523.98 355.578  17
  -5  -3  -1 42538.9 1133.65  24
  -5  -3   0 5744.01 456.271  24
  -5  -3   1 189.432 101.162  24
  -5  -3   2 1334.00 251.199  24
  -5  -3   3 2272.09 238.728  26
  -5  -3   4 283.537 91.5277  25
  -5  -3   4 247.264 81.0836  26
  -5  -3   5 2589.06 249.379  25
  -5  -3   5 2395.54 256.279  26
  -5  -3   6 1382.62 162.877  25
  -5  -3   6 1160.60 171.517  26
  -5  -3   7 532.974 100.416  27
  -5  -2 -11 100.754 43.3469  18
  -5  -2 -10 43.0435 38.3899  18
  -5  -2  -9 6858.77 462.835  18
  -5  -2  -8 4434.23 388.324  18
  -5  -2  -7 8806.90 548.229  18
  -5  -2  -7 8982.36 444.382  16
  -5  -2  -6 40138.7 1125.87  18
  -5  -2  -6 39055.9 889.715  16
  -5  -2  -5 1081.39 183.953  10
  -5  -2  -1 12407.9 583.898  24
  -5  -2   0 59160.3 1361.58  24
  -5  -2   1 11903.5 664.509  24
  -5  -2   2 6728.15 530.451  24
  -5  -2   3 16527.6 616.652  26
  -5  -2   3 16774.2 639.389  25
  -5  -2   4 515.863 115.976  25
  -5  -2   4 528.231 116.113  26
  -5  -2   5 130.273 63.5720  26
  -5  -2   5 190.380 75.4854  25
  -5  -2   6 127.651 55.0175  25
  -5  -2   7 137.664 57.9180  27
  -5  -2   8 901.451 108.414  27
  -5  -1 -11 4356.87 230.107  18
  -5  -1 -10 946.840 150.031  18
  -5  -1  -9 1639.08 226.323  18
  -5  -1  -8-157.819 87.5571  18
  -5  -1  -8 14.7620 49.9969  16
  -5  -1  -7 7064.80 393.378  16
  -5  -1  -7 7150.60 498.713  18
  -5  -1  -6 18363.7 770.917  18
  -5  -1  -6 17915.4 605.012  16
  -5  -1  -5 51681.3 1263.20  10
  -5  -1  -4 199.183 79.3593  10
  -5  -1  -2 4445.34 328.120  11
  -5  -1  -1 2549.87 264.217  24
  -5  -1   0 179.323 79.3792  24
  -5  -1   1 12079.9 642.755  24
  -5  -1   2 99.5010 68.8274  24
  -5  -1   3 11186.4 498.241  26
  -5  -1   3 11043.7 505.018  25
  -5  -1   4 3117.53 279.870  25
  -5  -1   4 3551.33 296.270  26
  -5  -1   5 2484.73 257.177  25
  -5  -1   6 43.5465 52.1772  25
  -5  -1   6 24.7218 42.5378  27
  -5  -1   7 886.322 142.252  27
  -5  -1   8 101.708 50.0259  27
  -5   0 -10 2293.80 210.222  18
  -5   0  -9 2756.33 278.121  18
  -5   0  -9 2962.88 242.898  16
  -5   0  -8 311.981 104.802  18
  -5   0  -8 114.289 53.7265  16
  -5   0  -7 14771.2 697.826  18
  -5   0  -7 15246.9 579.693  16
  -5   0  -6 126.070 57.8002  16
  -5   0  -6 132.959 58.6479  18
  -5   0  -5 310.371 119.814  28
  -5   0  -4 9883.11 552.284  10
  -5   0  -3 2477.00 269.105  10
  -5   0  -2 64887.5 1343.73  10
  -5   0  -2 63181.8 1289.94  11
  -5   0  -1 38355.5 1047.13  11
  -5   0   1 33800.4 1077.86  24
  -5   0   2 460.232 124.983  24
  -5   0   3 45.7009 41.5428  25
  -5   0   3-5.02905 27.2005   9
  -5   0   4 2126.99 230.379  25
  -5   0   4 2225.51 233.489   9
  -5   0   5 298.183 96.0490  27
  -5   0   5 548.707 123.004  25
  -5   0   6 639.505 133.016  27
  -5   0   6 923.796 155.578  25
  -5   0   7 722.839 133.100  27
  -5   0   8-2.79019 28.4499  27
  -5   1 -10 208.787 57.9337  16
  -5   1  -9 81.9136 60.9185  18
  -5   1  -9 170.153 63.4439  16
  -5   1  -8 11345.6 497.103  16
  -5   1  -8 12205.4 579.569  18
  -5   1  -7 30832.2 949.883  18
  -5   1  -7 28342.7 801.987  16
  -5   1  -6 56.1986 49.6680  16
  -5   1  -6 116.368 53.6883  18
  -5   1  -5 102138. 2156.93  28
  -5   1  -4 22343.7 973.745  28
  -5   1  -3 1001.73 174.327  10
  -5   1  -2 265.548 89.1390  10
  -5   1  -2-45.8700 46.6267  11
  -5   1  -1 4296.92 372.920  11
  -5   1  -1 4614.41 361.999  10
  -5   1   0 3320.80 334.498  11
  -5   1   0 3257.28 302.635  10
  -5   1   1 9798.04 605.016  11
  -5   1   1 10112.8 535.790  10
  -5   1   2 37564.5 1249.30  23
  -5   1   3 3354.21 271.109  27
  -5   1   3 3582.73 276.209  25
  -5   1   3 3594.58 422.941  23
  -5   1   3 3699.70 289.252   9
  -5   1   4 2696.29 258.234  27
  -5   1   4 2945.26 275.887   9
  -5   1   4 2722.40 260.253  25
  -5   1   5 950.376 161.716  27
  -5   1   5 979.230 161.351   9
  -5   1   5 922.227 159.709  25
  -5   1   6 332.718 94.8463  27
  -5   1   7 605.773 120.767  27
  -5   1   8 313.539 74.9189  27
  -5   2 -10 8080.37 311.473  16
  -5   2  -9 9482.54 412.945  16
  -5   2  -8 193.663 65.4825  16
  -5   2  -7 1506.93 190.444  16
  -5   2  -7 1026.25 161.288  18
  -5   2  -7 1706.25 204.950   8
  -5   2  -6 1908.42 206.744  16
  -5   2  -6 1735.25 211.256   8
  -5   2  -6 1802.22 213.918  18
  -5   2  -5 1682.00 207.443  18
  -5   2  -5 1670.29 200.000   8
  -5   2  -5 1557.30 182.387  16
  -5   2  -4 47107.4 1518.12  28
  -5   2  -3 61674.9 1426.77  19
  -5   2  -2 2775.39 294.122  10
  -5   2  -2 2245.06 259.593  19
  -5   2  -1 23044.7 826.899  10
  -5   2  -1 21747.7 896.792  11
  -5   2  -1 20553.0 743.382  19
  -5   2   0 16728.2 699.866  10
  -5   2   0 16284.6 785.549  11
  -5   2   1 12.2541 34.6701  11
  -5   2   1-50.5268 50.5263  23
  -5   2   2-126.509 85.1405  23
  -5   2   2 175.532 91.9080  11
  -5   2   3 2555.37 246.236  27
  -5   2   3 2016.89 220.464   9
  -5   2   3 2183.01 220.319  25
  -5   2   4 197.036 82.6349  27
  -5   2   4 131.388 69.0996  25
  -5   2   4 20.3943 54.4412   9
  -5   2   5 2057.48 241.455   9
  -5   2   5 1833.96 224.779  27
  -5   2   6 788.587 144.449  27
  -5   2   6 1093.14 171.052   9
  -5   2   7 223.381 78.1549  27
  -5   3  -9 6307.69 314.134  16
  -5   3  -9 5685.49 262.471   7
  -5   3  -8 2695.83 213.100   7
  -5   3  -8 3044.45 251.924  16
  -5   3  -7 5037.43 309.689   7
  -5   3  -7 5422.09 352.309   8
  -5   3  -7 5333.89 352.799  16
  -5   3  -6 33144.5 817.454   7
  -5   3  -6 31939.8 887.732   8
  -5   3  -6 32801.4 880.765  16
  -5   3  -5 7382.66 384.720   7
  -5   3  -5 6808.84 412.412   8
  -5   3  -5 7566.57 412.732  16
  -5   3  -4 4109.86 313.349   8
  -5   3  -4 4135.02 292.517  16
  -5   3  -4 4119.69 318.964  21
  -5   3  -3 2797.20 321.050  19
  -5   3  -2 369.586 111.664  19
  -5   3  -1 4716.54 380.043  19
  -5   3   1 9170.03 641.321  11
  -5   3   1 8390.80 634.359  23
  -5   3   2 2412.42 223.216  25
  -5   3   2 2286.38 232.735  27
  -5   3   2 2064.19 214.824   9
  -5   3   3 10509.9 516.952  27
  -5   3   3 9751.95 490.589   9
  -5   3   4 214.474 76.7715  27
  -5   3   4 183.249 74.7740   9
  -5   3   5 1513.38 205.311  27
  -5   3   5 1614.86 219.303   9
  -5   3   6 315.030 95.0058  27
  -5   3   6 356.256 94.3910   9
  -5   4  -9 1495.99 135.591  16
  -5   4  -9 1449.43 114.351   7
  -5   4  -8-1.56135 40.6113  16
  -5   4  -8 74.5624 38.7248   7
  -5   4  -7 2355.58 227.717  16
  -5   4  -7 1903.06 185.480   7
  -5   4  -6 8724.20 419.922   7
  -5   4  -6 8050.59 437.273   8
  -5   4  -6 8883.68 462.130  16
  -5   4  -5 24439.1 717.603   7
  -5   4  -5 24352.0 780.194   8
  -5   4  -5 24549.3 767.864  16
  -5   4  -4-26.3371 35.7839  16
  -5   4  -4 93.1863 68.0165   7
  -5   4  -4 106.009 67.8398   8
  -5   4  -3 26142.1 793.387   8
  -5   4  -3 26826.4 825.042  21
  -5   4  -3 26753.3 768.831   7
  -5   4  -2 26306.0 766.952   7
  -5   4  -2 27066.8 823.221  21
  -5   4  -1 747.114 137.789  21
  -5   4   0 877.080 134.079   9
  -5   4   1 146.639 72.3152   9
  -5   4   2 27.5814 44.9592   9
  -5   4   3 6897.06 423.497   9
  -5   4   4 469.352 116.112   9
  -5   4   5-0.61832 46.3475   9
  -5   5  -8 14979.1 455.456  16
  -5   5  -8 14578.2 397.161   7
  -5   5  -7 8764.73 361.460   7
  -5   5  -7 8523.44 402.690  16
  -5   5  -6 104.307 60.7798   8
  -5   5  -6 79.6478 56.9923  16
  -5   5  -6 71.9232 40.1295   7
  -5   5  -5 2836.26 241.700   7
  -5   5  -5 2614.72 251.265  16
  -5   5  -5 2658.30 253.872   8
  -5   5  -4 1457.63 181.107   7
  -5   5  -4 1523.98 194.087   8
  -5   5  -3 5274.49 347.706   7
  -5   5  -3 4481.20 336.656   8
  -5   5  -2 16401.8 660.738  21
  -5   5  -2 17874.6 648.973   7
  -5   5  -2 17314.0 651.288   8
  -5   5  -1 6339.17 413.520  21
  -5   5   0 70.3540 57.7280  21
  -5   5   1 14391.7 581.856   9
  -5   5   2 8375.51 457.406   9
  -5   5   3 117.198 64.9276   9
  -5   5   4 142.582 72.7549   9
  -5   6  -7 7951.45 295.648   7
  -5   6  -7 8202.70 328.717  16
  -5   6  -6 1174.35 132.146   7
  -5   6  -6 1180.58 143.928  16
  -5   6  -5 17249.8 585.442  16
  -5   6  -5 18336.7 601.566   8
  -5   6  -5 17674.4 553.375   7
  -5   6  -4 15309.2 546.337   7
  -5   6  -4 14317.1 560.277   8
  -5   6  -3 88.6971 58.0002   7
  -5   6  -3 113.073 61.3331   8
  -5   6  -2 314.362 88.8901   7
  -5   6  -2 327.316 98.6351   8
  -5   6  -1 251.599 82.8493   7
  -5   6  -1 114.066 65.4242  21
  -5   6  -1 164.402 63.8453   8
  -5   6   0 617.525 132.932  21
  -5   6   0 823.236 137.381   8
  -5   6   1 1775.17 217.215  21
  -5   6   1 1809.20 204.975   9
  -5   6   2 2584.28 252.091   9
  -5   6   2 2391.95 244.522  21
  -5   6   3 37.2509 47.7916   9
  -5   6   3 52.0003 34.3565  21
  -5   6   4 90.8292 41.3287  21
  -5   6   6 231.990 59.8681  20
  -5   7  -6 719.599 85.3774   7
  -5   7  -5 901.069 110.676   7
  -5   7  -4 8424.77 367.152   7
  -5   7  -4 8379.63 374.339   8
  -5   7  -3 13619.1 497.032   7
  -5   7  -3 13553.1 498.289   8
  -5   7  -2 364.388 85.1947   7
  -5   7  -2 372.653 89.6518   8
  -5   7  -1 16171.2 585.229   7
  -5   7   0 4924.42 331.178  21
  -5   7   0 5417.28 347.587   7
  -5   7   1 298.564 86.6437  21
  -5   7   2 56.8619 41.0798  21
  -5   7   3 71.8894 36.6528  20
  -5   7   4 1092.72 125.945  20
  -5   7   5 1376.93 124.997  20
  -5   8  -4 887.355 97.6856   7
  -5   8  -3 701.940 98.1321   7
  -5   8  -2 283.955 64.8787   7
  -5   8  -1 112.890 46.4972   7
  -5   8   0 4949.89 284.847   7
  -5   8   1 1037.25 131.341   7
  -5   8   2 255.274 67.8729   7
  -5   9  -1 32.8682 22.2856   7
  -5   9   0 673.181 80.0799   7
  -4 -10  -6 62.5170 33.6678   4
  -4 -10  -5 55.0844 31.9578   4
  -4 -10  -4 586.303 94.1727   4
  -4 -10   1 395.767 65.0747  26
  -4  -9  -8 279.761 52.4050   4
  -4  -9  -7 91.6276 41.1049   4
  -4  -9  -6 4671.27 287.824   4
  -4  -9  -5 2152.03 206.132   4
  -4  -9  -4 967.087 140.664   4
  -4  -9  -3 3599.90 273.226   4
  -4  -9  -2 484.573 103.639   4
  -4  -9   1 6791.14 348.013  26
  -4  -9   2 1691.58 165.503  26
  -4  -9   3 7772.78 324.819  26
  -4  -9   4 1989.09 137.754  26
  -4  -8  -9 33.5221 19.6111  15
  -4  -8  -8 1322.13 139.991   4
  -4  -8  -8 1681.09 160.151  15
  -4  -8  -7 1723.78 184.831   4
  -4  -8  -7 1773.02 182.807  15
  -4  -8  -6 3172.46 264.203   4
  -4  -8  -6 3010.29 244.191  15
  -4  -8  -5 16109.6 613.878   4
  -4  -8  -5 15721.3 557.615  15
  -4  -8  -4 953.690 153.024   4
  -4  -8  -3 10362.2 502.055   4
  -4  -8  -2 22504.0 746.965   4
  -4  -8   2 1594.99 192.116  26
  -4  -8   3 1305.28 167.168  26
  -4  -8   4 7551.69 360.403  26
  -4  -8   5 720.690 93.6568  26
  -4  -7  -9 299.750 72.5076  17
  -4  -7  -8 3372.38 251.492   4
  -4  -7  -8 3700.00 278.042  17
  -4  -7  -7 4999.64 342.543  17
  -4  -7  -7 5478.74 351.514   4
  -4  -7  -6 11684.4 531.501  17
  -4  -7  -6 11867.8 541.562   4
  -4  -7  -5 1319.77 185.642   4
  -4  -7  -4 3256.89 291.170   4
  -4  -7  -4 2573.22 247.978  15
  -4  -7  -3 140.435 62.3225   4
  -4  -7  -2 5278.88 369.145   4
  -4  -7  -1 23353.2 780.514   4
  -4  -7   3 1843.35 220.453  26
  -4  -7   4 2075.26 221.726  26
  -4  -7   5 444.938 97.3978  26
  -4  -7   6-0.57200 18.9506  26
  -4  -6 -10-0.81353 27.5129  17
  -4  -6  -9 1957.41 198.736  17
  -4  -6  -8 80.7336 63.7692  17
  -4  -6  -7 2007.34 223.932   4
  -4  -6  -7 1877.97 222.218  17
  -4  -6  -6 10309.4 513.416   4
  -4  -6  -6 10912.3 518.699  17
  -4  -6  -5 12029.7 555.165   4
  -4  -6  -5 12599.0 555.875  17
  -4  -6  -4 65101.4 1251.19  17
  -4  -6  -4 65530.0 1287.24   4
  -4  -6  -3 38557.4 986.855   4
  -4  -6   3 6831.00 437.164  26
  -4  -6   4 333.094 105.885  26
  -4  -6   5 5081.55 351.218  26
  -4  -6   6 1503.48 167.749  26
  -4  -5 -10 1718.93 172.359  18
  -4  -5 -10 1738.77 173.638  17
  -4  -5  -9 7277.63 401.079  17
  -4  -5  -8 1417.00 190.549  17
  -4  -5  -7 5391.08 363.817  17
  -4  -5  -6 1106.86 169.653   4
  -4  -5  -6 1273.23 177.299  17
  -4  -5  -5 144.815 68.5023  17
  -4  -5   3 112.228 62.5171  26
  -4  -5   4 6.12519 44.2611  26
  -4  -5   5 6122.49 408.815  26
  -4  -5   6 924.207 150.105  26
  -4  -5   7 38.3700 29.6096  26
  -4  -4 -11 1239.71 130.602  18
  -4  -4 -11 1182.38 116.629  17
  -4  -4 -10 866.266 136.914  18
  -4  -4 -10 709.958 116.730  17
  -4  -4  -9 677.073 126.005  17
  -4  -4  -8 4786.79 342.656  17
  -4  -4  -7 494.595 110.796  17
  -4  -4  -6 34359.9 864.768  17
  -4  -4  -1 95.3256 64.1861  24
  -4  -4   0 32970.5 1083.54  24
  -4  -4   1 31582.4 1142.94  24
  -4  -4   2 1972.56 301.942  24
  -4  -4   3 18079.5 669.815  26
  -4  -4   4 6491.45 389.235  25
  -4  -4   4 5770.72 395.731  26
  -4  -4   5 302.256 101.937  26
  -4  -4   6 2089.57 236.007  26
  -4  -4   7 346.914 87.3622  26
  -4  -4   8-52.1346 25.6308  27
  -4  -3 -11 2725.78 208.959  18
  -4  -3 -11 2508.10 172.870  17
  -4  -3 -10 1403.27 190.013  18
  -4  -3 -10 1464.27 167.503  17
  -4  -3  -9 635.323 126.605  17
  -4  -3  -8 7862.49 427.832  17
  -4  -3  -7 111.753 46.3628  17
  -4  -3  -1 11086.8 506.870  24
  -4  -3   0 13930.4 638.165  24
  -4  -3   1 19224.7 813.808  24
  -4  -3   2 10277.4 642.529  24
  -4  -3   3 2598.12 348.184  24
  -4  -3   4 8170.77 452.049  26
  -4  -3   4 8699.24 451.637  25
  -4  -3   5 2356.38 235.409  25
  -4  -3   5 2088.76 239.712  26
  -4  -3   6 4470.18 350.741  26
  -4  -3   7 1674.71 202.158  26
  -4  -3   8 100.015 42.5093  27
  -4  -2 -11 67.4106 43.1815  18
  -4  -2 -10 0.90219 47.2239  18
  -4  -2 -10 74.5263 41.3276  17
  -4  -2  -9 5501.81 350.914  17
  -4  -2  -8 14316.7 570.679  17
  -4  -2  -8 13584.5 526.062  16
  -4  -2  -7 25316.0 728.263  17
  -4  -2  -7 26546.5 723.198  16
  -4  -2  -2 12919.2 441.169  24
  -4  -2  -1 101215. 1411.92  24
  -4  -2   0 108.190 60.7030  24
  -4  -2   1 57437.8 1293.96  24
  -4  -2   2 12523.6 657.438  24
  -4  -2   3 10179.7 637.891  24
  -4  -2   4 368.228 94.5405  25
  -4  -2   4 408.339 103.295  26
  -4  -2   5 1197.52 170.972  25
  -4  -2   5 1120.37 172.724  26
  -4  -2   6 253.207 79.3214  25
  -4  -2   6 316.393 103.125  26
  -4  -2   8 78.5032 39.3650  27
  -4  -1 -11 149.058 55.6102  18
  -4  -1 -10 389.027 101.542  18
  -4  -1  -9 3442.00 260.527  16
  -4  -1  -8 2888.21 246.418  16
  -4  -1  -7 4768.24 307.992  16
  -4  -1  -6 26105.0 953.042  28
  -4  -1  -5 13398.5 632.647  28
  -4  -1  -5 10669.5 515.852  10
  -4  -1  -4 94790.5 1495.17  10
  -4  -1  -4 102309. 1643.25  28
  -4  -1  -1 43910.1 898.977  24
  -4  -1   0 11129.4 491.674  24
  -4  -1   1 478.402 112.038  24
  -4  -1   2 44405.5 1161.00  24
  -4  -1   3 413.359 127.577  24
  -4  -1   4 2598.56 327.391  24
  -4  -1   5 7539.61 423.295  25
  -4  -1   5 7172.78 429.352  26
  -4  -1   6-17.0812 37.5427  25
  -4  -1   6 78.1916 60.3911  26
  -4  -1   7-26.0940 48.4281  27
  -4  -1   8-9.37891 31.9206  27
  -4   0 -11 138.347 42.9302  18
  -4   0 -10 7491.51 404.370  18
  -4   0  -9 13943.3 647.159  18
  -4   0  -9 14245.2 531.764  16
  -4   0  -8 231.722 75.3434  16
  -4   0  -7 70222.8 1210.55  16
  -4   0  -6 1228.80 215.504  28
  -4   0  -5 480.885 130.285  28
  -4   0  -4 12995.9 564.009  10
  -4   0  -4 13277.5 635.044  28
  -4   0  -3 46653.5 1139.39  28
  -4   0  -3 47914.3 1046.95  10
  -4   0  -2 7104.88 366.700  11
  -4   0   0 142362. 1580.06  23
  -4   0   0 138226. 1771.76  24
  -4   0   1 18605.5 681.546  24
  -4   0   1 17473.5 630.927  23
  -4   0   2 11417.4 576.720  24
  -4   0   2 11805.8 567.696  23
  -4   0   3 489.508 133.620  24
  -4   0   4 668.455 164.870  24
  -4   0   5 4161.86 313.537  25
  -4   0   6 6746.79 413.206  25
  -4   0   7-7.03119 39.4002  27
  -4   0   8 587.583 113.710  27
  -4   1 -10 1727.92 161.269  16
  -4   1  -9 803.999 143.626  18
  -4   1  -9 653.504 118.478  16
  -4   1  -9 725.289 119.464   7
  -4   1  -8 4284.13 354.014  18
  -4   1  -8 4014.57 298.812  16
  -4   1  -8 4190.96 292.179   7
  -4   1  -7 103.602 40.9004   7
  -4   1  -7 178.061 70.6622  18
  -4   1  -7 89.8201 62.4308  16
  -4   1  -6 56550.0 1612.39  28
  -4   1  -5 73980.8 1724.22  28
  -4   1  -4 2982.60 324.503  28
  -4   1  -3 19897.8 806.947  28
  -4   1  -3 20463.4 704.433  10
  -4   1  -3 20395.1 704.020  19
  -4   1  -2 10059.9 480.809  10
  -4   1  -2 9716.97 453.888  19
  -4   1  -2 9445.26 470.236  11
  -4   1  -2 8828.09 515.342  28
  -4   1  -1 697.197 116.367  23
  -4   1  -1 807.939 136.440  10
  -4   1  -1 879.352 143.329  11
  -4   1  -1 783.920 120.840  19
  -4   1   0 17305.6 658.055  11
  -4   1   0 17333.0 594.092  10
  -4   1   0 16318.8 611.773  23
  -4   1   1 2289.65 219.168  10
  -4   1   1 2615.25 263.774  23
  -4   1   2 333.532 108.293  23
  -4   1   2 444.083 116.094  24
  -4   1   3 17706.4 783.987  24
  -4   1   3 16592.8 787.925  23
  -4   1   4 9839.50 626.797  24
  -4   1   4 9162.35 635.705  23
  -4   1   5 661.039 128.298  25
  -4   1   5 675.713 131.006  27
  -4   1   6 758.577 146.559  27
  -4   1   6 1101.87 171.786  25
  -4   1   7 3.21086 33.2795  27
  -4   1   8-12.2854 36.0484  27
  -4   2 -10 2330.07 175.761  16
  -4   2 -10 2149.51 166.109   7
  -4   2  -9 1468.67 171.732  16
  -4   2  -9 1313.77 153.992   7
  -4   2  -8 10160.5 477.871  16
  -4   2  -8 10353.0 466.723   7
  -4   2  -7 2882.85 256.066  16
  -4   2  -7 3105.22 253.417   7
  -4   2  -6 148.702 51.3580   7
  -4   2  -6 134.514 66.5347   8
  -4   2  -6 156.045 57.6113  16
  -4   2  -5 7562.35 603.061  28
  -4   2  -5 8551.82 540.986  19
  -4   2  -4 7918.97 491.118  19
  -4   2  -4 7601.93 567.698  28
  -4   2  -3 28900.5 883.520  19
  -4   2  -3 29792.1 1061.33  28
  -4   2  -2 114486. 1999.59  28
  -4   2  -2 120079. 1737.43  10
  -4   2  -2 117351. 1675.93  19
  -4   2  -1 25254.9 730.672  19
  -4   2  -1 26991.0 792.942  10
  -4   2  -1 25895.1 861.975  11
  -4   2  -1 24867.8 827.953  23
  -4   2   0 15472.0 657.862  23
  -4   2   0 16651.9 607.523  10
  -4   2   0 16741.1 696.154  11
  -4   2   0 15281.8 535.498  19
  -4   2   1 11364.6 589.562  11
  -4   2   1 12141.7 508.644  10
  -4   2   1 11420.3 600.614  23
  -4   2   2 2480.20 290.072  11
  -4   2   2 2252.82 286.214  23
  -4   2   3 9254.32 596.692  11
  -4   2   3 8627.85 597.619  23
  -4   2   4 10293.9 485.040   9
  -4   2   4 11552.7 704.074  11
  -4   2   4 11471.6 505.873  27
  -4   2   4 10670.1 474.638  25
  -4   2   5 62.6479 52.1190  27
  -4   2   5 95.9211 48.7877  25
  -4   2   5 34.3227 51.1899   9
  -4   2   6 1101.47 172.077  27
  -4   2   7 1780.10 217.022  27
  -4   2   8 28.1790 34.2875  27
  -4   3 -10 224.197 51.3385   7
  -4   3 -10 314.158 57.3587  16
  -4   3  -9 1162.67 143.415  16
  -4   3  -9 1144.67 138.283   7
  -4   3  -8 11900.5 510.112  16
  -4   3  -8 12532.3 506.118   7
  -4   3  -7 25932.6 751.029   7
  -4   3  -7 25589.5 774.963  16
  -4   3  -6 39.6455 41.8220   7
  -4   3  -6 33.1247 56.0875   8
  -4   3  -6 21.7995 34.0739  16
  -4   3  -5 23015.0 691.134   7
  -4   3  -5 24632.2 726.106  16
  -4   3  -5 23086.5 747.966   8
  -4   3  -4 19037.7 810.910  19
  -4   3  -4 20751.3 1007.49  28
  -4   3  -3 3400.77 390.503  28
  -4   3  -3 3586.32 335.698  19
  -4   3  -2 15162.9 781.740  28
  -4   3  -2 15426.7 664.016  19
  -4   3  -1 18276.7 800.378  23
  -4   3  -1 17438.7 676.876  19
  -4   3   0 887.480 175.034  11
  -4   3   0 854.959 176.723  23
  -4   3   0 758.814 132.557  19
  -4   3   1 42217.0 1272.63  23
  -4   3   1 44721.0 1258.07  11
  -4   3   2 9752.97 608.550  11
  -4   3   2 9945.47 651.923  23
  -4   3   3 67.8410 59.9600  11
  -4   3   3-51.1584 57.3237  23
  -4   3   4 767.277 139.782  27
  -4   3   4 921.550 152.190   9
  -4   3   5 10885.4 548.526   9
  -4   3   5 10963.6 538.253  27
  -4   3   6 233.942 90.8158  27
  -4   3   6 273.788 93.1604   9
  -4   3   7 948.758 160.111  27
  -4   4  -9 3264.74 217.260  16
  -4   4  -9 3377.74 211.489   7
  -4   4  -8 1814.62 192.002  16
  -4   4  -8 1835.01 182.638   7
  -4   4  -7 559.796 107.970   7
  -4   4  -7 571.715 116.813  16
  -4   4  -6 8613.51 435.695   7
  -4   4  -6 8641.95 464.972   8
  -4   4  -6 9154.36 472.447  16
  -4   4  -5 13996.3 560.563   7
  -4   4  -5 14240.6 602.175   8
  -4   4  -5 15398.9 603.470  16
  -4   4  -4 51659.9 1056.16   7
  -4   4  -4 49911.7 1097.29   8
  -4   4  -4 53140.4 1078.63  16
  -4   4  -3 19626.5 977.506  28
  -4   4  -3 19332.6 857.125  19
  -4   4  -2 289.358 116.620  28
  -4   4  -2-271.259 102.398  19
  -4   4  -1 28886.1 1118.14  23
  -4   4  -1 26520.8 941.962  19
  -4   4   0 17162.7 728.057  19
  -4   4   0 19086.2 914.920  23
  -4   4   1 296.584 120.681  23
  -4   4   2 9055.16 667.391  23
  -4   4   3 1742.36 208.306  27
  -4   4   3 2642.14 248.149   9
  -4   4   4 418.750 108.784  27
  -4   4   4 392.191 110.464   9
  -4   4   5 3242.25 302.383  27
  -4   4   5 3344.75 308.148   9
  -4   4   6 287.818 101.152  27
  -4   5  -9 8559.57 290.365  16
  -4   5  -9 8504.01 274.389   7
  -4   5  -8 1592.14 165.802  16
  -4   5  -8 1382.15 142.327   7
  -4   5  -7 14381.2 509.534   7
  -4   5  -7 13825.3 544.542  16
  -4   5  -6 8533.51 420.233   7
  -4   5  -6 8610.94 459.450  16
  -4   5  -5 392.489 97.4789   7
  -4   5  -5 422.231 102.517  16
  -4   5  -5 293.800 102.200   8
  -4   5  -4 1683.75 195.879   7
  -4   5  -4 1817.87 213.619  16
  -4   5  -4 1985.75 224.455   8
  -4   5  -3 12505.4 526.968   7
  -4   5  -3 12873.7 562.525   8
  -4   5  -2 81.0053 51.3410  21
  -4   5  -2 5.40971 37.4419   7
  -4   5  -2-29.1102 37.9906   8
  -4   5  -1 12881.3 561.965  21
  -4   5   0 21686.3 725.293  21
  -4   5   1 151.757 56.3855   9
  -4   5   2 786.505 139.433   9
  -4   5   3 272.346 89.2793   9
  -4   5   4 456.744 119.361   9
  -4   5   5 742.586 140.259   9
  -4   6  -8 109.821 36.0571   7
  -4   6  -8 41.9169 27.5311  16
  -4   6  -7 1463.95 144.058   7
  -4   6  -7 1318.79 151.806  16
  -4   6  -6 18716.9 572.589   7
  -4   6  -6 17392.7 611.614  16
  -4   6  -5 30828.7 780.661   7
  -4   6  -5 30827.0 823.104   8
  -4   6  -5 30011.3 843.177  16
  -4   6  -4 324.743 88.7358   7
  -4   6  -4 381.800 102.337   8
  -4   6  -4 216.075 81.7964  16
  -4   6  -3 30300.4 822.848   7
  -4   6  -3 30990.3 866.351   8
  -4   6  -2 5606.12 359.265   7
  -4   6  -2 5840.40 372.440   8
  -4   6  -1 490.480 114.582  21
  -4   6  -1 463.600 104.222   8
  -4   6   0 2487.27 255.798  21
  -4   6   1 4276.60 310.824  20
  -4   6   1 4774.58 351.740  21
  -4   6   1 4668.86 329.054   9
  -4   6   2 5166.48 361.865  21
  -4   6   2 5673.16 374.617   9
  -4   6   3 9589.88 482.944  21
  -4   6   3 9226.52 488.999   9
  -4   7  -7 3039.49 168.862   7
  -4   7  -7 3031.42 178.465  16
  -4   7  -6 35.4260 23.5740   7
  -4   7  -6 64.9503 31.4164  16
  -4   7  -5 1480.23 155.664   7
  -4   7  -5 1487.03 168.513  16
  -4   7  -4 525.628 102.196   7
  -4   7  -4 633.771 117.071  16
  -4   7  -3 973.796 141.362   7
  -4   7  -3 976.794 146.407   8
  -4   7  -2 25545.8 749.033   7
  -4   7  -2 24954.4 724.847   8
  -4   7  -1 7145.84 409.217   7
  -4   7   0 1270.35 178.252  21
  -4   7   1 4808.11 337.523  21
  -4   7   1 5142.33 330.450  20
  -4   7   2 10.8918 29.6602  20
  -4   7   3 1008.92 154.171  20
  -4   7   4 2060.65 209.384  20
  -4   7   5 38.3404 31.6416  20
  -4   7   6-0.34061 26.2492  20
  -4   8  -5 11192.0 353.332   7
  -4   8  -4 6058.30 289.869   7
  -4   8  -3 351.151 77.6162   7
  -4   8  -2 3634.79 259.326   7
  -4   8  -1 901.431 135.111   7
  -4   8   0 1893.62 200.270   7
  -4   8   2 3586.74 250.732  20
  -4   8   3 27.9168 34.0757  20
  -4   8   4 25.3556 32.4930  20
  -4   8   5 1017.91 113.244  20
  -4   9  -4 10745.9 291.637   7
  -4   9  -3 4353.83 213.580   7
  -4   9  -2 154.901 47.2226   7
  -4   9  -1 2294.09 181.278   7
  -4   9   0 5346.38 278.985   7
  -4   9   1 571.892 94.9965   7
  -4   9   2 886.668 96.1242  20
  -4   9   2 979.083 118.004   7
  -4   9   3 17.2052 22.1320   7
  -4   9   3-10.3667 21.9268  20
  -3 -10  -7 52.7673 25.1688   4
  -3 -10  -6 23.2003 25.5335   4
  -3 -10  -5 125.314 47.5088   4
  -3 -10  -4 1157.16 136.043   4
  -3 -10  -3 560.894 97.4695   4
  -3 -10   2 136.710 41.8060  26
  -3 -10   3 310.676 55.7817  26
  -3  -9  -8 3352.03 192.587   4
  -3  -9  -7 4354.37 265.939   4
  -3  -9  -6 145.074 61.7474   4
  -3  -9  -5 4496.30 306.919   4
  -3  -9  -4 4503.04 310.931   4
  -3  -9  -3 106.185 50.2323   4
  -3  -9  -2 661.280 121.117   4
  -3  -9  -1 21470.6 661.296   4
  -3  -9   3 621.026 110.044  26
  -3  -9   4 3031.20 202.362  26
  -3  -8  -9 473.980 69.8561  15
  -3  -8  -9 477.224 69.2246   4
  -3  -8  -8 1012.33 130.518   4
  -3  -8  -7 2962.74 252.719   4
  -3  -8  -6 5189.52 352.344   4
  -3  -8  -5 515.493 116.043   4
  -3  -8  -4 5359.22 363.965   4
  -3  -8  -3 19949.4 700.516   4
  -3  -8  -2 1250.79 175.389   4
  -3  -8  -1 18955.4 676.602   4
  -3  -8   4 124.968 60.0472  26
  -3  -8   5 13638.7 464.094  26
  -3  -7  -9 462.496 81.3084   4
  -3  -7  -9 603.464 103.034  17
  -3  -7  -8 3737.84 277.713   4
  -3  -7  -8 4050.27 291.844  17
  -3  -7  -7 4016.63 305.728  17
  -3  -7  -7 4542.02 334.839   4
  -3  -7  -6 15092.7 618.980   4
  -3  -7  -6 14310.2 582.381  17
  -3  -7  -5 17486.7 667.096   4
  -3  -7  -5 16806.1 626.286  17
  -3  -7  -4 22428.2 751.781   4
  -3  -7  -3 7335.75 428.004   4
  -3  -7  -2 13086.7 570.175   4
  -3  -7  -1 9802.77 490.968   4
  -3  -7   0 53902.9 1128.21   4
  -3  -7   4 1095.27 169.419  26
  -3  -7   5 11.0956 34.6597  26
  -3  -7   6 2993.28 220.399  26
  -3  -6 -10 698.099 103.977  17
  -3  -6  -9 405.382 92.1451  17
  -3  -6  -8 441.821 105.153   4
  -3  -6  -8 374.239 99.6678  17
  -3  -6  -7 476.438 113.499   4
  -3  -6  -7 271.927 87.3360  17
  -3  -6  -6 8444.98 467.756   4
  -3  -6  -6 8479.44 450.705  17
  -3  -6  -5 28662.3 838.978   4
  -3  -6  -5 27843.9 793.851  17
  -3  -6   4 14120.8 635.827  26
  -3  -6   5 419.311 109.636  26
  -3  -6   6 576.498 117.650  26
  -3  -6   7 469.095 82.6042  26
  -3  -5 -11 605.353 84.1903  17
  -3  -5 -10 2023.22 188.673  17
  -3  -5  -9 256.494 86.4827  17
  -3  -5  -8 6328.74 395.314  17
  -3  -5  -7 4154.69 328.615   4
  -3  -5  -7 3826.70 303.762  17
  -3  -5  -6 118.023 59.1929  17
  -3  -5   4 569.795 130.408  26
  -3  -5   5 4848.32 375.953  26
  -3  -5   6 30.3005 40.0574  26
  -3  -5   7 4013.31 280.801  26
  -3  -4 -11 242.656 64.7060  18
  -3  -4 -11 306.197 64.6828  17
  -3  -4 -10 230.520 68.7500  17
  -3  -4  -9 36.1888 43.6041  17
  -3  -4  -8 2584.27 252.340  17
  -3  -4  -7 18328.3 648.702  17
  -3  -4   4 13458.1 586.151  26
  -3  -4   5 4002.54 332.594  26
  -3  -4   6-30.6378 50.9725  26
  -3  -4   7 13446.4 562.769  26
  -3  -3 -11 1210.82 146.479  18
  -3  -3 -11 1268.52 133.174  17
  -3  -3 -10 3104.00 246.563  17
  -3  -3  -9 6476.96 388.791  17
  -3  -3  -8 1322.80 179.020  17
  -3  -3  -7 264.226 77.9893  17
  -3  -3   4 96.0042 64.6635  24
  -3  -3   5 15618.5 634.276  26
  -3  -3   6 3649.95 318.685  26
  -3  -3   7 246.335 83.5238  26
  -3  -2 -11 266.455 73.5715  18
  -3  -2 -11 309.681 67.3441  17
  -3  -2 -10 3517.95 265.319  17
  -3  -2  -9 5349.98 351.379  17
  -3  -2  -8 15243.9 592.334  17
  -3  -2  -8 15125.8 564.257  22
  -3  -2  -4 47367.8 902.106  28
  -3  -2  -1 13420.3 432.050  24
  -3  -2   0 205421. 1943.16  24
  -3  -2   1 7873.37 425.303  24
  -3  -2   2 9369.91 510.110  24
  -3  -2   3 28333.2 974.451  24
  -3  -2   4 991.112 199.490  24
  -3  -2   5 135.195 54.3744  26
  -3  -2   6 1955.33 229.209  26
  -3  -2   7 96.7767 65.9980  26
  -3  -1 -11 2033.28 181.386  18
  -3  -1 -11 2571.41 177.818  17
  -3  -1 -10 333.664 83.6500  17
  -3  -1  -9 17302.4 625.783  17
  -3  -1  -9 16378.0 581.008  22
  -3  -1  -8 3005.35 251.587  22
  -3  -1  -8 2754.35 229.110   7
  -3  -1  -5 59715.4 1223.75  28
  -3  -1  -4 5564.38 315.300  10
  -3  -1  -4 5747.99 346.793  28
  -3  -1  -3 62760.4 1072.85  28
  -3  -1  -1 45370.1 739.330  24
  -3  -1  -1 43499.3 450.328  23
  -3  -1   0 13811.2 465.411  24
  -3  -1   1 16270.4 349.596  14
  -3  -1   1 15396.8 547.818  24
  -3  -1   2 69.3752 36.9474  14
  -3  -1   2 24.2585 46.5834  24
  -3  -1   3 26441.8 734.659  14
  -3  -1   3 25847.6 862.872  24
  -3  -1   4 60677.4 1450.75  24
  -3  -1   5 239.963 102.655  24
  -3  -1   6 2770.83 266.680  26
  -3  -1   8 821.272 138.940  27
  -3   0 -11 713.046 92.8684  18
  -3   0 -10 1831.98 205.692  18
  -3   0  -9 195.511 71.5810  22
  -3   0  -9 54.7164 37.5250   7
  -3   0  -9 165.962 61.2188  17
  -3   0  -8 19951.2 630.199  22
  -3   0  -8 20102.4 635.438  16
  -3   0  -8 19483.2 627.911   7
  -3   0  -7 31590.7 771.245  16
  -3   0  -6 205.221 89.8214  28
  -3   0  -5 1846.16 237.775  28
  -3   0  -4 1987.56 222.109  28
  -3   0  -4 2046.43 201.822  10
  -3   0  -3 28.4109 30.5248  28
  -3   0  -3 15.8194 28.8590  10
  -3   0  -2 103905. 1156.11  11
  -3   0  -2 100430. 1406.51  28
  -3   0  -1 60686.5 895.663  24
  -3   0  -1 59976.8 755.031  23
  -3   0   0 1655.59 160.572  24
  -3   0   1 57160.8 1013.11  24
  -3   0   2 33791.9 723.150  14
  -3   0   2 31013.5 825.021  24
  -3   0   3 1026.00 152.014  14
  -3   0   3 1334.70 186.572  24
  -3   0   4 229.365 87.2028  24
  -3   0   4 33.1521 44.8687  14
  -3   0   5 4183.73 392.884  24
  -3   0   6 260.304 81.1326  25
  -3   0   7 5737.17 379.788  27
  -3   0   8 467.923 106.144  27
  -3   1  -9 507.751 110.180   7
  -3   1  -9 636.611 110.737  16
  -3   1  -8 2131.53 210.716  16
  -3   1  -8 1772.22 199.386   7
  -3   1  -7 23121.1 685.504  16
  -3   1  -7 22617.7 668.990   7
  -3   1  -4 113069. 1575.14  19
  -3   1  -3 26861.9 832.752  28
  -3   1  -3 26323.0 720.772  10
  -3   1  -3 26627.3 709.732  19
  -3   1  -2 28029.6 802.974  28
  -3   1  -2 29012.7 707.003  10
  -3   1  -2 29002.3 689.016  19
  -3   1  -1 12023.9 496.144  28
  -3   1  -1 11315.9 417.588  23
  -3   1  -1 11817.7 446.980  11
  -3   1  -1 11168.3 421.403  10
  -3   1  -1 11829.0 404.136  19
  -3   1   0 12567.7 427.688  10
  -3   1   0 12889.0 451.690  23
  -3   1   0 13443.7 393.141  19
  -3   1   1 41444.5 893.079  24
  -3   1   1 42629.1 889.697  23
  -3   1   2 115435. 1602.02  24
  -3   1   2 113414. 1606.82  23
  -3   1   3 2158.56 238.553  24
  -3   1   3 1788.90 227.277  23
  -3   1   4 3698.38 341.834  24
  -3   1   4 3191.12 334.705  23
  -3   1   5 8317.07 550.040  24
  -3   1   5 8329.50 595.363  23
  -3   1   6 51.2642 30.7392  27
  -3   1   6 56.2655 46.8686  25
  -3   1   7 1999.94 225.394  27
  -3   1   8-28.6851 38.8901  27
  -3   2 -10 3975.73 252.217   7
  -3   2  -9 9029.68 420.052  16
  -3   2  -9 8964.57 435.242   7
  -3   2  -8 207.492 77.5717   7
  -3   2  -8 76.1292 51.6866  16
  -3   2  -7 2498.21 237.524   7
  -3   2  -7 2799.78 249.072  16
  -3   2  -5 1624.43 218.414  19
  -3   2  -4 51366.2 1133.08  19
  -3   2  -3 82149.2 1629.29  28
  -3   2  -3 84724.4 1378.69  19
  -3   2  -2 2366.40 259.864  28
  -3   2  -2 2319.34 214.977  19
  -3   2  -1 96600.4 1556.73  28
  -3   2  -1 99932.9 1481.16  23
  -3   2  -1 101017. 1529.89  11
  -3   2  -1 99641.3 1345.30  10
  -3   2  -1 100096. 1326.04  19
  -3   2   0 30469.9 820.909  11
  -3   2   0 29022.5 687.780  10
  -3   2   0 29983.6 673.613  19
  -3   2   0 28856.1 786.289  23
  -3   2   1 134.297 42.3701  10
  -3   2   1 138.134 58.4405  23
  -3   2   1 172.722 66.3099  11
  -3   2   1 149.763 44.8201  19
  -3   2   2 22948.1 789.003  23
  -3   2   2 23376.7 769.254  11
  -3   2   3 34473.6 1056.12  23
  -3   2   4 52.6035 58.2094  23
  -3   2   5 11610.1 502.611  27
  -3   2   5 11296.0 486.776  25
  -3   2   5 12465.5 757.049  23
  -3   2   6 2904.03 266.424  27
  -3   2   7 583.551 125.935  27
  -3   2   8 302.748 86.7348  27
  -3   3 -10 2680.35 187.138   7
  -3   3  -9 4103.50 274.145  16
  -3   3  -9 3751.60 269.455   7
  -3   3  -8 8337.22 430.781  16
  -3   3  -8 8349.56 438.086   7
  -3   3  -7 14691.5 583.240   7
  -3   3  -7 14908.2 585.007  16
  -3   3  -6 42334.4 974.157   7
  -3   3  -6 44364.1 1033.46   8
  -3   3  -6 43577.8 975.360  16
  -3   3  -5 18118.5 775.142  19
  -3   3  -4 623.089 137.850  19
  -3   3  -3 9168.96 594.640  28
  -3   3  -3 9458.77 509.310  19
  -3   3  -2 18710.0 786.799  28
  -3   3  -2 18639.9 687.497  19
  -3   3  -1 1019.27 174.206  28
  -3   3  -1 951.942 169.296  23
  -3   3  -1 1221.80 169.021  19
  -3   3   0 94435.6 1638.51  23
  -3   3   0 96848.6 1429.39  19
  -3   3   1 24112.7 672.891  19
  -3   3   1 27080.8 872.162  11
  -3   3   1 26497.8 894.075  23
  -3   3   2 2731.20 286.408  11
  -3   3   2 2563.13 294.679  23
  -3   3   3 27921.7 1023.50  23
  -3   3   3 27918.1 949.410  11
  -3   3   4 926.702 182.308  11
  -3   3   4 418.412 142.613  23
  -3   3   5 444.755 102.924  27
  -3   3   5 316.980 94.8559   9
  -3   3   6 11132.4 531.653  27
  -3   3   6 12427.7 603.970   9
  -3   3   7 31.8588 35.2797  27
  -3   3   8 404.886 98.6207  27
  -3   4 -10 754.687 82.8414   7
  -3   4  -9 2349.21 191.020  16
  -3   4  -9 2658.54 204.337   7
  -3   4  -8 381.516 94.3759  16
  -3   4  -8 338.997 80.9355   7
  -3   4  -7 1412.28 182.590   7
  -3   4  -7 1250.77 174.743  16
  -3   4  -6 14234.5 573.728   7
  -3   4  -6 13908.9 576.613  16
  -3   4  -5 42900.0 982.201   7
  -3   4  -5 43586.0 1025.97   8
  -3   4  -4 1498.24 277.312  28
  -3   4  -4 1340.35 215.833  19
  -3   4  -3 34895.1 1235.96  28
  -3   4  -3 34302.3 1081.80  19
  -3   4  -2 52083.6 1403.85  28
  -3   4  -2 54287.8 1324.55  19
  -3   4  -1 122.130 61.2333  28
  -3   4  -1 83.6864 55.0810  23
  -3   4  -1 223.024 84.5716  19
  -3   4   0 3276.62 308.567  19
  -3   4   0 3469.93 358.797  23
  -3   4   1 3880.10 387.044  23
  -3   4   1 3639.00 312.195  19
  -3   4   2-39.1616 49.4980  23
  -3   4   3 10110.8 675.633  23
  -3   4   3 9853.24 610.592  11
  -3   4   4 11374.9 516.394  27
  -3   4   4 10905.6 506.606   9
  -3   4   5 201.891 86.0223  27
  -3   4   5 180.152 73.0315   9
  -3   4   6 8558.85 478.489  27
  -3   5  -9 369.941 66.5354  16
  -3   5  -9 588.600 83.1476   7
  -3   5  -8 14966.3 516.314  16
  -3   5  -8 15617.6 510.412   7
  -3   5  -7 24817.0 705.219   7
  -3   5  -7 21963.1 705.177  16
  -3   5  -6 76.0128 49.1334   7
  -3   5  -6 46.5626 41.4250  16
  -3   5  -5 19602.3 665.088   7
  -3   5  -5 19022.8 690.009   8
  -3   5  -4 202.584 77.9438   7
  -3   5  -4 244.000 77.0661   8
  -3   5  -3 440.516 147.815  28
  -3   5  -3 482.181 142.674  19
  -3   5  -2 26332.2 1039.14  19
  -3   5  -1 40730.7 1267.67  19
  -3   5   0 18442.6 838.855  19
  -3   5   0 20810.6 981.650  23
  -3   5   1 37535.4 1320.73  23
  -3   5   1 33116.7 1095.38  19
  -3   5   2 12438.9 774.829  23
  -3   5   3 601.085 129.179   9
  -3   5   4 69.7456 38.4656   9
  -3   6  -8 1210.22 126.557  16
  -3   6  -8 1236.47 123.026   7
  -3   6  -7 9026.14 384.392   7
  -3   6  -7 9018.35 415.114  16
  -3   6  -6 3414.52 260.360   7
  -3   6  -6 3202.76 274.863  16
  -3   6  -5 6028.93 356.910   7
  -3   6  -4 37941.5 905.572   7
  -3   6  -4 37708.3 956.885   8
  -3   6  -3 12364.7 520.319   7
  -3   6  -3 12394.4 544.853   8
  -3   6  -2 1777.20 199.687   7
  -3   6  -2 1808.89 201.673   8
  -3   6  -1 1947.62 219.167  21
  -3   6   0 1223.38 170.430  21
  -3   6   0 1072.32 152.272  20
  -3   6   1 9267.45 464.574  21
  -3   6   1 9157.22 450.849  20
  -3   6   2 21788.0 726.029   9
  -3   6   3 1538.77 201.872   9
  -3   7  -7 5421.99 249.996   7
  -3   7  -7 5791.72 276.653  16
  -3   7  -6 445.753 85.8299   7
  -3   7  -6 498.124 100.751  16
  -3   7  -5 1194.47 149.310   7
  -3   7  -5 1176.11 161.293  16
  -3   7  -4 12441.0 499.076   7
  -3   7  -3 15423.2 573.467   7
  -3   7  -3 16518.3 598.318   8
  -3   7  -2 1813.91 204.630   7
  -3   7  -1 9891.30 480.356   7
  -3   7   0 17797.2 652.678  21
  -3   7   0 18539.8 634.719  20
  -3   7   1 193.517 75.4533  20
  -3   7   2 191.174 77.5470  20
  -3   7   3 816.544 143.434  20
  -3   7   7 39.7367 29.8442  20
  -3   8  -6 16419.6 403.550   7
  -3   8  -6 15966.8 422.649  16
  -3   8  -5 9151.92 350.503   7
  -3   8  -5 8991.35 371.003  16
  -3   8  -4 476.818 89.2042   7
  -3   8  -4 703.551 115.585  16
  -3   8  -3 981.474 138.272   7
  -3   8  -2 4572.42 305.321   7
  -3   8  -1 953.429 141.420   7
  -3   8   0 10590.4 488.310   7
  -3   8   0 11444.4 473.025  20
  -3   8   1 1382.87 174.060  20
  -3   8   2 1465.78 181.721  20
  -3   8   3 6088.61 360.732  20
  -3   8   4 1598.85 182.366  20
  -3   8   5-4.75926 33.8737  20
  -3   8   6 298.924 68.8409  20
  -3   9  -4 56.9550 32.9919   7
  -3   9  -3 10503.8 370.950   7
  -3   9  -2 17454.3 513.767   7
  -3   9  -1 417.916 88.5008   7
  -3   9   0 5.43469 40.4930   7
  -3   9   0-4.61353 27.0714  20
  -3   9   1 1448.36 163.161   7
  -3   9   1 1254.33 139.587  20
  -3   9   2 3900.86 247.875  20
  -3   9   2 4254.75 274.064   7
  -3   9   3 2541.76 199.291  20
  -3   9   4 1577.77 149.705  20
  -3   9   5 31.1779 24.4796  20
  -3  10  -2 3746.35 173.629   7
  -3  10  -1 3257.05 175.355   7
  -3  10   0 388.969 65.2593   7
  -3  10   1 4421.39 215.043   7
  -3  10   2 20.7765 21.5052   7
  -2 -10  -7 262.002 51.3714   4
  -2 -10  -6 220.848 56.4779   4
  -2 -10  -5 30.8122 29.3967   4
  -2 -10  -4 434.144 83.0010   4
  -2 -10  -3 15985.6 499.363   4
  -2 -10   3 4404.99 230.262  26
  -2  -9  -8 1964.42 150.983   4
  -2  -9  -7 139.385 53.5300   4
  -2  -9  -6 1653.53 183.829   4
  -2  -9  -5 6753.62 381.075   4
  -2  -9  -4 48.4516 38.8685   4
  -2  -9  -3 3401.52 272.750   4
  -2  -9  -2 847.258 136.195   4
  -2  -9   4 1009.21 129.777  26
  -2  -9   5 73.3143 29.2625  26
  -2  -8  -9 337.987 59.3042   4
  -2  -8  -8 1325.75 154.569   4
  -2  -8  -7 4712.09 323.651   4
  -2  -8  -6 4123.54 318.732   4
  -2  -8  -5 8449.38 462.461   4
  -2  -8  -4 8204.75 451.052   4
  -2  -8  -3 12264.4 546.650   4
  -2  -8  -2 32659.6 890.283   4
  -2  -8  -1 4044.61 306.972   4
  -2  -8   5 2125.61 196.641  26
  -2  -8   6 1390.01 128.172  26
  -2  -7  -9 305.609 72.7386   4
  -2  -7  -9 385.522 78.6254  17
  -2  -7  -8 2791.35 247.323   4
  -2  -7  -8 2813.39 236.933  17
  -2  -7  -7 7435.11 435.977   4
  -2  -7  -7 6562.18 380.497  17
  -2  -7  -6 497.611 109.927  17
  -2  -7  -5 2138.68 219.631  17
  -2  -7  -4 40.1952 28.4539   4
  -2  -7  -4 98.6597 57.9229  17
  -2  -7  -3 46.1343 42.9136   4
  -2  -7  -2 6608.26 397.185   4
  -2  -7   5 142.217 64.6470  26
  -2  -7   6 29.1993 33.7019  26
  -2  -7   7 1775.05 138.067  26
  -2  -6 -10 224.821 59.7438  17
  -2  -6  -9 771.421 119.423   4
  -2  -6  -9 723.688 120.537  17
  -2  -6  -8 1335.49 177.421  17
  -2  -6  -7 1371.21 179.694  17
  -2  -6  -6 4248.74 308.214  17
  -2  -6  -6 4426.76 330.667   5
  -2  -6  -5 763.607 128.443  17
  -2  -6  -5 542.203 110.499   5
  -2  -6   5 11927.9 570.466  26
  -2  -6   6 1057.77 159.491  26
  -2  -6   7 21.7549 29.4724  26
  -2  -5 -10 793.319 117.469  17
  -2  -5  -9 3428.16 275.806  17
  -2  -5  -8 31.8089 47.3279  17
  -2  -5  -7 2312.89 234.198  17
  -2  -5  -7 2455.72 246.181   5
  -2  -5  -6 4419.93 304.362  17
  -2  -5  -6 4559.92 324.208   5
  -2  -5   3 309.066 115.766  14
  -2  -5   5 47473.2 1144.72  26
  -2  -5   6 3073.39 283.098  26
  -2  -5   7 68.5654 45.3241  26
  -2  -5   8 2723.98 191.286  26
  -2  -4 -11 484.211 80.2657  17
  -2  -4 -10 642.290 111.919  17
  -2  -4  -9 798.242 137.848  17
  -2  -4  -8 3435.58 287.036  17
  -2  -4  -7 2819.65 251.373  17
  -2  -4   3 57479.8 1375.91  14
  -2  -4   4 15388.6 771.018  14
  -2  -4   5 779.769 149.002  26
  -2  -4   6 278.954 91.7730  26
  -2  -4   7 1373.61 183.625  26
  -2  -4   8 3068.71 234.185  26
  -2  -3 -11 2048.29 171.585  17
  -2  -3 -10 4935.70 316.094  17
  -2  -3  -9 713.230 135.294  17
  -2  -3  -8 6006.99 376.317  17
  -2  -3  -7 2125.52 205.851  22
  -2  -3  -7 2223.76 216.566  17
  -2  -3   3 3844.39 310.989  14
  -2  -3   4 30951.8 997.584  14
  -2  -3   5 3843.80 398.387  14
  -2  -3   6 4680.60 350.258  26
  -2  -3   7 15693.0 632.178  26
  -2  -3   8 1943.38 204.471  26
  -2  -2 -11 1728.79 158.380  17
  -2  -2 -10 2756.98 236.961  17
  -2  -2  -9 215.279 80.3656  22
  -2  -2  -9 184.583 70.9838  17
  -2  -2  -8 17541.3 611.628  22
  -2  -2  -4 28768.6 607.426  28
  -2  -2  -3 46974.2 687.333  28
  -2  -2  -2 666.917 54.7848  24
  -2  -2   2 208915. 1734.34  14
  -2  -2   3 567.732 108.355  14
  -2  -2   4 4163.49 337.171  14
  -2  -2   5 346.158 110.930  14
  -2  -2   5 398.306 132.284  24
  -2  -2   6 2022.60 222.335  26
  -2  -2   7 3753.67 308.607  26
  -2  -1 -11 41.2615 25.2748  17
  -2  -1 -10 2005.69 195.885  22
  -2  -1 -10 2247.05 212.220  17
  -2  -1  -9 5477.87 342.068  22
  -2  -1  -8 5144.90 328.787  22
  -2  -1  -8 4581.84 309.358   7
  -2  -1  -4 117923. 1212.21  10
  -2  -1  -3 85674.5 1073.27  28
  -2  -1  -2 15922.2 417.916  28
  -2  -1  -2 15334.0 262.013  11
  -2  -1  -1 46502.7 564.275  24
  -2  -1   0 9734.86 141.589  14
  -2  -1   1 5088.98 182.057  14
  -2  -1   2 35483.5 637.263  14
  -2  -1   3 71207.8 1115.58  14
  -2  -1   3 71968.0 1284.37  24
  -2  -1   4 3787.93 308.586  14
  -2  -1   4 3671.40 324.359  24
  -2  -1   5 32987.6 1074.47  14
  -2  -1   5 36439.7 1125.01  24
  -2  -1   6 4710.95 458.846  14
  -2  -1   6 4917.96 328.161  26
  -2  -1   7 328.393 91.1368  26
  -2   0 -11 47.1419 26.3939  18
  -2   0 -11-83.5979 34.9938  17
  -2   0 -10 1827.40 184.045  22
  -2   0 -10 1691.53 180.915  17
  -2   0  -9 10484.2 469.039  22
  -2   0  -9 11044.3 497.324   7
  -2   0  -8 5453.03 335.771  22
  -2   0  -8 5188.75 336.682   7
  -2   0  -3 125917. 1256.41  10
  -2   0  -3 122020. 1251.86  19
  -2   0  -2 16224.6 476.350  28
  -2   0  -1 106327. 814.884  23
  -2   0   0 292168. 1431.84  23
  -2   0   1 8180.99 242.737  14
  -2   0   2 1913.82 150.864  14
  -2   0   2 1769.34 169.540  24
  -2   0   3 6553.28 339.866  14
  -2   0   3 6088.49 348.208  24
  -2   0   4 667.745 131.020  14
  -2   0   4 708.794 134.027  24
  -2   0   5 11403.4 584.418  24
  -2   0   5 10168.0 590.006  14
  -2   0   6 4820.52 461.018  14
  -2   1 -10 545.514 94.6743  22
  -2   1 -10 628.858 105.752  17
  -2   1  -9 437.654 95.6553  22
  -2   1  -9 429.412 104.751   7
  -2   1  -8 528.854 107.123  22
  -2   1  -8 619.976 124.886   7
  -2   1  -7-25.2578 48.3688   7
  -2   1  -7-99.4057 47.2459  16
  -2   1  -4 3388.94 240.817  19
  -2   1  -3 60795.7 946.430  19
  -2   1  -2 9150.43 248.336  12
  -2   1  -2 8882.02 345.996  10
  -2   1  -2 8450.96 328.412  19
  -2   1  -1 1236.95 140.354  28
  -2   1  -1 1227.89 114.229  19
  -2   1  -1 1273.40 84.8326  12
  -2   1  -1 1053.30 116.903  23
  -2   1   0 146824. 1179.11  10
  -2   1   1 53392.1 834.069  24
  -2   1   1 52919.7 846.398  23
  -2   1   1 53745.0 576.365  19
  -2   1   2 147.544 54.3312  24
  -2   1   3 70670.9 1199.72  14
  -2   1   3 71337.5 1151.52  24
  -2   1   4 20749.1 749.246  14
  -2   1   4 21074.1 695.202  24
  -2   1   5 2125.98 277.630  14
  -2   1   6 901.522 202.714  14
  -2   1   7 2497.98 237.950  27
  -2   2 -10 2827.80 223.657   7
  -2   2 -10 2651.18 190.452  22
  -2   2  -9 4784.30 301.577  22
  -2   2  -9 4723.97 333.649   7
  -2   2  -8 10496.3 464.634  22
  -2   2  -8 10982.2 484.843  16
  -2   2  -8 10905.0 516.627   7
  -2   2  -7 5631.72 360.968   7
  -2   2  -7 5906.05 334.485  22
  -2   2  -7 5798.30 349.703  16
  -2   2  -5 3911.61 308.441  19
  -2   2  -4 6666.84 375.830  19
  -2   2  -3 5899.21 294.391  12
  -2   2  -3 5704.91 326.975  19
  -2   2  -2 255822. 1772.21  12
  -2   2  -2 251571. 2059.70  19
  -2   2  -1 70770.5 1150.38  28
  -2   2  -1 70530.9 1160.36  23
  -2   2  -1 73503.1 1035.78  19
  -2   2   0 14139.2 458.414  28
  -2   2   0 14035.0 489.450  23
  -2   2   0 13978.1 486.172  11
  -2   2   0 13726.3 407.637  10
  -2   2   0 14364.9 425.493  19
  -2   2   1 60580.7 1052.12  23
  -2   2   1 60006.7 536.421   1
  -2   2   1 58769.4 993.124  11
  -2   2   1 59632.8 788.462  10
  -2   2   2 1544.81 167.328  11
  -2   2   2 3359.40 265.744  23
  -2   2   3 450.506 104.394  23
  -2   2   4 167257. 2276.54  23
  -2   2   5 2523.10 310.821  23
  -2   2   6 3572.88 273.805  27
  -2   2   7 5164.29 342.962  27
  -2   3 -10 372.359 75.9067   7
  -2   3  -9 1084.46 140.870  16
  -2   3  -9 844.351 136.942   7
  -2   3  -8 17006.4 613.467  16
  -2   3  -8 16129.6 626.865   7
  -2   3  -7 33221.4 895.456   7
  -2   3  -7 32794.3 862.692  16
  -2   3  -6 1765.84 201.788   7
  -2   3  -5 25295.3 863.374  19
  -2   3  -4 29176.2 877.844  19
  -2   3  -3 3597.07 275.490  12
  -2   3  -3 4216.15 321.074  19
  -2   3  -2 52874.9 1081.00  19
  -2   3  -2 53981.5 1017.57  12
  -2   3  -1 87586.6 1421.19  28
  -2   3  -1 80760.9 1465.68  23
  -2   3  -1 81495.9 1269.30  19
  -2   3  -1 85454.8 1275.98  12
  -2   3   0 1683.05 175.398  28
  -2   3   0 1528.28 195.380  23
  -2   3   1 54272.4 1141.58  23
  -2   3   1 50937.8 1066.89  11
  -2   3   2 73057.8 1399.92  23
  -2   3   2 72359.3 1282.31  11
  -2   3   3 204.798 97.9672  23
  -2   3   3 436.852 106.657  11
  -2   3   4 32089.7 936.222  11
  -2   3   4 31405.9 1059.37  23
  -2   3   5 3094.92 363.439  23
  -2   3   6 189.545 65.7789  27
  -2   3   6-28.9372 39.5754   9
  -2   3   7 329.281 85.6641  27
  -2   4  -9 7746.87 342.394  16
  -2   4  -9 7532.95 359.687   7
  -2   4  -8 1465.69 177.381  16
  -2   4  -8 1638.44 195.243   7
  -2   4  -7 2002.73 221.519   7
  -2   4  -7 1997.34 219.201  16
  -2   4  -6 2186.89 228.180   7
  -2   4  -5 1192.85 206.441  19
  -2   4  -4 65803.8 1428.59  12
  -2   4  -4 67586.0 1488.85  19
  -2   4  -3 79334.5 1473.54  12
  -2   4  -3 82230.0 1600.58  19
  -2   4  -2 38806.1 994.703  12
  -2   4  -2 41683.6 1097.96  19
  -2   4  -1 47600.3 1147.43  28
  -2   4  -1 49597.2 1108.45  12
  -2   4   0 12439.9 517.456  28
  -2   4   0 12969.9 643.664  23
  -2   4   1 1660.15 235.956  23
  -2   4   2 7942.88 515.248  23
  -2   4   3 11430.8 653.125  23
  -2   4   4 3152.44 364.116  23
  -2   4   5 12208.2 524.372  27
  -2   4   5 11807.8 550.644   9
  -2   4   6 14701.1 597.014  27
  -2   4   7 3461.22 289.743  27
  -2   5  -9 7985.85 295.568  16
  -2   5  -9 8674.32 328.884   7
  -2   5  -8 2622.83 217.683  16
  -2   5  -8 3211.78 242.078   7
  -2   5  -7 4844.76 324.982   7
  -2   5  -7 4484.25 316.757  16
  -2   5  -6 15961.5 604.484   7
  -2   5  -5 5991.89 367.395   7
  -2   5  -4 336.401 109.308  12
  -2   5  -4 343.841 87.3825   7
  -2   5  -4 252.894 103.308  19
  -2   5  -4 408.155 104.019   8
  -2   5  -3 3142.85 348.378  19
  -2   5  -3 3247.28 327.269  12
  -2   5  -2 11125.7 587.989  12
  -2   5  -2 11565.0 658.080  19
  -2   5  -1 46035.4 1188.44  12
  -2   5  -1 43898.1 1266.55  19
  -2   5   0 96058.7 2002.45  23
  -2   5   0 90429.6 1752.19  12
  -2   5   1 12685.9 722.819  23
  -2   5   2 3102.37 361.892  23
  -2   5   3 5802.45 511.594  23
  -2   5   4 233.715 112.724  23
  -2   5   4 59.3702 54.5095   9
  -2   6  -8 582.655 89.3061  16
  -2   6  -8 591.890 93.2616   7
  -2   6  -7 1838.27 183.573   7
  -2   6  -7 1968.14 194.856  16
  -2   6  -6 19079.4 625.644   7
  -2   6  -5 30425.5 816.296   7
  -2   6  -4 1299.12 169.706   7
  -2   6  -3 14431.7 559.353   7
  -2   6  -3 15515.6 587.584   8
  -2   6  -2 22279.1 681.728   7
  -2   6  -2 20896.3 968.917  19
  -2   6  -2 20278.3 857.247  12
  -2   6  -1 269.569 99.8250  12
  -2   6  -1 259.014 110.328  19
  -2   6   0 5897.47 475.137  12
  -2   6   1 4027.64 453.097  23
  -2   6   1 3650.71 404.097  12
  -2   6   2 80.7162 76.7571  23
  -2   7  -7 6223.12 299.855  16
  -2   7  -7 6202.97 281.414   7
  -2   7  -6 4.73532 30.5711   7
  -2   7  -5 900.740 132.857   7
  -2   7  -4 234.491 68.8404   7
  -2   7  -3 169.611 58.9607   7
  -2   7  -2 37401.3 907.749   7
  -2   7  -1 9355.71 461.106   7
  -2   7  -1 10068.5 453.917  20
  -2   7   0 5783.74 359.164  20
  -2   7   1 12087.8 533.245  20
  -2   7   2 3563.35 297.954  20
  -2   7   3 35.9184 39.5155  20
  -2   7   7 1391.22 161.205  20
  -2   7   8 325.939 65.0263  20
  -2   8  -6 72.3252 35.5477   7
  -2   8  -6 49.7486 30.7745  16
  -2   8  -5 13034.6 440.082   7
  -2   8  -4 16943.9 544.016   7
  -2   8  -3 134.740 51.8331   7
  -2   8  -2 977.689 145.798   7
  -2   8  -2 1182.61 150.257   6
  -2   8  -1 20716.7 677.246   7
  -2   8  -1 22477.4 666.483  20
  -2   8   0 9933.50 479.586   7
  -2   8   0 10617.8 477.847  20
  -2   8   1 14526.9 575.882  20
  -2   8   2 14563.0 586.112  20
  -2   8   3 343.641 99.9890  20
  -2   8   4 234.612 85.9148  20
  -2   8   5 170.007 74.8940  20
  -2   8   6 136.987 56.3786  20
  -2   8   7 94.5564 41.1747  20
  -2   9  -5 2151.69 137.552   7
  -2   9  -5 2155.05 148.217  16
  -2   9  -4 12850.4 392.804   7
  -2   9  -3 14098.8 454.290   7
  -2   9  -2 424.043 86.9817   7
  -2   9  -2 504.379 86.1020   6
  -2   9  -1 10719.0 442.052   7
  -2   9  -1 10503.4 414.714   6
  -2   9   0 48.4201 34.1830   7
  -2   9   0 38.6878 34.8516  20
  -2   9   1 1346.77 163.517   7
  -2   9   1 1405.13 165.208  20
  -2   9   2 249.219 76.7152  20
  -2   9   3 2490.78 221.646  20
  -2   9   4 451.587 93.1368  20
  -2   9   5 2374.04 193.662  20
  -2   9   6 511.063 78.3817  20
  -2  10  -2 233.836 47.2620   7
  -2  10  -1 3359.74 195.437   7
  -2  10  -1 3353.26 183.593   6
  -2  10   0 10979.7 367.654   7
  -2  10   0 10419.3 348.525   6
  -2  10   1 3683.82 216.211   7
  -2  10   1 3559.08 213.072  20
  -2  10   1 3347.81 206.139   6
  -2  10   2 1859.50 151.899   7
  -2  10   2 1847.45 155.256  20
  -2  10   3 7589.42 292.398   7
  -2  10   3 8109.76 316.487  20
  -2  10   4 792.363 92.8100  20
  -1 -10  -6 108.793 40.2101   4
  -1 -10  -5 89.8987 38.0836   4
  -1 -10  -4 126.949 49.3756   4
  -1  -9  -8 307.290 60.6385   4
  -1  -9  -7 2716.59 208.743   4
  -1  -9  -6 2925.73 239.165   4
  -1  -9  -5 4901.90 319.551   4
  -1  -9  -4 4824.71 319.640   4
  -1  -9  -3 1069.14 152.654   4
  -1  -9   5 7003.87 289.122  26
  -1  -8  -8 329.287 76.8364   4
  -1  -8  -7-18.7705 43.9352   4
  -1  -8  -4 3452.47 290.644   4
  -1  -8  -3 16151.8 618.674   4
  -1  -8  -2 79.8817 49.0326   4
  -1  -8   5 9297.11 419.493  26
  -1  -8   6 12339.2 397.984  26
  -1  -7  -9 432.099 81.8728   4
  -1  -7  -9 375.776 70.6772  17
  -1  -7  -8 2045.42 189.934  17
  -1  -7  -7 98.6716 62.5029   5
  -1  -7  -7 60.1346 37.6128  17
  -1  -7  -6 6795.00 381.317  17
  -1  -7  -6 6448.91 406.909   5
  -1  -7  -5 15665.1 623.170   5
  -1  -7  -4 527.863 111.739   5
  -1  -7   6 2404.56 212.945  26
  -1  -7   7 1806.96 145.531  26
  -1  -6 -10 53.7916 31.3098  17
  -1  -6  -9 32.5888 32.2694  17
  -1  -6  -8 97.8072 58.9697  17
  -1  -6  -8 36.6038 46.9162   5
  -1  -6  -7 90.3633 55.0394  17
  -1  -6  -7 111.245 71.7292   5
  -1  -6  -6 4151.25 299.923  17
  -1  -6  -6 4582.87 337.335   5
  -1  -6  -5 9912.61 443.373  17
  -1  -6  -5 10474.5 489.158   5
  -1  -6   6 6580.39 389.653  26
  -1  -6   7 1359.78 151.566  26
  -1  -5 -10 735.902 109.194  17
  -1  -5  -9 356.335 85.2047   5
  -1  -5  -9 326.914 83.6118  17
  -1  -5  -8 6184.55 370.965  17
  -1  -5  -8 6249.43 385.719   5
  -1  -5  -7 13827.4 551.343  17
  -1  -5  -7 14091.1 586.941   5
  -1  -5  -6-103.086 50.1636  17
  -1  -5  -6-2.00202 33.6523   5
  -1  -5   4 3935.29 416.329  14
  -1  -5   6 13220.7 576.987  26
  -1  -5   7 27727.9 768.435  26
  -1  -4 -11-47.3337 31.4895  17
  -1  -4 -10 283.968 72.1965  17
  -1  -4  -9 51.4042 38.8874  17
  -1  -4  -8 146.737 61.1496  17
  -1  -4  -8 193.964 69.3721   5
  -1  -4  -7 4021.86 294.207  17
  -1  -4  -7 3815.66 295.267   5
  -1  -4   4 8999.16 591.793  14
  -1  -4   5 26444.3 1084.88  14
  -1  -4   6 1011.10 161.896  26
  -1  -4   7 94.4841 52.1809  26
  -1  -3 -11 21.3615 26.1343  17
  -1  -3 -10 3542.65 261.223  17
  -1  -3  -9 1054.23 157.004  17
  -1  -3  -8 2304.70 223.141  22
  -1  -3  -7 33.3728 24.7526  22
  -1  -3   4 1809.01 238.624  14
  -1  -3   5 25141.1 997.045  14
  -1  -3   6 28748.1 819.759  26
  -1  -2 -11 522.575 89.3722  17
  -1  -2 -10 3856.81 277.781  17
  -1  -2  -9 326.158 96.3351  22
  -1  -2  -8 7455.52 396.793  22
  -1  -2  -3 1573.34 97.5488  28
  -1  -2   3 82887.5 1298.20  14
  -1  -2   4 7332.60 437.743  14
  -1  -2   5 1618.31 235.411  14
  -1  -2   6 1960.04 298.494  14
  -1  -1 -11 1921.73 162.761  17
  -1  -1 -10 1804.40 189.229  22
  -1  -1  -9 2016.79 212.601  22
  -1  -1  -8 1076.19 152.814  22
  -1  -1  -8 986.936 152.078   7
  -1  -1  -3 78357.1 680.568  10
  -1  -1   3 46265.2 860.908  14
  -1  -1   4 66397.0 1221.76  14
  -1  -1   5 1691.02 228.572  14
  -1  -1   5 2380.37 262.928  24
  -1  -1   6 2930.70 352.266  14
  -1   0 -11 805.767 101.532  17
  -1   0 -10 588.831 112.798  22
  -1   0  -9-5.58394 44.8007  22
  -1   0  -8 8026.96 412.931  22
  -1   0  -8 8026.36 434.430   7
  -1   0  -2 201450. 1164.05  10
  -1   0  -2 204034. 1174.27  19
  -1   0  -1 7398.40 174.618  11
  -1   0   0 16333.8 219.899  19
  -1   0   1 144534. 861.392  14
  -1   0   2 37546.8 633.590  24
  -1   0   3 771.599 109.293  14
  -1   0   3 707.951 104.509  24
  -1   0   4 1073.90 157.253  14
  -1   0   4 1163.91 153.033  24
  -1   0   5 408.681 115.609  14
  -1   0   5 485.736 109.176  24
  -1   0   6 91.2676 88.6699  14
  -1   1 -10 669.244 110.212  22
  -1   1  -9 1069.94 153.026  22
  -1   1  -9 995.139 162.000   7
  -1   1  -8 5054.39 330.442  22
  -1   1  -8 4865.21 344.875   7
  -1   1  -7 12258.8 480.649  22
  -1   1  -7 12023.7 520.084   7
  -1   1  -4 163015. 1469.98  19
  -1   1  -3 42722.2 690.073  19
  -1   1  -2 23826.4 477.573  19
  -1   1  -1 3560.53 152.630  12
  -1   1   0 35967.6 497.688  28
  -1   1   0 35499.3 453.214  10
  -1   1   1 678.451 75.2211  24
  -1   1   1 676.314 55.0949  10
  -1   1   2 984152. 3414.51  14
  -1   1   2 976065. 1708.40  10
  -1   1   3 17222.1 531.861  14
  -1   1   3 15871.1 449.194  24
  -1   1   4 17284.3 631.588  14
  -1   1   4 18146.7 544.948  24
  -1   1   5 27031.9 916.149  14
  -1   1   6 777.278 182.831  14
  -1   2 -10 4581.37 264.863  22
  -1   2  -9 8624.26 419.739  22
  -1   2  -9 8036.44 440.184   7
  -1   2  -8 1981.85 207.359  22
  -1   2  -8 1720.76 210.123   7
  -1   2  -7 2528.96 246.962   7
  -1   2  -4 109389. 1382.47  19
  -1   2  -3 197490. 1790.95  12
  -1   2  -3 193486. 1756.24  19
  -1   2  -2 407.667 79.3084  12
  -1   2  -2 353.804 72.8247  19
  -1   2   1 6526.54 206.599   1
  -1   2   1 6090.83 273.307  11
  -1   2   2 37577.3 769.634  23
  -1   2   2 38372.3 695.132  11
  -1   2   3 172.793 65.2021  23
  -1   2   4 6332.07 410.081  14
  -1   2   4 6149.48 388.129  23
  -1   2   5 3922.89 367.142  14
  -1   2   5 3294.61 320.153  23
  -1   2   6 15997.2 785.927  23
  -1   3 -10 1648.60 137.352  22
  -1   3  -9 17.5337 51.4005   7
  -1   3  -9 20.2010 34.6155  22
  -1   3  -8 2431.21 226.312  22
  -1   3  -8 2616.74 258.802   7
  -1   3  -7 651.701 132.331   7
  -1   3  -6 37474.0 912.906   7
  -1   3  -4 23682.3 747.527  19
  -1   3  -3 5207.74 348.196  12
  -1   3  -3 5501.78 341.676  19
  -1   3  -2 92.6333 52.9373  12
  -1   3  -1 3739.11 269.879  12
  -1   3   0 90885.4 1380.38  23
  -1   3   1 68206.9 1181.25  23
  -1   3   1 68471.3 845.626   1
  -1   3   2 9378.67 446.109  23
  -1   3   2 8784.13 395.730  11
  -1   3   2 9607.59 356.511   1
  -1   3   3 77452.9 1380.16  23
  -1   3   3 79726.1 1218.29  11
  -1   3   4 56864.0 1287.90  23
  -1   3   5 15721.1 739.733  23
  -1   3   6-170.792 93.0050  23
  -1   4  -9 399.557 87.2105   7
  -1   4  -9 289.033 63.5379  22
  -1   4  -8 909.089 132.848  22
  -1   4  -8 1043.66 148.907  16
  -1   4  -8 1126.18 162.098   7
  -1   4  -7 684.290 131.852   7
  -1   4  -6 6704.80 395.992   7
  -1   4  -4 17732.7 769.772  12
  -1   4  -4 18976.2 759.616  19
  -1   4  -3 78722.7 1509.79  12
  -1   4  -3 77369.5 1471.64  19
  -1   4  -2 117607. 1766.36  12
  -1   4  -1 20436.6 709.588  12
  -1   4   0 5208.86 396.400  23
  -1   4   0 4653.85 346.013  12
  -1   4   1 144.224 81.7650  23
  -1   4   2 6257.85 427.095  23
  -1   4   2 6611.66 341.219   1
  -1   4   3 34663.7 1039.76  23
  -1   4   4 18768.4 811.072  23
  -1   4   5 7238.23 547.704  23
  -1   5  -9 697.429 95.7069   7
  -1   5  -8 10209.6 422.328  16
  -1   5  -8 10234.1 433.992   7
  -1   5  -7 16638.6 603.196   7
  -1   5  -6 2.76695 30.9878   7
  -1   5  -5 3867.97 293.867   7
  -1   5  -5 3733.69 270.639   6
  -1   5  -4 5053.64 444.185  12
  -1   5  -4 4699.53 415.891  19
  -1   5  -3 1300.24 215.310  12
  -1   5  -3 1227.13 203.640  19
  -1   5  -2 37826.4 1092.61  12
  -1   5  -1 50398.0 1231.40  12
  -1   5   0 636.491 142.687  12
  -1   5   1 47166.1 1336.55  23
  -1   5   2 61885.3 1508.83  23
  -1   5   3 3036.45 344.185  23
  -1   5   4 854.257 192.616  23
  -1   6  -8 1338.66 133.852  16
  -1   6  -8 1490.36 142.432   7
  -1   6  -7 5460.92 315.438   7
  -1   6  -6 1531.73 181.467   7
  -1   6  -5 802.533 135.238   7
  -1   6  -5 827.680 128.346   6
  -1   6  -4 40583.4 937.733   7
  -1   6  -4 41442.3 906.049   6
  -1   6  -3 11733.7 494.071   7
  -1   6  -2 8652.63 565.371  12
  -1   6  -1 2541.41 303.758  12
  -1   6   0 491.411 139.839  12
  -1   6   1-31.2164 54.3897  23
  -1   6   1 198.126 87.0306  12
  -1   6   2 58755.0 1669.65  23
  -1   6   3 4680.73 476.265  23
  -1   7  -7 4662.17 257.911  16
  -1   7  -7 5509.14 268.641   7
  -1   7  -6 2704.78 214.941   7
  -1   7  -5 73.3741 47.3206   7
  -1   7  -5-14.4256 25.0927   6
  -1   7  -4 7797.24 403.907   7
  -1   7  -4 8122.65 394.908   6
  -1   7  -3 75132.8 1272.48   7
  -1   7  -3 74805.2 1226.32   6
  -1   7  -2 20156.5 659.799   7
  -1   7  -2 20574.7 640.154  20
  -1   7  -1 40277.8 938.458   7
  -1   7  -1 40852.2 927.906  20
  -1   7   0 47260.5 1025.21  20
  -1   7   1 828.961 139.389  20
  -1   7   2 184.978 76.5263  20
  -1   7   3-61.5464 47.3914  20
  -1   7   7 271.113 79.2556  20
  -1   7   8 610.858 97.3275  20
  -1   8  -6 13502.6 394.112   7
  -1   8  -5 18942.9 534.729   7
  -1   8  -4 308.597 79.5146   7
  -1   8  -4 331.458 74.5138   6
  -1   8  -3 6331.83 353.828   7
  -1   8  -3 6557.91 349.401   6
  -1   8  -2 666.558 121.589   7
  -1   8  -2 644.029 114.527   6
  -1   8  -1 3275.28 268.475   7
  -1   8  -1 3298.65 263.911  20
  -1   8   0 8391.46 435.547   7
  -1   8   0 8268.24 432.657  20
  -1   8   1 27281.4 802.088  20
  -1   8   2 509.152 122.672  20
  -1   8   3 12905.8 562.046  20
  -1   8   4 1896.41 215.234  20
  -1   8   5 540.161 115.712  20
  -1   8   6 937.943 139.822  20
  -1   8   7 215.374 68.4480  20
  -1   9  -5 4708.77 201.025   7
  -1   9  -4 1763.05 147.424   7
  -1   9  -4 1594.76 132.997   6
  -1   9  -3 8259.77 350.859   7
  -1   9  -3 7578.33 331.451   6
  -1   9  -2 29875.0 711.431   7
  -1   9  -2 28160.5 692.738   6
  -1   9  -1 5478.82 318.343   7
  -1   9  -1 5493.65 323.252   6
  -1   9   0 4152.19 285.672   7
  -1   9   0 4213.22 291.976  20
  -1   9   1 11564.5 482.156   7
  -1   9   1 11664.4 497.728  20
  -1   9   2 420.604 101.996  20
  -1   9   3 2431.57 232.411  20
  -1   9   4 3623.95 273.314  20
  -1   9   5 815.629 126.665  20
  -1   9   6 977.785 122.301  20
  -1  10  -3 74.3925 26.9433   6
  -1  10  -2 6196.05 263.809   6
  -1  10  -1 4941.02 258.702   6
  -1  10   0 457.897 74.4721   7
  -1  10   0 571.362 96.4638   6
  -1  10   1 7255.84 310.732   7
  -1  10   1 7296.21 336.521  20
  -1  10   2 1551.03 143.723   7
  -1  10   2 1802.40 168.748  20
  -1  10   3 665.879 103.396  20
  -1  10   4 117.892 47.5401  20
  -1  10   5 17.9246 19.3953  20
  -1  11   1 124.664 34.4251   6
  -1  11   2 984.001 91.0849   6
   0 -10  -6 125.558 37.5326   4
   0 -10  -5 164.327 46.3377   4
   0  -9  -7 808.347 106.058   4
   0  -9  -6 275.264 70.3725   4
   0  -9  -5 3145.65 246.609   4
   0  -9  -4 590.043 112.229   4
   0  -9  -3 1724.00 185.245   4
   0  -9   5 160.946 43.2311  26
   0  -8  -8 290.405 69.3566   4
   0  -8  -5 1232.62 168.744   5
   0  -8   6 2083.43 163.560  26
   0  -7  -9 18.6347 19.9777   4
   0  -7  -8 1097.18 146.819   5
   0  -7  -7 1635.45 197.451   5
   0  -7  -6 1101.85 168.463   5
   0  -7  -5 135.934 66.8314   5
   0  -7  -4 65.4317 54.7816   5
   0  -7  -3 699.294 123.989   5
   0  -7   6 67.7341 39.8131  26
   0  -6  -9 1765.36 158.309  17
   0  -6  -9 1679.88 165.924   5
   0  -6  -8 188.380 66.5038  17
   0  -6  -8 140.572 62.2534   5
   0  -6  -7 849.109 135.429  17
   0  -6  -7 662.310 130.334   5
   0  -6  -6 2174.75 233.956   5
   0  -6  -5 3736.80 295.453   5
   0  -6   6 12965.1 538.938  26
   0  -5 -10 49.1095 30.9924  17
   0  -5  -9 765.205 118.161  17
   0  -5  -9 864.815 129.790   5
   0  -5  -8 4963.88 320.659  17
   0  -5  -8 5139.22 346.702   5
   0  -5  -7 593.883 129.343   5
   0  -5  -7 662.845 120.422  17
   0  -5  -6 5198.86 316.870  17
   0  -5  -6 4880.74 339.623   5
   0  -5   6 9358.83 474.820  26
   0  -4 -10 800.334 110.535  17
   0  -4  -9 325.008 82.3993  17
   0  -4  -8 404.571 101.443   5
   0  -4  -8 196.334 65.1661  17
   0  -4  -7 3470.86 270.464  17
   0  -4  -7 3607.80 289.050   5
   0  -4   5 2836.31 344.351  14
   0  -3 -11 16.1038 25.1899  17
   0  -3 -10 2402.79 203.917  17
   0  -3  -9 173.337 64.7173  17
   0  -3  -8 3872.69 287.692  22
   0  -3  -7 2856.37 235.038  22
   0  -3  -7 2824.05 245.072   5
   0  -3   4 40527.3 1123.93  14
   0  -3   5 32326.1 1090.79  14
   0  -2 -11 55.4782 28.6470  17
   0  -2 -10 15.6505 35.7283  17
   0  -2  -9 52.7672 53.3169  22
   0  -2  -8 4469.98 306.291  22
   0  -2  -7 15973.9 547.644  22
   0  -2   4 4658.26 339.314  14
   0  -2   5 8686.98 527.510  14
   0  -2   6 943.074 191.646  14
   0  -1 -11 58.6565 32.1857  17
   0  -1 -10 269.666 73.1352  22
   0  -1  -9 2528.00 233.927  22
   0  -1  -8 6029.37 356.840  22
   0  -1  -7 1653.00 177.415  22
   0  -1  -7 1569.11 191.088   7
   0  -1   3 17264.1 510.004  14
   0  -1   4 998.499 145.534  14
   0  -1   5 111491. 1750.81  14
   0  -1   6 51781.1 1388.96  14
   0   0 -11 26.8897 26.7197  17
   0   0 -10 1589.51 173.863  22
   0   0  -9 4328.62 308.538  22
   0   0  -8 73.0381 46.0824  22
   0   0  -8 96.5568 61.3710   7
   0   0  -7 1219.74 153.489  22
   0   0  -7 1096.13 160.753   7
   0   0  -2 49193.1 429.765  19
   0   0  -1 10570.9 136.712  19
   0   0   3 37514.9 704.285  14
   0   0   4 1855.58 188.318  14
   0   0   5 8904.10 486.348  14
   0   0   6 25283.2 956.043  14
   0   1 -10 1277.18 150.961  22
   0   1  -9 115.854 62.2345  22
   0   1  -8 360.528 98.9578   7
   0   1  -8 364.725 98.9381  22
   0   1  -7 113.521 62.6543   7
   0   1  -3 16393.3 358.974  19
   0   1  -2 56157.9 611.654  19
   0   1  -1 9720.67 240.891   2
   0   1   0 445.089 36.0880  13
   0   1   0 491.935 49.1884   1
   0   1   1 42465.8 475.488  23
   0   1   1 42581.0 398.732  11
   0   1   2 37907.3 419.906  24
   0   1   3 6577.30 307.452  14
   0   1   3 6508.32 217.447  24
   0   1   4 100757. 1432.24  14
   0   1   4 105288. 1027.96  24
   0   1   5 3805.06 321.844  14
   0   1   6 8898.69 568.785  14
   0   2 -10 818.237 113.874  22
   0   2  -9 35.2456 50.5476  22
   0   2  -9 62.4528 55.3628   7
   0   2  -8 7913.27 424.847  22
   0   2  -8 7065.46 424.921   7
   0   2  -7 9657.68 484.777   7
   0   2  -3 5456.70 315.633  12
   0   2  -3 5608.93 269.527  19
   0   2  -2 174990. 1623.24  12
   0   2  -1 94125.2 865.061   2
   0   2   0 22319.1 356.028  13
   0   2   1 147529. 1277.14  23
   0   2   1 149889. 1140.31   1
   0   2   2 75872.1 946.713  23
   0   2   2 77025.0 789.863  11
   0   2   3 34062.6 767.090  14
   0   2   3 35114.5 550.863  11
   0   2   4 16631.4 612.534  14
   0   2   5 10273.2 557.550  14
   0   2   6 2528.39 316.812  14
   0   2   6 2769.87 299.721  23
   0   2   7 16095.2 807.655  23
   0   3 -10 13.5036 20.3145  22
   0   3  -9 32.1901 32.4961  22
   0   3  -9-26.6902 47.7089   7
   0   3  -8 7350.32 404.103  22
   0   3  -8 7236.56 420.056   7
   0   3  -7 9808.01 495.841   7
   0   3  -6 6937.83 395.612   7
   0   3  -3 8464.46 457.985  12
   0   3  -2 88.5707 45.9801  12
   0   3  -1 49106.1 982.700  12
   0   3  -1 46067.3 670.865   2
   0   3   0 41959.4 558.006  13
   0   3   0 42007.8 889.721  12
   0   3   1 161705. 1688.48  23
   0   3   2 116262. 1449.69  23
   0   3   2 119881. 1333.87   1
   0   3   3 33344.9 810.361  23
   0   3   3 35830.5 804.054   1
   0   3   4 19450.2 677.416  23
   0   3   5 2059.68 250.324  23
   0   3   6 1284.27 218.801  23
   0   4  -9 3400.92 222.535  22
   0   4  -9 3608.25 240.984   7
   0   4  -8 1412.12 177.264   7
   0   4  -7 116.315 66.2518   7
   0   4  -6 19.3328 42.3317   7
   0   4  -3 75598.5 1525.61  12
   0   4  -2 1091.75 174.880  12
   0   4  -1 63762.2 1257.62  12
   0   4   0 62132.4 1252.31  12
   0   4   1 18786.6 597.016   1
   0   4   1 18568.7 689.958  23
   0   4   2 40320.2 1008.10  23
   0   4   2 42852.2 935.781   1
   0   4   3 10775.1 535.136  23
   0   4   3 10646.6 493.442   1
   0   4   4 3694.94 332.868  23
   0   4   4 3697.08 318.440   1
   0   4   5 24241.6 899.347   1
   0   4   5 24665.9 928.925  23
   0   4   6 8770.78 596.863   1
   0   4   6 8623.37 598.951  23
   0   5  -9 3326.79 177.676  22
   0   5  -8 1775.34 167.438  22
   0   5  -8 1904.31 184.002   7
   0   5  -7 805.831 135.919   7
   0   5  -6 8785.94 444.841   7
   0   5  -5 2676.94 241.664   7
   0   5  -5 2839.53 248.598   6
   0   5  -4 1861.11 272.390  12
   0   5  -3 10896.3 633.028  12
   0   5  -2 5069.73 405.602  12
   0   5  -1 5360.23 404.139  12
   0   5   0 175313. 2374.68  12
   0   5   1 23666.9 907.486  23
   0   5   2 55030.1 1359.24  23
   0   5   2 51371.1 1172.69   1
   0   5   3 17894.7 787.579  23
   0   5   3 18964.8 747.195   1
   0   5   4 4235.48 383.219   1
   0   5   4 3769.23 378.400  23
   0   5   5 1355.64 234.768  23
   0   6  -8 200.889 53.1111   7
   0   6  -8 241.546 52.0424  22
   0   6  -7 36.6938 38.8712   7
   0   6  -6 13260.1 520.674   7
   0   6  -5 78275.0 1289.58   7
   0   6  -5 77750.4 1292.30   6
   0   6  -4 26234.9 741.685   7
   0   6  -4 25828.3 743.418   6
   0   6  -3 41263.0 1271.67  19
   0   6  -3 45262.1 963.995   6
   0   6  -2 36752.0 1164.01  12
   0   6  -1 444.651 126.920  12
   0   6   0 3355.41 352.802  12
   0   6   1 16820.5 829.720  12
   0   6   2 23.2578 52.0077  23
   0   6   3 8012.10 599.445  23
   0   6   4 44692.0 1436.94  23
   0   7  -7 8249.26 328.795  16
   0   7  -7 9274.21 330.114   7
   0   7  -6 180.561 62.4426   7
   0   7  -5-48.9222 38.7622   7
   0   7  -5-19.3341 42.4418   6
   0   7  -4 6009.11 348.201   7
   0   7  -4 5792.20 347.667   6
   0   7  -3 2174.53 212.426   7
   0   7  -3 2094.07 212.485   6
   0   7  -2 29519.6 776.518   7
   0   7  -2 29330.3 781.643  20
   0   7  -2 28776.6 784.014   6
   0   7  -1 91255.1 1387.97  20
   0   7   0 3522.25 276.944  20
   0   7   1 34872.0 1260.52  12
   0   7   1 33670.3 876.031  20
   0   7   2 1971.07 214.789  20
   0   7   3 680.561 131.824  20
   0   7   4 2.71987 30.1534  20
   0   7   5 10.5201 39.6497  20
   0   7   6 837.930 145.963  20
   0   7   7 1839.41 200.386  20
   0   8  -4 21806.4 606.783   7
   0   8  -4 21720.7 622.879   6
   0   8  -3 1587.99 174.164   7
   0   8  -3 1483.95 175.389   6
   0   8  -2 2321.08 225.324   6
   0   8  -1 1406.42 177.065  20
   0   8   0 259.028 82.0261  20
   0   8   1 10748.5 505.258  20
   0   8   2 27389.8 815.646  20
   0   8   3 1487.66 196.992  20
   0   8   4 1227.56 178.746  20
   0   8   5 1062.50 160.833  20
   0   8   6 20.6972 45.4930  20
   0   8   7 3678.09 251.646  20
   0   9  -4 15522.3 450.961   6
   0   9  -3 12689.6 454.193   6
   0   9  -2 242.316 79.4387   6
   0   9  -1 16537.9 579.462   6
   0   9   0 4349.05 305.746  20
   0   9   1 596.379 115.949  20
   0   9   2 1942.48 210.957  20
   0   9   3 1324.94 173.297  20
   0   9   4 470.808 107.986  20
   0   9   5 3201.81 251.673  20
   0   9   6 337.354 78.2399  20
   0   9   7 648.103 84.5372  20
   0  10  -3 1116.22 107.739   6
   0  10  -2 426.566 77.9815   6
   0  10  -1 676.413 103.933   6
   0  10   0 11514.6 437.184   6
   0  10   1 2650.84 214.618  20
   0  10   2 693.749 113.156  20
   0  10   3 7099.14 346.472  20
   0  10   4 736.257 109.385  20
   0  10   5 279.620 59.4774  20
   0  10   6 94.8821 30.3116  20
   0  11  -1 215.225 44.6820   6
   0  11   0 775.269 86.1831   6
   0  11   1 1264.15 116.831   6
   0  11   2 8.03930 19.9662   6
   0  11   3 4181.34 204.283   6
   1  -9  -7 139.116 39.3404   4
   1  -9  -6 1048.69 124.698   4
   1  -9  -5 864.442 121.857   4
   1  -9  -4 3836.45 262.531   4
   1  -8  -8 288.787 61.1332   4
   1  -8  -6 979.949 139.245   5
   1  -8  -5 545.572 109.139   5
   1  -8  -4 2130.94 215.580   5
   1  -7  -8 589.801 98.8387   5
   1  -7  -7 266.327 82.3430   5
   1  -7  -6 5094.00 345.330   5
   1  -7  -5 1301.87 178.689   5
   1  -7  -4 127.531 47.1039   5
   1  -7  -3 99.5021 53.4682   5
   1  -6  -9 13.8838 24.4520   5
   1  -6  -8 101.227 71.3634   5
   1  -6  -7 82.3590 52.9184   5
   1  -6  -6 2280.92 240.779   5
   1  -6  -5 6867.73 402.510   5
   1  -6  -4 8827.29 431.630   5
   1  -5  -9 244.062 64.8841   5
   1  -5  -8 1191.55 166.157   5
   1  -5  -7 2621.53 255.695   5
   1  -5  -6 2784.58 257.195   5
   1  -5  -5 48.2883 42.5731   5
   1  -4 -10 491.194 76.7025  17
   1  -4  -9 55.6066 38.3281  17
   1  -4  -9 36.0000 32.0316   5
   1  -4  -8 248.838 75.8015   5
   1  -4  -8 233.598 76.1518  17
   1  -4  -7 756.503 126.359  17
   1  -4  -7 793.387 144.158   5
   1  -4  -6 6438.81 376.055   5
   1  -4   5 16131.2 830.083  14
   1  -3 -10 1260.09 137.823  17
   1  -3  -9 879.755 136.428  17
   1  -3  -8 835.256 130.761  22
   1  -3  -8 924.080 148.153   5
   1  -3  -7 68.1155 51.5882   5
   1  -3  -7 55.3878 39.0838  22
   1  -3   5 44942.0 1271.00  14
   1  -3   6 39032.1 1287.24  14
   1  -2 -10 2719.01 213.201  17
   1  -2  -9 1128.75 153.054  22
   1  -2  -8 2808.49 243.624  22
   1  -2  -7 677.979 114.302  22
   1  -2   4 106617. 1606.92  14
   1  -2   5 2149.81 255.183  14
   1  -2   6 1454.97 234.028  14
   1  -1 -10 81.2398 48.8843  22
   1  -1  -9-24.0260 41.6951  22
   1  -1  -8 641.045 120.185  22
   1  -1  -7 779.982 125.614  22
   1  -1   0 35403.0 343.902  13
   1  -1   3 42872.3 786.324  14
   1  -1   4 160373. 1752.01  14
   1  -1   5 6883.64 415.814  14
   1  -1   6 756.313 164.215  14
   1   0 -10 230.452 67.8072  22
   1   0  -9 19.8230 35.8989  22
   1   0  -8 8903.78 444.368  22
   1   0  -7 22738.1 669.175  22
   1   0  -7 22605.7 749.004   7
   1   0   2 203374. 1208.11  14
   1   0   3 1580.48 139.106  14
   1   0   4 5303.76 298.456  14
   1   0   5 2993.03 266.203  14
   1   0   6 6043.41 443.239  14
   1   0   7 22439.6 969.848  14
   1   1 -10 489.256 89.5365  22
   1   1  -9 1210.60 165.095  22
   1   1  -8 258.457 82.7975  22
   1   1  -7 9210.22 479.460   7
   1   1  -2 15054.0 476.694   2
   1   1  -1 29024.7 473.271  12
   1   1   0 14237.6 294.205  12
   1   1   1 23783.3 251.987  23
   1   1   2 180300. 1190.48  14
   1   1   3 78503.5 991.764  14
   1   1   4 7264.92 359.303  14
   1   1   5 92714.8 1513.69  14
   1   1   6 5385.70 418.447  14
   1   1   7 1729.94 270.585  14
   1   2 -10 1555.77 148.687  22
   1   2  -9 1427.97 176.187  22
   1   2  -8 2309.59 235.220  22
   1   2  -8 1883.77 220.459   7
   1   2  -7 2305.70 242.220   7
   1   2  -3 90391.1 974.807  19
   1   2  -2 28517.5 677.966  12
   1   2  -2 30211.9 730.121   2
   1   2  -1 211091. 1677.96  12
   1   2   0 149814. 1379.16  13
   1   2   0 147674. 1393.02  12
   1   2   1 30439.6 531.674  23
   1   2   2 12394.7 328.026  23
   1   2   3 1508.94 153.205  14
   1   2   3 1652.32 135.868  23
   1   2   4 3798.70 277.724  14
   1   2   5 25431.4 821.299  14
   1   2   6 35392.9 1115.66  14
   1   2   7 629.628 170.685  14
   1   3 -10 1296.15 115.881  22
   1   3  -9 780.006 121.206  22
   1   3  -8 68.8693 50.0630   7
   1   3  -7 1571.81 199.962   7
   1   3  -6 26268.2 783.006   7
   1   3  -3 13815.6 604.634  12
   1   3  -2 2320.63 230.227  12
   1   3  -2 3127.28 252.198   2
   1   3  -1 14171.1 542.100  12
   1   3  -1 15803.1 511.399   2
   1   3   0 191062. 1926.62  12
   1   3   1 79392.6 1145.20  23
   1   3   1 83100.8 1198.41   1
   1   3   2 1614.88 173.621   1
   1   3   2 2348.30 187.049  23
   1   3   3 93424.0 1383.99   1
   1   3   3 94109.8 1227.42  23
   1   3   4 16699.3 568.018  23
   1   3   4 16713.4 633.653   1
   1   3   5 20582.6 708.178  23
   1   3   5 19459.1 764.700   1
   1   3   6 751.698 168.329   1
   1   4  -9 62.5860 37.5785  22
   1   4  -8 72.4923 49.4068   7
   1   4  -7 42.1170 43.1561   7
   1   4  -6 1110.25 165.340   7
   1   4  -5 30447.4 814.143   6
   1   4  -3 15245.8 707.369  12
   1   4  -2 148702. 2051.11  12
   1   4  -2 145317. 1793.47   2
   1   4  -1 20783.3 733.913  12
   1   4  -1 22638.9 660.666   2
   1   4   0 105121. 1360.82  13
   1   4   0 100622. 1609.71  12
   1   4   1 778.346 114.496  13
   1   4   2 141.454 58.4491  23
   1   4   2 182.673 73.5595   1
   1   4   3 3260.11 292.594   1
   1   4   3 3529.05 285.486  23
   1   4   4 72514.6 1359.03  23
   1   4   4 70062.2 1424.77   1
   1   4   5 13483.8 682.930   1
   1   4   6 29599.0 1105.31   1
   1   5  -9 30.8559 23.4182  22
   1   5  -8 5995.41 297.762   7
   1   5  -7 28940.1 754.786   7
   1   5  -6 13406.4 540.826   7
   1   5  -5 14715.6 557.410   7
   1   5  -5 14732.6 583.240   6
   1   5  -3 356.545 112.667  12
   1   5  -2 18701.5 791.650  12
   1   5  -1 75860.3 1549.68  12
   1   5   0 110.851 59.6183  12
   1   5   1 17188.6 761.645  12
   1   5   2 145350. 2144.36  23
   1   5   2 137077. 2058.23   1
   1   5   3 15756.0 702.457  23
   1   5   3 14896.9 699.868   1
   1   5   4 4864.85 417.990   1
   1   5   5 82.4667 65.3832   1
   1   6  -8 839.922 93.9324  22
   1   6  -5 100.378 57.2125   6
   1   6  -4 22683.4 719.198   6
   1   6  -3 103628. 1498.67   6
   1   6  -2 6247.55 494.711  12
   1   6  -1 15958.0 771.979  12
   1   6   0 1609.69 244.786  12
   1   6   1 756.941 177.403  12
   1   6   2 20265.3 932.008  12
   1   6   3 8120.38 568.667   1
   1   6   4 4283.56 423.630   1
   1   6   5 10658.4 711.008   1
   1   7  -7 1707.46 135.527  16
   1   7  -5 19.5403 33.5336   6
   1   7  -4-6.32839 43.5833   6
   1   7  -3 6670.22 387.093   6
   1   7  -2 1505.86 185.220   6
   1   7  -1 26406.8 755.474  20
   1   7   0 66593.1 1695.60  12
   1   7   0 63932.9 1176.85  20
   1   7   1 378.195 126.470  12
   1   7   2 1036.51 234.765  12
   1   7   2 919.677 144.358  20
   1   7   3 494.791 110.190  20
   1   7   4 757.352 136.327  20
   1   7   5 16292.3 632.310  20
   1   7   6 6522.33 399.890  20
   1   8  -4 46.3214 44.4894   6
   1   8  -3 8640.37 421.396   6
   1   8  -2 1161.86 163.776   6
   1   8  -1 66.0272 56.0362   6
   1   8   0 14316.3 572.723  20
   1   8   1 16473.9 618.080  20
   1   8   2 100.247 52.1705  20
   1   8   3 15094.6 604.814  20
   1   8   4 3385.26 288.924  20
   1   8   5 1365.72 184.397  20
   1   8   6 1436.96 177.597  20
   1   9  -4 2026.26 167.182   6
   1   9  -3 1759.03 175.246   6
   1   9  -2 27581.6 733.759   6
   1   9  -1 4196.83 299.151   6
   1   9   0 742.055 133.168  20
   1   9   0 794.533 138.728   6
   1   9   1 7612.16 412.111  20
   1   9   2 62.5350 33.6735  20
   1   9   3 1088.81 158.328  20
   1   9   4 4386.97 308.815  20
   1   9   5 4834.61 313.795  20
   1   9   6 2662.07 209.737  20
   1  10  -3 25.9602 27.9451   6
   1  10  -2 32.8534 34.5840   6
   1  10  -1 12879.9 452.633   6
   1  10   0 99.6319 40.5972   6
   1  10   1 15623.4 532.755   6
   1  10   2 2579.30 214.894  20
   1  10   3 11.5924 31.4071  20
   1  10   4-18.7402 38.2143  20
   1  10   5 194.122 53.3173  20
   1  10   6 15.4240 18.9816  20
   1  11  -1 8652.78 277.712   6
   1  11   0 66.7294 37.4434   6
   1  11   1 69.1448 35.2907   6
   1  11   2 4019.14 215.406   6
   1  11   3 1499.82 127.676   6
   1  11   4 626.146 76.7462   6
   2  -9  -6 462.577 71.6082   4
   2  -9  -5 2366.50 176.910   4
   2  -8  -6 109.781 46.9442   5
   2  -8  -5 197.808 63.2235   5
   2  -8  -4 395.328 92.5817   5
   2  -7  -8 372.390 71.8369   5
   2  -7  -7 996.824 132.448   5
   2  -7  -6 1323.80 168.986   5
   2  -7  -5 81.9092 53.7768   5
   2  -7  -4 5753.08 354.063   5
   2  -7  -3 62.8602 42.8619   5
   2  -6  -9 251.748 53.3640   5
   2  -6  -8 1085.32 137.786   5
   2  -6  -7 369.292 93.7226   5
   2  -6  -6 128.093 67.7351   5
   2  -6  -5 209.238 74.8471   5
   2  -6  -4 12447.4 518.881   5
   2  -6  -3 9454.96 429.715   5
   2  -5  -9 87.5325 36.7686   5
   2  -5  -8 1404.31 171.897   5
   2  -5  -7 268.942 81.8096   5
   2  -5  -6 327.191 93.8886   5
   2  -5  -5 1992.67 211.912   5
   2  -5  -4 154.365 57.6708   5
   2  -4  -9 432.249 86.1631   5
   2  -4  -8 330.024 87.8705   5
   2  -4  -7 3231.33 277.390   5
   2  -4   5 1166.62 225.606  14
   2  -3  -9-25.8457 25.8426   5
   2  -3  -9 0.37482 31.5029  17
   2  -3  -8 1424.38 179.694   5
   2  -3   5 24156.2 930.990  14
   2  -2 -10 69.2540 36.3774  17
   2  -2  -9 71.0006 40.4710  22
   2  -2  -8 478.230 107.781   5
   2  -2  -8 415.702 98.7851  22
   2  -2  -7 5500.28 331.488  22
   2  -2  -6 3374.05 245.931  22
   2  -2   0 14372.4 232.156   2
   2  -2   1 73456.5 705.290  13
   2  -2   4 6742.39 401.285  14
   2  -2   5 4430.85 357.876  14
   2  -2   6 4007.15 381.140  14
   2  -1 -10 698.123 100.460  17
   2  -1  -9 2715.71 227.212  22
   2  -1  -8 82.7420 42.8650  22
   2  -1  -7 2165.27 210.122  22
   2  -1  -1 52698.1 773.533   2
   2  -1   0 141618. 1262.19  13
   2  -1   1 1036.53 58.8874   1
   2  -1   4 3426.25 250.890  14
   2  -1   5 76020.1 1346.16  14
   2  -1   6 38339.1 1094.67  14
   2   0 -10 199.327 56.7790  22
   2   0  -9 2730.59 231.493  22
   2   0  -8 979.332 149.747  22
   2   0  -7-29.6183 43.4298  22
   2   0  -2 1673.65 176.928   2
   2   0   0 281688. 2119.07  13
   2   0   1 103984. 893.159   1
   2   0   2 16146.8 325.073  14
   2   0   3 121180. 1137.58  14
   2   0   4 1383.38 149.672  14
   2   0   5 9259.74 455.097  14
   2   0   6 25709.5 876.202  14
   2   0   7 16732.0 812.199  14
   2   1 -10 440.549 75.7453  22
   2   1  -9 147.945 66.3226  22
   2   1  -8 52.2217 52.3845  22
   2   1  -6 3937.00 297.993   7
   2   1  -3 71931.2 1346.76   2
   2   1  -2 34199.5 863.310   2
   2   1  -1 4729.03 307.668  13
   2   1   0 9917.45 237.043  12
   2   1   1 45915.7 489.346  12
   2   1   1 44674.9 741.446   1
   2   1   2 15708.3 318.228  14
   2   1   2 14539.8 429.464   1
   2   1   3 85305.4 975.512  14
   2   1   4 117610. 1404.41  14
   2   1   5 2575.41 245.839  14
   2   1   6 12151.1 607.741  14
   2   1   7 567.468 150.863  14
   2   2  -9 151.969 61.1383  22
   2   2  -8 4815.79 333.587  22
   2   2  -7 3438.28 292.930   7
   2   2  -6 1775.70 202.177   7
   2   2  -3 583.631 136.336   2
   2   2  -2 197509. 2203.07   2
   2   2  -1 91886.7 1424.55  13
   2   2  -1 89928.2 1131.07  12
   2   2   0 1033.91 151.668  13
   2   2   0 791.540 98.5802  12
   2   2   1 100640. 1132.60  12
   2   2   1 99524.0 1304.57   1
   2   2   2 610.775 104.764   1
   2   2   3 44898.4 787.303  14
   2   2   3 46407.3 941.102   1
   2   2   3 47962.3 574.774  23
   2   2   4 28186.7 804.884   1
   2   2   4 27980.7 729.148  14
   2   2   5 15966.5 632.550  14
   2   2   6 3325.39 331.941  14
   2   2   7 15949.9 805.994  14
   2   3  -9 169.475 59.2430  22
   2   3  -8 2076.47 215.621  22
   2   3  -7 15874.9 606.381   7
   2   3  -6 4507.89 322.686   7
   2   3  -3 3402.20 323.440   2
   2   3  -2 35155.9 918.568  12
   2   3  -2 36768.9 981.152   2
   2   3  -1 23277.4 686.095  12
   2   3   0 10283.0 490.731  13
   2   3   0 9557.06 423.949  12
   2   3   1 8750.06 418.695  13
   2   3   1 8543.53 410.497  12
   2   3   1 8454.08 440.875   1
   2   3   2 236055. 2318.86   1
   2   3   3 35817.7 927.158   1
   2   3   4 91923.5 1586.54   1
   2   3   5 3731.61 349.338   1
   2   3   6 2031.66 281.104   1
   2   4  -9 4297.41 226.047  22
   2   4  -3 61367.6 1465.47  12
   2   4  -2 173.718 75.6978   2
   2   4  -2 116.673 65.7066  12
   2   4  -1 8791.23 473.558   2
   2   4  -1 8438.66 472.456  12
   2   4   0 122937. 1790.19  13
   2   4   0 122606. 1739.25  12
   2   4   1 23556.8 764.348  13
   2   4   1 22058.7 768.802  12
   2   4   2 194.001 73.3556  13
   2   4   2 2134.33 246.481   1
   2   4   3 23727.1 849.980   1
   2   4   4 2348.14 280.083   1
   2   4   5 73756.3 1654.91   1
   2   4   6 31719.4 1170.95   1
   2   5  -8 2751.07 198.817  22
   2   5  -4 2534.60 240.793   6
   2   5  -3 283.844 110.976  12
   2   5  -2 17055.3 783.450  12
   2   5  -1 3311.56 330.428  12
   2   5  -1 3416.11 313.578   2
   2   5   0 76612.8 1452.45  13
   2   5   0 78371.4 1562.34  12
   2   5   1 26734.9 881.262  13
   2   5   1 27614.4 947.318  12
   2   5   2 21020.4 774.580  13
   2   5   2 20727.3 858.639   1
   2   5   2 20786.4 854.936  12
   2   5   3 17230.9 707.682  13
   2   5   3 17320.8 804.392   1
   2   5   4 3250.69 358.979   1
   2   5   5 222.093 101.706   1
   2   6  -8 109.478 37.2482  22
   2   6  -4 321.711 90.3026   6
   2   6  -3 21275.0 691.355   6
   2   6  -3 21828.0 668.954   3
   2   6  -2 32749.3 1170.48  12
   2   6  -1 583.973 148.207  12
   2   6   0 653.682 157.727  12
   2   6   1 6342.51 493.726  12
   2   6   2 8749.15 615.250  12
   2   6   3 54332.1 1559.40   1
   2   6   4 43865.4 1439.25   1
   2   7  -4 351.926 94.6415   6
   2   7  -3 99.4629 50.4000   6
   2   7  -3 102.542 55.6712   3
   2   7  -2 28804.8 811.541   6
   2   7  -2 27684.2 748.378   3
   2   7  -1 36331.5 835.700   3
   2   7  -1 36717.1 906.248   6
   2   7   0 403.080 95.2400  20
   2   7   1 28249.9 1122.11  12
   2   7   1 26993.3 759.842  20
   2   7   2 7270.12 586.260  12
   2   7   2 6718.52 380.281  20
   2   7   3 100.807 61.1971  20
   2   7   4-91.3093 50.2829  20
   2   8  -4 17314.7 565.626   6
   2   8  -3 680.520 121.832   6
   2   8  -2 40.9699 37.7418   3
   2   8  -2 122.888 74.2896   6
   2   8  -1 146.599 61.1233   3
   2   8  -1 281.756 86.5619   6
   2   8   1 3900.20 297.267  20
   2   8   2 31358.5 843.761  20
   2   8   3 12315.1 531.982  20
   2   8   4 8231.83 437.910  20
   2   8   5 9228.34 455.160  20
   2   9  -3 23427.5 620.969   6
   2   9  -2 56.7356 39.1251   6
   2   9  -1 22248.2 680.224   6
   2   9   0 2050.52 212.401   6
   2   9   1 419.673 98.2364  20
   2   9   2 790.523 133.831  20
   2   9   3 3395.15 270.221  20
   2   9   4 168.752 66.7288  20
   2   9   5 7226.73 365.634  20
   2  10  -2 1287.65 132.442   6
   2  10  -1 23.0753 33.7868   6
   2  10   0 16709.1 532.176   6
   2  10   1 6869.67 349.092   6
   2  10   2 1655.47 173.252   6
   2  10   3 15895.2 514.112  20
   2  10   4 471.226 85.1543  20
   2  10   5-76.0396 35.3895  20
   2  11  -1 1100.89 95.8024   6
   2  11   0 259.452 52.5261   6
   2  11   1 463.754 73.4835   6
   2  11   2 884.575 99.9514   6
   2  11   3 741.605 89.1228   6
   2  11   4 5914.90 226.020   6
   3  -8  -5 77.5372 38.7072   5
   3  -7  -7 91.0001 44.5267   5
   3  -7  -6 1279.88 150.850   5
   3  -7  -5 1064.90 148.566   5
   3  -7  -4 84.5503 48.7075   5
   3  -6  -8 71.1720 46.8163   5
   3  -6  -7 36.8758 45.7419   5
   3  -6  -6 330.948 87.8025   5
   3  -6  -5 2346.08 230.574   5
   3  -6  -4 478.089 106.042   5
   3  -6  -3 1502.52 175.399   5
   3  -5  -8 2591.35 207.442   5
   3  -5  -7 829.393 134.234   5
   3  -5  -6 811.851 137.445   5
   3  -5  -5 309.663 86.6547   5
   3  -4  -9-9.40528 20.8081   5
   3  -4  -8 28.3834 39.5999   5
   3  -4  -7 1197.69 165.791   5
   3  -3  -9 374.705 76.3041   5
   3  -3  -8 627.978 117.650   5
   3  -3   5 16995.4 793.116  14
   3  -2  -8 421.182 98.2073   5
   3  -2   4 51661.7 1128.80  14
   3  -2   5 1683.39 222.044  14
   3  -2   6 1511.79 232.590  14
   3  -1  -8 33.6547 38.5302  22
   3  -1  -2 118194. 1534.43   2
   3  -1  -1 41484.5 849.588   2
   3  -1   0 13811.5 507.655  13
   3  -1   1 11526.3 476.833  13
   3  -1   3 27649.1 617.198  14
   3  -1   4 115307. 1437.53  14
   3  -1   5 43872.9 1030.72  14
   3  -1   6 9636.74 548.658  14
   3   0  -9 95.1466 42.9492  22
   3   0  -8 536.232 105.543  22
   3   0  -7 5344.00 339.968  22
   3   0  -6 227.424 66.7930  22
   3   0  -2 32418.8 903.836   2
   3   0   0 1712.88 212.741  13
   3   0   1 57285.7 1110.15  13
   3   0   2 105258. 770.690  14
   3   0   2 102755. 1180.13   1
   3   0   3 60.6955 43.0470   1
   3   0   3 58.9652 29.2634  14
   3   0   4 2002.88 176.912  14
   3   0   5 1523.68 182.608  14
   3   0   6 80.9012 56.3887  14
   3   0   7 30100.0 1072.51  14
   3   1  -9 100.356 45.8131  22
   3   1  -8 734.318 125.308  22
   3   1  -7 2004.82 213.249  22
   3   1  -3 28001.2 963.478   2
   3   1  -2 35.4303 79.2722   2
   3   1  -1 14704.1 651.028  13
   3   1   0 13939.3 633.909  13
   3   1   1 44537.2 1021.43  13
   3   1   2 145934. 1628.04   1
   3   1   3 62409.4 791.237  14
   3   1   3 59924.3 1083.09   1
   3   1   4 6243.24 313.504  14
   3   1   4 5445.45 352.903   1
   3   1   5 60709.9 1161.86  14
   3   1   5 57259.4 1272.90   1
   3   1   6 33685.0 993.977  14
   3   1   7 604.446 154.680  14
   3   1   7 688.223 171.609   1
   3   2  -9 3655.88 223.582  22
   3   2  -8 1218.18 160.323  22
   3   2  -3 30662.0 1043.37   2
   3   2  -2 9217.94 546.775   2
   3   2  -1 8004.77 501.142  13
   3   2   0 202606. 2511.74  13
   3   2   0 204558. 1538.82  12
   3   2   1 13203.0 589.862  13
   3   2   1 12691.2 348.701  12
   3   2   2 90164.0 1033.37  12
   3   2   2 91153.5 1444.75   1
   3   2   3 5474.01 362.281   1
   3   2   4 45989.5 911.227  14
   3   2   4 45547.7 1106.31   1
   3   2   5 18326.9 675.455  14
   3   2   5 18672.3 765.886   1
   3   2   6 43287.5 1182.44  14
   3   2   6 43573.1 1298.30   1
   3   3  -9 104.011 39.0430  22
   3   3  -8 563.376 107.463  22
   3   3  -3 109.193 71.3270   2
   3   3  -2 20770.9 847.614   2
   3   3  -1 20285.2 662.071  12
   3   3   0 8868.47 537.947  13
   3   3   0 7863.11 377.963  12
   3   3   1 82329.2 1559.48  13
   3   3   1 81955.3 1203.19  12
   3   3   2 3514.28 311.318  13
   3   3   2 3925.87 278.804  12
   3   3   2 3902.61 334.332   1
   3   3   3 170281. 2243.99   1
   3   3   4 49280.1 1249.03   1
   3   3   5 7747.55 527.802   1
   3   3   6 8338.75 596.665   1
   3   4  -8 33.5504 40.4994  22
   3   4  -3 6827.42 515.755   2
   3   4  -2 52063.9 1308.39  12
   3   4  -2 56936.3 1428.14   2
   3   4  -1 16112.3 728.414   2
   3   4  -1 15782.1 664.155  12
   3   4   0 34166.8 1081.96  13
   3   4   0 34357.7 932.996  12
   3   4   1 177.554 114.726  13
   3   4   1 212.410 77.0294  12
   3   4   2 2459.77 284.063  13
   3   4   2 2931.49 323.389   1
   3   4   2 2582.69 265.954  12
   3   4   3 2353.84 292.328   1
   3   4   4 52288.8 1408.05   1
   3   4   5 25434.0 1033.10   1
   3   4   6 200.367 98.5268   1
   3   5  -8 742.656 92.7138  22
   3   5  -4 597.545 119.014   6
   3   5  -3 229.527 66.9874   3
   3   5  -3 109.425 56.8666   6
   3   5  -2 6848.44 515.113  12
   3   5  -2 6927.41 508.015   2
   3   5  -1 30967.9 1033.29  12
   3   5  -1 30298.7 1045.21   2
   3   5   0 7966.20 536.475  13
   3   5   0 8629.10 524.092  12
   3   5   1 80638.3 1761.13  13
   3   5   1 80994.3 1598.50  12
   3   5   2 84634.0 1801.63  13
   3   5   2 90106.1 1750.66  12
   3   5   3 256.118 104.075   1
   3   5   3 366.241 129.496  13
   3   5   3 197.051 86.4428  12
   3   5   4 5176.03 480.118   1
   3   5   5 75.6252 69.5356   1
   3   6  -4 13025.6 551.715   6
   3   6  -3 21998.1 711.479   6
   3   6  -3 22387.1 696.581   3
   3   6  -2 435.295 106.612   3
   3   6  -2 527.142 109.964   6
   3   6  -1 8854.58 594.857  12
   3   6   0 805.398 174.451  12
   3   6   1 2504.26 311.754  12
   3   6   2 19448.5 876.694  12
   3   6   3 21663.7 983.781  12
   3   6   4 1860.46 313.367   1
   3   7  -3 4428.61 315.912   6
   3   7  -3 4357.53 304.574   3
   3   7  -2 2912.66 260.233   6
   3   7  -2 2813.25 246.601   3
   3   7  -1 9344.39 444.390   3
   3   7  -1 9090.98 453.840   6
   3   7   0 55063.1 1063.91   3
   3   7   0 55617.5 1104.60   6
   3   7   1 9043.82 436.560  20
   3   7   2 12859.6 512.074  20
   3   8  -3 9829.92 439.762   6
   3   8  -2 61.6387 32.8853   3
   3   8  -2 37.5260 40.2365   6
   3   8  -1 2361.63 232.519   6
   3   8  -1 2779.81 239.515   3
   3   8   0 9744.99 455.320   3
   3   8   0 9619.47 465.200   6
   3   8   1 19646.3 646.205   3
   3   8   1 19393.7 661.400   6
   3   8   2 1017.37 146.706  20
   3   8   3 21419.5 668.517  20
   3   9  -3 654.541 102.876   6
   3   9  -2 20642.9 599.252   6
   3   9  -1 6512.55 352.668   6
   3   9  -1 6284.89 328.759   3
   3   9   0 3160.05 254.399   6
   3   9   0 3164.57 240.749   3
   3   9   1 21230.4 622.059   3
   3   9   1 19943.3 638.983   6
   3   9   2 686.926 116.094   3
   3   9   2 818.488 133.547   6
   3   9   3 18.1441 26.3743  20
   3  10  -2 153.989 46.2193   6
   3  10  -1 5837.36 282.392   6
   3  10   0 2689.71 201.440   6
   3  10   1 4561.33 268.833   6
   3  10   2 22017.6 589.440   6
   3  10   3 470.683 86.3783   6
   3  10   4 1224.27 131.544   6
   3  11   0 13.7422 18.4595   6
   3  11   1 447.182 65.8847   6
   3  11   2 216.681 46.2432   6
   4  -7  -6 62.4890 35.3045   5
   4  -7  -5 19.7718 26.3275   5
   4  -7  -4 2208.55 197.084   5
   4  -6  -7 154.805 47.2769   5
   4  -6  -6 46.3120 37.3120   5
   4  -6  -5 57.5857 35.0799   5
   4  -6  -4 2782.15 239.650   5
   4  -5  -8 1927.65 151.179   5
   4  -5  -7 235.237 68.6833   5
   4  -5  -6 705.825 123.582   5
   4  -5  -5 759.503 130.663   5
   4  -4  -8 616.088 99.6343   5
   4  -4  -7 76.3965 51.0731   5
   4  -3  -8 133.144 55.0588   5
   4  -2  -8 53.8204 47.1927   5
   4  -1  -2 177.932 75.8555   2
   4  -1  -1 2657.66 259.211   2
   4  -1   0 17335.5 664.858  13
   4  -1   1 875.989 166.011  13
   4  -1   2 10271.7 548.287  13
   4   0  -2 12165.7 641.089   2
   4   0  -1 18585.2 779.290   2
   4   0   0 136994. 2191.55  13
   4   0   1 44140.6 1232.76  13
   4   0   2 7746.39 490.943  13
   4   1  -3 734.527 182.734   2
   4   1  -2 44279.3 1319.29   2
   4   1   0 12150.2 696.752  13
   4   1   1 45228.8 1287.31  13
   4   1   2 92035.5 1732.38  13
   4   1   2 95764.6 1550.14   1
   4   1   3 55493.0 1200.74   1
   4   1   4 103015. 1701.31   1
   4   1   5 11534.7 606.366   1
   4   1   6 23258.6 929.694   1
   4   2  -8 91.0031 48.9632  22
   4   2  -7 1706.35 186.763  22
   4   2  -3 11044.8 713.086   2
   4   2  -2 13634.2 767.265   2
   4   2   0 273.472 118.233  13
   4   2   1 108601. 2058.88  13
   4   2   2 13751.2 692.224  13
   4   2   2 13844.1 652.216   1
   4   2   3 6062.64 436.727   1
   4   2   4 2051.13 262.624   1
   4   2   5 18299.1 811.289   1
   4   2   6 293.126 110.085   1
   4   3  -8 113.957 43.2240  22
   4   3  -7 1585.70 176.491  22
   4   3  -3 2895.24 364.219   2
   4   3  -2 11407.6 710.451   2
   4   3   0 15577.5 820.980  13
   4   3   1 12239.0 721.211  13
   4   3   2 113976. 2090.30  13
   4   3   3 40745.7 1239.66  13
   4   3   3 43686.5 1263.12   1
   4   3   4 1095.59 199.468   1
   4   3   5 40743.5 1306.36   1
   4   3   6-45.3769 58.9334   1
   4   4  -8-0.05840 20.9542  22
   4   4  -3 20216.6 692.107   3
   4   4  -2 1320.24 244.141   2
   4   4  -1 32717.7 1171.20   2
   4   4   0 35414.7 1240.47  13
   4   4   1 191.759 99.7031  13
   4   4   2 48.3774 62.4204  13
   4   4   3 18697.9 888.379  13
   4   4   3 18751.4 903.060   1
   4   4   4 1852.33 285.580   1
   4   4   5 15937.1 868.367   1
   4   5  -3 81.5492 47.3999   3
   4   5  -2 1366.65 177.106   6
   4   5  -2 1707.19 195.587   3
   4   5  -1 1452.73 244.605   2
   4   5   0 52102.7 1542.87  13
   4   5   1 31977.1 1254.74  13
   4   5   2 9386.18 690.853  13
   4   5   3 46956.6 1512.11  13
   4   5   4 3512.84 415.254  13
   4   5   4 3821.40 442.520   1
   4   5   5 75.3110 62.2729  13
   4   6  -7 80.4555 32.3593  22
   4   6  -3 6301.92 380.352   6
   4   6  -3 6951.19 402.195   3
   4   6  -2 22618.5 711.959   6
   4   6  -2 22527.3 709.647   3
   4   6  -1 861.988 142.479   3
   4   6  -1 934.894 140.153   6
   4   6   0 7117.05 391.676   3
   4   6   1 560.631 166.001  13
   4   6   2 55631.7 1724.74  13
   4   6   3 40379.0 1501.55  13
   4   7  -2 21528.4 687.414   6
   4   7  -2 21601.6 692.761   3
   4   7  -1 25415.9 744.764   6
   4   7  -1 25525.7 752.649   3
   4   7   0 324.251 93.2697   3
   4   7   0 246.054 74.6390   6
   4   8  -2 1660.34 180.441   6
   4   8  -2 1724.44 188.226   3
   4   8  -1 5465.50 332.025   6
   4   8  -1 5479.95 340.858   3
   4   8   0 8166.16 421.159   3
   4   8   0 8155.20 408.258   6
   4   8   1 193.482 78.3987   3
   4   8   1 127.262 52.8224   6
   4   9  -2 1589.90 151.917   6
   4   9  -1 6948.96 336.091   6
   4   9  -1 6592.09 334.173   3
   4   9   0 21927.8 616.815   6
   4   9   0 21059.1 617.348   3
   4   9   1 185.504 71.6147   3
   4   9   1 285.791 70.5961   6
   4   9   2 742.820 123.228   3
   4   9   3 3812.12 270.069   3
   4  10  -1 327.675 57.6154   6
   4  10   0 3609.57 205.659   6
   4  10   0 3431.22 200.496   3
   4  10   1 11061.1 368.413   6
   4  10   1 10603.6 365.923   3
   4  10   2 30.3139 25.8277   3
   4  10   3 7917.47 313.952   3
   5  -6  -6 171.651 48.2919   5
   5  -6  -5 90.9134 37.6543   5
   5  -6  -4 98.7656 46.8946   5
   5  -5  -7 157.086 47.2151   5
   5  -5  -6 122.005 47.3172   5
   5  -5  -5 19.1194 32.4023   5
   5  -5  -4 182.419 66.5095   5
   5  -5  -3 130.366 61.6289   5
   5  -4  -7 2019.33 175.965   5
   5  -4  -6 82.1146 52.7126   5
   5  -3  -7 102.500 51.7298   5
   5  -2  -8 438.117 76.0995   5
   5  -1  -8 180.327 51.8694   5
   5   0  -2 581.531 161.202   2
   5   0  -1 35117.7 1214.84   2
   5   0   0 39016.5 1294.52  13
   5   0   1 40390.3 1381.09  13
   5   0   2 68937.8 1789.45  13
   5   0   3 2810.22 354.445  13
   5   1  -2 128.012 101.640   2
   5   1  -1 11561.1 743.112   2
   5   1   0 151.588 95.3610  13
   5   1   1 3045.89 397.859  13
   5   1   2 5160.71 501.171  13
   5   1   3 37753.4 1320.88  13
   5   2  -2 7413.03 629.241   2
   5   2  -1 12004.2 777.567   2
   5   2   0 61992.4 1791.24  13
   5   2   1 14018.4 870.022  13
   5   2   2 243.119 116.613  13
   5   2   3 18884.5 948.161  13
   5   2   4 10804.5 710.163  13
   5   2   4 10490.6 660.555   1
   5   3  -3 2495.63 248.291   3
   5   3  -2 1517.66 288.018   2
   5   3  -1 145.491 104.669   2
   5   3   0 6126.01 572.536  13
   5   3   1 47799.1 1628.31  13
   5   3   2 2557.23 364.536  13
   5   3   3 27915.7 1188.66  13
   5   3   4 46379.4 1521.20  13
   5   3   4 50953.6 1542.82   1
   5   3   5-115.523 83.2372   1
   5   4  -3-14.3395 48.3710   3
   5   4  -2 28607.1 834.306   3
   5   4  -1 9620.02 702.024   2
   5   4   0 13971.5 868.976  13
   5   4   1 12825.5 858.115  13
   5   4   2 2181.80 356.045  13
   5   4   3 888.913 220.708  13
   5   4   4 18326.0 1000.37  13
   5   4   4 19480.2 1013.27   1
   5   5  -3 26.3307 54.7871   3
   5   5  -2 75.0887 46.2953   3
   5   5  -1 11033.1 511.759   3
   5   5   0 31864.0 850.449   3
   5   5   1 44732.9 1600.62  13
   5   5   2 106655. 2562.93  13
   5   5   3 10137.1 790.571  13
   5   6  -2 55.4475 46.2792   3
   5   6  -1 5794.04 370.406   3
   5   6   0 62.6253 51.8584   3
   5   7  -2 7603.43 409.611   3
   5   7  -1 466.310 111.044   3
   5   7   0 30206.8 841.812   3
   5   7   1 5937.47 377.926   3
   5   8  -2 5550.77 318.635   3
   5   8  -1 2361.91 218.144   3
   5   8   0 637.536 120.566   3
   5   8   1 14532.6 570.491   3
   5   8   2 3149.23 271.021   3
   5   9  -1 9137.97 372.821   3
   5   9   0 565.850 100.922   3
   5   9   1 6331.74 336.205   3
   5   9   2 180.992 63.9918   3
   5   9   3 771.263 122.232   3
   5  10   1 2771.37 178.111   3
   5  10   2 11182.8 364.564   3
   5  10   3 446.179 73.3489   3
   5  10   4 1456.69 127.041   3
   5  10   5 1908.30 135.599   3
   6  -5  -5 656.778 97.5307   5
   6  -5  -4 100.158 45.7466   5
   6  -4  -6 116.695 48.1973   5
   6  -4  -5 2244.30 203.232   5
   6  -3  -6-5.27173 28.7099   5
   6  -2  -7 84.0474 40.3849   5
   6   1  -1 896.811 236.418   2
   6   1   1 300.965 142.473  13
   6   1   2 23007.4 1231.64  13
   6   1   3 8191.78 726.684  13
   6   1   4 61122.2 1929.64  13
   6   2   1 13101.5 927.803  13
   6   2   2 14924.9 1003.48  13
   6   2   3 632.480 206.953  13
   6   2   4-181.338 111.820  13
   6   3   1-239.448 136.052  13
   6   3   2 36024.8 1568.39  13
   6   3   3 24935.8 1292.35  13
   6   4  -2 6636.18 409.015   3
   6   4  -1 16805.2 643.224   3
   6   4   0 42274.6 1002.49   3
   6   5  -2 963.682 155.138   3
   6   5  -1 452.252 104.325   3
   6   5   0 6463.09 403.991   3
   6   5   1 905.093 154.023   3
   6   6  -2 11423.8 504.589   3
   6   6  -1 150.119 66.4915   3
   6   6   0 1708.23 202.509   3
   6   6   1 1873.73 217.151   3
   6   7  -1 11893.7 503.787   3
   6   7   0 754.467 132.204   3
   6   7   1 12337.0 536.252   3
   6   7   2 6755.10 404.582   3
   6   8  -1 271.864 69.9603   3
   6   8   0 2971.44 241.416   3
   6   8   1 640.823 123.836   3
   6   8   2 4604.40 313.600   3
   6   8   3 17344.5 607.838   3
   6   9   0 7408.48 319.026   3
   6   9   1 63.1451 41.3967   3
   6   9   2 2659.24 205.689   3
   6   9   3 269.003 72.0019   3
   6   9   4 6317.49 313.128   3
   6   9   5 1532.62 150.767   3
   6  10   2 1304.29 109.727   3
   6  10   3 4508.05 205.957   3
   6  10   4 4217.78 193.191   3
   7  -4  -4 9.55733 19.1717   5
   7  -3  -5 184.582 53.0964   5
   7   5  -1 561.092 112.945   3
   7   5   0 4163.63 309.284   3
   7   5   1 5663.12 367.677   3
   7   5   2 43114.7 1027.15   3
   7   6  -1 2931.27 241.187   3
   7   6   0 399.023 98.6246   3
   7   6   1 2418.77 236.358   3
   7   6   2 3761.46 297.594   3
   7   7  -1 39.7369 37.6816   3
   7   7   0 6745.18 354.310   3
   7   7   1 9098.68 425.906   3
   7   7   2 5551.49 339.680   3
   7   7   3 4196.48 299.348   3
   7   8   0 393.204 77.3150   3
   7   8   1 741.555 112.854   3
   7   8   2 9258.81 394.370   3
   7   8   3 5556.67 307.867   3
   7   8   4 11973.4 450.368   3
   7   9   1 2863.59 173.279   3
   7   9   2 1337.31 125.394   3
   7   9   3 1355.54 128.080   3
   7   9   4 817.134 99.1667   3
   7   9   5 3099.34 181.095   3
   8   6   0 2277.62 182.811   3
   8   6   1 180.419 63.2504   3
   8   6   2 4696.43 284.659   3
   8   6   3 74.5861 40.1817   3
   8   6   4 10189.9 422.646   3
   8   7   1 5692.59 277.425   3
   8   7   2 4500.02 255.694   3
   8   7   3-32.4183 48.3070   3
   8   7   4 8359.02 353.401   3
   8   7   5 2718.85 195.450   3
   8   7   6 5695.73 261.217   3
   8   8   2 3698.65 197.393   3
   8   8   3 3884.40 207.205   3
   8   8   4 3.93393 23.3594   3
   8   8   5 3926.61 196.953   3
   0   0   0    0.00    0.00   0
TITL 35br4aba in P1
REM P1 (#1 in standard setting)
CELL 1.54184   8.392786   9.281512   9.387704  81.6204  75.0485  81.5893
ZERR   10.00   0.000723   0.000793   0.000813   0.0071   0.0075   0.0071
LATT -1
SFAC C H N O Br
UNIT 10.00 10.00 10.00 10.00 10.00
TREF
HKLF 4
END
;
_shelx_hkl_checksum              89600
loop_
_space_group_symop_operation_xyz
'x, y, z'
'-x, -y, -z'
loop_
_atom_site_label
_atom_site_type_symbol
_atom_site_fract_x
_atom_site_fract_y
_atom_site_fract_z
_atom_site_U_iso_or_equiv
_atom_site_adp_type
_atom_site_occupancy
_atom_site_site_symmetry_order
_atom_site_calc_flag
_atom_site_refinement_flags_posn
_atom_site_refinement_flags_adp
Br1 Br 0.75175(6) 0.89465(4) -0.10476(5) 0.05631(17) Uani 1 1 d . .
Br2 Br 1.22615(6) 0.69279(4) 0.22939(6) 0.06557(19) Uani 1 1 d . .
O1 O 0.4845(3) -0.3248(3) 0.3935(3) 0.0463(6) Uani 1 1 d . .
O2 O 1.0363(3) 0.4283(2) 0.3067(3) 0.0456(6) Uani 1 1 d . .
H2A H 0.9904 0.3540 0.3172 0.068 Uiso 1 1 d R U
N1 N 0.6551(4) -0.3935(3) 0.5442(4) 0.0486(8) Uani 1 1 d . .
N2 N 0.8177(3) 0.2686(3) 0.2938(3) 0.0367(6) Uani 1 1 d . .
C4 C 0.7543(5) -0.0990(4) 0.4845(4) 0.0412(7) Uani 1 1 d . .
H4 H 0.7887 -0.1599 0.5615 0.049 Uiso 1 1 calc R U
C8 C 0.7552(4) 0.3751(4) 0.2138(4) 0.0375(7) Uani 1 1 d . .
H8 H 0.6602 0.3648 0.1844 0.045 Uiso 1 1 calc R U
C1 C 0.5921(4) -0.2963(3) 0.4478(4) 0.0348(7) Uani 1 1 d . .
C3 C 0.6072(4) -0.0570(3) 0.2934(4) 0.0378(7) Uani 1 1 d . .
H3 H 0.5390 -0.0883 0.2430 0.045 Uiso 1 1 calc R U
C11 C 0.9694(4) 0.5311(3) 0.2168(3) 0.0341(6) Uani 1 1 d . .
C14 C 0.9740(4) 0.7704(3) 0.0725(4) 0.0404(7) Uani 1 1 d . .
H14 H 1.0214 0.8576 0.0406 0.048 Uiso 1 1 calc R U
C13 C 1.0382(4) 0.6629(3) 0.1669(4) 0.0380(7) Uani 1 1 d . .
C5 C 0.6603(4) 0.0799(4) 0.2519(4) 0.0409(7) Uani 1 1 d . .
H5 H 0.6309 0.1388 0.1715 0.049 Uiso 1 1 calc R U
C10 C 0.7645(4) 0.6202(4) 0.0735(4) 0.0389(7) Uani 1 1 d . .
H10 H 0.6713 0.6072 0.0428 0.047 Uiso 1 1 calc R U
C7 C 0.7565(4) 0.1305(3) 0.3286(3) 0.0336(6) Uani 1 1 d . .
C12 C 0.8377(4) 0.7459(3) 0.0261(4) 0.0378(7) Uani 1 1 d . .
C9 C 0.8299(4) 0.5107(3) 0.1685(4) 0.0345(6) Uani 1 1 d . .
C2 C 0.6546(4) -0.1494(3) 0.4103(3) 0.0309(6) Uani 1 1 d . .
C6 C 0.8036(4) 0.0397(4) 0.4465(4) 0.0421(8) Uani 1 1 d . .
H6 H 0.8681 0.0728 0.4994 0.051 Uiso 1 1 calc R U
H1B H 0.622(5) -0.475(6) 0.563(5) 0.052(12) Uiso 1 1 d . .
H1A H 0.739(7) -0.371(7) 0.574(6) 0.088(18) Uiso 1 1 d . .
loop_
_atom_site_aniso_label
_atom_site_aniso_U_11
_atom_site_aniso_U_22
_atom_site_aniso_U_33
_atom_site_aniso_U_23
_atom_site_aniso_U_13
_atom_site_aniso_U_12
Br1 0.0772(3) 0.0378(2) 0.0584(3) 0.00986(17) -0.0366(2) 0.00028(19)
Br2 0.0744(3) 0.0374(2) 0.1038(4) 0.0208(2) -0.0597(3) -0.0270(2)
O1 0.0527(14) 0.0327(12) 0.0652(16) 0.0034(11) -0.0328(12) -0.0172(10)
O2 0.0580(14) 0.0275(11) 0.0606(15) 0.0132(10) -0.0349(12) -0.0163(10)
N1 0.0575(19) 0.0285(15) 0.069(2) 0.0111(13) -0.0341(16) -0.0188(13)
N2 0.0404(14) 0.0293(13) 0.0419(14) 0.0034(11) -0.0122(11) -0.0126(11)
C4 0.0540(19) 0.0300(16) 0.0465(18) 0.0073(13) -0.0265(15) -0.0134(14)
C8 0.0377(16) 0.0325(16) 0.0454(17) 0.0003(13) -0.0151(14) -0.0093(13)
C1 0.0370(16) 0.0267(15) 0.0417(17) -0.0004(12) -0.0117(13) -0.0068(12)
C3 0.0434(17) 0.0317(16) 0.0441(17) 0.0011(13) -0.0204(14) -0.0107(13)
C11 0.0403(16) 0.0267(15) 0.0363(16) 0.0006(12) -0.0129(13) -0.0050(12)
C14 0.0525(19) 0.0241(14) 0.0458(18) 0.0039(13) -0.0159(15) -0.0085(13)
C13 0.0452(18) 0.0260(15) 0.0479(18) 0.0023(13) -0.0209(14) -0.0097(13)
C5 0.0516(19) 0.0336(17) 0.0434(18) 0.0058(13) -0.0241(15) -0.0112(14)
C10 0.0401(17) 0.0358(16) 0.0443(18) -0.0023(13) -0.0189(14) -0.0028(13)
C7 0.0344(15) 0.0276(14) 0.0390(16) -0.0001(12) -0.0081(13) -0.0091(12)
C12 0.0495(18) 0.0252(15) 0.0403(17) 0.0020(12) -0.0192(14) 0.0002(13)
C9 0.0384(16) 0.0281(15) 0.0377(16) -0.0010(12) -0.0097(12) -0.0076(12)
C2 0.0315(14) 0.0256(14) 0.0363(15) 0.0005(11) -0.0092(12) -0.0081(11)
C6 0.0484(19) 0.0341(17) 0.054(2) 0.0012(14) -0.0279(16) -0.0148(14)
loop_
_atom_type_symbol
_atom_type_description
_atom_type_scat_dispersion_real
_atom_type_scat_dispersion_imag
_atom_type_scat_source
C C 0.0181 0.0091 'International Tables Vol C Tables 4.2.6.8 and 6.1.1.4'
H H 0.0000 0.0000 'International Tables Vol C Tables 4.2.6.8 and 6.1.1.4'
Br Br -0.6763 1.2805 'International Tables Vol C Tables 4.2.6.8 and 6.1.1.4'
N N 0.0311 0.0180 'International Tables Vol C Tables 4.2.6.8 and 6.1.1.4'
O O 0.0492 0.0322 'International Tables Vol C Tables 4.2.6.8 and 6.1.1.4'
loop_
_geom_angle_atom_site_label_1
_geom_angle_atom_site_label_2
_geom_angle_atom_site_label_3
_geom_angle
C11 O2 H2A 108.8
C1 N1 H1B 118(3)
C1 N1 H1A 118(4)
H1B N1 H1A 124(5)
C8 N2 C7 122.5(3)
C6 C4 C2 121.2(3)
C6 C4 H4 119.4
C2 C4 H4 119.4
N2 C8 C9 121.2(3)
N2 C8 H8 119.4
C9 C8 H8 119.4
O1 C1 N1 121.4(3)
O1 C1 C2 120.6(3)
N1 C1 C2 118.0(3)
C5 C3 C2 120.8(3)
C5 C3 H3 119.6
C2 C3 H3 119.6
O2 C11 C13 120.4(3)
O2 C11 C9 121.8(3)
C13 C11 C9 117.8(3)
C13 C14 C12 118.7(3)
C13 C14 H14 120.7
C12 C14 H14 120.7
C14 C13 C11 121.9(3)
C14 C13 Br2 119.4(2)
C11 C13 Br2 118.7(2)
C3 C5 C7 120.5(3)
C3 C5 H5 119.7
C7 C5 H5 119.7
C12 C10 C9 119.9(3)
C12 C10 H10 120.1
C9 C10 H10 120.1
C5 C7 C6 119.2(3)
C5 C7 N2 124.6(3)
C6 C7 N2 116.1(3)
C10 C12 C14 121.6(3)
C10 C12 Br1 120.3(3)
C14 C12 Br1 118.1(2)
C10 C9 C11 120.1(3)
C10 C9 C8 119.5(3)
C11 C9 C8 120.4(3)
C4 C2 C3 118.3(3)
C4 C2 C1 124.3(3)
C3 C2 C1 117.4(3)
C4 C6 C7 119.9(3)
C4 C6 H6 120.0
C7 C6 H6 120.0
loop_
_geom_bond_atom_site_label_1
_geom_bond_atom_site_label_2
_geom_bond_distance
Br1 C12 1.899(3)
Br2 C13 1.887(3)
O1 C1 1.222(4)
O2 C11 1.339(4)
O2 H2A 0.8200
N1 C1 1.335(4)
N1 H1B 0.82(5)
N1 H1A 0.89(6)
N2 C8 1.285(4)
N2 C7 1.413(4)
C4 C6 1.380(5)
C4 C2 1.384(5)
C4 H4 0.9300
C8 C9 1.447(4)
C8 H8 0.9300
C1 C2 1.494(4)
C3 C5 1.378(5)
C3 C2 1.395(4)
C3 H3 0.9300
C11 C13 1.396(5)
C11 C9 1.406(5)
C14 C13 1.380(4)
C14 C12 1.382(5)
C14 H14 0.9300
C5 C7 1.379(5)
C5 H5 0.9300
C10 C12 1.362(5)
C10 C9 1.398(5)
C10 H10 0.9300
C7 C6 1.395(4)
C6 H6 0.9300
loop_
_geom_torsion_atom_site_label_1
_geom_torsion_atom_site_label_2
_geom_torsion_atom_site_label_3
_geom_torsion_atom_site_label_4
_geom_torsion
C7 N2 C8 C9 -174.2(3)
C12 C14 C13 C11 -0.1(5)
C12 C14 C13 Br2 179.1(3)
O2 C11 C13 C14 179.1(3)
C9 C11 C13 C14 -0.5(5)
O2 C11 C13 Br2 -0.2(4)
C9 C11 C13 Br2 -179.8(2)
C2 C3 C5 C7 -2.3(5)
C3 C5 C7 C6 1.8(5)
C3 C5 C7 N2 179.5(3)
C8 N2 C7 C5 18.9(5)
C8 N2 C7 C6 -163.2(3)
C9 C10 C12 C14 -1.6(5)
C9 C10 C12 Br1 179.3(2)
C13 C14 C12 C10 1.2(5)
C13 C14 C12 Br1 -179.6(3)
C12 C10 C9 C11 0.9(5)
C12 C10 C9 C8 -177.6(3)
O2 C11 C9 C10 -179.5(3)
C13 C11 C9 C10 0.1(5)
O2 C11 C9 C8 -0.9(5)
C13 C11 C9 C8 178.7(3)
N2 C8 C9 C10 175.9(3)
N2 C8 C9 C11 -2.7(5)
C6 C4 C2 C3 1.2(5)
C6 C4 C2 C1 -178.1(3)
C5 C3 C2 C4 0.9(5)
C5 C3 C2 C1 -179.8(3)
O1 C1 C2 C4 168.5(3)
N1 C1 C2 C4 -10.2(5)
O1 C1 C2 C3 -10.8(5)
N1 C1 C2 C3 170.5(3)
C2 C4 C6 C7 -1.7(6)
C5 C7 C6 C4 0.3(5)
N2 C7 C6 C4 -177.7(3)
